data_PCOD9358822
_publ_section_title
;
Structure prediction by ZEFSAII (Michael W. Deem and Ramdas Pophale) SiO2 
 PCOD9358822
Probable space group: A M M 2
;
_chemical_formula_sum "Si O2"
_cell_formula_units_Z 64
_cell_length_a 19.511879
_cell_length_b 7.779556
_cell_length_c 20.191886
_cell_angle_alpha 90.000000
_cell_angle_beta 90.000000
_cell_angle_gamma 90.000000
_cell_volume 3065.002203
_symmetry_space_group_name_H-M "A M M 2"
_symmetry_group_IT_number 38
_symmetry_cell_setting 'orthorhombic'
loop_
_space_group_symop_operation_xyz
x,y,z
-x,-y,z
-x,y,z
x,-y,z
x,1/2+y,1/2+z
-x,1/2-y,1/2+z
-x,1/2+y,1/2+z
x,1/2-y,1/2+z
loop_
_atom_site_type_symbol
_atom_site_label
_atom_site_fract_x
_atom_site_fract_y
_atom_site_fract_z
Si Si1 0.078885 0.290382 0.485390
Si Si2 0.645577 0.293741 0.693891
Si Si3 0.322937 0.196368 0.438866
Si Si4 0.421619 0.206857 0.553869
Si Si5 0.078790 0.789707 0.135833
Si Si6 0.422599 0.299065 0.328444
Si Si7 0.797704 0.797670 0.227023
Si Si8 0.184150 0.802272 0.877996
O O1 0.083080 0.500000 0.484909
O O2 0.097566 0.238253 0.560436
O O3 0.126507 0.225835 0.426272
O O4 0.000000 0.243053 0.474619
O O5 0.646171 0.500000 0.700806
O O6 0.611940 0.247751 0.624213
O O7 0.599505 0.219917 0.752722
O O8 0.723729 0.228291 0.703563
O O9 0.370222 0.271054 0.496975
O O10 0.369898 0.198438 0.373774
O O11 0.254187 0.293504 0.419675
O O12 0.304005 0.000000 0.455568
O O13 0.500000 0.271488 0.548616
O O14 0.424868 0.000000 0.546209
O O15 0.136213 0.728365 0.187476
O O16 0.000000 0.735065 0.149371
O O17 0.077492 0.000000 0.137242
O O18 0.500000 0.238380 0.338523
O O19 0.418655 0.500000 0.346681
O O20 0.805453 0.779532 0.306033
O O21 0.795805 0.000000 0.211572
O O22 0.166599 0.000000 0.864379
#
# Coordination Sequence:
#
# PCOD9358822 Si02
#       8
#     8   8   8   8   8   8   8   8
#     4   8  16  32  55  84 114 146 188 234 280 333
#     4  11  23  37  57  85 118 153 190 234 283 341
#     4  11  23  40  60  84 115 152 192 237 288 346
#     4  10  23  42  61  82 111 147 188 237 292 347
#     4   8  15  31  56  83 111 147 191 235 279 330
#     4  11  23  39  61  86 113 147 190 239 287 339
#     4  10  21  36  55  82 116 150 189 235 280 334
#     4  11  22  35  57  85 116 153 191 236 286 338
#
# _framework density 20.880898999999999
#
# number of rings (size 3 to 8) (size 9 to 14) (size 15 to 20)
#    0.000    2.000    1.250    3.000    1.750    5.250 
#    0.000    0.000    0.000    1.125    0.000    3.500 
#    0.000    0.000    0.000    0.000    0.000    0.000 
#
# Total GULP energy -178707.935388 kJ/mol
# GULP energy per Si atom -5584.622981 kJ/mol
# Density = 2.083337 g / cm^3
# Si number density = 20.880899 Si / 1000 Ang^3
#
#
#
# Elastic Constant Matrix: (Units=GPa)
#
#
# Indices 1 2 3 4 5 6 
#
# 1 104.2383 -6.3810 42.8666 0.0000 0.0000 0.0000
# 2 -6.3810 26.7479 -17.9660 0.0000 0.0000 0.0000
# 3 42.8666 -17.9660 94.4251 0.0000 0.0000 0.0000
# 4 0.0000 0.0000 0.0000 9.4047 0.0000 0.0000
# 5 0.0000 0.0000 0.0000 0.0000 44.5313 0.0000
# 6 0.0000 0.0000 0.0000 0.0000 0.0000 -2.5435
#
#
#
# Elastic Compliance Matrix: (Units=1/GPa)
#
#
# Indices 1 2 3 4 5 6 
#
# 1 0.011814 -0.000899 -0.005534 0.000000 0.000000 0.000000
# 2 -0.000899 0.042932 0.008577 0.000000 0.000000 0.000000
# 3 -0.005534 0.008577 0.014735 0.000000 0.000000 0.000000
# 4 0.000000 0.000000 0.000000 0.106330 0.000000 0.000000
# 5 0.000000 0.000000 0.000000 0.000000 0.022456 0.000000
# 6 0.000000 0.000000 0.000000 0.000000 0.000000 -0.393155
#
#
# Mechanical properties :
#
#
# Convention : Reuss Voigt Hill
#
# Bulk Modulus (GPa) = 13.55596 29.16116 21.35856
# Shear Modulus (GPa) = -28.63941 24.07128 -2.28406
#
# Velocity S-wave (km/s) = -3.70748 3.39896 -1.04701
# Velocity P-wave (km/s) = 3.43817 5.42215 2.96468
#
# Compressibility (1/GPa) = 0.07376828
#
# Stress axis : x y z
#
# Youngs Moduli (GPa) = 84.64286 23.29240 67.86667
#
# Poissons Ratio (x) = 0.02094 0.37560
# Poissons Ratio (y) = 0.07609 -0.58207
# Poissons Ratio (z) = 0.46845 -0.19977
#
# Static dielectric constant tensor:
#      x y z
#    x 1.739610 0.000000 0.000000 
#    y 0.000000 1.793650 0.000000 
#    z 0.000000 0.000000 1.717490 
# 
# From -- ./inp_files/18902.got.cif
#   From: 2010.05.17/outbox.cif.g08.bks.cpg/sg38_10_cif.got.tgz:18902.got - 2010.06.03 18:07:57.
