data_PCOD9358767
_publ_section_title
;
Structure prediction by ZEFSAII (Michael W. Deem and Ramdas Pophale) SiO2 
 PCOD9358767
Probable space group: A M M 2
;
_chemical_formula_sum "Si O2"
_cell_formula_units_Z 64
_cell_length_a 9.006092
_cell_length_b 33.557920
_cell_length_c 11.972195
_cell_angle_alpha 90.000000
_cell_angle_beta 90.000000
_cell_angle_gamma 90.000000
_cell_volume 3618.305192
_symmetry_space_group_name_H-M "A M M 2"
_symmetry_group_IT_number 38
_symmetry_cell_setting 'orthorhombic'
loop_
_space_group_symop_operation_xyz
x,y,z
-x,-y,z
-x,y,z
x,-y,z
x,1/2+y,1/2+z
-x,1/2-y,1/2+z
-x,1/2+y,1/2+z
x,1/2-y,1/2+z
loop_
_atom_site_type_symbol
_atom_site_label
_atom_site_fract_x
_atom_site_fract_y
_atom_site_fract_z
Si Si1 0.179510 0.120532 0.842730
Si Si2 0.174399 0.391097 0.875063
Si Si3 0.823114 0.650431 0.097882
Si Si4 0.169915 0.952889 0.192664
Si Si5 0.327167 0.678361 0.746656
Si Si6 0.176560 0.809158 0.014060
Si Si7 0.676110 0.224407 0.468881
Si Si8 0.677132 0.046781 0.963200
O O1 0.225559 0.135960 0.719891
O O2 0.248997 0.078479 0.879814
O O3 0.000000 0.116659 0.843430
O O4 0.221306 0.154874 0.931787
O O5 0.197346 0.432461 0.811683
O O6 0.283788 0.361433 0.811848
O O7 0.000000 0.379737 0.857075
O O8 0.200637 0.384555 0.006163
O O9 0.000000 0.658444 0.103527
O O10 0.746301 0.690073 0.047999
O O11 0.000000 0.942704 0.159522
O O12 0.181361 0.000000 0.205350
O O13 0.273490 0.941197 0.089131
O O14 0.500000 0.679263 0.714612
O O15 0.224880 0.680989 0.639392
O O16 0.299420 0.712085 0.839749
O O17 0.000000 0.804752 0.005399
O O18 0.253044 0.767294 0.986867
O O19 0.500000 0.225404 0.489226
O O20 0.500000 0.048641 0.953821
O O21 0.722423 0.000000 0.946873
#
# Coordination Sequence:
#
# PCOD9358767 Si02
#       8
#     8   8   8   8   8   8   8   8
#     4  10  22  38  56  82 110 144 188 229 274 328
#     4   9  17  32  54  77 104 138 175 217 266 321
#     4   9  19  37  57  78 107 144 184 225 272 327
#     4   9  17  30  51  79 109 139 173 219 273 326
#     4  10  21  36  53  76 104 135 174 218 265 319
#     4  11  23  36  54  79 108 140 179 226 272 324
#     4  10  22  38  55  78 106 139 179 223 274 326
#     4  10  21  36  55  81 112 146 183 226 278 330
#
# _framework density 17.687837999999999
#
# number of rings (size 3 to 8) (size 9 to 14) (size 15 to 20)
#    0.000    2.250    0.000    2.250    1.750    7.250 
#    0.000    0.625    0.000    2.250    0.000    1.750 
#    0.000    0.000    0.000    0.000    0.000    0.000 
#
# Total GULP energy -178440.676075 kJ/mol
# GULP energy per Si atom -5576.271127 kJ/mol
# Density = 1.764758 g / cm^3
# Si number density = 17.687838 Si / 1000 Ang^3
#
#
#
# Elastic Constant Matrix: (Units=GPa)
#
#
# Indices 1 2 3 4 5 6 
#
# 1 32.5475 34.6847 48.9862 0.0000 0.0000 0.0000
# 2 34.6847 80.0760 67.0710 0.0000 0.0000 0.0000
# 3 48.9862 67.0710 119.4369 0.0000 0.0000 0.0000
# 4 0.0000 0.0000 0.0000 9.4118 0.0000 0.0000
# 5 0.0000 0.0000 0.0000 0.0000 16.4957 0.0000
# 6 0.0000 0.0000 0.0000 0.0000 0.0000 24.3261
#
#
#
# Elastic Compliance Matrix: (Units=1/GPa)
#
#
# Indices 1 2 3 4 5 6 
#
# 1 0.088953 -0.015051 -0.028032 0.000000 0.000000 0.000000
# 2 -0.015051 0.026125 -0.008498 0.000000 0.000000 0.000000
# 3 -0.028032 -0.008498 0.024642 0.000000 0.000000 0.000000
# 4 0.000000 0.000000 0.000000 0.106250 0.000000 0.000000
# 5 0.000000 0.000000 0.000000 0.000000 0.060622 0.000000
# 6 0.000000 0.000000 0.000000 0.000000 0.000000 0.041108
#
#
# Mechanical properties :
#
#
# Convention : Reuss Voigt Hill
#
# Bulk Modulus (GPa) = 27.35279 59.28268 43.31773
# Shear Modulus (GPa) = 10.79807 15.46794 13.13301
#
# Velocity S-wave (km/s) = 2.47347 2.96040 2.72782
# Velocity P-wave (km/s) = 4.86366 6.72860 5.87066
#
# Compressibility (1/GPa) = 0.03655934
#
# Stress axis : x y z
#
# Youngs Moduli (GPa) = 11.24191 38.27751 40.58181
#
# Poissons Ratio (x) = 0.57610 1.13757
# Poissons Ratio (y) = 0.16920 0.34486
# Poissons Ratio (z) = 0.31513 0.32527
#
# Static dielectric constant tensor:
#      x y z
#    x 1.600720 0.000000 0.000000 
#    y 0.000000 1.609980 0.000000 
#    z 0.000000 0.000000 1.615820 
# 
# From -- ./inp_files/8665.got.cif
#   From: 2010.05.17/outbox.cif.g08.bks.cpg/sg38_5_cif.got.tgz:8665.got - 2010.06.03 18:07:57.
