data_PCOD9358223
_publ_section_title
;
Structure prediction by ZEFSAII (Michael W. Deem and Ramdas Pophale) SiO2 
 PCOD9358223
Probable space group: A M M 2
;
_chemical_formula_sum "Si O2"
_cell_formula_units_Z 58
_cell_length_a 7.590087
_cell_length_b 20.575171
_cell_length_c 16.573041
_cell_angle_alpha 90.000000
_cell_angle_beta 90.000000
_cell_angle_gamma 90.000000
_cell_volume 2588.167694
_symmetry_space_group_name_H-M "A M M 2"
_symmetry_group_IT_number 38
_symmetry_cell_setting 'orthorhombic'
loop_
_space_group_symop_operation_xyz
x,y,z
-x,-y,z
-x,y,z
x,-y,z
x,1/2+y,1/2+z
-x,1/2-y,1/2+z
-x,1/2+y,1/2+z
x,1/2-y,1/2+z
loop_
_atom_site_type_symbol
_atom_site_label
_atom_site_fract_x
_atom_site_fract_y
_atom_site_fract_z
Si Si1 0.211775 0.571301 0.218280
Si Si2 0.288599 0.426787 0.878001
Si Si3 0.294814 0.231838 0.107351
Si Si4 0.289766 0.128897 0.547854
Si Si5 0.210087 0.204522 0.289997
Si Si6 0.500000 0.000000 0.068077
Si Si7 0.201160 0.897354 0.024561
Si Si8 0.785531 0.834870 0.858190
O O1 0.275576 0.500000 0.243409
O O2 0.257539 0.584733 0.125855
O O3 0.274955 0.627822 0.277697
O O4 0.000000 0.571447 0.224209
O O5 0.500000 0.431503 0.883515
O O6 0.223916 0.500000 0.858932
O O7 0.253226 0.368885 0.815151
O O8 0.220161 0.401873 0.965085
O O9 0.500000 0.226926 0.084472
O O10 0.222817 0.299510 0.071912
O O11 0.282212 0.226828 0.203788
O O12 0.196979 0.170148 0.072189
O O13 0.500000 0.134595 0.538187
O O14 0.271007 0.259496 0.354346
O O15 0.000000 0.208686 0.284670
O O16 0.343611 0.944096 0.063974
O O17 0.000000 0.922927 0.019941
O O18 0.266069 0.877011 0.935155
O O19 0.000000 0.834414 0.859860
#
# Coordination Sequence:
#
# PCOD9358223 Si02
#       8
#     8   8   8   8   8   2   8   8
#     4  10  20  35  57  88 128 170 210 260 319 389
#     4  10  22  41  62  88 127 170 209 263 332 394
#     4  11  22  41  64  97 130 165 222 277 330 397
#     4  10  21  38  63  92 126 165 210 268 327 396
#     4  11  22  40  66  95 126 166 218 272 330 398
#     4  12  26  48  64 102 132 168 234 276 328 418
#     4  11  24  45  70  95 133 178 219 279 339 393
#     4   9  20  39  63  92 127 169 216 263 327 399
#
# _framework density 22.409676999999999
#
# number of rings (size 3 to 8) (size 9 to 14) (size 15 to 20)
#    0.000    1.655    2.069    2.276    0.966    2.207 
#    4.966    0.000    0.000    0.000    0.000    0.000 
#    0.000    0.000    0.000    0.000    0.000    0.000 
#
# Total GULP energy -161794.931694 kJ/mol
# GULP energy per Si atom -5579.135576 kJ/mol
# Density = 2.235867 g / cm^3
# Si number density = 22.409677 Si / 1000 Ang^3
#
#
#
# Elastic Constant Matrix: (Units=GPa)
#
#
# Indices 1 2 3 4 5 6 
#
# 1 84.2320 17.6950 -7.3804 0.0000 0.0000 0.0000
# 2 17.6950 154.8318 -2.1097 0.0000 0.0000 0.0000
# 3 -7.3804 -2.1097 13.3710 0.0000 0.0000 0.0000
# 4 0.0000 0.0000 0.0000 -161.3052 0.0000 0.0000
# 5 0.0000 0.0000 0.0000 0.0000 17.5949 0.0000
# 6 0.0000 0.0000 0.0000 0.0000 0.0000 123.6531
#
#
#
# Elastic Compliance Matrix: (Units=1/GPa)
#
#
# Indices 1 2 3 4 5 6 
#
# 1 0.012757 -0.001365 0.006826 0.000000 0.000000 0.000000
# 2 -0.001365 0.006619 0.000291 0.000000 0.000000 0.000000
# 3 0.006826 0.000291 0.078603 0.000000 0.000000 0.000000
# 4 0.000000 0.000000 0.000000 -0.006199 0.000000 0.000000
# 5 0.000000 0.000000 0.000000 0.000000 0.056835 0.000000
# 6 0.000000 0.000000 0.000000 0.000000 0.000000 0.008087
#
#
# Mechanical properties :
#
#
# Convention : Reuss Voigt Hill
#
# Bulk Modulus (GPa) = 9.13392 29.87161 19.50277
# Shear Modulus (GPa) = 27.51935 12.27054 19.89495
#
# Velocity S-wave (km/s) = 3.50810 2.34253 2.98280
# Velocity P-wave (km/s) = 4.52700 4.54701 4.53702
#
# Compressibility (1/GPa) = 0.10948201
#
# Stress axis : x y z
#
# Youngs Moduli (GPa) = 78.38952 151.08997 12.72223
#
# Poissons Ratio (x) = 0.20622 -0.08684
# Poissons Ratio (y) = 0.10699 -0.00370
# Poissons Ratio (z) = -0.53509 -0.04395
#
# Static dielectric constant tensor:
#      x y z
#    x 1.822850 0.000000 0.000000 
#    y 0.000000 1.968460 0.000000 
#    z 0.000000 0.000000 1.839230 
# 
# From -- ./inp_files/16987.got.cif
#   From: 2010.05.17/outbox.cif.g08.bks.cpg/sg38_9_cif.got.tgz:16987.got - 2010.06.03 18:07:57.
