data_PCOD9358706
_publ_section_title
;
Structure prediction by ZEFSAII (Michael W. Deem and Ramdas Pophale) SiO2 
 PCOD9358706
Probable space group: A M M 2
;
_chemical_formula_sum "Si O2"
_cell_formula_units_Z 64
_cell_length_a 7.631833
_cell_length_b 14.023516
_cell_length_c 25.334761
_cell_angle_alpha 90.000000
_cell_angle_beta 90.000000
_cell_angle_gamma 90.000000
_cell_volume 2711.456145
_symmetry_space_group_name_H-M "A M M 2"
_symmetry_group_IT_number 38
_symmetry_cell_setting 'orthorhombic'
loop_
_space_group_symop_operation_xyz
x,y,z
-x,-y,z
-x,y,z
x,-y,z
x,1/2+y,1/2+z
-x,1/2-y,1/2+z
-x,1/2+y,1/2+z
x,1/2-y,1/2+z
loop_
_atom_site_type_symbol
_atom_site_label
_atom_site_fract_x
_atom_site_fract_y
_atom_site_fract_z
Si Si1 0.795211 0.296119 0.630550
Si Si2 0.287872 0.389653 0.181294
Si Si3 0.202616 0.200698 0.016477
Si Si4 0.213601 0.887843 0.237816
Si Si5 0.297100 0.107869 0.470177
Si Si6 0.210246 0.391239 0.410277
Si Si7 0.290459 0.389250 0.296938
Si Si8 0.203625 0.883784 0.352006
O O1 0.782390 0.182716 0.638351
O O2 0.718534 0.322675 0.573587
O O3 0.718894 0.339640 0.684377
O O4 0.000000 0.323826 0.630086
O O5 0.500000 0.386506 0.179767
O O6 0.236844 0.500000 0.174806
O O7 0.226840 0.354761 0.239789
O O8 0.205770 0.313492 0.005601
O O9 0.281636 0.156002 0.963396
O O10 0.000000 0.169412 0.018739
O O11 0.277390 0.851042 0.295189
O O12 0.000000 0.879075 0.239871
O O13 0.253417 0.000000 0.234111
O O14 0.500000 0.106198 0.485574
O O15 0.286881 0.137997 0.408446
O O16 0.226424 0.000000 0.474009
O O17 0.276024 0.500000 0.408374
O O18 0.245829 0.344322 0.353297
O O19 0.000000 0.392827 0.414164
O O20 0.500000 0.391237 0.293884
O O21 0.228054 0.500000 0.299450
O O22 0.000000 0.855280 0.355988
O O23 0.208490 0.000000 0.348393
#
# Coordination Sequence:
#
# PCOD9358706 Si02
#       8
#     8   8   8   8   8   8   8   8
#     4  10  21  35  52  76 102 131 173 216 247 286
#     4   9  19  36  55  74 101 136 167 201 253 309
#     4  10  22  37  51  72 103 137 172 209 251 297
#     4   8  15  30  53  79 105 133 164 200 247 302
#     4  10  21  36  54  76 101 131 169 212 254 297
#     4   9  18  33  53  77 104 133 166 206 250 295
#     4   8  15  30  52  77 103 131 164 201 248 307
#     4   8  14  28  52  79 105 132 161 197 248 307
#
# _framework density 23.603553999999999
#
# number of rings (size 3 to 8) (size 9 to 14) (size 15 to 20)
#    0.000    3.000    0.000    1.875    0.000    4.500 
#    0.000   10.625    0.000    1.125    0.000    1.750 
#    0.000    0.000    0.000    0.000    0.000    0.000 
#
# Total GULP energy -178586.949515 kJ/mol
# GULP energy per Si atom -5580.842172 kJ/mol
# Density = 2.354983 g / cm^3
# Si number density = 23.603554 Si / 1000 Ang^3
#
#
#
# Elastic Constant Matrix: (Units=GPa)
#
#
# Indices 1 2 3 4 5 6 
#
# 1 48.4188 -9.9892 1.6310 0.0000 0.0000 0.0000
# 2 -9.9892 42.6570 25.3961 0.0000 0.0000 0.0000
# 3 1.6310 25.3961 133.2179 0.0000 0.0000 0.0000
# 4 0.0000 0.0000 0.0000 19.3825 0.0000 0.0000
# 5 0.0000 0.0000 0.0000 0.0000 32.5492 0.0000
# 6 0.0000 0.0000 0.0000 0.0000 0.0000 1.7788
#
#
#
# Elastic Compliance Matrix: (Units=1/GPa)
#
#
# Indices 1 2 3 4 5 6 
#
# 1 0.021933 0.005974 -0.001407 0.000000 0.000000 0.000000
# 2 0.005974 0.028071 -0.005425 0.000000 0.000000 0.000000
# 3 -0.001407 -0.005425 0.008558 0.000000 0.000000 0.000000
# 4 0.000000 0.000000 0.000000 0.051593 0.000000 0.000000
# 5 0.000000 0.000000 0.000000 0.000000 0.030723 0.000000
# 6 0.000000 0.000000 0.000000 0.000000 0.000000 0.562161
#
#
# Mechanical properties :
#
#
# Convention : Reuss Voigt Hill
#
# Bulk Modulus (GPa) = 17.59122 28.70773 23.14948
# Shear Modulus (GPa) = 6.90890 24.55916 15.73403
#
# Velocity S-wave (km/s) = 1.71272 3.22916 2.58465
# Velocity P-wave (km/s) = 3.37345 5.10804 4.32853
#
# Compressibility (1/GPa) = 0.05684653
#
# Stress axis : x y z
#
# Youngs Moduli (GPa) = 45.59326 35.62352 116.85184
#
# Poissons Ratio (x) = -0.21282 0.16446
# Poissons Ratio (y) = -0.27238 0.63387
# Poissons Ratio (z) = 0.06417 0.19324
#
# Static dielectric constant tensor:
#      x y z
#    x 1.866880 0.000000 0.000000 
#    y 0.000000 1.923810 0.000000 
#    z 0.000000 0.000000 1.926270 
# 
# From -- ./inp_files/22217.got.cif
#   From: 2010.05.17/outbox.cif.g08.bks.cpg/sg38_12_cif.got.tgz:22217.got - 2010.06.03 18:07:57.
