data_PCOD9358352
_publ_section_title
;
Structure prediction by ZEFSAII (Michael W. Deem and Ramdas Pophale) SiO2 
 PCOD9358352
Probable space group: A M M 2
;
_chemical_formula_sum "Si O2"
_cell_formula_units_Z 48
_cell_length_a 8.496181
_cell_length_b 14.911308
_cell_length_c 21.014162
_cell_angle_alpha 90.000000
_cell_angle_beta 90.000000
_cell_angle_gamma 90.000000
_cell_volume 2662.266778
_symmetry_space_group_name_H-M "A M M 2"
_symmetry_group_IT_number 38
_symmetry_cell_setting 'orthorhombic'
loop_
_space_group_symop_operation_xyz
x,y,z
-x,-y,z
-x,y,z
x,-y,z
x,1/2+y,1/2+z
-x,1/2-y,1/2+z
-x,1/2+y,1/2+z
x,1/2-y,1/2+z
loop_
_atom_site_type_symbol
_atom_site_label
_atom_site_fract_x
_atom_site_fract_y
_atom_site_fract_z
Si Si1 0.690232 0.805400 0.291560
Si Si2 0.188637 0.500000 0.205870
Si Si3 0.691581 0.500000 0.749189
Si Si4 0.811189 0.689839 0.552165
Si Si5 0.808403 0.000000 0.853759
Si Si6 0.689272 0.500000 0.600488
Si Si7 0.311405 0.191293 0.667653
Si Si8 0.190175 0.691234 0.408352
O O1 0.500000 0.805027 0.291892
O O2 0.744230 0.907724 0.281560
O O3 0.741722 0.746552 0.230471
O O4 0.749896 0.760159 0.355738
O O5 0.241727 0.500000 0.279978
O O6 0.249306 0.590459 0.173381
O O7 0.000000 0.500000 0.205409
O O8 0.500000 0.500000 0.750440
O O9 0.736372 0.500000 0.674927
O O10 0.753847 0.589787 0.568554
O O11 0.746317 0.757191 0.605169
O O12 0.759706 0.712319 0.480256
O O13 0.000000 0.691404 0.554316
O O14 0.756493 0.908902 0.888131
O O15 0.000000 0.000000 0.854391
O O16 0.500000 0.500000 0.597674
O O17 0.500000 0.190731 0.667768
O O18 0.000000 0.691169 0.406854
#
# Coordination Sequence:
#
# PCOD9358352 Si02
#       8
#     8   4   4   8   4   4   8   8
#     4  10  20  36  59  83 112 150 193 239 286 342
#     4  11  21  36  61  89 117 151 193 240 292 347
#     4   9  18  36  57  83 114 146 184 235 290 337
#     4  11  23  38  58  86 120 158 198 239 289 350
#     4   9  17  32  56  83 113 149 182 228 288 343
#     4  11  20  36  60  87 122 154 187 241 298 347
#     4  11  22  38  60  86 117 153 197 244 288 343
#     4  10  21  38  57  82 118 153 190 237 288 344
#
# _framework density 18.029748999999999
#
# number of rings (size 3 to 8) (size 9 to 14) (size 15 to 20)
#    0.000    1.667    3.333    2.000    0.000    3.333 
#    0.000    1.667    0.000    4.000    0.000    0.000 
#    0.000    0.000    0.000    0.000    0.000    0.000 
#
# Total GULP energy -134062.680886 kJ/mol
# GULP energy per Si atom -5585.945037 kJ/mol
# Density = 1.798871 g / cm^3
# Si number density = 18.029749 Si / 1000 Ang^3
#
#
#
# Elastic Constant Matrix: (Units=GPa)
#
#
# Indices 1 2 3 4 5 6 
#
# 1 31.0513 31.7142 34.0808 0.0000 0.0000 0.0000
# 2 31.7142 172.3326 104.5484 0.0000 0.0000 0.0000
# 3 34.0808 104.5484 182.9390 0.0000 0.0000 0.0000
# 4 0.0000 0.0000 0.0000 21.7408 0.0000 0.0000
# 5 0.0000 0.0000 0.0000 0.0000 26.2505 0.0000
# 6 0.0000 0.0000 0.0000 0.0000 0.0000 22.8872
#
#
#
# Elastic Compliance Matrix: (Units=1/GPa)
#
#
# Indices 1 2 3 4 5 6 
#
# 1 0.042786 -0.004651 -0.005313 0.000000 0.000000 0.000000
# 2 -0.004651 0.009388 -0.004499 0.000000 0.000000 0.000000
# 3 -0.005313 -0.004499 0.009027 0.000000 0.000000 0.000000
# 4 0.000000 0.000000 0.000000 0.045996 0.000000 0.000000
# 5 0.000000 0.000000 0.000000 0.000000 0.038095 0.000000
# 6 0.000000 0.000000 0.000000 0.000000 0.000000 0.043693
#
#
# Mechanical properties :
#
#
# Convention : Reuss Voigt Hill
#
# Bulk Modulus (GPa) = 30.98257 80.77884 55.88070
# Shear Modulus (GPa) = 21.86579 28.57435 25.22007
#
# Velocity S-wave (km/s) = 3.48625 3.98533 3.74411
# Velocity P-wave (km/s) = 5.78158 8.12881 7.05352
#
# Compressibility (1/GPa) = 0.03227621
#
# Stress axis : x y z
#
# Youngs Moduli (GPa) = 23.37208 106.52175 110.77803
#
# Poissons Ratio (x) = 0.49539 0.58857
# Poissons Ratio (y) = 0.10869 0.49835
# Poissons Ratio (z) = 0.12418 0.47920
#
# Static dielectric constant tensor:
#      x y z
#    x 1.616960 0.000000 0.000000 
#    y 0.000000 1.593030 0.000000 
#    z 0.000000 0.000000 1.600920 
# 
# From -- ./inp_files/16735.got.cif
#   From: 2010.05.17/outbox.cif.g08.bks.cpg/sg38_9_cif.got.tgz:16735.got - 2010.06.03 18:07:57.
