data_PCOD9358527
_publ_section_title
;
Structure prediction by ZEFSAII (Michael W. Deem and Ramdas Pophale) SiO2 
 PCOD9358527
Probable space group: A M M 2
;
_chemical_formula_sum "Si O2"
_cell_formula_units_Z 48
_cell_length_a 8.751906
_cell_length_b 15.682063
_cell_length_c 19.056563
_cell_angle_alpha 90.000000
_cell_angle_beta 90.000000
_cell_angle_gamma 90.000000
_cell_volume 2615.474039
_symmetry_space_group_name_H-M "A M M 2"
_symmetry_group_IT_number 38
_symmetry_cell_setting 'orthorhombic'
loop_
_space_group_symop_operation_xyz
x,y,z
-x,-y,z
-x,y,z
x,-y,z
x,1/2+y,1/2+z
-x,1/2-y,1/2+z
-x,1/2+y,1/2+z
x,1/2-y,1/2+z
loop_
_atom_site_type_symbol
_atom_site_label
_atom_site_fract_x
_atom_site_fract_y
_atom_site_fract_z
Si Si1 0.682307 0.500000 0.613230
Si Si2 0.816258 0.662937 0.864878
Si Si3 0.816245 0.000000 0.616325
Si Si4 0.818253 0.500000 0.457242
Si Si5 0.682932 0.342414 0.201845
Si Si6 0.182619 0.843161 0.200288
Si Si7 0.682089 0.847336 0.866626
Si Si8 0.185935 0.500000 0.954148
O O1 0.500000 0.500000 0.613041
O O2 0.744071 0.500000 0.534052
O O3 0.743499 0.583202 0.653910
O O4 0.784358 0.642612 0.783109
O O5 0.736980 0.751834 0.883773
O O6 0.765053 0.584898 0.913288
O O7 0.000000 0.673252 0.871295
O O8 0.752443 0.916737 0.654955
O O9 0.768104 0.000000 0.534999
O O10 0.000000 0.000000 0.619596
O O11 0.763654 0.417345 0.413993
O O12 0.000000 0.500000 0.463828
O O13 0.500000 0.339922 0.194876
O O14 0.752328 0.250362 0.183181
O O15 0.718548 0.360239 0.283994
O O16 0.000000 0.844192 0.191145
O O17 0.500000 0.854826 0.875114
O O18 0.000000 0.500000 0.951934
#
# Coordination Sequence:
#
# PCOD9358527 Si02
#       8
#     4   8   4   4   8   8   8   4
#     4  12  25  40  58  83 118 154 187 230 288 348
#     4   9  18  36  61  85 111 147 190 233 278 331
#     4  11  22  35  54  81 114 151 192 237 282 334
#     4  12  25  40  59  83 113 150 191 234 284 344
#     4  10  21  38  59  83 114 151 190 235 287 341
#     4  10  20  37  62  88 112 144 190 238 282 336
#     4  10  21  38  59  84 113 145 185 235 287 337
#     4   9  19  35  55  81 113 147 182 225 274 322
#
# _framework density 18.352315000000001
#
# number of rings (size 3 to 8) (size 9 to 14) (size 15 to 20)
#    0.000    1.833    0.000    4.250    0.000    7.333 
#    0.000    7.083    0.000    0.000    0.000    0.000 
#    0.000    0.000    0.000    0.000    0.000    0.000 
#
# Total GULP energy -134131.163780 kJ/mol
# GULP energy per Si atom -5588.798491 kJ/mol
# Density = 1.831054 g / cm^3
# Si number density = 18.352315 Si / 1000 Ang^3
#
#
#
# Elastic Constant Matrix: (Units=GPa)
#
#
# Indices 1 2 3 4 5 6 
#
# 1 88.3336 81.1729 70.9858 0.0000 0.0000 0.0000
# 2 81.1729 193.6615 133.1570 0.0000 0.0000 0.0000
# 3 70.9858 133.1570 126.6463 0.0000 0.0000 0.0000
# 4 0.0000 0.0000 0.0000 -17.0025 0.0000 0.0000
# 5 0.0000 0.0000 0.0000 0.0000 25.6029 0.0000
# 6 0.0000 0.0000 0.0000 0.0000 0.0000 -205.7042
#
#
#
# Elastic Compliance Matrix: (Units=1/GPa)
#
#
# Indices 1 2 3 4 5 6 
#
# 1 0.020943 -0.002552 -0.009056 0.000000 0.000000 0.000000
# 2 -0.002552 0.018947 -0.018491 0.000000 0.000000 0.000000
# 3 -0.009056 -0.018491 0.032413 0.000000 0.000000 0.000000
# 4 0.000000 0.000000 0.000000 -0.058815 0.000000 0.000000
# 5 0.000000 0.000000 0.000000 0.000000 0.039058 0.000000
# 6 0.000000 0.000000 0.000000 0.000000 0.000000 -0.004861
#
#
# Mechanical properties :
#
#
# Convention : Reuss Voigt Hill
#
# Bulk Modulus (GPa) = 82.59951 108.80807 95.70379
# Shear Modulus (GPa) = 44.67606 -31.19903 6.73852
#
# Velocity S-wave (km/s) = 4.93927 -4.12758 1.91826
# Velocity P-wave (km/s) = 8.81101 6.05816 7.56092
#
# Compressibility (1/GPa) = 0.01210661
#
# Stress axis : x y z
#
# Youngs Moduli (GPa) = 47.74914 52.77865 30.85158
#
# Poissons Ratio (x) = 0.13467 0.27938
# Poissons Ratio (y) = 0.12184 0.57047
# Poissons Ratio (z) = 0.43240 0.97592
#
# Static dielectric constant tensor:
#      x y z
#    x 1.612280 0.000000 0.000000 
#    y 0.000000 1.595750 0.000000 
#    z 0.000000 0.000000 1.611150 
# 
# From -- ./inp_files/16733.got.cif
#   From: 2010.05.17/outbox.cif.g08.bks.cpg/sg38_9_cif.got.tgz:16733.got - 2010.06.03 18:07:57.
