data_PCOD9358281
_publ_section_title
;
Structure prediction by ZEFSAII (Michael W. Deem and Ramdas Pophale) SiO2 
 PCOD9358281
Probable space group: A M M 2
;
_chemical_formula_sum "Si O2"
_cell_formula_units_Z 48
_cell_length_a 7.947387
_cell_length_b 30.923666
_cell_length_c 10.344249
_cell_angle_alpha 90.000000
_cell_angle_beta 90.000000
_cell_angle_gamma 90.000000
_cell_volume 2542.226852
_symmetry_space_group_name_H-M "A M M 2"
_symmetry_group_IT_number 38
_symmetry_cell_setting 'orthorhombic'
loop_
_space_group_symop_operation_xyz
x,y,z
-x,-y,z
-x,y,z
x,-y,z
x,1/2+y,1/2+z
-x,1/2-y,1/2+z
-x,1/2+y,1/2+z
x,1/2-y,1/2+z
loop_
_atom_site_type_symbol
_atom_site_label
_atom_site_fract_x
_atom_site_fract_y
_atom_site_fract_z
Si Si1 0.195296 0.716722 0.380280
Si Si2 0.306420 0.718622 0.094756
Si Si3 0.794453 0.049120 0.403149
Si Si4 0.205591 0.049146 0.107332
Si Si5 0.796868 0.380715 0.108832
Si Si6 0.794683 0.119316 0.901595
O O1 0.281185 0.730136 0.245817
O O2 0.210099 0.750552 0.495763
O O3 0.257876 0.669129 0.423138
O O4 0.000000 0.711236 0.344797
O O5 0.500000 0.723406 0.060637
O O6 0.255150 0.668489 0.081200
O O7 0.743281 0.058109 0.255267
O O8 0.734725 0.084955 0.503861
O O9 0.000000 0.049658 0.404800
O O10 0.743493 0.000000 0.436224
O O11 0.000000 0.049593 0.105839
O O12 0.256522 0.000000 0.074120
O O13 0.265836 0.085108 0.007021
O O14 0.743292 0.391842 0.255076
O O15 0.000000 0.381826 0.107267
O O16 0.000000 0.118262 0.906498
#
# Coordination Sequence:
#
# PCOD9358281 Si02
#       6
#     8   8   8   8   8   8
#     4  10  20  36  55  75 101 135 175 214 256 310
#     4  11  22  36  53  76 105 134 169 215 265 313
#     4   8  14  24  40  65  96 127 161 204 251 298
#     4   8  13  22  37  62  96 125 149 188 244 295
#     4   9  17  30  47  68  96 129 165 204 249 303
#     4   8  15  26  41  63  90 122 159 197 237 287
#
# _framework density 18.881083
#
# number of rings (size 3 to 8) (size 9 to 14) (size 15 to 20)
#    0.000    3.000    0.000    4.000    0.000    2.000 
#    0.000    6.667    0.000    0.500    0.000    0.000 
#    0.000    8.667    0.000    0.000    0.000    0.000 
#
# Total GULP energy -133791.791273 kJ/mol
# GULP energy per Si atom -5574.657970 kJ/mol
# Density = 1.883811 g / cm^3
# Si number density = 18.881083 Si / 1000 Ang^3
#
#
#
# Elastic Constant Matrix: (Units=GPa)
#
#
# Indices 1 2 3 4 5 6 
#
# 1 18.6769 -7.0829 -6.9945 0.0000 0.0000 0.0000
# 2 -7.0829 102.9872 92.4714 0.0000 0.0000 0.0000
# 3 -6.9945 92.4714 110.2666 0.0000 0.0000 0.0000
# 4 0.0000 0.0000 0.0000 44.2578 0.0000 0.0000
# 5 0.0000 0.0000 0.0000 0.0000 7.9573 0.0000
# 6 0.0000 0.0000 0.0000 0.0000 0.0000 -5.9610
#
#
#
# Elastic Compliance Matrix: (Units=1/GPa)
#
#
# Indices 1 2 3 4 5 6 
#
# 1 0.055021 0.002633 0.001282 0.000000 0.000000 0.000000
# 2 0.002633 0.039435 -0.032904 0.000000 0.000000 0.000000
# 3 0.001282 -0.032904 0.036744 0.000000 0.000000 0.000000
# 4 0.000000 0.000000 0.000000 0.022595 0.000000 0.000000
# 5 0.000000 0.000000 0.000000 0.000000 0.125671 0.000000
# 6 0.000000 0.000000 0.000000 0.000000 0.000000 -0.167758
#
#
# Mechanical properties :
#
#
# Convention : Reuss Voigt Hill
#
# Bulk Modulus (GPa) = 13.65713 43.19096 28.42404
# Shear Modulus (GPa) = 25.76075 19.48660 22.62368
#
# Velocity S-wave (km/s) = 3.69774 3.21607 3.46529
# Velocity P-wave (km/s) = 5.04777 6.05935 5.57655
#
# Compressibility (1/GPa) = 0.07322181
#
# Stress axis : x y z
#
# Youngs Moduli (GPa) = 18.17502 25.35792 27.21515
#
# Poissons Ratio (x) = -0.06676 -0.03490
# Poissons Ratio (y) = -0.04785 0.89549
# Poissons Ratio (z) = -0.02330 0.83438
#
# Static dielectric constant tensor:
#      x y z
#    x 1.667430 0.000000 0.000000 
#    y 0.000000 1.642270 0.000000 
#    z 0.000000 0.000000 1.630480 
# 
# From -- ./inp_files/8143.got.cif
#   From: 2010.05.17/outbox.cif.g08.bks.cpg/sg38_5_cif.got.tgz:8143.got - 2010.06.03 18:07:57.
