data_PCOD9358782
_publ_section_title
;
Structure prediction by ZEFSAII (Michael W. Deem and Ramdas Pophale) SiO2 
 PCOD9358782
Probable space group: A M M 2
;
_chemical_formula_sum "Si O2"
_cell_formula_units_Z 64
_cell_length_a 21.119477
_cell_length_b 7.669006
_cell_length_c 18.976116
_cell_angle_alpha 90.000000
_cell_angle_beta 90.000000
_cell_angle_gamma 90.000000
_cell_volume 3073.474139
_symmetry_space_group_name_H-M "A M M 2"
_symmetry_group_IT_number 38
_symmetry_cell_setting 'orthorhombic'
loop_
_space_group_symop_operation_xyz
x,y,z
-x,-y,z
-x,y,z
x,-y,z
x,1/2+y,1/2+z
-x,1/2-y,1/2+z
-x,1/2+y,1/2+z
x,1/2-y,1/2+z
loop_
_atom_site_type_symbol
_atom_site_label
_atom_site_fract_x
_atom_site_fract_y
_atom_site_fract_z
Si Si1 0.193687 0.787821 0.343010
Si Si2 0.815656 0.297085 0.684643
Si Si3 0.071575 0.289014 0.589052
Si Si4 0.428366 0.712621 0.342953
Si Si5 0.571224 0.712723 0.180706
Si Si6 0.306195 0.797794 0.599289
Si Si7 0.929034 0.708124 0.926329
Si Si8 0.686180 0.295034 0.438599
O O1 0.197850 0.725256 0.262356
O O2 0.127725 0.727015 0.377656
O O3 0.252571 0.728349 0.389816
O O4 0.195091 0.000000 0.344660
O O5 0.831395 0.500000 0.696418
O O6 0.875375 0.220930 0.642394
O O7 0.754131 0.288408 0.635645
O O8 0.071680 0.500000 0.591648
O O9 0.086149 0.240126 0.508388
O O10 0.000000 0.229421 0.605035
O O11 0.500000 0.766117 0.361344
O O12 0.427071 0.500000 0.343452
O O13 0.415800 0.764233 0.261840
O O14 0.374753 0.775033 0.396253
O O15 0.500000 0.770846 0.161858
O O16 0.570001 0.500000 0.178993
O O17 0.627506 0.772282 0.130154
O O18 0.304532 0.785230 0.515311
O O19 0.302310 0.000000 0.619998
O O20 0.931929 0.500000 0.915961
O O21 0.000000 0.778473 0.912716
O O22 0.676191 0.500000 0.450509
#
# Coordination Sequence:
#
# PCOD9358782 Si02
#       8
#     8   8   8   8   8   8   8   8
#     4  10  21  36  54  77 105 136 171 214 261 307
#     4  10  21  36  54  77 105 136 171 214 261 307
#     4   9  18  33  53  76 102 134 171 209 251 301
#     4   8  15  30  52  76 101 131 169 211 254 302
#     4   8  15  30  52  76 101 131 169 211 254 302
#     4  11  22  35  53  77 105 138 175 214 257 305
#     4   9  18  33  53  76 102 134 171 209 251 301
#     4  11  22  35  53  77 105 138 175 214 257 305
#
# _framework density 20.823342
#
# number of rings (size 3 to 8) (size 9 to 14) (size 15 to 20)
#    0.000    2.500    0.000    3.000    0.000    5.500 
#    0.000    2.500    0.000    2.250    0.000   14.000 
#    0.000    0.000    0.000    0.000    0.000    0.000 
#
# Total GULP energy -178661.161796 kJ/mol
# GULP energy per Si atom -5583.161306 kJ/mol
# Density = 2.077595 g / cm^3
# Si number density = 20.823342 Si / 1000 Ang^3
#
#
#
# Elastic Constant Matrix: (Units=GPa)
#
#
# Indices 1 2 3 4 5 6 
#
# 1 134.6702 -9.7325 97.4734 0.0000 0.0000 0.0000
# 2 -9.7325 35.9405 -13.9198 0.0000 0.0000 0.0000
# 3 97.4734 -13.9198 132.8726 0.0000 0.0000 0.0000
# 4 0.0000 0.0000 0.0000 5.6539 0.0000 0.0000
# 5 0.0000 0.0000 0.0000 0.0000 47.0345 0.0000
# 6 0.0000 0.0000 0.0000 0.0000 0.0000 19.4309
#
#
#
# Elastic Compliance Matrix: (Units=1/GPa)
#
#
# Indices 1 2 3 4 5 6 
#
# 1 0.015833 -0.000220 -0.011638 0.000000 0.000000 0.000000
# 2 -0.000220 0.029003 0.003200 0.000000 0.000000 0.000000
# 3 -0.011638 0.003200 0.016399 0.000000 0.000000 0.000000
# 4 0.000000 0.000000 0.000000 0.176868 0.000000 0.000000
# 5 0.000000 0.000000 0.000000 0.000000 0.021261 0.000000
# 6 0.000000 0.000000 0.000000 0.000000 0.000000 0.051464
#
#
# Mechanical properties :
#
#
# Convention : Reuss Voigt Hill
#
# Bulk Modulus (GPa) = 22.76918 50.12504 36.44711
# Shear Modulus (GPa) = 14.58640 29.73468 22.16054
#
# Velocity S-wave (km/s) = 2.64954 3.78292 3.26577
# Velocity P-wave (km/s) = 4.50758 6.57301 5.63572
#
# Compressibility (1/GPa) = 0.04391902
#
# Stress axis : x y z
#
# Youngs Moduli (GPa) = 63.15852 34.47860 60.98048
#
# Poissons Ratio (x) = 0.00758 0.70969
# Poissons Ratio (y) = 0.01389 -0.19512
# Poissons Ratio (z) = 0.73504 -0.11032
#
# Static dielectric constant tensor:
#      x y z
#    x 1.738460 0.000000 0.000000 
#    y 0.000000 1.767380 0.000000 
#    z 0.000000 0.000000 1.702630 
# 
# From -- ./inp_files/18865.got.cif
#   From: 2010.05.17/outbox.cif.g08.bks.cpg/sg38_10_cif.got.tgz:18865.got - 2010.06.03 18:07:57.
