data_PCOD9358533
_publ_section_title
;
Structure prediction by ZEFSAII (Michael W. Deem and Ramdas Pophale) SiO2 
 PCOD9358533
Probable space group: A M M 2
;
_chemical_formula_sum "Si O2"
_cell_formula_units_Z 48
_cell_length_a 8.324441
_cell_length_b 23.513530
_cell_length_c 11.957698
_cell_angle_alpha 90.000000
_cell_angle_beta 90.000000
_cell_angle_gamma 90.000000
_cell_volume 2340.563852
_symmetry_space_group_name_H-M "A M M 2"
_symmetry_group_IT_number 38
_symmetry_cell_setting 'orthorhombic'
loop_
_space_group_symop_operation_xyz
x,y,z
-x,-y,z
-x,y,z
x,-y,z
x,1/2+y,1/2+z
-x,1/2-y,1/2+z
-x,1/2+y,1/2+z
x,1/2-y,1/2+z
loop_
_atom_site_type_symbol
_atom_site_label
_atom_site_fract_x
_atom_site_fract_y
_atom_site_fract_z
Si Si1 0.311042 0.761332 0.513930
Si Si2 0.810682 0.357616 0.564529
Si Si3 0.805640 0.437423 0.980865
Si Si4 0.807535 0.354595 0.178005
Si Si5 0.806456 0.157632 0.316117
Si Si6 0.309357 0.065697 0.876479
O O1 0.500000 0.750736 0.517483
O O2 0.219069 0.702001 0.502602
O O3 0.260808 0.795540 0.627523
O O4 0.268308 0.798729 0.404734
O O5 0.749224 0.343954 0.689332
O O6 0.730153 0.409515 0.499023
O O7 0.000000 0.369608 0.571345
O O8 0.738119 0.500000 0.984751
O O9 0.772177 0.404122 0.868007
O O10 0.000000 0.440180 0.990426
O O11 0.751231 0.399564 0.084045
O O12 0.760337 0.386305 0.292197
O O13 0.000000 0.348420 0.176300
O O14 0.000000 0.167242 0.317633
O O15 0.500000 0.064581 0.860156
O O16 0.249748 0.000000 0.860086
#
# Coordination Sequence:
#
# PCOD9358533 Si02
#       6
#     8   8   8   8   8   8
#     4  11  23  39  62  90 124 160 202 257 321 381
#     4  11  24  41  63  88 120 163 210 259 309 372
#     4   8  14  28  54  86 115 144 185 241 297 346
#     4  10  20  37  62  91 123 161 208 257 305 364
#     4   9  20  38  59  86 117 152 200 252 304 364
#     4  11  25  43  62  90 130 171 211 257 316 381
#
# _framework density 20.507878000000002
#
# number of rings (size 3 to 8) (size 9 to 14) (size 15 to 20)
#    0.000    2.000    0.000    4.500    2.333    4.000 
#    0.000    1.667    0.000    4.500    0.000    0.000 
#    0.000    0.000    0.000    0.000    0.000    0.000 
#
# Total GULP energy -133890.478478 kJ/mol
# GULP energy per Si atom -5578.769937 kJ/mol
# Density = 2.046120 g / cm^3
# Si number density = 20.507878 Si / 1000 Ang^3
#
#
#
# Elastic Constant Matrix: (Units=GPa)
#
#
# Indices 1 2 3 4 5 6 
#
# 1 28.1070 -11.0883 2.9328 0.0000 0.0000 0.0000
# 2 -11.0883 70.4331 11.3505 0.0000 0.0000 0.0000
# 3 2.9328 11.3505 84.9335 0.0000 0.0000 0.0000
# 4 0.0000 0.0000 0.0000 14.7477 0.0000 0.0000
# 5 0.0000 0.0000 0.0000 0.0000 23.1379 0.0000
# 6 0.0000 0.0000 0.0000 0.0000 0.0000 18.8803
#
#
#
# Elastic Compliance Matrix: (Units=1/GPa)
#
#
# Indices 1 2 3 4 5 6 
#
# 1 0.038324 0.006384 -0.002177 0.000000 0.000000 0.000000
# 2 0.006384 0.015574 -0.002302 0.000000 0.000000 0.000000
# 3 -0.002177 -0.002302 0.012157 0.000000 0.000000 0.000000
# 4 0.000000 0.000000 0.000000 0.067807 0.000000 0.000000
# 5 0.000000 0.000000 0.000000 0.000000 0.043219 0.000000
# 6 0.000000 0.000000 0.000000 0.000000 0.000000 0.052965
#
#
# Mechanical properties :
#
#
# Convention : Reuss Voigt Hill
#
# Bulk Modulus (GPa) = 14.31306 21.09596 17.70451
# Shear Modulus (GPa) = 20.03823 23.37176 21.70500
#
# Velocity S-wave (km/s) = 3.12925 3.37953 3.25679
# Velocity P-wave (km/s) = 4.47780 5.05345 4.77431
#
# Compressibility (1/GPa) = 0.06986624
#
# Stress axis : x y z
#
# Youngs Moduli (GPa) = 26.09331 64.21014 82.25928
#
# Poissons Ratio (x) = -0.40993 0.17904
# Poissons Ratio (y) = -0.16658 0.18934
# Poissons Ratio (z) = 0.05679 0.14780
#
# Static dielectric constant tensor:
#      x y z
#    x 1.705160 0.000000 0.000000 
#    y 0.000000 1.747230 0.000000 
#    z 0.000000 0.000000 1.756970 
# 
# From -- ./inp_files/8148.got.cif
#   From: 2010.05.17/outbox.cif.g08.bks.cpg/sg38_5_cif.got.tgz:8148.got - 2010.06.03 18:07:57.
