data_PCOD9358324
_publ_section_title
;
Structure prediction by ZEFSAII (Michael W. Deem and Ramdas Pophale) SiO2 
 PCOD9358324
Probable space group: A M M 2
;
_chemical_formula_sum "Si O2"
_cell_formula_units_Z 56
_cell_length_a 19.953851
_cell_length_b 8.760961
_cell_length_c 16.278385
_cell_angle_alpha 90.000000
_cell_angle_beta 90.000000
_cell_angle_gamma 90.000000
_cell_volume 2845.704415
_symmetry_space_group_name_H-M "A M M 2"
_symmetry_group_IT_number 38
_symmetry_cell_setting 'orthorhombic'
loop_
_space_group_symop_operation_xyz
x,y,z
-x,-y,z
-x,y,z
x,-y,z
x,1/2+y,1/2+z
-x,1/2-y,1/2+z
-x,1/2+y,1/2+z
x,1/2-y,1/2+z
loop_
_atom_site_type_symbol
_atom_site_label
_atom_site_fract_x
_atom_site_fract_y
_atom_site_fract_z
Si Si1 0.156922 0.686267 0.744160
Si Si2 0.077728 0.184348 0.081626
Si Si3 0.424939 0.318226 0.925653
Si Si4 0.296382 0.178228 0.174909
Si Si5 0.288624 0.676607 0.483410
Si Si6 0.574261 0.180025 0.744752
Si Si7 0.844693 0.181544 0.426018
O O1 0.157087 0.500000 0.743006
O O2 0.113017 0.736564 0.666329
O O3 0.233976 0.733626 0.729131
O O4 0.133381 0.733306 0.834729
O O5 0.000000 0.229916 0.080510
O O6 0.081222 0.000000 0.080775
O O7 0.115434 0.243766 0.001001
O O8 0.500000 0.274122 0.954334
O O9 0.418109 0.500000 0.934549
O O10 0.363658 0.234954 0.969106
O O11 0.420929 0.272022 0.829886
O O12 0.364058 0.270301 0.189161
O O13 0.309449 0.000000 0.194231
O O14 0.274030 0.186337 0.080413
O O15 0.283040 0.500000 0.458152
O O16 0.233398 0.775214 0.436579
O O17 0.500000 0.209200 0.708821
O O18 0.578639 0.000000 0.762932
O O19 0.852516 0.000000 0.430979
#
# Coordination Sequence:
#
# PCOD9358324 Si02
#       7
#     8   8   8   8   8   8   8
#     4   9  19  38  61  87 118 157 202 241 290 358
#     4  10  21  41  66  89 121 163 201 241 296 364
#     4  10  21  37  56  79 112 154 199 248 304 363
#     4  10  20  36  58  81 112 152 198 248 297 360
#     4  11  22  37  59  85 116 155 202 251 300 362
#     4  10  21  36  54  79 112 149 195 250 304 360
#     4  11  22  37  63  94 124 158 200 253 305 357
#
# _framework density 19.678782999999999
#
# number of rings (size 3 to 8) (size 9 to 14) (size 15 to 20)
#    0.000    1.857    1.429    2.571    0.000    5.429 
#    0.000    6.429    0.000    0.000    0.000    0.000 
#    0.000    0.000    0.000    0.000    0.000    0.000 
#
# Total GULP energy -156362.631585 kJ/mol
# GULP energy per Si atom -5584.379699 kJ/mol
# Density = 1.963399 g / cm^3
# Si number density = 19.678783 Si / 1000 Ang^3
#
#
#
# Elastic Constant Matrix: (Units=GPa)
#
#
# Indices 1 2 3 4 5 6 
#
# 1 106.0844 14.1089 54.4648 0.0000 0.0000 0.0000
# 2 14.1089 18.5742 13.8801 0.0000 0.0000 0.0000
# 3 54.4648 13.8801 108.2312 0.0000 0.0000 0.0000
# 4 0.0000 0.0000 0.0000 27.1229 0.0000 0.0000
# 5 0.0000 0.0000 0.0000 0.0000 14.9238 0.0000
# 6 0.0000 0.0000 0.0000 0.0000 0.0000 23.6931
#
#
#
# Elastic Compliance Matrix: (Units=1/GPa)
#
#
# Indices 1 2 3 4 5 6 
#
# 1 0.013218 -0.005607 -0.005933 0.000000 0.000000 0.000000
# 2 -0.005607 0.061923 -0.005120 0.000000 0.000000 0.000000
# 3 -0.005933 -0.005120 0.012881 0.000000 0.000000 0.000000
# 4 0.000000 0.000000 0.000000 0.036869 0.000000 0.000000
# 5 0.000000 0.000000 0.000000 0.000000 0.067007 0.000000
# 6 0.000000 0.000000 0.000000 0.000000 0.000000 0.042206
#
#
# Mechanical properties :
#
#
# Convention : Reuss Voigt Hill
#
# Bulk Modulus (GPa) = 18.28023 44.19969 31.23996
# Shear Modulus (GPa) = 17.50341 23.17702 20.34022
#
# Velocity S-wave (km/s) = 2.98561 3.43558 3.21847
# Velocity P-wave (km/s) = 4.60376 6.18442 5.45168
#
# Compressibility (1/GPa) = 0.05470389
#
# Stress axis : x y z
#
# Youngs Moduli (GPa) = 75.65424 16.14908 77.63082
#
# Poissons Ratio (x) = 0.09055 0.46055
# Poissons Ratio (y) = 0.42420 0.39744
# Poissons Ratio (z) = 0.44883 0.08268
#
# Static dielectric constant tensor:
#      x y z
#    x 1.683610 0.000000 0.000000 
#    y 0.000000 1.664690 0.000000 
#    z 0.000000 0.000000 1.694940 
# 
# From -- ./inp_files/15436.got.cif
#   From: 2010.05.17/outbox.cif.g08.bks.cpg/sg38_8_cif.got.tgz:15436.got - 2010.06.03 18:07:57.
