data_PCOD9358871
_publ_section_title
;
Structure prediction by ZEFSAII (Michael W. Deem and Ramdas Pophale) SiO2 
 PCOD9358871
Probable space group: A M M 2
;
_chemical_formula_sum "Si O2"
_cell_formula_units_Z 64
_cell_length_a 20.541204
_cell_length_b 8.801477
_cell_length_c 20.561162
_cell_angle_alpha 90.000000
_cell_angle_beta 90.000000
_cell_angle_gamma 90.000000
_cell_volume 3717.312816
_symmetry_space_group_name_H-M "A M M 2"
_symmetry_group_IT_number 38
_symmetry_cell_setting 'orthorhombic'
loop_
_space_group_symop_operation_xyz
x,y,z
-x,-y,z
-x,y,z
x,-y,z
x,1/2+y,1/2+z
-x,1/2-y,1/2+z
-x,1/2+y,1/2+z
x,1/2-y,1/2+z
loop_
_atom_site_type_symbol
_atom_site_label
_atom_site_fract_x
_atom_site_fract_y
_atom_site_fract_z
Si Si1 0.925657 0.316904 0.484830
Si Si2 0.926157 0.185015 0.835771
Si Si3 0.326928 0.682075 0.088160
Si Si4 0.822824 0.817922 0.584249
Si Si5 0.575705 0.182832 0.983236
Si Si6 0.324865 0.680936 0.729852
Si Si7 0.817124 0.316067 0.233793
Si Si8 0.576017 0.817388 0.832912
O O1 0.923975 0.500000 0.486141
O O2 0.912000 0.269296 0.410187
O O3 0.873462 0.254325 0.534932
O O4 0.000000 0.269831 0.500488
O O5 0.871746 0.234678 0.784811
O O6 0.000000 0.233325 0.819393
O O7 0.926240 0.000000 0.834754
O O8 0.329158 0.500000 0.093997
O O9 0.252321 0.725556 0.070914
O O10 0.341711 0.753361 0.158557
O O11 0.376490 0.739074 0.033847
O O12 0.835931 0.776516 0.659572
O O13 0.827348 0.000000 0.579186
O O14 0.500000 0.222322 0.995602
O O15 0.590572 0.222843 0.908120
O O16 0.581301 0.000000 0.988858
O O17 0.322900 0.500000 0.727027
O O18 0.253415 0.745583 0.747067
O O19 0.376776 0.736658 0.782623
O O20 0.811182 0.500000 0.236763
O O21 0.500000 0.781153 0.820837
O O22 0.583105 0.000000 0.826905
#
# Coordination Sequence:
#
# PCOD9358871 Si02
#       8
#     8   8   8   8   8   8   8   8
#     4   9  18  32  50  73 100 130 165 204 247 299
#     4   8  15  30  52  75  97 126 168 211 247 292
#     4  10  21  37  55  76 104 137 174 215 258 307
#     4   9  19  33  49  72 100 129 164 206 250 298
#     4   9  19  36  57  81 107 135 170 211 255 306
#     4  11  22  35  53  77 106 138 173 215 258 304
#     4   9  18  34  54  74  98 130 169 212 255 301
#     4   9  19  37  58  78 104 138 173 210 254 305
#
# _framework density 17.216736999999998
#
# number of rings (size 3 to 8) (size 9 to 14) (size 15 to 20)
#    0.000    2.750    0.000    3.750    0.000    5.750 
#    0.000    6.875    0.000    1.125    0.000    0.000 
#    0.000    0.000    0.000    0.000    0.000    0.000 
#
# Total GULP energy -178462.681296 kJ/mol
# GULP energy per Si atom -5576.958791 kJ/mol
# Density = 1.717755 g / cm^3
# Si number density = 17.216737 Si / 1000 Ang^3
#
#
#
# Elastic Constant Matrix: (Units=GPa)
#
#
# Indices 1 2 3 4 5 6 
#
# 1 145.5463 55.3543 137.7108 0.0000 0.0000 0.0000
# 2 55.3543 37.5242 55.8154 0.0000 0.0000 0.0000
# 3 137.7108 55.8154 152.0447 0.0000 0.0000 0.0000
# 4 0.0000 0.0000 0.0000 30.4026 0.0000 0.0000
# 5 0.0000 0.0000 0.0000 0.0000 43.3879 0.0000
# 6 0.0000 0.0000 0.0000 0.0000 0.0000 29.1351
#
#
#
# Elastic Compliance Matrix: (Units=1/GPa)
#
#
# Indices 1 2 3 4 5 6 
#
# 1 0.051374 -0.014479 -0.041216 0.000000 0.000000 0.000000
# 2 -0.014479 0.062785 -0.009935 0.000000 0.000000 0.000000
# 3 -0.041216 -0.009935 0.047554 0.000000 0.000000 0.000000
# 4 0.000000 0.000000 0.000000 0.032892 0.000000 0.000000
# 5 0.000000 0.000000 0.000000 0.000000 0.023048 0.000000
# 6 0.000000 0.000000 0.000000 0.000000 0.000000 0.034323
#
#
# Mechanical properties :
#
#
# Convention : Reuss Voigt Hill
#
# Bulk Modulus (GPa) = 32.83494 92.54179 62.68837
# Shear Modulus (GPa) = 12.71016 26.33412 19.52214
#
# Velocity S-wave (km/s) = 2.72001 3.91521 3.37100
# Velocity P-wave (km/s) = 5.38308 8.62011 7.18623
#
# Compressibility (1/GPa) = 0.03045536
#
# Stress axis : x y z
#
# Youngs Moduli (GPa) = 19.46508 15.92727 21.02871
#
# Poissons Ratio (x) = 0.23061 0.86671
# Poissons Ratio (y) = 0.28183 0.20891
# Poissons Ratio (z) = 0.80227 0.15823
#
# Static dielectric constant tensor:
#      x y z
#    x 1.566300 0.000000 0.000000 
#    y 0.000000 1.581940 0.000000 
#    z 0.000000 0.000000 1.565190 
# 
# From -- ./inp_files/18948.got.cif
#   From: 2010.05.17/outbox.cif.g08.bks.cpg/sg38_10_cif.got.tgz:18948.got - 2010.06.03 18:07:57.
