data_PCOD9358939
_publ_section_title
;
Structure prediction by ZEFSAII (Michael W. Deem and Ramdas Pophale) SiO2 
 PCOD9358939
Probable space group: A M M 2
;
_chemical_formula_sum "Si O2"
_cell_formula_units_Z 64
_cell_length_a 14.004868
_cell_length_b 8.946757
_cell_length_c 26.439067
_cell_angle_alpha 90.000000
_cell_angle_beta 90.000000
_cell_angle_gamma 90.000000
_cell_volume 3312.766204
_symmetry_space_group_name_H-M "A M M 2"
_symmetry_group_IT_number 38
_symmetry_cell_setting 'orthorhombic'
loop_
_space_group_symop_operation_xyz
x,y,z
-x,-y,z
-x,y,z
x,-y,z
x,1/2+y,1/2+z
-x,1/2-y,1/2+z
-x,1/2+y,1/2+z
x,1/2-y,1/2+z
loop_
_atom_site_type_symbol
_atom_site_label
_atom_site_fract_x
_atom_site_fract_y
_atom_site_fract_z
Si Si1 0.291199 0.322104 0.545630
Si Si2 0.115912 0.330644 0.690386
Si Si3 0.702918 0.822388 0.848642
Si Si4 0.613322 0.322284 0.947688
Si Si5 0.110124 0.322191 0.294955
Si Si6 0.384544 0.673188 0.749683
Si Si7 0.615514 0.674410 0.144275
Si Si8 0.112230 0.822948 0.585718
O O1 0.295667 0.500000 0.547222
O O2 0.341523 0.259568 0.495757
O O3 0.342814 0.253282 0.594875
O O4 0.182170 0.265464 0.548865
O O5 0.150499 0.500000 0.682826
O O6 0.142817 0.264297 0.744605
O O7 0.139668 0.228026 0.642616
O O8 0.000000 0.334830 0.691457
O O9 0.660829 0.737410 0.896475
O O10 0.815401 0.792639 0.839512
O O11 0.652788 0.765829 0.797355
O O12 0.688805 0.000000 0.854392
O O13 0.500000 0.293753 0.945777
O O14 0.627728 0.500000 0.952490
O O15 0.113469 0.500000 0.283965
O O16 0.000000 0.283145 0.306181
O O17 0.500000 0.676870 0.750754
O O18 0.354682 0.500000 0.753408
O O19 0.354513 0.744033 0.696089
O O20 0.500000 0.681176 0.141774
O O21 0.643259 0.500000 0.145450
O O22 0.000000 0.788705 0.578456
O O23 0.125452 0.000000 0.580442
#
# Coordination Sequence:
#
# PCOD9358939 Si02
#       8
#     8   8   8   8   8   8   8   8
#     4  12  25  40  63  92 122 158 201 251 307 367
#     4   9  17  30  51  81 117 157 201 248 296 348
#     4  11  23  38  61  90 119 156 203 254 308 365
#     4  11  25  46  69  91 118 155 201 254 309 371
#     4   9  19  36  56  81 118 162 204 245 295 357
#     4  10  21  37  57  84 120 159 197 243 304 370
#     4  10  21  38  60  87 121 159 199 247 304 368
#     4  10  21  38  60  86 121 164 207 251 300 357
#
# _framework density 19.319202000000001
#
# number of rings (size 3 to 8) (size 9 to 14) (size 15 to 20)
#    0.000    1.750    0.000    4.125    1.750    8.750 
#    0.000    0.625    0.000    2.250    0.000    0.000 
#    0.000    0.000    0.000    0.000    0.000    0.000 
#
# Total GULP energy -178938.049001 kJ/mol
# GULP energy per Si atom -5591.814031 kJ/mol
# Density = 1.927523 g / cm^3
# Si number density = 19.319202 Si / 1000 Ang^3
#
#
#
# Elastic Constant Matrix: (Units=GPa)
#
#
# Indices 1 2 3 4 5 6 
#
# 1 83.3325 57.9431 49.3553 0.0000 0.0000 0.0000
# 2 57.9431 114.0629 56.9209 0.0000 0.0000 0.0000
# 3 49.3553 56.9209 119.9704 0.0000 0.0000 0.0000
# 4 0.0000 0.0000 0.0000 37.1601 0.0000 0.0000
# 5 0.0000 0.0000 0.0000 0.0000 35.0753 0.0000
# 6 0.0000 0.0000 0.0000 0.0000 0.0000 27.7138
#
#
#
# Elastic Compliance Matrix: (Units=1/GPa)
#
#
# Indices 1 2 3 4 5 6 
#
# 1 0.020270 -0.008039 -0.004525 0.000000 0.000000 0.000000
# 2 -0.008039 0.014675 -0.003656 0.000000 0.000000 0.000000
# 3 -0.004525 -0.003656 0.011931 0.000000 0.000000 0.000000
# 4 0.000000 0.000000 0.000000 0.026911 0.000000 0.000000
# 5 0.000000 0.000000 0.000000 0.000000 0.028510 0.000000
# 6 0.000000 0.000000 0.000000 0.000000 0.000000 0.036083
#
#
# Mechanical properties :
#
#
# Convention : Reuss Voigt Hill
#
# Bulk Modulus (GPa) = 69.26340 71.75603 70.50971
# Shear Modulus (GPa) = 28.46891 30.19962 29.33426
#
# Velocity S-wave (km/s) = 3.84292 3.95801 3.90089
# Velocity P-wave (km/s) = 7.45793 7.62304 7.54094
#
# Compressibility (1/GPa) = 0.01443764
#
# Stress axis : x y z
#
# Youngs Moduli (GPa) = 49.33508 68.14328 83.81371
#
# Poissons Ratio (x) = 0.54779 0.37923
# Poissons Ratio (y) = 0.39660 0.30638
# Poissons Ratio (z) = 0.22323 0.24910
#
# Static dielectric constant tensor:
#      x y z
#    x 1.724310 0.000000 0.000000 
#    y 0.000000 1.646770 0.000000 
#    z 0.000000 0.000000 1.618850 
# 
# From -- ./inp_files/22927.got.cif
#   From: 2010.05.17/outbox.cif.g08.bks.cpg/sg38_12_cif.got.tgz:22927.got - 2010.06.03 18:07:57.
