data_PCOD9358157
_publ_section_title
;
Structure prediction by ZEFSAII (Michael W. Deem and Ramdas Pophale) SiO2 
 PCOD9358157
Probable space group: A M M 2
;
_chemical_formula_sum "Si O2"
_cell_formula_units_Z 48
_cell_length_a 7.496061
_cell_length_b 23.308131
_cell_length_c 11.945017
_cell_angle_alpha 90.000000
_cell_angle_beta 90.000000
_cell_angle_gamma 90.000000
_cell_volume 2087.023477
_symmetry_space_group_name_H-M "A M M 2"
_symmetry_group_IT_number 38
_symmetry_cell_setting 'orthorhombic'
loop_
_space_group_symop_operation_xyz
x,y,z
-x,-y,z
-x,y,z
x,-y,z
x,1/2+y,1/2+z
-x,1/2-y,1/2+z
-x,1/2+y,1/2+z
x,1/2-y,1/2+z
loop_
_atom_site_type_symbol
_atom_site_label
_atom_site_fract_x
_atom_site_fract_y
_atom_site_fract_z
Si Si1 0.715484 0.564821 0.502330
Si Si2 0.283597 0.361040 0.058432
Si Si3 0.210394 0.935319 0.358604
Si Si4 0.801057 0.344933 0.686451
Si Si5 0.709404 0.761161 0.993175
Si Si6 0.283394 0.352927 0.312604
O O1 0.500000 0.569479 0.517253
O O2 0.769312 0.500000 0.518421
O O3 0.803299 0.606139 0.591522
O O4 0.757022 0.589200 0.380292
O O5 0.500000 0.360323 0.060093
O O6 0.217069 0.302680 0.999398
O O7 0.220513 0.356776 0.186191
O O8 0.229256 0.416225 0.987086
O O9 0.287228 0.881298 0.287319
O O10 0.000000 0.937036 0.330411
O O11 0.281115 0.000000 0.337408
O O12 0.722584 0.291778 0.615639
O O13 0.000000 0.327294 0.720227
O O14 0.500000 0.756062 0.969885
O O15 0.782007 0.801487 0.893802
O O16 0.500000 0.347774 0.308659
#
# Coordination Sequence:
#
# PCOD9358157 Si02
#       6
#     8   8   8   8   8   8
#     4   9  17  31  53  78 107 143 178 221 275 322
#     4  10  21  35  58  84 107 143 186 229 275 331
#     4  10  23  41  56  76 114 157 190 228 280 329
#     4  10  20  35  56  81 109 145 184 228 276 326
#     4   9  19  35  57  83 112 141 176 228 284 333
#     4   8  16  32  50  77 110 137 170 218 276 327
#
# _framework density 22.999262999999999
#
# number of rings (size 3 to 8) (size 9 to 14) (size 15 to 20)
#    0.000    2.667    0.000    2.000    2.333    4.000 
#    0.000    5.000    0.000    0.000    0.000    0.000 
#    0.000    0.000    0.000    0.000    0.000    0.000 
#
# Total GULP energy -133895.520900 kJ/mol
# GULP energy per Si atom -5578.980038 kJ/mol
# Density = 2.294692 g / cm^3
# Si number density = 22.999263 Si / 1000 Ang^3
#
#
#
# Elastic Constant Matrix: (Units=GPa)
#
#
# Indices 1 2 3 4 5 6 
#
# 1 58.5546 -3.2863 -6.0565 0.0000 0.0000 0.0000
# 2 -3.2863 69.9758 10.5394 0.0000 0.0000 0.0000
# 3 -6.0565 10.5394 104.4045 0.0000 0.0000 0.0000
# 4 0.0000 0.0000 0.0000 16.7163 0.0000 0.0000
# 5 0.0000 0.0000 0.0000 0.0000 20.6822 0.0000
# 6 0.0000 0.0000 0.0000 0.0000 0.0000 4.3993
#
#
#
# Elastic Compliance Matrix: (Units=1/GPa)
#
#
# Indices 1 2 3 4 5 6 
#
# 1 0.017212 0.000668 0.000931 0.000000 0.000000 0.000000
# 2 0.000668 0.014537 -0.001429 0.000000 0.000000 0.000000
# 3 0.000931 -0.001429 0.009776 0.000000 0.000000 0.000000
# 4 0.000000 0.000000 0.000000 0.059822 0.000000 0.000000
# 5 0.000000 0.000000 0.000000 0.000000 0.048351 0.000000
# 6 0.000000 0.000000 0.000000 0.000000 0.000000 0.227309
#
#
# Mechanical properties :
#
#
# Convention : Reuss Voigt Hill
#
# Bulk Modulus (GPa) = 23.88558 26.14754 25.01656
# Shear Modulus (GPa) = 12.80009 23.80876 18.30443
#
# Velocity S-wave (km/s) = 2.36168 3.22094 2.82418
# Velocity P-wave (km/s) = 4.22429 5.02256 4.64062
#
# Compressibility (1/GPa) = 0.04186626
#
# Stress axis : x y z
#
# Youngs Moduli (GPa) = 58.09938 68.78889 102.28747
#
# Poissons Ratio (x) = -0.04596 -0.09523
# Poissons Ratio (y) = -0.03882 0.14614
# Poissons Ratio (z) = -0.05409 0.09828
#
# Static dielectric constant tensor:
#      x y z
#    x 1.896090 0.000000 0.000000 
#    y 0.000000 1.844240 0.000000 
#    z 0.000000 0.000000 1.875230 
# 
# From -- ./inp_files/8127.got.cif
#   From: 2010.05.17/outbox.cif.g08.bks.cpg/sg38_5_cif.got.tgz:8127.got - 2010.06.03 18:07:57.
