data_PCOD9358577
_publ_section_title
;
Structure prediction by ZEFSAII (Michael W. Deem and Ramdas Pophale) SiO2 
 PCOD9358577
Probable space group: A M M 2
;
_chemical_formula_sum "Si O2"
_cell_formula_units_Z 40
_cell_length_a 8.227658
_cell_length_b 23.709185
_cell_length_c 10.581888
_cell_angle_alpha 90.000000
_cell_angle_beta 90.000000
_cell_angle_gamma 90.000000
_cell_volume 2064.220169
_symmetry_space_group_name_H-M "A M M 2"
_symmetry_group_IT_number 38
_symmetry_cell_setting 'orthorhombic'
loop_
_space_group_symop_operation_xyz
x,y,z
-x,-y,z
-x,y,z
x,-y,z
x,1/2+y,1/2+z
-x,1/2-y,1/2+z
-x,1/2+y,1/2+z
x,1/2-y,1/2+z
loop_
_atom_site_type_symbol
_atom_site_label
_atom_site_fract_x
_atom_site_fract_y
_atom_site_fract_z
Si Si1 0.301481 0.000000 0.423710
Si Si2 0.803420 0.306642 0.064349
Si Si3 0.305631 0.500000 0.216434
Si Si4 0.803651 0.822977 0.065475
Si Si5 0.305494 0.121021 0.324707
Si Si6 0.196148 0.879164 0.805270
O O1 0.248265 0.000000 0.570173
O O2 0.247243 0.057578 0.356641
O O3 0.500000 0.000000 0.423733
O O4 0.746871 0.241955 0.069138
O O5 0.745941 0.341854 0.186250
O O6 0.000000 0.306068 0.066975
O O7 0.750842 0.337912 0.937067
O O8 0.500000 0.500000 0.214351
O O9 0.246860 0.443366 0.283667
O O10 0.753544 0.855984 0.190800
O O11 0.000000 0.821636 0.061566
O O12 0.745781 0.853421 0.937702
O O13 0.500000 0.120010 0.324428
O O14 0.000000 0.876621 0.805415
#
# Coordination Sequence:
#
# PCOD9358577 Si02
#       6
#     4   8   4   8   8   8
#     4   9  20  38  57  80 114 152 187 233 288 339
#     4  10  20  38  63  86 114 154 194 234 284 340
#     4  11  21  38  61  82 114 154 191 237 292 343
#     4  10  22  40  59  85 121 155 189 234 290 343
#     4  11  22  38  60  87 119 152 192 238 285 342
#     4  10  21  37  60  88 116 149 194 240 279 337
#
# _framework density 19.377776000000001
#
# number of rings (size 3 to 8) (size 9 to 14) (size 15 to 20)
#    0.000    1.800    2.000    2.100    0.000    5.600 
#    0.000    6.000    0.000    0.000    0.000    0.000 
#    0.000    0.000    0.000    0.000    0.000    0.000 
#
# Total GULP energy -111754.595678 kJ/mol
# GULP energy per Si atom -5587.729784 kJ/mol
# Density = 1.933367 g / cm^3
# Si number density = 19.377776 Si / 1000 Ang^3
#
#
#
# Elastic Constant Matrix: (Units=GPa)
#
#
# Indices 1 2 3 4 5 6 
#
# 1 10.3012 16.1804 15.5015 0.0000 0.0000 0.0000
# 2 16.1804 214.9211 121.5066 0.0000 0.0000 0.0000
# 3 15.5015 121.5066 200.0524 0.0000 0.0000 0.0000
# 4 0.0000 0.0000 0.0000 -3.4739 0.0000 0.0000
# 5 0.0000 0.0000 0.0000 0.0000 17.2009 0.0000
# 6 0.0000 0.0000 0.0000 0.0000 0.0000 4.0818
#
#
#
# Elastic Compliance Matrix: (Units=1/GPa)
#
#
# Indices 1 2 3 4 5 6 
#
# 1 0.113950 -0.005463 -0.005512 0.000000 0.000000 0.000000
# 2 -0.005463 0.007348 -0.004040 0.000000 0.000000 0.000000
# 3 -0.005512 -0.004040 0.007879 0.000000 0.000000 0.000000
# 4 0.000000 0.000000 0.000000 -0.287858 0.000000 0.000000
# 5 0.000000 0.000000 0.000000 0.000000 0.058137 0.000000
# 6 0.000000 0.000000 0.000000 0.000000 0.000000 0.244992
#
#
# Mechanical properties :
#
#
# Convention : Reuss Voigt Hill
#
# Bulk Modulus (GPa) = 10.08580 81.29464 45.69022
# Shear Modulus (GPa) = 24.09337 21.70082 22.89709
#
# Velocity S-wave (km/s) = 3.52994 3.35009 3.44119
# Velocity P-wave (km/s) = 4.67227 7.55035 6.27845
#
# Compressibility (1/GPa) = 0.09914929
#
# Stress axis : x y z
#
# Youngs Moduli (GPa) = 8.77577 136.09174 126.91342
#
# Poissons Ratio (x) = 0.74342 0.69952
# Poissons Ratio (y) = 0.04794 0.51269
# Poissons Ratio (z) = 0.04837 0.54977
#
# Static dielectric constant tensor:
#      x y z
#    x 1.678380 0.000000 0.000000 
#    y 0.000000 1.655660 0.000000 
#    z 0.000000 0.000000 1.643640 
# 
# From -- ./inp_files/3493.got.cif
#   From: 2010.05.17/outbox.cif.g08.bks.cpg/sg38_2_cif.got.tgz:3493.got - 2010.06.03 18:07:57.
