data_PCOD9358664
_publ_section_title
;
Structure prediction by ZEFSAII (Michael W. Deem and Ramdas Pophale) SiO2 
 PCOD9358664
Probable space group: A M M 2
;
_chemical_formula_sum "Si O2"
_cell_formula_units_Z 64
_cell_length_a 8.277794
_cell_length_b 33.839870
_cell_length_c 12.161572
_cell_angle_alpha 90.000000
_cell_angle_beta 90.000000
_cell_angle_gamma 90.000000
_cell_volume 3406.693138
_symmetry_space_group_name_H-M "A M M 2"
_symmetry_group_IT_number 38
_symmetry_cell_setting 'orthorhombic'
loop_
_space_group_symop_operation_xyz
x,y,z
-x,-y,z
-x,y,z
x,-y,z
x,1/2+y,1/2+z
-x,1/2-y,1/2+z
-x,1/2+y,1/2+z
x,1/2-y,1/2+z
loop_
_atom_site_type_symbol
_atom_site_label
_atom_site_fract_x
_atom_site_fract_y
_atom_site_fract_z
Si Si1 0.192574 0.122219 0.860020
Si Si2 0.187261 0.400682 0.913183
Si Si3 0.804436 0.646540 0.117823
Si Si4 0.192778 0.953396 0.222520
Si Si5 0.306826 0.672728 0.784755
Si Si6 0.305057 0.812173 0.032662
Si Si7 0.692907 0.223799 0.489663
Si Si8 0.692035 0.045504 0.981738
O O1 0.253613 0.136231 0.740048
O O2 0.246996 0.078544 0.897369
O O3 0.000000 0.121652 0.854683
O O4 0.243684 0.154386 0.950530
O O5 0.260241 0.433779 0.833482
O O6 0.203278 0.362054 0.837334
O O7 0.000000 0.411305 0.932970
O O8 0.256842 0.386180 0.029523
O O9 0.757770 0.689634 0.070745
O O10 0.000000 0.645035 0.116702
O O11 0.000000 0.945528 0.217782
O O12 0.218062 0.000000 0.228842
O O13 0.264795 0.940411 0.105706
O O14 0.500000 0.663384 0.792162
O O15 0.264264 0.678816 0.658829
O O16 0.278619 0.709941 0.864393
O O17 0.500000 0.811886 0.024147
O O18 0.244269 0.767960 0.006938
O O19 0.500000 0.224556 0.507053
O O20 0.500000 0.043716 0.973175
O O21 0.754885 0.000000 0.967746
#
# Coordination Sequence:
#
# PCOD9358664 Si02
#       8
#     8   8   8   8   8   8   8   8
#     4  11  23  37  54  79 109 144 184 224 268 321
#     4   9  17  32  52  72  98 133 169 208 255 310
#     4   9  20  37  53  73 105 142 180 221 265 315
#     4   9  17  30  52  81 108 133 166 212 265 322
#     4   9  18  32  48  72  99 126 165 211 258 307
#     4  10  21  34  53  78 105 136 174 223 268 315
#     4   9  19  34  54  76 100 135 175 217 267 318
#     4  10  21  37  57  81 110 143 178 221 272 321
#
# _framework density 18.786548
#
# number of rings (size 3 to 8) (size 9 to 14) (size 15 to 20)
#    0.000    2.500    0.000    1.500    1.750    5.250 
#    0.000    0.625    0.000    2.250    0.000    1.750 
#    0.000    0.000    0.000    0.000    0.000    0.000 
#
# Total GULP energy -178365.023221 kJ/mol
# GULP energy per Si atom -5573.906976 kJ/mol
# Density = 1.874379 g / cm^3
# Si number density = 18.786548 Si / 1000 Ang^3
#
#
#
# Elastic Constant Matrix: (Units=GPa)
#
#
# Indices 1 2 3 4 5 6 
#
# 1 5.0957 14.9141 23.0835 0.0000 0.0000 0.0000
# 2 14.9141 81.2814 75.1869 0.0000 0.0000 0.0000
# 3 23.0835 75.1869 154.7125 0.0000 0.0000 0.0000
# 4 0.0000 0.0000 0.0000 18.7922 0.0000 0.0000
# 5 0.0000 0.0000 0.0000 0.0000 12.3666 0.0000
# 6 0.0000 0.0000 0.0000 0.0000 0.0000 23.3492
#
#
#
# Elastic Compliance Matrix: (Units=1/GPa)
#
#
# Indices 1 2 3 4 5 6 
#
# 1 0.742803 -0.061361 -0.081008 0.000000 0.000000 0.000000
# 2 -0.061361 0.027419 -0.004170 0.000000 0.000000 0.000000
# 3 -0.081008 -0.004170 0.020577 0.000000 0.000000 0.000000
# 4 0.000000 0.000000 0.000000 0.053214 0.000000 0.000000
# 5 0.000000 0.000000 0.000000 0.000000 0.080863 0.000000
# 6 0.000000 0.000000 0.000000 0.000000 0.000000 0.042828
#
#
# Mechanical properties :
#
#
# Convention : Reuss Voigt Hill
#
# Bulk Modulus (GPa) = 2.00916 51.93984 26.97450
# Shear Modulus (GPa) = 3.50462 19.42860 11.46661
#
# Velocity S-wave (km/s) = 1.36731 3.21935 2.47323
# Velocity P-wave (km/s) = 1.88799 6.44409 4.74820
#
# Compressibility (1/GPa) = 0.49772137
#
# Stress axis : x y z
#
# Youngs Moduli (GPa) = 1.34625 36.47097 48.59857
#
# Poissons Ratio (x) = 2.23788 3.93689
# Poissons Ratio (y) = 0.08261 0.20265
# Poissons Ratio (z) = 0.10906 0.15208
#
# Static dielectric constant tensor:
#      x y z
#    x 1.668970 0.000000 0.000000 
#    y 0.000000 1.664800 0.000000 
#    z 0.000000 0.000000 1.669700 
# 
# From -- ./inp_files/8577.got.cif
#   From: 2010.05.17/outbox.cif.g08.bks.cpg/sg38_5_cif.got.tgz:8577.got - 2010.06.03 18:07:57.
