data_PCOD9358761
_publ_section_title
;
Structure prediction by ZEFSAII (Michael W. Deem and Ramdas Pophale) SiO2 
 PCOD9358761
Probable space group: A M M 2
;
_chemical_formula_sum "Si O2"
_cell_formula_units_Z 64
_cell_length_a 10.001876
_cell_length_b 8.758656
_cell_length_c 42.081059
_cell_angle_alpha 90.000000
_cell_angle_beta 90.000000
_cell_angle_gamma 90.000000
_cell_volume 3686.426643
_symmetry_space_group_name_H-M "A M M 2"
_symmetry_group_IT_number 38
_symmetry_cell_setting 'orthorhombic'
loop_
_space_group_symop_operation_xyz
x,y,z
-x,-y,z
-x,y,z
x,-y,z
x,1/2+y,1/2+z
-x,1/2-y,1/2+z
-x,1/2+y,1/2+z
x,1/2-y,1/2+z
loop_
_atom_site_type_symbol
_atom_site_label
_atom_site_fract_x
_atom_site_fract_y
_atom_site_fract_z
Si Si1 0.155188 0.684100 0.435520
Si Si2 0.656819 0.683829 0.132300
Si Si3 0.154943 0.184344 0.503672
Si Si4 0.655689 0.682682 0.809164
Si Si5 0.844334 0.817250 0.755018
Si Si6 0.346633 0.813973 0.560251
Si Si7 0.844690 0.317574 0.686378
Si Si8 0.344583 0.815989 0.877828
O O1 0.160735 0.500000 0.437312
O O2 0.197212 0.751320 0.469488
O O3 0.249463 0.733514 0.406600
O O4 0.000000 0.727960 0.430042
O O5 0.500000 0.720252 0.137395
O O6 0.669765 0.500000 0.134116
O O7 0.691464 0.731685 0.096135
O O8 0.750417 0.758513 0.158451
O O9 0.247678 0.237710 0.532603
O O10 0.000000 0.228587 0.508809
O O11 0.160557 0.000000 0.502503
O O12 0.500000 0.726607 0.803790
O O13 0.664035 0.500000 0.808743
O O14 0.750050 0.751115 0.782225
O O15 0.693343 0.743827 0.844072
O O16 0.806310 0.753872 0.720339
O O17 0.000000 0.774048 0.760572
O O18 0.835799 0.000000 0.754794
O O19 0.500000 0.766789 0.554382
O O20 0.345527 0.000000 0.560156
O O21 0.836899 0.500000 0.688636
O O22 0.000000 0.274858 0.680281
O O23 0.500000 0.777144 0.884243
O O24 0.335537 0.000000 0.875091
#
# Coordination Sequence:
#
# PCOD9358761 Si02
#       8
#     8   8   8   8   8   8   8   8
#     4   9  18  32  48  67  94 127 161 199 244 292
#     4   9  18  33  53  76 101 131 169 210 251 299
#     4   9  17  29  46  69  95 123 158 199 242 289
#     4  10  21  36  54  78 107 136 166 203 250 301
#     4  10  21  37  57  79 102 132 171 210 248 294
#     4   8  15  29  48  70  96 125 159 200 243 288
#     4  10  21  36  53  75 104 135 167 206 252 299
#     4   9  18  33  51  70  95 128 165 204 244 289
#
# _framework density 17.360984999999999
#
# number of rings (size 3 to 8) (size 9 to 14) (size 15 to 20)
#    0.000    2.750    0.000    1.875    0.000    5.000 
#    0.000    3.125    0.000    2.250    0.000    0.000 
#    0.000    0.000    0.000    0.000    0.000    0.000 
#
# Total GULP energy -178464.716406 kJ/mol
# GULP energy per Si atom -5577.022388 kJ/mol
# Density = 1.732147 g / cm^3
# Si number density = 17.360985 Si / 1000 Ang^3
#
#
#
# Elastic Constant Matrix: (Units=GPa)
#
#
# Indices 1 2 3 4 5 6 
#
# 1 90.1051 32.6818 121.2883 0.0000 0.0000 0.0000
# 2 32.6818 18.9792 45.0818 0.0000 0.0000 0.0000
# 3 121.2883 45.0818 205.0755 0.0000 0.0000 0.0000
# 4 0.0000 0.0000 0.0000 29.7062 0.0000 0.0000
# 5 0.0000 0.0000 0.0000 0.0000 43.5839 0.0000
# 6 0.0000 0.0000 0.0000 0.0000 0.0000 21.6346
#
#
#
# Elastic Compliance Matrix: (Units=1/GPa)
#
#
# Indices 1 2 3 4 5 6 
#
# 1 0.069558 -0.046165 -0.030990 0.000000 0.000000 0.000000
# 2 -0.046165 0.140908 -0.003672 0.000000 0.000000 0.000000
# 3 -0.030990 -0.003672 0.024012 0.000000 0.000000 0.000000
# 4 0.000000 0.000000 0.000000 0.033663 0.000000 0.000000
# 5 0.000000 0.000000 0.000000 0.000000 0.022944 0.000000
# 6 0.000000 0.000000 0.000000 0.000000 0.000000 0.046222
#
#
# Mechanical properties :
#
#
# Convention : Reuss Voigt Hill
#
# Bulk Modulus (GPa) = 13.73204 79.14039 46.43622
# Shear Modulus (GPa) = 9.55592 26.65881 18.10736
#
# Velocity S-wave (km/s) = 2.34866 3.92287 3.23304
# Velocity P-wave (km/s) = 3.90920 8.13651 6.38297
#
# Compressibility (1/GPa) = 0.07282239
#
# Stress axis : x y z
#
# Youngs Moduli (GPa) = 14.37655 7.09685 41.64564
#
# Poissons Ratio (x) = 0.32763 1.29061
# Poissons Ratio (y) = 0.66370 0.15293
# Poissons Ratio (z) = 0.44553 0.02606
#
# Static dielectric constant tensor:
#      x y z
#    x 1.583880 0.000000 0.000000 
#    y 0.000000 1.586190 0.000000 
#    z 0.000000 0.000000 1.560150 
# 
# From -- ./inp_files/24935.got.cif
#   From: 2010.05.17/outbox.cif.g08.bks.cpg/sg38_13_cif.got.tgz:24935.got - 2010.06.03 18:07:57.
