data_PCOD9358726
_publ_section_title
;
Structure prediction by ZEFSAII (Michael W. Deem and Ramdas Pophale) SiO2 
 PCOD9358726
Probable space group: A M M 2
;
_chemical_formula_sum "Si O2"
_cell_formula_units_Z 56
_cell_length_a 15.606742
_cell_length_b 18.981650
_cell_length_c 10.182915
_cell_angle_alpha 90.000000
_cell_angle_beta 90.000000
_cell_angle_gamma 90.000000
_cell_volume 3016.604196
_symmetry_space_group_name_H-M "A M M 2"
_symmetry_group_IT_number 38
_symmetry_cell_setting 'orthorhombic'
loop_
_space_group_symop_operation_xyz
x,y,z
-x,-y,z
-x,y,z
x,-y,z
x,1/2+y,1/2+z
-x,1/2-y,1/2+z
-x,1/2+y,1/2+z
x,1/2-y,1/2+z
loop_
_atom_site_type_symbol
_atom_site_label
_atom_site_fract_x
_atom_site_fract_y
_atom_site_fract_z
Si Si1 0.262635 0.079314 0.941680
Si Si2 0.596821 0.313147 0.080136
Si Si3 0.338663 0.215465 0.315333
Si Si4 0.096247 0.322702 0.130645
Si Si5 0.398956 0.917859 0.164493
Si Si6 0.838153 0.218644 0.911959
Si Si7 0.260686 0.419929 0.129010
O O1 0.198923 0.144403 0.966443
O O2 0.278883 0.081573 0.785828
O O3 0.229125 0.000000 0.971488
O O4 0.348311 0.088807 0.026899
O O5 0.500000 0.334400 0.107773
O O6 0.633895 0.265398 0.196064
O O7 0.661611 0.377942 0.064923
O O8 0.602710 0.272473 0.942527
O O9 0.353963 0.136682 0.262649
O O10 0.243463 0.235873 0.361378
O O11 0.107629 0.296550 0.280840
O O12 0.171184 0.379749 0.109117
O O13 0.000000 0.349895 0.112531
O O14 0.114545 0.260616 0.026630
O O15 0.500000 0.900385 0.153923
O O16 0.392274 0.000000 0.204986
O O17 0.255561 0.500000 0.084881
#
# Coordination Sequence:
#
# PCOD9358726 Si02
#       7
#     8   8   8   8   8   8   8
#     4   9  18  35  59  83 115 158 196 238 298 355
#     4  12  24  38  60  88 120 161 203 247 296 349
#     4  12  22  40  58  85 119 160 200 252 298 358
#     4  11  22  39  65  92 117 152 198 251 307 360
#     4  10  21  35  53  81 118 160 207 252 295 350
#     4  11  20  39  61  89 121 153 195 248 302 360
#     4  10  22  40  59  86 122 159 199 245 301 357
#
# _framework density 18.563921000000001
#
# number of rings (size 3 to 8) (size 9 to 14) (size 15 to 20)
#    0.000    1.286    4.286    3.429    0.000    1.714 
#    0.000    1.429    0.000    1.286    0.000    0.000 
#    0.000    0.000    0.000    0.000    0.000    0.000 
#
# Total GULP energy -156322.344850 kJ/mol
# GULP energy per Si atom -5582.940887 kJ/mol
# Density = 1.852167 g / cm^3
# Si number density = 18.563921 Si / 1000 Ang^3
#
#
#
# Elastic Constant Matrix: (Units=GPa)
#
#
# Indices 1 2 3 4 5 6 
#
# 1 87.0272 27.8705 16.8975 0.0000 0.0000 0.0000
# 2 27.8705 98.1576 34.1869 0.0000 0.0000 0.0000
# 3 16.8975 34.1869 62.6722 0.0000 0.0000 0.0000
# 4 0.0000 0.0000 0.0000 23.2078 0.0000 0.0000
# 5 0.0000 0.0000 0.0000 0.0000 16.8349 0.0000
# 6 0.0000 0.0000 0.0000 0.0000 0.0000 3.4291
#
#
#
# Elastic Compliance Matrix: (Units=1/GPa)
#
#
# Indices 1 2 3 4 5 6 
#
# 1 0.012805 -0.003004 -0.001814 0.000000 0.000000 0.000000
# 2 -0.003004 0.013282 -0.006435 0.000000 0.000000 0.000000
# 3 -0.001814 -0.006435 0.019955 0.000000 0.000000 0.000000
# 4 0.000000 0.000000 0.000000 0.043089 0.000000 0.000000
# 5 0.000000 0.000000 0.000000 0.000000 0.059400 0.000000
# 6 0.000000 0.000000 0.000000 0.000000 0.000000 0.291623
#
#
# Mechanical properties :
#
#
# Convention : Reuss Voigt Hill
#
# Bulk Modulus (GPa) = 42.48775 45.08521 43.78648
# Shear Modulus (GPa) = 10.62686 19.95450 15.29068
#
# Velocity S-wave (km/s) = 2.39518 3.28214 2.87309
# Velocity P-wave (km/s) = 5.53047 6.22113 5.88594
#
# Compressibility (1/GPa) = 0.02353620
#
# Stress axis : x y z
#
# Youngs Moduli (GPa) = 78.09528 75.29018 50.11187
#
# Poissons Ratio (x) = 0.22618 0.09089
# Poissons Ratio (y) = 0.23460 0.32248
# Poissons Ratio (z) = 0.14164 0.48451
#
# Static dielectric constant tensor:
#      x y z
#    x 1.627210 0.000000 0.000000 
#    y 0.000000 1.667320 0.000000 
#    z 0.000000 0.000000 1.646030 
# 
# From -- ./inp_files/5716.got.cif
#   From: 2010.05.17/outbox.cif.g08.bks.cpg/sg38_3_cif.got.tgz:5716.got - 2010.06.03 18:07:57.
