data_PCOD9358693
_publ_section_title
;
Structure prediction by ZEFSAII (Michael W. Deem and Ramdas Pophale) SiO2 
 PCOD9358693
Probable space group: A M M 2
;
_chemical_formula_sum "Si O2"
_cell_formula_units_Z 58
_cell_length_a 15.540681
_cell_length_b 7.932072
_cell_length_c 25.514343
_cell_angle_alpha 90.000000
_cell_angle_beta 90.000000
_cell_angle_gamma 90.000000
_cell_volume 3145.147975
_symmetry_space_group_name_H-M "A M M 2"
_symmetry_group_IT_number 38
_symmetry_cell_setting 'orthorhombic'
loop_
_space_group_symop_operation_xyz
x,y,z
-x,-y,z
-x,y,z
x,-y,z
x,1/2+y,1/2+z
-x,1/2-y,1/2+z
-x,1/2+y,1/2+z
x,1/2-y,1/2+z
loop_
_atom_site_type_symbol
_atom_site_label
_atom_site_fract_x
_atom_site_fract_y
_atom_site_fract_z
Si Si1 0.272227 0.199491 0.127950
Si Si2 0.598633 0.296289 0.917196
Si Si3 0.402017 0.203833 0.537442
Si Si4 0.000000 0.000000 0.811189
Si Si5 0.875977 0.312156 0.785062
Si Si6 0.096100 0.697858 0.168008
Si Si7 0.405086 0.297158 0.714432
Si Si8 0.690649 0.304572 0.314152
O O1 0.329793 0.232920 0.076974
O O2 0.176415 0.273708 0.129824
O O3 0.329404 0.267380 0.176620
O O4 0.262023 0.000000 0.134559
O O5 0.500000 0.247317 0.905373
O O6 0.603137 0.500000 0.915062
O O7 0.660838 0.224182 0.873408
O O8 0.616012 0.245561 0.977297
O O9 0.500000 0.259795 0.551072
O O10 0.402282 0.000000 0.539095
O O11 0.073677 0.152118 0.808446
O O12 0.904790 0.500000 0.800850
O O13 0.887018 0.295106 0.722167
O O14 0.776255 0.295657 0.799745
O O15 0.094074 0.500000 0.182136
O O16 0.000000 0.742045 0.148266
O O17 0.500000 0.234350 0.699310
O O18 0.405834 0.500000 0.709421
O O19 0.383322 0.252591 0.773957
O O20 0.707709 0.500000 0.304682
#
# Coordination Sequence:
#
# PCOD9358693 Si02
#       8
#     8   8   8   2   8   8   8   8
#     4  11  22  34  54  83 114 151 191 233 294 355
#     4   9  19  37  59  81 109 150 199 244 291 350
#     4   9  19  37  59  82 110 149 196 244 294 349
#     4  12  22  40  56  90 114 152 202 244 292 358
#     4  12  22  37  59  83 119 156 191 243 298 351
#     4  11  21  37  56  83 114 148 195 244 289 348
#     4  10  21  35  50  73 112 159 196 228 280 352
#     4  12  23  35  52  83 118 151 196 240 289 354
#
# _framework density 18.441103999999999
#
# number of rings (size 3 to 8) (size 9 to 14) (size 15 to 20)
#    0.000    1.379    3.448    3.931    0.000    4.966 
#    0.000    1.379    0.000    0.000    1.793    0.000 
#    0.000    0.000    0.000    0.000    0.000    0.000 
#
# Total GULP energy -161660.721744 kJ/mol
# GULP energy per Si atom -5574.507646 kJ/mol
# Density = 1.839913 g / cm^3
# Si number density = 18.441104 Si / 1000 Ang^3
#
#
#
# Elastic Constant Matrix: (Units=GPa)
#
#
# Indices 1 2 3 4 5 6 
#
# 1 146.9186 28.0669 52.6979 0.0000 0.0000 0.0000
# 2 28.0669 80.6335 4.1535 0.0000 0.0000 0.0000
# 3 52.6979 4.1535 63.2401 0.0000 0.0000 0.0000
# 4 0.0000 0.0000 0.0000 22.7218 0.0000 0.0000
# 5 0.0000 0.0000 0.0000 0.0000 32.8344 0.0000
# 6 0.0000 0.0000 0.0000 0.0000 0.0000 19.1247
#
#
#
# Elastic Compliance Matrix: (Units=1/GPa)
#
#
# Indices 1 2 3 4 5 6 
#
# 1 0.010474 -0.003207 -0.008518 0.000000 0.000000 0.000000
# 2 -0.003207 0.013426 0.001791 0.000000 0.000000 0.000000
# 3 -0.008518 0.001791 0.022793 0.000000 0.000000 0.000000
# 4 0.000000 0.000000 0.000000 0.044011 0.000000 0.000000
# 5 0.000000 0.000000 0.000000 0.000000 0.030456 0.000000
# 6 0.000000 0.000000 0.000000 0.000000 0.000000 0.052288
#
#
# Mechanical properties :
#
#
# Convention : Reuss Voigt Hill
#
# Bulk Modulus (GPa) = 37.27862 51.18097 44.22979
# Shear Modulus (GPa) = 24.72095 28.66112 26.69104
#
# Velocity S-wave (km/s) = 3.66530 3.94661 3.80855
# Velocity P-wave (km/s) = 6.17830 6.97005 6.58609
#
# Compressibility (1/GPa) = 0.02682503
#
# Stress axis : x y z
#
# Youngs Moduli (GPa) = 95.47144 74.48291 43.87339
#
# Poissons Ratio (x) = 0.23888 0.37370
# Poissons Ratio (y) = 0.30619 -0.07857
# Poissons Ratio (z) = 0.81319 -0.13338
#
# Static dielectric constant tensor:
#      x y z
#    x 1.650360 0.000000 0.000000 
#    y 0.000000 1.665210 0.000000 
#    z 0.000000 0.000000 1.610830 
# 
# From -- ./inp_files/22839.got.cif
#   From: 2010.05.17/outbox.cif.g08.bks.cpg/sg38_12_cif.got.tgz:22839.got - 2010.06.03 18:07:57.
