data_PCOD9358342
_publ_section_title
;
Structure prediction by ZEFSAII (Michael W. Deem and Ramdas Pophale) SiO2 
 PCOD9358342
Probable space group: A M M 2
;
_chemical_formula_sum "Si O2"
_cell_formula_units_Z 48
_cell_length_a 9.628613
_cell_length_b 23.172209
_cell_length_c 10.196659
_cell_angle_alpha 90.000000
_cell_angle_beta 90.000000
_cell_angle_gamma 90.000000
_cell_volume 2275.040143
_symmetry_space_group_name_H-M "A M M 2"
_symmetry_group_IT_number 38
_symmetry_cell_setting 'orthorhombic'
loop_
_space_group_symop_operation_xyz
x,y,z
-x,-y,z
-x,y,z
x,-y,z
x,1/2+y,1/2+z
-x,1/2-y,1/2+z
-x,1/2+y,1/2+z
x,1/2-y,1/2+z
loop_
_atom_site_type_symbol
_atom_site_label
_atom_site_fract_x
_atom_site_fract_y
_atom_site_fract_z
Si Si1 0.842443 0.260844 0.179210
Si Si2 0.333314 0.434675 0.546160
Si Si3 0.340701 0.929176 0.760251
Si Si4 0.657773 0.250597 0.915424
Si Si5 0.841492 0.433407 0.019637
Si Si6 0.760786 0.644494 0.781202
O O1 0.746336 0.282983 0.301682
O O2 0.857114 0.193788 0.220731
O O3 0.000000 0.285084 0.164864
O O4 0.751124 0.258385 0.046121
O O5 0.500000 0.437358 0.534883
O O6 0.282646 0.500000 0.570105
O O7 0.283747 0.413739 0.403647
O O8 0.295812 0.393567 0.663935
O O9 0.500000 0.910296 0.746348
O O10 0.252392 0.909646 0.636733
O O11 0.340263 0.000000 0.759508
O O12 0.500000 0.228662 0.938826
O O13 0.649293 0.314877 0.853837
O O14 0.800471 0.500000 0.992024
O O15 0.000000 0.433651 0.064221
O O16 0.827056 0.396004 0.890022
#
# Coordination Sequence:
#
# PCOD9358342 Si02
#       6
#     8   8   8   8   8   8
#     4  10  22  41  65  86 118 157 198 247 311 372
#     4   9  17  33  58  89 124 160 198 244 292 345
#     4   8  16  32  53  78 110 150 195 240 285 336
#     4  10  22  40  65  90 118 150 199 256 308 360
#     4  10  20  36  58  86 123 163 200 242 288 347
#     4  10  22  36  60  84 124 154 203 244 309 350
#
# _framework density 21.098531000000001
#
# number of rings (size 3 to 8) (size 9 to 14) (size 15 to 20)
#    1.000    1.500    0.000    3.500    0.000    1.333 
#    3.000    3.333    0.000    4.000    0.000    0.000 
#    0.000    0.000    0.000    0.000    0.000    0.000 
#
# Total GULP energy -133719.691076 kJ/mol
# GULP energy per Si atom -5571.653795 kJ/mol
# Density = 2.105051 g / cm^3
# Si number density = 21.098531 Si / 1000 Ang^3
#
#
#
# Elastic Constant Matrix: (Units=GPa)
#
#
# Indices 1 2 3 4 5 6 
#
# 1 113.5247 3.7399 51.8770 0.0000 0.0000 0.0000
# 2 3.7399 62.2498 29.4089 0.0000 0.0000 0.0000
# 3 51.8770 29.4089 137.6059 0.0000 0.0000 0.0000
# 4 0.0000 0.0000 0.0000 14.9231 0.0000 0.0000
# 5 0.0000 0.0000 0.0000 0.0000 18.3841 0.0000
# 6 0.0000 0.0000 0.0000 0.0000 0.0000 -99.9874
#
#
#
# Elastic Compliance Matrix: (Units=1/GPa)
#
#
# Indices 1 2 3 4 5 6 
#
# 1 0.010752 0.001412 -0.004355 0.000000 0.000000 0.000000
# 2 0.001412 0.018054 -0.004391 0.000000 0.000000 0.000000
# 3 -0.004355 -0.004391 0.009847 0.000000 0.000000 0.000000
# 4 0.000000 0.000000 0.000000 0.067010 0.000000 0.000000
# 5 0.000000 0.000000 0.000000 0.000000 0.054395 0.000000
# 6 0.000000 0.000000 0.000000 0.000000 0.000000 -0.010001
#
#
# Mechanical properties :
#
#
# Convention : Reuss Voigt Hill
#
# Bulk Modulus (GPa) = 41.69274 53.71466 47.70370
# Shear Modulus (GPa) = 28.94841 1.88760 15.41801
#
# Velocity S-wave (km/s) = 3.70815 0.94689 2.70619
# Velocity P-wave (km/s) = 6.17557 5.16814 5.69418
#
# Compressibility (1/GPa) = 0.02398499
#
# Stress axis : x y z
#
# Youngs Moduli (GPa) = 93.00269 55.39007 101.54945
#
# Poissons Ratio (x) = -0.07819 0.44228
# Poissons Ratio (y) = -0.13128 0.44586
# Poissons Ratio (z) = 0.40505 0.24320
#
# Static dielectric constant tensor:
#      x y z
#    x 1.770470 0.000000 0.000000 
#    y 0.000000 1.838330 0.000000 
#    z 0.000000 0.000000 1.744740 
# 
# From -- ./inp_files/8132.got.cif
#   From: 2010.05.17/outbox.cif.g08.bks.cpg/sg38_5_cif.got.tgz:8132.got - 2010.06.03 18:07:57.
