data_PCOD9358867
_publ_section_title
;
Structure prediction by ZEFSAII (Michael W. Deem and Ramdas Pophale) SiO2 
 PCOD9358867
Probable space group: A M M 2
;
_chemical_formula_sum "Si O2"
_cell_formula_units_Z 64
_cell_length_a 14.902449
_cell_length_b 8.940775
_cell_length_c 25.356722
_cell_angle_alpha 90.000000
_cell_angle_beta 90.000000
_cell_angle_gamma 90.000000
_cell_volume 3378.515527
_symmetry_space_group_name_H-M "A M M 2"
_symmetry_group_IT_number 38
_symmetry_cell_setting 'orthorhombic'
loop_
_space_group_symop_operation_xyz
x,y,z
-x,-y,z
-x,y,z
x,-y,z
x,1/2+y,1/2+z
-x,1/2-y,1/2+z
-x,1/2+y,1/2+z
x,1/2-y,1/2+z
loop_
_atom_site_type_symbol
_atom_site_label
_atom_site_fract_x
_atom_site_fract_y
_atom_site_fract_z
Si Si1 0.105645 0.819099 0.623960
Si Si2 0.103021 0.179544 0.348971
Si Si3 0.749409 0.818918 0.432766
Si Si4 0.890623 0.672322 0.240981
Si Si5 0.397329 0.682212 0.847748
Si Si6 0.390648 0.327929 0.731966
Si Si7 0.251075 0.322047 0.548070
Si Si8 0.392615 0.675320 0.123318
O O1 0.135625 0.770833 0.682995
O O2 0.166725 0.744329 0.580145
O O3 0.000000 0.784379 0.617368
O O4 0.114146 0.000000 0.621942
O O5 0.164060 0.224555 0.398027
O O6 0.137407 0.238385 0.292666
O O7 0.000000 0.229434 0.355670
O O8 0.104262 0.000000 0.346718
O O9 0.665200 0.775281 0.396112
O O10 0.747646 0.744081 0.489412
O O11 0.749003 0.000000 0.438770
O O12 0.862544 0.500000 0.245960
O O13 0.000000 0.674375 0.240129
O O14 0.500000 0.731396 0.854943
O O15 0.397593 0.500000 0.845324
O O16 0.363217 0.729725 0.789770
O O17 0.500000 0.330929 0.733916
O O18 0.360698 0.500000 0.724752
O O19 0.365493 0.230002 0.681769
O O20 0.247027 0.500000 0.546916
O O21 0.338418 0.267245 0.580090
O O22 0.500000 0.696420 0.118263
O O23 0.372560 0.500000 0.117311
#
# Coordination Sequence:
#
# PCOD9358867 Si02
#       8
#     8   8   8   8   8   8   8   8
#     4   9  19  38  62  85 112 147 184 224 274 331
#     4   9  18  32  51  77 109 143 176 214 263 318
#     4  10  21  37  54  73 101 140 189 231 263 315
#     4   8  15  30  54  83 111 138 170 212 266 325
#     4   8  15  30  54  81 106 134 170 216 270 324
#     4   8  14  28  52  82 113 140 170 214 269 326
#     4  12  26  40  55  79 111 146 189 237 281 327
#     4  10  21  38  60  84 111 146 186 226 272 329
#
# _framework density 18.943231999999998
#
# number of rings (size 3 to 8) (size 9 to 14) (size 15 to 20)
#    0.000    2.750    0.000    3.000    0.000    4.000 
#    0.000    5.625    0.000    0.750    0.000    0.000 
#    0.000    0.000    0.000    0.000    0.000    0.000 
#
# Total GULP energy -178560.925454 kJ/mol
# GULP energy per Si atom -5580.028920 kJ/mol
# Density = 1.890012 g / cm^3
# Si number density = 18.943232 Si / 1000 Ang^3
#
#
#
# Elastic Constant Matrix: (Units=GPa)
#
#
# Indices 1 2 3 4 5 6 
#
# 1 80.9370 33.4161 70.4741 0.0000 0.0000 0.0000
# 2 33.4161 44.8996 58.0861 0.0000 0.0000 0.0000
# 3 70.4741 58.0861 203.3757 0.0000 0.0000 0.0000
# 4 0.0000 0.0000 0.0000 71.1315 0.0000 0.0000
# 5 0.0000 0.0000 0.0000 0.0000 32.0675 0.0000
# 6 0.0000 0.0000 0.0000 0.0000 0.0000 15.8538
#
#
#
# Elastic Compliance Matrix: (Units=1/GPa)
#
#
# Indices 1 2 3 4 5 6 
#
# 1 0.019889 -0.009336 -0.004226 0.000000 0.000000 0.000000
# 2 -0.009336 0.039706 -0.008105 0.000000 0.000000 0.000000
# 3 -0.004226 -0.008105 0.008696 0.000000 0.000000 0.000000
# 4 0.000000 0.000000 0.000000 0.014058 0.000000 0.000000
# 5 0.000000 0.000000 0.000000 0.000000 0.031184 0.000000
# 6 0.000000 0.000000 0.000000 0.000000 0.000000 0.063076
#
#
# Mechanical properties :
#
#
# Convention : Reuss Voigt Hill
#
# Bulk Modulus (GPa) = 40.06765 72.57389 56.32077
# Shear Modulus (GPa) = 21.90462 34.95962 28.43212
#
# Velocity S-wave (km/s) = 3.40417 4.30058 3.87836
# Velocity P-wave (km/s) = 6.05380 7.94068 7.06056
#
# Compressibility (1/GPa) = 0.02495779
#
# Stress axis : x y z
#
# Youngs Moduli (GPa) = 50.27901 25.18535 114.99206
#
# Poissons Ratio (x) = 0.23512 0.48592
# Poissons Ratio (y) = 0.46938 0.93205
# Poissons Ratio (z) = 0.21246 0.20414
#
# Static dielectric constant tensor:
#      x y z
#    x 1.690570 0.000000 0.000000 
#    y 0.000000 1.632070 0.000000 
#    z 0.000000 0.000000 1.636550 
# 
# From -- ./inp_files/22908.got.cif
#   From: 2010.05.17/outbox.cif.g08.bks.cpg/sg38_12_cif.got.tgz:22908.got - 2010.06.03 18:07:57.
