data_PCOD9358246
_publ_section_title
;
Structure prediction by ZEFSAII (Michael W. Deem and Ramdas Pophale) SiO2 
 PCOD9358246
Probable space group: A M M 2
;
_chemical_formula_sum "Si O2"
_cell_formula_units_Z 40
_cell_length_a 8.848950
_cell_length_b 11.027175
_cell_length_c 19.516493
_cell_angle_alpha 90.000000
_cell_angle_beta 90.000000
_cell_angle_gamma 90.000000
_cell_volume 1904.398313
_symmetry_space_group_name_H-M "A M M 2"
_symmetry_group_IT_number 38
_symmetry_cell_setting 'orthorhombic'
loop_
_space_group_symop_operation_xyz
x,y,z
-x,-y,z
-x,y,z
x,-y,z
x,1/2+y,1/2+z
-x,1/2-y,1/2+z
-x,1/2+y,1/2+z
x,1/2-y,1/2+z
loop_
_atom_site_type_symbol
_atom_site_label
_atom_site_fract_x
_atom_site_fract_y
_atom_site_fract_z
Si Si1 0.681035 0.867464 0.033490
Si Si2 0.181242 0.631652 0.103462
Si Si3 0.829001 0.000000 0.399951
Si Si4 0.170642 0.000000 0.233572
Si Si5 0.679347 0.244708 0.892476
Si Si6 0.817637 0.263005 0.244805
O O1 0.500000 0.863893 0.042804
O O2 0.750915 0.750032 0.068704
O O3 0.736602 0.000000 0.057230
O O4 0.711080 0.850655 0.952395
O O5 0.234500 0.500000 0.077601
O O6 0.214179 0.643427 0.184639
O O7 0.000000 0.636508 0.095715
O O8 0.838042 0.000000 0.316722
O O9 0.745876 0.125159 0.416299
O O10 0.000000 0.000000 0.427191
O O11 0.241176 0.869439 0.218820
O O12 0.000000 0.000000 0.204921
O O13 0.500000 0.257082 0.884507
O O14 0.750125 0.211849 0.819152
O O15 0.000000 0.252244 0.252310
#
# Coordination Sequence:
#
# PCOD9358246 Si02
#       6
#     8   8   4   4   8   8
#     4  10  24  44  62  85 121 164 207 254 305 361
#     4  10  23  41  62  92 125 159 202 252 306 368
#     4   9  17  31  53  83 119 155 192 237 294 355
#     4   7  12  25  47  75 105 145 184 219 274 337
#     4  10  20  35  58  88 120 155 201 251 301 358
#     4   9  18  34  57  85 120 157 195 245 303 360
#
# _framework density 21.004010000000001
#
# number of rings (size 3 to 8) (size 9 to 14) (size 15 to 20)
#    0.000    2.600    0.000    2.100    2.800    4.000 
#    0.000    0.000    0.000    0.000    0.000    0.000 
#    0.000    0.000    0.000    0.000    0.000    0.000 
#
# Total GULP energy -111603.045952 kJ/mol
# GULP energy per Si atom -5580.152298 kJ/mol
# Density = 2.095620 g / cm^3
# Si number density = 21.004010 Si / 1000 Ang^3
#
#
#
# Elastic Constant Matrix: (Units=GPa)
#
#
# Indices 1 2 3 4 5 6 
#
# 1 35.0648 39.3291 32.9951 0.0000 0.0000 0.0000
# 2 39.3291 168.7484 57.3673 0.0000 0.0000 0.0000
# 3 32.9951 57.3673 86.5156 0.0000 0.0000 0.0000
# 4 0.0000 0.0000 0.0000 30.7007 0.0000 0.0000
# 5 0.0000 0.0000 0.0000 0.0000 28.4455 0.0000
# 6 0.0000 0.0000 0.0000 0.0000 0.0000 22.9800
#
#
#
# Elastic Compliance Matrix: (Units=1/GPa)
#
#
# Indices 1 2 3 4 5 6 
#
# 1 0.049624 -0.006625 -0.014533 0.000000 0.000000 0.000000
# 2 -0.006625 0.008535 -0.003133 0.000000 0.000000 0.000000
# 3 -0.014533 -0.003133 0.019178 0.000000 0.000000 0.000000
# 4 0.000000 0.000000 0.000000 0.032573 0.000000 0.000000
# 5 0.000000 0.000000 0.000000 0.000000 0.035155 0.000000
# 6 0.000000 0.000000 0.000000 0.000000 0.000000 0.043516
#
#
# Mechanical properties :
#
#
# Convention : Reuss Voigt Hill
#
# Bulk Modulus (GPa) = 34.77454 61.07909 47.92682
# Shear Modulus (GPa) = 20.26361 27.13440 23.69901
#
# Velocity S-wave (km/s) = 3.10941 3.59816 3.36267
# Velocity P-wave (km/s) = 5.42986 6.81213 6.15989
#
# Compressibility (1/GPa) = 0.02875667
#
# Stress axis : x y z
#
# Youngs Moduli (GPa) = 20.15142 117.16334 52.14218
#
# Poissons Ratio (x) = 0.77623 0.75776
# Poissons Ratio (y) = 0.13351 0.16335
# Poissons Ratio (z) = 0.29285 0.36705
#
# Static dielectric constant tensor:
#      x y z
#    x 1.714480 0.000000 0.000000 
#    y 0.000000 1.790470 0.000000 
#    z 0.000000 0.000000 1.780670 
# 
# From -- ./inp_files/19525.got.cif
#   From: 2010.05.17/outbox.cif.g08.bks.cpg/sg38_10_cif.got.tgz:19525.got - 2010.06.03 18:07:57.
