data_PCOD9358322
_publ_section_title
;
Structure prediction by ZEFSAII (Michael W. Deem and Ramdas Pophale) SiO2 
 PCOD9358322
Probable space group: A M M 2
;
_chemical_formula_sum "Si O2"
_cell_formula_units_Z 64
_cell_length_a 18.546410
_cell_length_b 30.453925
_cell_length_c 5.007209
_cell_angle_alpha 90.000000
_cell_angle_beta 90.000000
_cell_angle_gamma 90.000000
_cell_volume 2828.126618
_symmetry_space_group_name_H-M "A M M 2"
_symmetry_group_IT_number 38
_symmetry_cell_setting 'orthorhombic'
loop_
_space_group_symop_operation_xyz
x,y,z
-x,-y,z
-x,y,z
x,-y,z
x,1/2+y,1/2+z
-x,1/2-y,1/2+z
-x,1/2+y,1/2+z
x,1/2-y,1/2+z
loop_
_atom_site_type_symbol
_atom_site_label
_atom_site_fract_x
_atom_site_fract_y
_atom_site_fract_z
Si Si1 0.726807 0.136019 0.892770
Si Si2 0.272140 0.776311 0.594530
Si Si3 0.616280 0.450868 0.905324
Si Si4 0.885832 0.643415 0.528126
Si Si5 0.900307 0.226952 0.676734
Si Si6 0.919585 0.411690 0.020378
Si Si7 0.578688 0.102333 0.927237
Si Si8 0.771175 0.451005 0.076507
O O1 0.648340 0.130153 0.019475
O O2 0.751023 0.089185 0.771195
O O3 0.714054 0.173458 0.670188
O O4 0.798696 0.150003 0.054290
O O5 0.298862 0.741370 0.813961
O O6 0.185602 0.772785 0.626272
O O7 0.597365 0.500000 0.992899
O O8 0.581018 0.438613 0.627610
O O9 0.593110 0.416135 0.130722
O O10 0.703461 0.449771 0.875752
O O11 0.914554 0.684556 0.357907
O O12 0.906393 0.604056 0.324349
O O13 0.913903 0.629624 0.817277
O O14 0.924755 0.265981 0.874515
O O15 0.849851 0.441349 0.955360
O O16 0.000000 0.430561 0.994923
O O17 0.500000 0.123583 0.940582
O O18 0.771339 0.500000 0.198103
#
# Coordination Sequence:
#
# PCOD9358322 Si02
#       8
#     8   8   8   8   8   8   8   8
#     4   9  20  37  60  86 118 153 192 238 288 336
#     4   9  18  31  53  84 112 141 186 239 285 332
#     4  10  21  37  56  80 112 149 192 238 283 339
#     4  10  20  36  58  80 108 147 189 232 283 342
#     4   9  16  28  50  80 107 133 175 232 285 334
#     4  11  22  37  57  80 109 147 189 233 278 330
#     4  11  22  35  54  81 114 153 192 233 285 339
#     4   9  20  39  62  88 116 151 193 235 286 345
#
# _framework density 22.629821
#
# number of rings (size 3 to 8) (size 9 to 14) (size 15 to 20)
#    0.000    2.250    0.000    2.625    0.000   10.250 
#    0.000    5.000    0.000   11.250    0.000    0.000 
#    0.000    0.000    0.000    0.000    0.000    0.000 
#
# Total GULP energy -178486.262213 kJ/mol
# GULP energy per Si atom -5577.695694 kJ/mol
# Density = 2.257831 g / cm^3
# Si number density = 22.629821 Si / 1000 Ang^3
#
#
#
# Elastic Constant Matrix: (Units=GPa)
#
#
# Indices 1 2 3 4 5 6 
#
# 1 158.0015 6.5409 6.6614 0.0000 0.0000 0.0000
# 2 6.5409 65.7364 -7.3821 0.0000 0.0000 0.0000
# 3 6.6614 -7.3821 66.1304 0.0000 0.0000 0.0000
# 4 0.0000 0.0000 0.0000 22.3396 0.0000 0.0000
# 5 0.0000 0.0000 0.0000 0.0000 12.9986 0.0000
# 6 0.0000 0.0000 0.0000 0.0000 0.0000 -7.6005
#
#
#
# Elastic Compliance Matrix: (Units=1/GPa)
#
#
# Indices 1 2 3 4 5 6 
#
# 1 0.006389 -0.000717 -0.000724 0.000000 0.000000 0.000000
# 2 -0.000717 0.015486 0.001801 0.000000 0.000000 0.000000
# 3 -0.000724 0.001801 0.015396 0.000000 0.000000 0.000000
# 4 0.000000 0.000000 0.000000 0.044764 0.000000 0.000000
# 5 0.000000 0.000000 0.000000 0.000000 0.076931 0.000000
# 6 0.000000 0.000000 0.000000 0.000000 0.000000 -0.131570
#
#
# Mechanical properties :
#
#
# Convention : Reuss Voigt Hill
#
# Bulk Modulus (GPa) = 26.32192 33.50098 29.91145
# Shear Modulus (GPa) = 127.10273 24.48410 75.79341
#
# Velocity S-wave (km/s) = 7.50253 3.29285 5.79357
# Velocity P-wave (km/s) = 9.31168 5.41232 7.61579
#
# Compressibility (1/GPa) = 0.03799116
#
# Stress axis : x y z
#
# Youngs Moduli (GPa) = 156.51304 64.57510 64.95382
#
# Poissons Ratio (x) = 0.04630 0.04700
# Poissons Ratio (y) = 0.11222 -0.11698
# Poissons Ratio (z) = 0.11326 -0.11629
#
# Static dielectric constant tensor:
#      x y z
#    x 1.865410 0.000000 0.000000 
#    y 0.000000 1.893200 0.000000 
#    z 0.000000 0.000000 1.821830 
# 
# From -- ./inp_files/1753.got.cif
#   From: 2010.05.17/outbox.cif.g08.bks.cpg/sg38_1_cif.got.tgz:1753.got - 2010.06.03 18:07:57.
