data_PCOD9358443
_publ_section_title
;
Structure prediction by ZEFSAII (Michael W. Deem and Ramdas Pophale) SiO2 
 PCOD9358443
Probable space group: A M M 2
;
_chemical_formula_sum "Si O2"
_cell_formula_units_Z 44
_cell_length_a 11.863336
_cell_length_b 15.479513
_cell_length_c 13.687698
_cell_angle_alpha 90.000000
_cell_angle_beta 90.000000
_cell_angle_gamma 90.000000
_cell_volume 2513.590572
_symmetry_space_group_name_H-M "A M M 2"
_symmetry_group_IT_number 38
_symmetry_cell_setting 'orthorhombic'
loop_
_space_group_symop_operation_xyz
x,y,z
-x,-y,z
-x,y,z
x,-y,z
x,1/2+y,1/2+z
-x,1/2-y,1/2+z
-x,1/2+y,1/2+z
x,1/2-y,1/2+z
loop_
_atom_site_type_symbol
_atom_site_label
_atom_site_fract_x
_atom_site_fract_y
_atom_site_fract_z
Si Si1 0.268532 0.405233 0.650850
Si Si2 0.745546 0.600449 0.245405
Si Si3 0.500000 0.295694 0.957213
Si Si4 0.500000 0.344739 0.181486
Si Si5 0.500000 0.855453 0.250585
Si Si6 0.273535 0.683290 0.454110
Si Si7 0.133690 0.741044 0.117727
O O1 0.220655 0.500000 0.669341
O O2 0.386664 0.394253 0.705678
O O3 0.291179 0.391499 0.535134
O O4 0.187058 0.324475 0.673977
O O5 0.776625 0.500000 0.246717
O O6 0.613472 0.610699 0.218653
O O7 0.761682 0.644301 0.351250
O O8 0.814601 0.656152 0.166677
O O9 0.500000 0.361340 0.867172
O O10 0.389119 0.236503 0.946679
O O11 0.500000 0.337614 0.064126
O O12 0.500000 0.246116 0.221048
O O13 0.181624 0.744049 0.508058
O O14 0.000000 0.741670 0.120380
#
# Coordination Sequence:
#
# PCOD9358443 Si02
#       7
#     8   8   4   4   4   8   8
#     4  10  20  37  60  88 119 152 199 251 304 362
#     4  12  23  39  65  96 126 160 203 254 312 371
#     4  12  18  34  64  82 124 168 195 241 307 379
#     4  12  19  38  57  93 128 163 193 243 309 382
#     4  12  19  34  59  91 118 157 198 246 306 373
#     4  10  20  36  62  91 121 153 200 248 310 358
#     4  10  23  41  60  86 124 164 202 251 303 357
#
# _framework density 17.504839
#
# number of rings (size 3 to 8) (size 9 to 14) (size 15 to 20)
#    1.091    0.000    7.273    1.091    0.000    1.455 
#    0.000    4.545    0.000    0.000    0.000    2.545 
#    0.000    0.000    0.000    0.000    0.000    0.000 
#
# Total GULP energy -122642.442885 kJ/mol
# GULP energy per Si atom -5574.656495 kJ/mol
# Density = 1.746500 g / cm^3
# Si number density = 17.504839 Si / 1000 Ang^3
#
#
#
# Elastic Constant Matrix: (Units=GPa)
#
#
# Indices 1 2 3 4 5 6 
#
# 1 128.2910 48.6714 30.1778 0.0000 0.0000 0.0000
# 2 48.6714 104.6151 48.9940 0.0000 0.0000 0.0000
# 3 30.1778 48.9940 122.7785 0.0000 0.0000 0.0000
# 4 0.0000 0.0000 0.0000 -2.1685 0.0000 0.0000
# 5 0.0000 0.0000 0.0000 0.0000 -2.1847 0.0000
# 6 0.0000 0.0000 0.0000 0.0000 0.0000 50.8025
#
#
#
# Elastic Compliance Matrix: (Units=1/GPa)
#
#
# Indices 1 2 3 4 5 6 
#
# 1 0.009515 -0.004097 -0.000704 0.000000 0.000000 0.000000
# 2 -0.004097 0.013520 -0.004388 0.000000 0.000000 0.000000
# 3 -0.000704 -0.004388 0.010069 0.000000 0.000000 0.000000
# 4 0.000000 0.000000 0.000000 -0.461141 0.000000 0.000000
# 5 0.000000 0.000000 0.000000 0.000000 -0.457727 0.000000
# 6 0.000000 0.000000 0.000000 0.000000 0.000000 0.019684
#
#
# Mechanical properties :
#
#
# Convention : Reuss Voigt Hill
#
# Bulk Modulus (GPa) = 67.90818 67.93011 67.91914
# Shear Modulus (GPa) = -5.93264 24.47927 9.27331
#
# Velocity S-wave (km/s) = -1.84296 3.74361 2.30414
# Velocity P-wave (km/s) = 5.86084 7.58795 6.77962
#
# Compressibility (1/GPa) = 0.01472577
#
# Stress axis : x y z
#
# Youngs Moduli (GPa) = 105.10085 73.96437 99.31729
#
# Poissons Ratio (x) = 0.30304 0.06989
# Poissons Ratio (y) = 0.43061 0.43581
# Poissons Ratio (z) = 0.07396 0.32456
#
# Static dielectric constant tensor:
#      x y z
#    x 1.564730 0.000000 0.000000 
#    y 0.000000 1.600980 0.000000 
#    z 0.000000 0.000000 1.610490 
# 
# From -- ./inp_files/13655.got.cif
#   From: 2010.05.17/outbox.cif.g08.bks.cpg/sg38_7_cif.got.tgz:13655.got - 2010.06.03 18:07:57.
