data_PCOD9358351
_publ_section_title
;
Structure prediction by ZEFSAII (Michael W. Deem and Ramdas Pophale) SiO2 
 PCOD9358351
Probable space group: A M M 2
;
_chemical_formula_sum "Si O2"
_cell_formula_units_Z 48
_cell_length_a 8.777769
_cell_length_b 16.742713
_cell_length_c 18.730555
_cell_angle_alpha 90.000000
_cell_angle_beta 90.000000
_cell_angle_gamma 90.000000
_cell_volume 2752.711051
_symmetry_space_group_name_H-M "A M M 2"
_symmetry_group_IT_number 38
_symmetry_cell_setting 'orthorhombic'
loop_
_space_group_symop_operation_xyz
x,y,z
-x,-y,z
-x,y,z
x,-y,z
x,1/2+y,1/2+z
-x,1/2-y,1/2+z
-x,1/2+y,1/2+z
x,1/2-y,1/2+z
loop_
_atom_site_type_symbol
_atom_site_label
_atom_site_fract_x
_atom_site_fract_y
_atom_site_fract_z
Si Si1 0.817619 0.822531 0.528450
Si Si2 0.181969 0.500000 0.258921
Si Si3 0.321217 0.000000 0.916260
Si Si4 0.317505 0.592887 0.890782
Si Si5 0.681953 0.657254 0.184953
Si Si6 0.819427 0.661796 0.445353
Si Si7 0.182412 0.263926 0.803931
O O1 0.750219 0.879406 0.466925
O O2 0.742483 0.837370 0.604496
O O3 0.788105 0.732019 0.501647
O O4 0.000000 0.833439 0.531973
O O5 0.231092 0.500000 0.341389
O O6 0.249219 0.421866 0.221215
O O7 0.000000 0.500000 0.253883
O O8 0.272835 0.919013 0.955747
O O9 0.500000 0.000000 0.901661
O O10 0.500000 0.603040 0.891997
O O11 0.282737 0.500000 0.877845
O O12 0.246050 0.652022 0.832105
O O13 0.500000 0.654052 0.186424
O O14 0.741615 0.731180 0.232407
O O15 0.783992 0.700618 0.367845
O O16 0.000000 0.644389 0.446461
O O17 0.000000 0.267620 0.796378
#
# Coordination Sequence:
#
# PCOD9358351 Si02
#       7
#     8   4   4   8   8   8   8
#     4  10  22  39  59  82 113 153 192 229 281 342
#     4  12  24  38  56  82 118 153 188 227 276 338
#     4  12  22  32  56  88 116 145 184 233 282 328
#     4  10  21  37  58  85 116 148 189 239 285 329
#     4  12  24  38  58  85 118 150 186 233 288 338
#     4   9  19  36  57  80 110 149 190 230 273 330
#     4  10  20  36  59  83 111 150 192 231 280 338
#
# _framework density 17.437353999999999
#
# number of rings (size 3 to 8) (size 9 to 14) (size 15 to 20)
#    0.000    1.500    1.667    5.500    1.167    4.667 
#    0.000    0.000    1.833    0.000    0.000    0.000 
#    0.000    0.000    0.000    0.000    0.000    0.000 
#
# Total GULP energy -134109.697350 kJ/mol
# GULP energy per Si atom -5587.904056 kJ/mol
# Density = 1.739767 g / cm^3
# Si number density = 17.437354 Si / 1000 Ang^3
#
#
#
# Elastic Constant Matrix: (Units=GPa)
#
#
# Indices 1 2 3 4 5 6 
#
# 1 101.0069 63.7806 26.9687 0.0000 0.0000 0.0000
# 2 63.7806 123.7924 34.2041 0.0000 0.0000 0.0000
# 3 26.9687 34.2041 66.8060 0.0000 0.0000 0.0000
# 4 0.0000 0.0000 0.0000 14.6287 0.0000 0.0000
# 5 0.0000 0.0000 0.0000 0.0000 28.8209 0.0000
# 6 0.0000 0.0000 0.0000 0.0000 0.0000 31.8612
#
#
#
# Elastic Compliance Matrix: (Units=1/GPa)
#
#
# Indices 1 2 3 4 5 6 
#
# 1 0.015010 -0.007058 -0.002446 0.000000 0.000000 0.000000
# 2 -0.007058 0.012728 -0.003667 0.000000 0.000000 0.000000
# 3 -0.002446 -0.003667 0.017834 0.000000 0.000000 0.000000
# 4 0.000000 0.000000 0.000000 0.068359 0.000000 0.000000
# 5 0.000000 0.000000 0.000000 0.000000 0.034697 0.000000
# 6 0.000000 0.000000 0.000000 0.000000 0.000000 0.031386
#
#
# Mechanical properties :
#
#
# Convention : Reuss Voigt Hill
#
# Bulk Modulus (GPa) = 52.00329 60.16800 56.08565
# Shear Modulus (GPa) = 23.50016 26.17230 24.83623
#
# Velocity S-wave (km/s) = 3.67507 3.87839 3.77810
# Velocity P-wave (km/s) = 6.92069 7.39162 7.16002
#
# Compressibility (1/GPa) = 0.01922955
#
# Stress axis : x y z
#
# Youngs Moduli (GPa) = 66.62280 78.56949 56.07360
#
# Poissons Ratio (x) = 0.55451 0.13715
# Poissons Ratio (y) = 0.47020 0.20564
# Poissons Ratio (z) = 0.16295 0.28814
#
# Static dielectric constant tensor:
#      x y z
#    x 1.578120 0.000000 0.000000 
#    y 0.000000 1.594610 0.000000 
#    z 0.000000 0.000000 1.564060 
# 
# From -- ./inp_files/16691.got.cif
#   From: 2010.05.17/outbox.cif.g08.bks.cpg/sg38_9_cif.got.tgz:16691.got - 2010.06.03 18:07:57.
