data_PCOD9358461
_publ_section_title
;
Structure prediction by ZEFSAII (Michael W. Deem and Ramdas Pophale) SiO2 
 PCOD9358461
Probable space group: A M M 2
;
_chemical_formula_sum "Si O2"
_cell_formula_units_Z 64
_cell_length_a 19.462338
_cell_length_b 8.686289
_cell_length_c 20.328494
_cell_angle_alpha 90.000000
_cell_angle_beta 90.000000
_cell_angle_gamma 90.000000
_cell_volume 3436.643565
_symmetry_space_group_name_H-M "A M M 2"
_symmetry_group_IT_number 38
_symmetry_cell_setting 'orthorhombic'
loop_
_space_group_symop_operation_xyz
x,y,z
-x,-y,z
-x,y,z
x,-y,z
x,1/2+y,1/2+z
-x,1/2-y,1/2+z
-x,1/2+y,1/2+z
x,1/2-y,1/2+z
loop_
_atom_site_type_symbol
_atom_site_label
_atom_site_fract_x
_atom_site_fract_y
_atom_site_fract_z
Si Si1 0.195304 0.186073 0.848840
Si Si2 0.657503 0.819119 0.050043
Si Si3 0.920739 0.685884 0.246768
Si Si4 0.662904 0.318952 0.796006
Si Si5 0.920685 0.185945 0.104111
Si Si6 0.806033 0.312166 0.501088
Si Si7 0.579392 0.816191 0.674081
Si Si8 0.581041 0.820757 0.430571
O O1 0.130212 0.235305 0.804880
O O2 0.264520 0.242984 0.813932
O O3 0.196066 0.000000 0.850100
O O4 0.192209 0.239454 0.924970
O O5 0.735279 0.764443 0.036422
O O6 0.617096 0.733860 0.107471
O O7 0.659593 0.000000 0.065576
O O8 0.617058 0.788770 0.982681
O O9 0.919165 0.500000 0.243763
O O10 0.899476 0.750277 0.175479
O O11 0.000000 0.733195 0.258439
O O12 0.673511 0.500000 0.784637
O O13 0.623894 0.248044 0.734167
O O14 0.614506 0.299394 0.859557
O O15 0.870386 0.236496 0.045619
O O16 0.000000 0.232453 0.092679
O O17 0.918561 0.000000 0.106873
O O18 0.805857 0.500000 0.499492
O O19 0.500000 0.760205 0.675642
O O20 0.577826 0.000000 0.677859
O O21 0.500000 0.793992 0.428229
O O22 0.592404 0.000000 0.450298
#
# Coordination Sequence:
#
# PCOD9358461 Si02
#       8
#     8   8   8   8   8   8   8   8
#     4  10  20  37  58  82 116 154 191 235 283 337
#     4  11  22  37  58  85 117 151 189 236 284 340
#     4   9  19  35  56  84 115 149 189 233 282 335
#     4  11  23  39  60  86 116 150 191 239 286 342
#     4   9  18  34  57  83 112 149 191 234 280 331
#     4   9  19  35  55  82 115 147 187 234 278 330
#     4  11  25  43  61  83 114 150 191 240 292 347
#     4  10  21  38  59  82 111 147 187 233 285 340
#
# _framework density 18.622821999999999
#
# number of rings (size 3 to 8) (size 9 to 14) (size 15 to 20)
#    0.000    2.000    1.250    1.875    1.750    4.750 
#    0.000    3.750    0.000    0.000    0.000    3.500 
#    0.000    0.000    0.000    0.000    0.000    0.000 
#
# Total GULP energy -178666.748221 kJ/mol
# GULP energy per Si atom -5583.335882 kJ/mol
# Density = 1.858044 g / cm^3
# Si number density = 18.622822 Si / 1000 Ang^3
#
#
#
# Elastic Constant Matrix: (Units=GPa)
#
#
# Indices 1 2 3 4 5 6 
#
# 1 93.8004 10.6307 39.4778 0.0000 0.0000 0.0000
# 2 10.6307 11.6795 16.5355 0.0000 0.0000 0.0000
# 3 39.4778 16.5355 75.3599 0.0000 0.0000 0.0000
# 4 0.0000 0.0000 0.0000 32.7634 0.0000 0.0000
# 5 0.0000 0.0000 0.0000 0.0000 40.1212 0.0000
# 6 0.0000 0.0000 0.0000 0.0000 0.0000 23.0064
#
#
#
# Elastic Compliance Matrix: (Units=1/GPa)
#
#
# Indices 1 2 3 4 5 6 
#
# 1 0.013767 -0.003366 -0.006473 0.000000 0.000000 0.000000
# 2 -0.003366 0.125027 -0.025670 0.000000 0.000000 0.000000
# 3 -0.006473 -0.025670 0.022293 0.000000 0.000000 0.000000
# 4 0.000000 0.000000 0.000000 0.030522 0.000000 0.000000
# 5 0.000000 0.000000 0.000000 0.000000 0.024924 0.000000
# 6 0.000000 0.000000 0.000000 0.000000 0.000000 0.043466
#
#
# Mechanical properties :
#
#
# Convention : Reuss Voigt Hill
#
# Bulk Modulus (GPa) = 11.10268 34.90308 23.00288
# Shear Modulus (GPa) = 13.84883 26.79125 20.32004
#
# Velocity S-wave (km/s) = 2.72995 3.79704 3.30682
# Velocity P-wave (km/s) = 3.98894 6.16491 5.19219
#
# Compressibility (1/GPa) = 0.09006834
#
# Stress axis : x y z
#
# Youngs Moduli (GPa) = 72.63841 7.99827 44.85649
#
# Poissons Ratio (x) = 0.02692 0.29037
# Poissons Ratio (y) = 0.24449 1.15148
# Poissons Ratio (z) = 0.47021 0.20532
#
# Static dielectric constant tensor:
#      x y z
#    x 1.634390 0.000000 0.000000 
#    y 0.000000 1.640990 0.000000 
#    z 0.000000 0.000000 1.626750 
# 
# From -- ./inp_files/18842.got.cif
#   From: 2010.05.17/outbox.cif.g08.bks.cpg/sg38_10_cif.got.tgz:18842.got - 2010.06.03 18:07:57.
