data_PCOD9358215
_publ_section_title
;
Structure prediction by ZEFSAII (Michael W. Deem and Ramdas Pophale) SiO2 
 PCOD9358215
Probable space group: A M M 2
;
_chemical_formula_sum "Si O2"
_cell_formula_units_Z 64
_cell_length_a 8.799370
_cell_length_b 28.658496
_cell_length_c 12.839333
_cell_angle_alpha 90.000000
_cell_angle_beta 90.000000
_cell_angle_gamma 90.000000
_cell_volume 3237.780754
_symmetry_space_group_name_H-M "A M M 2"
_symmetry_group_IT_number 38
_symmetry_cell_setting 'orthorhombic'
loop_
_space_group_symop_operation_xyz
x,y,z
-x,-y,z
-x,y,z
x,-y,z
x,1/2+y,1/2+z
-x,1/2-y,1/2+z
-x,1/2+y,1/2+z
x,1/2-y,1/2+z
loop_
_atom_site_type_symbol
_atom_site_label
_atom_site_fract_x
_atom_site_fract_y
_atom_site_fract_z
Si Si1 0.682689 0.945710 0.471570
Si Si2 0.819220 0.094775 0.683333
Si Si3 0.815601 0.118359 0.289428
Si Si4 0.681819 0.195638 0.736617
Si Si5 0.673414 0.680155 0.464264
Si Si6 0.178070 0.949123 0.107209
Si Si7 0.672280 0.572323 0.394184
Si Si8 0.820061 0.290712 0.673889
O O1 0.500000 0.943610 0.470261
O O2 0.743762 0.929831 0.584186
O O3 0.747328 0.908747 0.387619
O O4 0.727394 0.000000 0.450438
O O5 0.759278 0.148169 0.695907
O O6 0.769914 0.068807 0.789772
O O7 0.000000 0.095030 0.672672
O O8 0.765171 0.089436 0.187108
O O9 0.773826 0.171957 0.263581
O O10 0.000000 0.116045 0.295867
O O11 0.500000 0.188968 0.732294
O O12 0.723186 0.205167 0.857918
O O13 0.734219 0.241722 0.677913
O O14 0.500000 0.693713 0.492057
O O15 0.670123 0.626719 0.426936
O O16 0.780983 0.687031 0.562022
O O17 0.000000 0.940113 0.087372
O O18 0.192424 0.000000 0.158104
O O19 0.260401 0.950197 0.997199
O O20 0.500000 0.557449 0.373309
O O21 0.000000 0.283241 0.683160
#
# Coordination Sequence:
#
# PCOD9358215 Si02
#       8
#     8   8   8   8   8   8   8   8
#     4  11  25  44  66  92 125 168 216 267 323 383
#     4  11  23  41  66  91 121 160 206 258 314 375
#     4  10  22  40  61  88 124 165 209 258 312 370
#     4  10  22  40  61  89 124 162 205 255 314 374
#     4   9  19  36  57  80 112 155 194 241 303 363
#     4  10  20  35  57  86 120 158 199 245 300 359
#     4  10  20  36  59  86 118 154 194 244 304 364
#     4  11  22  36  60  91 122 161 208 256 309 371
#
# _framework density 19.766624
#
# number of rings (size 3 to 8) (size 9 to 14) (size 15 to 20)
#    0.000    1.750    1.250    3.750    0.000    7.250 
#    0.000    2.500    0.000    0.000    0.000    0.000 
#    0.000    0.000    0.000    0.000    0.000    0.000 
#
# Total GULP energy -178631.330110 kJ/mol
# GULP energy per Si atom -5582.229066 kJ/mol
# Density = 1.972163 g / cm^3
# Si number density = 19.766624 Si / 1000 Ang^3
#
#
#
# Elastic Constant Matrix: (Units=GPa)
#
#
# Indices 1 2 3 4 5 6 
#
# 1 46.0742 13.6157 9.8502 0.0000 0.0000 0.0000
# 2 13.6157 48.6167 11.1541 0.0000 0.0000 0.0000
# 3 9.8502 11.1541 73.7269 0.0000 0.0000 0.0000
# 4 0.0000 0.0000 0.0000 22.1757 0.0000 0.0000
# 5 0.0000 0.0000 0.0000 0.0000 32.9602 0.0000
# 6 0.0000 0.0000 0.0000 0.0000 0.0000 144.0821
#
#
#
# Elastic Compliance Matrix: (Units=1/GPa)
#
#
# Indices 1 2 3 4 5 6 
#
# 1 0.024024 -0.006207 -0.002271 0.000000 0.000000 0.000000
# 2 -0.006207 0.022913 -0.002637 0.000000 0.000000 0.000000
# 3 -0.002271 -0.002637 0.014266 0.000000 0.000000 0.000000
# 4 0.000000 0.000000 0.000000 0.045094 0.000000 0.000000
# 5 0.000000 0.000000 0.000000 0.000000 0.030340 0.000000
# 6 0.000000 0.000000 0.000000 0.000000 0.000000 0.006940
#
#
# Mechanical properties :
#
#
# Convention : Reuss Voigt Hill
#
# Bulk Modulus (GPa) = 25.65918 26.40642 26.03280
# Shear Modulus (GPa) = 27.96460 48.76346 38.36403
#
# Velocity S-wave (km/s) = 3.76538 4.97224 4.41029
# Velocity P-wave (km/s) = 5.64919 6.80825 6.25562
#
# Compressibility (1/GPa) = 0.03897241
#
# Stress axis : x y z
#
# Youngs Moduli (GPa) = 41.62526 43.64426 70.09727
#
# Poissons Ratio (x) = 0.27091 0.15916
# Poissons Ratio (y) = 0.25838 0.18485
# Poissons Ratio (z) = 0.09451 0.11509
#
# Static dielectric constant tensor:
#      x y z
#    x 1.686630 0.000000 0.000000 
#    y 0.000000 1.742390 0.000000 
#    z 0.000000 0.000000 1.681510 
# 
# From -- ./inp_files/8651.got.cif
#   From: 2010.05.17/outbox.cif.g08.bks.cpg/sg38_5_cif.got.tgz:8651.got - 2010.06.03 18:07:57.
