data_PCOD9358492
_publ_section_title
;
Structure prediction by ZEFSAII (Michael W. Deem and Ramdas Pophale) SiO2 
 PCOD9358492
Probable space group: A M M 2
;
_chemical_formula_sum "Si O2"
_cell_formula_units_Z 48
_cell_length_a 14.781429
_cell_length_b 17.279090
_cell_length_c 9.991933
_cell_angle_alpha 90.000000
_cell_angle_beta 90.000000
_cell_angle_gamma 90.000000
_cell_volume 2552.036031
_symmetry_space_group_name_H-M "A M M 2"
_symmetry_group_IT_number 38
_symmetry_cell_setting 'orthorhombic'
loop_
_space_group_symop_operation_xyz
x,y,z
-x,-y,z
-x,y,z
x,-y,z
x,1/2+y,1/2+z
-x,1/2-y,1/2+z
-x,1/2+y,1/2+z
x,1/2-y,1/2+z
loop_
_atom_site_type_symbol
_atom_site_label
_atom_site_fract_x
_atom_site_fract_y
_atom_site_fract_z
Si Si1 0.000000 0.411339 0.533391
Si Si2 0.692600 0.586383 0.967296
Si Si3 0.702044 0.691310 0.721579
Si Si4 0.500000 0.756537 0.278944
Si Si5 0.197584 0.092693 0.015583
Si Si6 0.000000 0.590616 0.209132
Si Si7 0.500000 0.345763 0.040150
Si Si8 0.196753 0.144859 0.708850
O O1 0.901555 0.378326 0.568118
O O2 0.000000 0.413389 0.371329
O O3 0.000000 0.500000 0.582257
O O4 0.698852 0.500000 0.911769
O O5 0.589437 0.607614 0.002116
O O6 0.748579 0.594270 0.102785
O O7 0.727195 0.648201 0.859258
O O8 0.594669 0.706674 0.730365
O O9 0.726574 0.635579 0.599764
O O10 0.758238 0.770355 0.705449
O O11 0.500000 0.676147 0.196891
O O12 0.500000 0.770020 0.440105
O O13 0.200534 0.000000 0.029848
O O14 0.205743 0.113400 0.859653
O O15 0.091164 0.635702 0.171020
O O16 0.000000 0.500000 0.163679
#
# Coordination Sequence:
#
# PCOD9358492 Si02
#       8
#     4   8   8   4   8   4   4   8
#     4   7  14  31  55  79 109 147 182 226 284 336
#     4  11  22  38  59  87 119 153 193 239 294 349
#     4  11  23  38  58  85 118 154 190 239 294 350
#     4  10  22  38  58  82 118 154 186 236 300 342
#     4  10  20  37  60  85 114 152 197 239 285 342
#     4   9  18  35  57  85 120 151 188 242 299 340
#     4  10  21  38  60  84 113 156 192 236 289 350
#     4  11  21  37  61  87 111 155 196 238 286 348
#
# _framework density 18.808510999999999
#
# number of rings (size 3 to 8) (size 9 to 14) (size 15 to 20)
#    0.000    1.833    1.667    4.250    2.333    0.667 
#    0.000    4.583    0.000    1.000    0.000    0.000 
#    0.000    0.000    0.000    0.000    0.000    0.000 
#
# Total GULP energy -133787.330911 kJ/mol
# GULP energy per Si atom -5574.472121 kJ/mol
# Density = 1.876570 g / cm^3
# Si number density = 18.808511 Si / 1000 Ang^3
#
#
#
# Elastic Constant Matrix: (Units=GPa)
#
#
# Indices 1 2 3 4 5 6 
#
# 1 119.0255 35.8582 30.8022 0.0000 0.0000 0.0000
# 2 35.8582 93.8461 13.5948 0.0000 0.0000 0.0000
# 3 30.8022 13.5948 40.5881 0.0000 0.0000 0.0000
# 4 0.0000 0.0000 0.0000 23.3785 0.0000 0.0000
# 5 0.0000 0.0000 0.0000 0.0000 13.3317 0.0000
# 6 0.0000 0.0000 0.0000 0.0000 0.0000 9.8593
#
#
#
# Elastic Compliance Matrix: (Units=1/GPa)
#
#
# Indices 1 2 3 4 5 6 
#
# 1 0.011319 -0.003238 -0.007506 0.000000 0.000000 0.000000
# 2 -0.003238 0.012125 -0.001604 0.000000 0.000000 0.000000
# 3 -0.007506 -0.001604 0.030871 0.000000 0.000000 0.000000
# 4 0.000000 0.000000 0.000000 0.042774 0.000000 0.000000
# 5 0.000000 0.000000 0.000000 0.000000 0.075009 0.000000
# 6 0.000000 0.000000 0.000000 0.000000 0.000000 0.101427
#
#
# Mechanical properties :
#
#
# Convention : Reuss Voigt Hill
#
# Bulk Modulus (GPa) = 33.76053 45.99669 39.87861
# Shear Modulus (GPa) = 16.22875 20.86087 18.54481
#
# Velocity S-wave (km/s) = 2.94060 3.33396 3.14344
# Velocity P-wave (km/s) = 5.43306 6.27126 5.86715
#
# Compressibility (1/GPa) = 0.02962038
#
# Stress axis : x y z
#
# Youngs Moduli (GPa) = 88.34404 82.47238 32.39271
#
# Poissons Ratio (x) = 0.26703 0.24313
# Poissons Ratio (y) = 0.28604 0.05196
# Poissons Ratio (z) = 0.66309 0.13230
#
# Static dielectric constant tensor:
#      x y z
#    x 1.673680 0.000000 0.000000 
#    y 0.000000 1.648230 0.000000 
#    z 0.000000 0.000000 1.650480 
# 
# From -- ./inp_files/5537.got.cif
#   From: 2010.05.17/outbox.cif.g08.bks.cpg/sg38_3_cif.got.tgz:5537.got - 2010.06.03 18:07:57.
