data_PCOD9358417
_publ_section_title
;
Structure prediction by ZEFSAII (Michael W. Deem and Ramdas Pophale) SiO2 
 PCOD9358417
Probable space group: A M M 2
;
_chemical_formula_sum "Si O2"
_cell_formula_units_Z 56
_cell_length_a 14.680876
_cell_length_b 14.107442
_cell_length_c 14.733498
_cell_angle_alpha 90.000000
_cell_angle_beta 90.000000
_cell_angle_gamma 90.000000
_cell_volume 3051.448976
_symmetry_space_group_name_H-M "A M M 2"
_symmetry_group_IT_number 38
_symmetry_cell_setting 'orthorhombic'
loop_
_space_group_symop_operation_xyz
x,y,z
-x,-y,z
-x,y,z
x,-y,z
x,1/2+y,1/2+z
-x,1/2-y,1/2+z
-x,1/2+y,1/2+z
x,1/2-y,1/2+z
loop_
_atom_site_type_symbol
_atom_site_label
_atom_site_fract_x
_atom_site_fract_y
_atom_site_fract_z
Si Si1 0.891125 0.888299 0.455720
Si Si2 0.661015 0.388814 0.553825
Si Si3 0.599869 0.386790 0.156932
Si Si4 0.781122 0.224449 0.604518
Si Si5 0.218878 0.224449 0.306922
Si Si6 0.661015 0.111186 0.857615
Si Si7 0.599869 0.886790 0.254508
O O1 0.848742 0.835684 0.543104
O O2 0.848742 0.835684 0.368336
O O3 0.000000 0.880894 0.455720
O O4 0.866584 0.000000 0.455720
O O5 0.684033 0.500000 0.557588
O O6 0.749674 0.323057 0.560243
O O7 0.616132 0.371059 0.455720
O O8 0.605441 0.369480 0.645776
O O9 0.500000 0.356450 0.123622
O O10 0.607770 0.500000 0.142802
O O11 0.686451 0.334567 0.114859
O O12 0.605441 0.369480 0.265664
O O13 0.814399 0.250000 0.705720
O O14 0.250326 0.323057 0.351197
O O15 0.313549 0.165433 0.296580
O O16 0.684033 0.000000 0.853852
O O17 0.500000 0.856450 0.287818
O O18 0.607770 0.000000 0.268638
#
# Coordination Sequence:
#
# PCOD9358417 Si02
#       7
#     8   8   8   8   8   8   8
#     4  11  24  42  64  90 116 145 190 246 300 352
#     4   9  17  30  50  76 108 148 189 228 271 325
#     4   9  18  32  51  79 115 152 190 232 278 333
#     4  10  20  36  61  84 114 152 192 232 288 344
#     4  10  20  36  61  84 114 152 192 232 288 344
#     4   9  17  30  50  76 108 148 189 228 271 325
#     4   9  18  32  51  79 115 152 190 232 278 333
#
# _framework density 18.351938000000001
#
# number of rings (size 3 to 8) (size 9 to 14) (size 15 to 20)
#    0.000    2.429    1.429    0.857    0.000    7.429 
#    0.000    3.571    0.000    4.286    0.000    0.000 
#    0.000    0.000    0.000    0.000    0.000    0.000 
#
# Total GULP energy -156074.002437 kJ/mol
# GULP energy per Si atom -5574.071516 kJ/mol
# Density = 1.831017 g / cm^3
# Si number density = 18.351938 Si / 1000 Ang^3
#
#
#
# Elastic Constant Matrix: (Units=GPa)
#
#
# Indices 1 2 3 4 5 6 
#
# 1 85.7211 45.1244 44.5413 0.0000 0.0000 0.0000
# 2 45.1244 65.1171 20.5962 0.0000 0.0000 0.0000
# 3 44.5413 20.5962 80.6355 0.0000 0.0000 0.0000
# 4 0.0000 0.0000 0.0000 23.6642 0.0000 0.0000
# 5 0.0000 0.0000 0.0000 0.0000 0.8302 0.0000
# 6 0.0000 0.0000 0.0000 0.0000 0.0000 22.7681
#
#
#
# Elastic Compliance Matrix: (Units=1/GPa)
#
#
# Indices 1 2 3 4 5 6 
#
# 1 0.023758 -0.013395 -0.009702 0.000000 0.000000 0.000000
# 2 -0.013395 0.024259 0.001203 0.000000 0.000000 0.000000
# 3 -0.009702 0.001203 0.017454 0.000000 0.000000 0.000000
# 4 0.000000 0.000000 0.000000 0.042258 0.000000 0.000000
# 5 0.000000 0.000000 0.000000 0.000000 1.204584 0.000000
# 6 0.000000 0.000000 0.000000 0.000000 0.000000 0.043921
#
#
# Mechanical properties :
#
#
# Convention : Reuss Voigt Hill
#
# Bulk Modulus (GPa) = 46.12131 50.22194 48.17163
# Shear Modulus (GPa) = 3.55303 17.53327 10.54315
#
# Velocity S-wave (km/s) = 1.39293 3.09429 2.39947
# Velocity P-wave (km/s) = 5.27002 6.33969 5.82944
#
# Compressibility (1/GPa) = 0.02168195
#
# Stress axis : x y z
#
# Youngs Moduli (GPa) = 42.09033 41.22187 57.29502
#
# Poissons Ratio (x) = 0.55217 0.55589
# Poissons Ratio (y) = 0.56381 -0.06892
# Poissons Ratio (z) = 0.40837 -0.04959
#
# Static dielectric constant tensor:
#      x y z
#    x 1.597480 0.000000 0.000000 
#    y 0.000000 1.659560 0.000000 
#    z 0.000000 0.000000 1.671280 
# 
# From -- ./inp_files/14645.got.cif
#   From: 2010.05.17/outbox.cif.g08.bks.cpg/sg38_8_cif.got.tgz:14645.got - 2010.06.03 18:07:57.
