data_PCOD9358740
_publ_section_title
;
Structure prediction by ZEFSAII (Michael W. Deem and Ramdas Pophale) SiO2 
 PCOD9358740
Probable space group: A M M 2
;
_chemical_formula_sum "Si O2"
_cell_formula_units_Z 56
_cell_length_a 24.347587
_cell_length_b 7.725525
_cell_length_c 14.896630
_cell_angle_alpha 90.000000
_cell_angle_beta 90.000000
_cell_angle_gamma 90.000000
_cell_volume 2802.024702
_symmetry_space_group_name_H-M "A M M 2"
_symmetry_group_IT_number 38
_symmetry_cell_setting 'orthorhombic'
loop_
_space_group_symop_operation_xyz
x,y,z
-x,-y,z
-x,y,z
x,-y,z
x,1/2+y,1/2+z
-x,1/2-y,1/2+z
-x,1/2+y,1/2+z
x,1/2-y,1/2+z
loop_
_atom_site_type_symbol
_atom_site_label
_atom_site_fract_x
_atom_site_fract_y
_atom_site_fract_z
Si Si1 0.061529 0.209347 0.240290
Si Si2 0.728061 0.701620 0.603559
Si Si3 0.642755 0.798023 0.461455
Si Si4 0.436877 0.210329 0.617558
Si Si5 0.652424 0.704922 0.761279
Si Si6 0.852528 0.298723 0.091569
Si Si7 0.061139 0.288739 0.948465
O O1 0.109119 0.281994 0.178572
O O2 0.068372 0.258063 0.344479
O O3 0.000000 0.264499 0.211744
O O4 0.063342 0.000000 0.235468
O O5 0.712856 0.500000 0.598001
O O6 0.699273 0.786445 0.517394
O O7 0.699963 0.774144 0.694513
O O8 0.793244 0.716505 0.603894
O O9 0.596515 0.726755 0.529567
O O10 0.648275 0.721434 0.361801
O O11 0.628436 0.000000 0.449635
O O12 0.500000 0.265552 0.617412
O O13 0.403352 0.269980 0.704973
O O14 0.435392 0.000000 0.617583
O O15 0.663560 0.500000 0.771516
O O16 0.842196 0.500000 0.072466
O O17 0.890083 0.225002 0.011285
O O18 0.061090 0.500000 0.952944
O O19 0.000000 0.231775 0.977493
#
# Coordination Sequence:
#
# PCOD9358740 Si02
#       7
#     8   8   8   8   8   8   8
#     4   9  18  34  54  74  98 129 163 201 249 302
#     4  10  21  36  51  72 102 132 168 212 256 300
#     4   9  18  35  56  75  98 132 173 210 248 293
#     4   9  18  32  51  78 109 134 160 202 251 295
#     4   9  19  35  55  75  98 135 175 209 247 297
#     4  11  21  33  52  76 101 131 168 208 251 299
#     4   8  16  32  52  72  96 128 163 198 242 300
#
# _framework density 19.985547
#
# number of rings (size 3 to 8) (size 9 to 14) (size 15 to 20)
#    0.000    2.714    0.000    2.143    0.000    4.000 
#    0.000    8.571    0.000    1.714    0.000    0.000 
#    0.000    0.000    0.000    0.000    0.000    0.000 
#
# Total GULP energy -156186.565420 kJ/mol
# GULP energy per Si atom -5578.091622 kJ/mol
# Density = 1.994006 g / cm^3
# Si number density = 19.985547 Si / 1000 Ang^3
#
#
#
# Elastic Constant Matrix: (Units=GPa)
#
#
# Indices 1 2 3 4 5 6 
#
# 1 141.2550 -17.1303 71.0898 0.0000 0.0000 0.0000
# 2 -17.1303 25.7426 -6.7825 0.0000 0.0000 0.0000
# 3 71.0898 -6.7825 155.4805 0.0000 0.0000 0.0000
# 4 0.0000 0.0000 0.0000 9.8679 0.0000 0.0000
# 5 0.0000 0.0000 0.0000 0.0000 16.5232 0.0000
# 6 0.0000 0.0000 0.0000 0.0000 0.0000 20.5532
#
#
#
# Elastic Compliance Matrix: (Units=1/GPa)
#
#
# Indices 1 2 3 4 5 6 
#
# 1 0.009899 0.005458 -0.004288 0.000000 0.000000 0.000000
# 2 0.005458 0.042307 -0.000650 0.000000 0.000000 0.000000
# 3 -0.004288 -0.000650 0.008364 0.000000 0.000000 0.000000
# 4 0.000000 0.000000 0.000000 0.101339 0.000000 0.000000
# 5 0.000000 0.000000 0.000000 0.000000 0.060521 0.000000
# 6 0.000000 0.000000 0.000000 0.000000 0.000000 0.048654
#
#
# Mechanical properties :
#
#
# Convention : Reuss Voigt Hill
#
# Bulk Modulus (GPa) = 16.23134 46.31470 31.27302
# Shear Modulus (GPa) = 17.20689 27.74226 22.47458
#
# Velocity S-wave (km/s) = 2.93741 3.72979 3.35706
# Velocity P-wave (km/s) = 4.43212 6.46319 5.54150
#
# Compressibility (1/GPa) = 0.06160921
#
# Stress axis : x y z
#
# Youngs Moduli (GPa) = 101.01642 23.63698 119.56006
#
# Poissons Ratio (x) = -0.12900 0.51270
# Poissons Ratio (y) = -0.55131 0.07770
# Poissons Ratio (z) = 0.43318 0.01536
#
# Static dielectric constant tensor:
#      x y z
#    x 1.673610 0.000000 0.000000 
#    y 0.000000 1.756730 0.000000 
#    z 0.000000 0.000000 1.711110 
# 
# From -- ./inp_files/15463.got.cif
#   From: 2010.05.17/outbox.cif.g08.bks.cpg/sg38_8_cif.got.tgz:15463.got - 2010.06.03 18:07:57.
