data_PCOD9358171
_publ_section_title
;
Structure prediction by ZEFSAII (Michael W. Deem and Ramdas Pophale) SiO2 
 PCOD9358171
Probable space group: A M M 2
;
_chemical_formula_sum "Si O2"
_cell_formula_units_Z 64
_cell_length_a 9.012097
_cell_length_b 28.524845
_cell_length_c 12.848285
_cell_angle_alpha 90.000000
_cell_angle_beta 90.000000
_cell_angle_gamma 90.000000
_cell_volume 3302.891537
_symmetry_space_group_name_H-M "A M M 2"
_symmetry_group_IT_number 38
_symmetry_cell_setting 'orthorhombic'
loop_
_space_group_symop_operation_xyz
x,y,z
-x,-y,z
-x,y,z
x,-y,z
x,1/2+y,1/2+z
-x,1/2-y,1/2+z
-x,1/2+y,1/2+z
x,1/2-y,1/2+z
loop_
_atom_site_type_symbol
_atom_site_label
_atom_site_fract_x
_atom_site_fract_y
_atom_site_fract_z
Si Si1 0.669135 0.570384 0.824420
Si Si2 0.828592 0.947182 0.114047
Si Si3 0.178735 0.445217 0.263701
Si Si4 0.176657 0.198087 0.472971
Si Si5 0.323324 0.616560 0.444489
Si Si6 0.177863 0.092123 0.533347
Si Si7 0.176075 0.299490 0.550452
Si Si8 0.668080 0.820147 0.264864
O O1 0.500000 0.553099 0.820641
O O2 0.770205 0.551072 0.731858
O O3 0.664493 0.625663 0.798504
O O4 0.740082 0.566225 0.938436
O O5 0.000000 0.931334 0.111141
O O6 0.822393 0.000000 0.070533
O O7 0.727527 0.913565 0.045110
O O8 0.219441 0.500000 0.278434
O O9 0.256370 0.410990 0.346065
O O10 0.214257 0.428818 0.146075
O O11 0.000000 0.441636 0.277037
O O12 0.215624 0.147805 0.524258
O O13 0.208414 0.244288 0.539207
O O14 0.259981 0.204529 0.364023
O O15 0.000000 0.196333 0.453212
O O16 0.500000 0.618874 0.438682
O O17 0.255422 0.668023 0.464511
O O18 0.000000 0.087765 0.518623
O O19 0.234153 0.315007 0.662728
O O20 0.000000 0.306357 0.541664
O O21 0.500000 0.804543 0.243996
#
# Coordination Sequence:
#
# PCOD9358171 Si02
#       8
#     8   8   8   8   8   8   8   8
#     4  10  20  35  57  86 119 153 190 238 297 358
#     4  11  23  38  59  86 115 151 195 242 294 356
#     4  10  22  41  64  89 121 164 210 257 310 371
#     4   9  20  37  58  86 116 156 205 251 301 359
#     4  12  25  40  59  86 119 156 200 253 315 373
#     4   9  19  38  62  86 119 159 204 252 298 357
#     4  11  22  37  60  86 116 158 208 256 303 365
#     4  10  20  35  56  83 117 154 190 240 302 359
#
# _framework density 19.376961000000001
#
# number of rings (size 3 to 8) (size 9 to 14) (size 15 to 20)
#    0.000    1.750    1.250    3.000    0.000    6.750 
#    0.000    3.750    0.000    0.000    0.000    0.000 
#    0.000    0.000    0.000    0.000    0.000    0.000 
#
# Total GULP energy -178712.840384 kJ/mol
# GULP energy per Si atom -5584.776262 kJ/mol
# Density = 1.933286 g / cm^3
# Si number density = 19.376961 Si / 1000 Ang^3
#
#
#
# Elastic Constant Matrix: (Units=GPa)
#
#
# Indices 1 2 3 4 5 6 
#
# 1 58.6201 21.2359 30.8415 0.0000 0.0000 0.0000
# 2 21.2359 53.8703 14.5479 0.0000 0.0000 0.0000
# 3 30.8415 14.5479 93.0884 0.0000 0.0000 0.0000
# 4 0.0000 0.0000 0.0000 20.2956 0.0000 0.0000
# 5 0.0000 0.0000 0.0000 0.0000 -608.8486 0.0000
# 6 0.0000 0.0000 0.0000 0.0000 0.0000 1.1034
#
#
#
# Elastic Compliance Matrix: (Units=1/GPa)
#
#
# Indices 1 2 3 4 5 6 
#
# 1 0.023159 -0.007368 -0.006521 0.000000 0.000000 0.000000
# 2 -0.007368 0.021725 -0.000954 0.000000 0.000000 0.000000
# 3 -0.006521 -0.000954 0.013052 0.000000 0.000000 0.000000
# 4 0.000000 0.000000 0.000000 0.049272 0.000000 0.000000
# 5 0.000000 0.000000 0.000000 0.000000 -0.001642 0.000000
# 6 0.000000 0.000000 0.000000 0.000000 0.000000 0.906251
#
#
# Mechanical properties :
#
#
# Convention : Reuss Voigt Hill
#
# Bulk Modulus (GPa) = 35.39918 37.64771 36.52344
# Shear Modulus (GPa) = 4.75773 -108.22635 -51.73431
#
# Velocity S-wave (km/s) = 1.56866 -7.48160 -5.17270
# Velocity P-wave (km/s) = 4.64643 7.42706 4.09707
#
# Compressibility (1/GPa) = 0.02824925
#
# Stress axis : x y z
#
# Youngs Moduli (GPa) = 43.17903 46.02911 76.61529
#
# Poissons Ratio (x) = 0.33916 0.49965
# Poissons Ratio (y) = 0.31816 0.07309
# Poissons Ratio (z) = 0.28159 0.04391
#
# Static dielectric constant tensor:
#      x y z
#    x 1.663110 0.000000 0.000000 
#    y 0.000000 1.706560 0.000000 
#    z 0.000000 0.000000 1.646400 
# 
# From -- ./inp_files/8640.got.cif
#   From: 2010.05.17/outbox.cif.g08.bks.cpg/sg38_5_cif.got.tgz:8640.got - 2010.06.03 18:07:57.
