data_PCOD9358428
_publ_section_title
;
Structure prediction by ZEFSAII (Michael W. Deem and Ramdas Pophale) SiO2 
 PCOD9358428
Probable space group: A M M 2
;
_chemical_formula_sum "Si O2"
_cell_formula_units_Z 64
_cell_length_a 23.969626
_cell_length_b 8.827350
_cell_length_c 15.157508
_cell_angle_alpha 90.000000
_cell_angle_beta 90.000000
_cell_angle_gamma 90.000000
_cell_volume 3207.151018
_symmetry_space_group_name_H-M "A M M 2"
_symmetry_group_IT_number 38
_symmetry_cell_setting 'orthorhombic'
loop_
_space_group_symop_operation_xyz
x,y,z
-x,-y,z
-x,y,z
x,-y,z
x,1/2+y,1/2+z
-x,1/2-y,1/2+z
-x,1/2+y,1/2+z
x,1/2-y,1/2+z
loop_
_atom_site_type_symbol
_atom_site_label
_atom_site_fract_x
_atom_site_fract_y
_atom_site_fract_z
Si Si1 0.934821 0.174939 0.953080
Si Si2 0.244794 0.675576 0.355458
Si Si3 0.132623 0.677700 0.799074
Si Si4 0.362503 0.319296 0.881327
Si Si5 0.436043 0.682533 0.235387
Si Si6 0.886581 0.821940 0.620519
Si Si7 0.229008 0.675442 0.567504
Si Si8 0.346852 0.681914 0.086585
O O1 0.898108 0.277920 0.889172
O O2 0.000000 0.185582 0.931229
O O3 0.916531 0.000000 0.943806
O O4 0.924281 0.229957 0.052180
O O5 0.242857 0.500000 0.327984
O O6 0.196649 0.769175 0.307748
O O7 0.306185 0.743238 0.343758
O O8 0.232738 0.682820 0.460780
O O9 0.129638 0.500000 0.782540
O O10 0.104112 0.769584 0.720208
O O11 0.358624 0.500000 0.872882
O O12 0.413610 0.256240 0.825071
O O13 0.364925 0.283035 0.985754
O O14 0.500000 0.724709 0.217108
O O15 0.433381 0.500000 0.243467
O O16 0.394117 0.726272 0.156397
O O17 0.822877 0.775448 0.597948
O O18 0.894812 0.000000 0.609900
O O19 0.220125 0.500000 0.592433
O O20 0.287891 0.736798 0.602833
O O21 0.338536 0.500000 0.091874
#
# Coordination Sequence:
#
# PCOD9358428 Si02
#       8
#     8   8   8   8   8   8   8   8
#     4  11  25  47  71  95 129 170 214 265 317 373
#     4  10  20  37  62  90 127 166 204 252 313 377
#     4  12  25  41  65  96 130 168 214 262 315 377
#     4  10  21  37  59  88 120 155 201 254 308 366
#     4  10  22  40  60  83 116 160 207 253 308 376
#     4  12  25  41  65  95 130 170 213 260 316 377
#     4  10  20  36  61  91 127 162 203 256 313 374
#     4   9  20  38  59  84 117 158 204 248 304 371
#
# _framework density 19.955404999999999
#
# number of rings (size 3 to 8) (size 9 to 14) (size 15 to 20)
#    0.000    1.500    1.250    3.750    1.750    4.250 
#    0.000    1.250    0.000    0.000    0.000    0.000 
#    0.000    0.000    0.000    0.000    0.000    0.000 
#
# Total GULP energy -179002.219201 kJ/mol
# GULP energy per Si atom -5593.819350 kJ/mol
# Density = 1.990999 g / cm^3
# Si number density = 19.955405 Si / 1000 Ang^3
#
#
#
# Elastic Constant Matrix: (Units=GPa)
#
#
# Indices 1 2 3 4 5 6 
#
# 1 54.0798 10.2850 -0.6020 0.0000 0.0000 0.0000
# 2 10.2850 54.4842 -1.9330 0.0000 0.0000 0.0000
# 3 -0.6020 -1.9330 35.6041 0.0000 0.0000 0.0000
# 4 0.0000 0.0000 0.0000 31.0676 0.0000 0.0000
# 5 0.0000 0.0000 0.0000 0.0000 17.5167 0.0000
# 6 0.0000 0.0000 0.0000 0.0000 0.0000 28.3254
#
#
#
# Elastic Compliance Matrix: (Units=1/GPa)
#
#
# Indices 1 2 3 4 5 6 
#
# 1 0.019180 -0.003616 0.000128 0.000000 0.000000 0.000000
# 2 -0.003616 0.019071 0.000974 0.000000 0.000000 0.000000
# 3 0.000128 0.000974 0.028142 0.000000 0.000000 0.000000
# 4 0.000000 0.000000 0.000000 0.032188 0.000000 0.000000
# 5 0.000000 0.000000 0.000000 0.000000 0.057088 0.000000
# 6 0.000000 0.000000 0.000000 0.000000 0.000000 0.035304
#
#
# Mechanical properties :
#
#
# Convention : Reuss Voigt Hill
#
# Bulk Modulus (GPa) = 16.29584 17.74090 17.01837
# Shear Modulus (GPa) = 23.09935 24.47649 23.78792
#
# Velocity S-wave (km/s) = 3.40597 3.50603 3.45636
# Velocity P-wave (km/s) = 4.86326 5.02983 4.94725
#
# Compressibility (1/GPa) = 0.06136536
#
# Stress axis : x y z
#
# Youngs Moduli (GPa) = 52.13674 52.43524 35.53445
#
# Poissons Ratio (x) = 0.18961 -0.00455
# Poissons Ratio (y) = 0.18853 -0.03462
# Poissons Ratio (z) = -0.00667 -0.05109
#
# Static dielectric constant tensor:
#      x y z
#    x 1.673840 0.000000 0.000000 
#    y 0.000000 1.664650 0.000000 
#    z 0.000000 0.000000 1.713420 
# 
# From -- ./inp_files/15869.got.cif
#   From: 2010.05.17/outbox.cif.g08.bks.cpg/sg38_8_cif.got.tgz:15869.got - 2010.06.03 18:07:57.
