data_PCOD9358085
_publ_section_title
;
Structure prediction by ZEFSAII (Michael W. Deem and Ramdas Pophale) SiO2 
 PCOD9358085
Probable space group: A M M 2
;
_chemical_formula_sum "Si O2"
_cell_formula_units_Z 40
_cell_length_a 8.952838
_cell_length_b 27.325177
_cell_length_c 7.387879
_cell_angle_alpha 90.000000
_cell_angle_beta 90.000000
_cell_angle_gamma 90.000000
_cell_volume 1807.355078
_symmetry_space_group_name_H-M "A M M 2"
_symmetry_group_IT_number 38
_symmetry_cell_setting 'orthorhombic'
loop_
_space_group_symop_operation_xyz
x,y,z
-x,-y,z
-x,y,z
x,-y,z
x,1/2+y,1/2+z
-x,1/2-y,1/2+z
-x,1/2+y,1/2+z
x,1/2-y,1/2+z
loop_
_atom_site_type_symbol
_atom_site_label
_atom_site_fract_x
_atom_site_fract_y
_atom_site_fract_z
Si Si1 0.330225 0.098517 0.671050
Si Si2 0.169374 0.000000 0.668343
Si Si3 0.678659 0.202435 0.739539
Si Si4 0.672768 0.399803 0.614530
Si Si5 0.825792 0.301062 0.615569
Si Si6 0.173210 0.500000 0.610157
O O1 0.500000 0.089029 0.619588
O O2 0.294073 0.154435 0.615827
O O3 0.323647 0.100106 0.892693
O O4 0.239174 0.051533 0.609746
O O5 0.000000 0.000000 0.612509
O O6 0.178398 0.000000 0.889139
O O7 0.500000 0.200695 0.788560
O O8 0.720081 0.255645 0.667116
O O9 0.795645 0.196087 0.901741
O O10 0.500000 0.395459 0.666575
O O11 0.765699 0.353303 0.683111
O O12 0.743846 0.451033 0.671344
O O13 0.000000 0.293146 0.658605
O O14 0.000000 0.500000 0.661423
#
# Coordination Sequence:
#
# PCOD9358085 Si02
#       6
#     8   4   8   8   8   4
#     4   8  15  26  41  60  86 119 155 191 230 278
#     4   9  15  21  35  59  88 117 146 185 236 283
#     4  10  20  35  52  71  97 132 168 202 242 294
#     4   9  16  27  42  62  90 125 159 193 237 292
#     4  11  21  33  50  74 101 129 163 207 250 289
#     4   9  15  23  37  61  90 119 152 195 242 285
#
# _framework density 22.131788
#
# number of rings (size 3 to 8) (size 9 to 14) (size 15 to 20)
#    0.000    2.600    0.000    4.800    0.000    8.000 
#    0.000    0.000    0.000    0.000    0.000    1.400 
#    0.000    4.800    0.000    0.000    0.000    0.000 
#
# Total GULP energy -111551.272700 kJ/mol
# GULP energy per Si atom -5577.563635 kJ/mol
# Density = 2.208141 g / cm^3
# Si number density = 22.131788 Si / 1000 Ang^3
#
#
#
# Elastic Constant Matrix: (Units=GPa)
#
#
# Indices 1 2 3 4 5 6 
#
# 1 113.5294 87.2047 -1.4420 0.0000 0.0000 0.0000
# 2 87.2047 229.4149 -3.3208 0.0000 0.0000 0.0000
# 3 -1.4420 -3.3208 45.0950 0.0000 0.0000 0.0000
# 4 0.0000 0.0000 0.0000 3.3943 0.0000 0.0000
# 5 0.0000 0.0000 0.0000 0.0000 3.1058 0.0000
# 6 0.0000 0.0000 0.0000 0.0000 0.0000 31.4665
#
#
#
# Elastic Compliance Matrix: (Units=1/GPa)
#
#
# Indices 1 2 3 4 5 6 
#
# 1 0.012441 -0.004728 0.000050 0.000000 0.000000 0.000000
# 2 -0.004728 0.006161 0.000302 0.000000 0.000000 0.000000
# 3 0.000050 0.000302 0.022199 0.000000 0.000000 0.000000
# 4 0.000000 0.000000 0.000000 0.294610 0.000000 0.000000
# 5 0.000000 0.000000 0.000000 0.000000 0.321974 0.000000
# 6 0.000000 0.000000 0.000000 0.000000 0.000000 0.031780
#
#
# Mechanical properties :
#
#
# Convention : Reuss Voigt Hill
#
# Bulk Modulus (GPa) = 31.20284 61.43591 46.31937
# Shear Modulus (GPa) = 7.05617 27.96650 17.51133
#
# Velocity S-wave (km/s) = 1.78750 3.55862 2.81593
# Velocity P-wave (km/s) = 4.28830 6.68614 5.61667
#
# Compressibility (1/GPa) = 0.03204836
#
# Stress axis : x y z
#
# Youngs Moduli (GPa) = 80.38068 162.32227 45.04651
#
# Poissons Ratio (x) = 0.76750 -0.00224
# Poissons Ratio (y) = 0.38006 -0.01363
# Poissons Ratio (z) = -0.00399 -0.04910
#
# Static dielectric constant tensor:
#      x y z
#    x 1.725640 0.000000 0.000000 
#    y 0.000000 1.873090 0.000000 
#    z 0.000000 0.000000 1.945250 
# 
# From -- ./inp_files/3507.got.cif
#   From: 2010.05.17/outbox.cif.g08.bks.cpg/sg38_2_cif.got.tgz:3507.got - 2010.06.03 18:07:57.
