data_PCOD9358620
_publ_section_title
;
Structure prediction by ZEFSAII (Michael W. Deem and Ramdas Pophale) SiO2 
 PCOD9358620
Probable space group: A M M 2
;
_chemical_formula_sum "Si O2"
_cell_formula_units_Z 34
_cell_length_a 7.785182
_cell_length_b 23.345760
_cell_length_c 8.648413
_cell_angle_alpha 90.000000
_cell_angle_beta 90.000000
_cell_angle_gamma 90.000000
_cell_volume 1571.857629
_symmetry_space_group_name_H-M "A M M 2"
_symmetry_group_IT_number 38
_symmetry_cell_setting 'orthorhombic'
loop_
_space_group_symop_operation_xyz
x,y,z
-x,-y,z
-x,y,z
x,-y,z
x,1/2+y,1/2+z
-x,1/2-y,1/2+z
-x,1/2+y,1/2+z
x,1/2-y,1/2+z
loop_
_atom_site_type_symbol
_atom_site_label
_atom_site_fract_x
_atom_site_fract_y
_atom_site_fract_z
Si Si1 0.299905 0.676276 0.147710
Si Si2 0.500000 0.500000 0.766913
Si Si3 0.796773 0.914316 0.162704
Si Si4 0.202786 0.295396 0.799827
Si Si5 0.709637 0.937086 0.807810
O O1 0.500000 0.668503 0.168829
O O2 0.253055 0.732767 0.243113
O O3 0.222718 0.616715 0.209954
O O4 0.267707 0.688590 0.968945
O O5 0.654495 0.450560 0.755572
O O6 0.751991 0.847172 0.184468
O O7 0.000000 0.922972 0.204908
O O8 0.773040 0.931100 0.983622
O O9 0.000000 0.294826 0.810519
O O10 0.500000 0.936854 0.814233
O O11 0.759216 0.000000 0.746578
#
# Coordination Sequence:
#
# PCOD9358620 Si02
#       5
#     8   2   8   8   8
#     4  11  24  40  68  95 128 170 221 269 326 391
#     4  12  22  40  68  92 140 168 216 270 320 382
#     4  11  23  40  67  98 130 173 220 263 324 392
#     4  11  25  44  64  93 130 169 216 272 329 388
#     4  10  20  40  63  94 131 174 217 266 320 386
#
# _framework density 21.630457
#
# number of rings (size 3 to 8) (size 9 to 14) (size 15 to 20)
#    0.000    1.176    2.353    3.176    3.294    5.647 
#    2.118    0.000    0.000    0.000    0.000    0.000 
#    0.000    0.000    0.000    0.000    0.000    0.000 
#
# Total GULP energy -94693.604565 kJ/mol
# GULP energy per Si atom -5570.212033 kJ/mol
# Density = 2.158123 g / cm^3
# Si number density = 21.630457 Si / 1000 Ang^3
#
#
#
# Elastic Constant Matrix: (Units=GPa)
#
#
# Indices 1 2 3 4 5 6 
#
# 1 84.4072 53.1303 -1.0827 0.0000 0.0000 0.0000
# 2 53.1303 226.9143 56.9529 0.0000 0.0000 0.0000
# 3 -1.0827 56.9529 50.0226 0.0000 0.0000 0.0000
# 4 0.0000 0.0000 0.0000 26.9149 0.0000 0.0000
# 5 0.0000 0.0000 0.0000 0.0000 27.3917 0.0000
# 6 0.0000 0.0000 0.0000 0.0000 0.0000 10.5172
#
#
#
# Elastic Compliance Matrix: (Units=1/GPa)
#
#
# Indices 1 2 3 4 5 6 
#
# 1 0.015117 -0.005071 0.006101 0.000000 0.000000 0.000000
# 2 -0.005071 0.007871 -0.009071 0.000000 0.000000 0.000000
# 3 0.006101 -0.009071 0.030451 0.000000 0.000000 0.000000
# 4 0.000000 0.000000 0.000000 0.037154 0.000000 0.000000
# 5 0.000000 0.000000 0.000000 0.000000 0.036507 0.000000
# 6 0.000000 0.000000 0.000000 0.000000 0.000000 0.095082
#
#
# Mechanical properties :
#
#
# Convention : Reuss Voigt Hill
#
# Bulk Modulus (GPa) = 26.76918 64.37168 45.57043
# Shear Modulus (GPa) = 19.94269 29.78766 24.86518
#
# Velocity S-wave (km/s) = 3.03969 3.71498 3.39417
# Velocity P-wave (km/s) = 4.97214 6.94448 6.03937
#
# Compressibility (1/GPa) = 0.03735640
#
# Stress axis : x y z
#
# Youngs Moduli (GPa) = 66.14890 127.04843 32.83965
#
# Poissons Ratio (x) = 0.64424 -0.20034
# Poissons Ratio (y) = 0.33543 0.29790
# Poissons Ratio (z) = -0.40354 1.15249
#
# Static dielectric constant tensor:
#      x y z
#    x 1.785970 0.000000 0.000000 
#    y 0.000000 1.958500 0.000000 
#    z 0.000000 0.000000 1.759670 
# 
# From -- ./inp_files/3168.got.cif
#   From: 2010.05.17/outbox.cif.g08.bks.cpg/sg38_2_cif.got.tgz:3168.got - 2010.06.03 18:07:57.
