data_PCOD9358186
_publ_section_title
;
Structure prediction by ZEFSAII (Michael W. Deem and Ramdas Pophale) SiO2 
 PCOD9358186
Probable space group: A M M 2
;
_chemical_formula_sum "Si O2"
_cell_formula_units_Z 58
_cell_length_a 7.385866
_cell_length_b 15.658295
_cell_length_c 24.712501
_cell_angle_alpha 90.000000
_cell_angle_beta 90.000000
_cell_angle_gamma 90.000000
_cell_volume 2858.002437
_symmetry_space_group_name_H-M "A M M 2"
_symmetry_group_IT_number 38
_symmetry_cell_setting 'orthorhombic'
loop_
_space_group_symop_operation_xyz
x,y,z
-x,-y,z
-x,y,z
x,-y,z
x,1/2+y,1/2+z
-x,1/2-y,1/2+z
-x,1/2+y,1/2+z
x,1/2-y,1/2+z
loop_
_atom_site_type_symbol
_atom_site_label
_atom_site_fract_x
_atom_site_fract_y
_atom_site_fract_z
Si Si1 0.787050 0.403926 0.309070
Si Si2 0.779342 0.902857 0.410873
Si Si3 0.779935 0.237873 0.725741
Si Si4 0.779320 0.596175 0.786800
Si Si5 0.779268 0.840327 0.610439
Si Si6 0.500000 0.000000 0.610365
Si Si7 0.785978 0.735841 0.996492
Si Si8 0.714635 0.596065 0.432244
O O1 0.710352 0.500000 0.304071
O O2 0.713506 0.335003 0.267327
O O3 0.772445 0.377070 0.371717
O O4 0.000000 0.410370 0.297207
O O5 0.724824 0.885432 0.348933
O O6 0.712165 0.832331 0.452851
O O7 0.000000 0.901846 0.411071
O O8 0.725320 0.000000 0.425341
O O9 0.717840 0.329822 0.746802
O O10 0.736463 0.211994 0.664906
O O11 0.000000 0.239229 0.729178
O O12 0.721497 0.500000 0.773109
O O13 0.000000 0.595917 0.786672
O O14 0.727941 0.786747 0.556892
O O15 0.000000 0.856514 0.610014
O O16 0.659995 0.925380 0.610491
O O17 0.758450 0.831593 0.975502
O O18 0.000000 0.721957 0.996518
O O19 0.500000 0.589952 0.430464
O O20 0.786981 0.500000 0.442509
#
# Coordination Sequence:
#
# PCOD9358186 Si02
#       8
#     8   8   8   8   8   2   8   8
#     4   9  17  30  52  79 107 145 189 234 293 355
#     4   8  14  25  46  79 111 140 179 227 286 349
#     4   9  17  32  53  79 115 151 190 244 291 343
#     4   8  13  23  44  76 111 145 183 232 290 347
#     4  10  24  42  62  90 120 154 202 245 291 352
#     4  12  26  44  64  86 118 168 194 248 292 348
#     4  10  20  35  57  81 111 149 193 244 288 345
#     4  10  21  36  53  78 112 149 189 243 298 351
#
# _framework density 20.293896
#
# number of rings (size 3 to 8) (size 9 to 14) (size 15 to 20)
#    0.000    2.759    0.000    2.276    2.897    3.034 
#    1.241    0.690    0.000    2.483    0.000    0.000 
#    0.000    0.000    0.000    0.000    0.000    0.000 
#
# Total GULP energy -161554.089943 kJ/mol
# GULP energy per Si atom -5570.830688 kJ/mol
# Density = 2.024771 g / cm^3
# Si number density = 20.293896 Si / 1000 Ang^3
#
#
#
# Elastic Constant Matrix: (Units=GPa)
#
#
# Indices 1 2 3 4 5 6 
#
# 1 78.8558 18.6526 21.8682 0.0000 0.0000 0.0000
# 2 18.6526 167.3934 139.7048 0.0000 0.0000 0.0000
# 3 21.8682 139.7048 159.2877 0.0000 0.0000 0.0000
# 4 0.0000 0.0000 0.0000 -7.2290 0.0000 0.0000
# 5 0.0000 0.0000 0.0000 0.0000 -105.9230 0.0000
# 6 0.0000 0.0000 0.0000 0.0000 0.0000 24.1095
#
#
#
# Elastic Compliance Matrix: (Units=1/GPa)
#
#
# Indices 1 2 3 4 5 6 
#
# 1 0.013184 0.000155 -0.001946 0.000000 0.000000 0.000000
# 2 0.000155 0.022291 -0.019572 0.000000 0.000000 0.000000
# 3 -0.001946 -0.019572 0.023711 0.000000 0.000000 0.000000
# 4 0.000000 0.000000 0.000000 -0.138332 0.000000 0.000000
# 5 0.000000 0.000000 0.000000 0.000000 -0.009441 0.000000
# 6 0.000000 0.000000 0.000000 0.000000 0.000000 0.041477
#
#
# Mechanical properties :
#
#
# Convention : Reuss Voigt Hill
#
# Bulk Modulus (GPa) = 60.75148 85.10978 72.93063
# Shear Modulus (GPa) = 4528.00793 -2.78774 2262.61010
#
# Velocity S-wave (km/s) = 47.28700 -1.17331 33.42666
# Velocity P-wave (km/s) = 54.87636 6.33988 39.06155
#
# Compressibility (1/GPa) = 0.01646050
#
# Stress axis : x y z
#
# Youngs Moduli (GPa) = 75.84732 44.86036 42.17445
#
# Poissons Ratio (x) = -0.00695 0.08207
# Poissons Ratio (y) = -0.01175 0.82544
# Poissons Ratio (z) = 0.14759 0.87801
#
# Static dielectric constant tensor:
#      x y z
#    x 1.783950 0.000000 0.000000 
#    y 0.000000 1.711270 0.000000 
#    z 0.000000 0.000000 1.700150 
# 
# From -- ./inp_files/22023.got.cif
#   From: 2010.05.17/outbox.cif.g08.bks.cpg/sg38_12_cif.got.tgz:22023.got - 2010.06.03 18:07:57.
