data_PCOD9358543
_publ_section_title
;
Structure prediction by ZEFSAII (Michael W. Deem and Ramdas Pophale) SiO2 
 PCOD9358543
Probable space group: A M M 2
;
_chemical_formula_sum "Si O2"
_cell_formula_units_Z 48
_cell_length_a 8.847016
_cell_length_b 23.243959
_cell_length_c 11.613816
_cell_angle_alpha 90.000000
_cell_angle_beta 90.000000
_cell_angle_gamma 90.000000
_cell_volume 2388.261373
_symmetry_space_group_name_H-M "A M M 2"
_symmetry_group_IT_number 38
_symmetry_cell_setting 'orthorhombic'
loop_
_space_group_symop_operation_xyz
x,y,z
-x,-y,z
-x,y,z
x,-y,z
x,1/2+y,1/2+z
-x,1/2-y,1/2+z
-x,1/2+y,1/2+z
x,1/2-y,1/2+z
loop_
_atom_site_type_symbol
_atom_site_label
_atom_site_fract_x
_atom_site_fract_y
_atom_site_fract_z
Si Si1 0.678242 0.856107 0.733770
Si Si2 0.175151 0.650992 0.478901
Si Si3 0.180546 0.236389 0.189367
Si Si4 0.670409 0.933344 0.132002
Si Si5 0.818741 0.433252 0.052053
Si Si6 0.325208 0.353398 0.856140
O O1 0.500000 0.861006 0.718685
O O2 0.723174 0.848880 0.866620
O O3 0.740897 0.797631 0.677255
O O4 0.759308 0.910329 0.674576
O O5 0.213207 0.698940 0.575024
O O6 0.207151 0.591767 0.545517
O O7 0.000000 0.657643 0.446462
O O8 0.241904 0.202229 0.302014
O O9 0.000000 0.242470 0.199391
O O10 0.500000 0.924662 0.084020
O O11 0.677287 0.898231 0.250010
O O12 0.692156 0.000000 0.154889
O O13 0.773025 0.500000 0.030436
O O14 0.000000 0.430811 0.048035
O O15 0.752219 0.387708 0.960127
O O16 0.500000 0.339604 0.883766
#
# Coordination Sequence:
#
# PCOD9358543 Si02
#       6
#     8   8   8   8   8   8
#     4  12  26  42  64  90 122 163 208 260 315 378
#     4  10  22  40  61  87 119 157 201 251 306 368
#     4  10  22  41  65  92 125 162 205 256 313 376
#     4   9  18  34  58  88 122 159 199 247 301 357
#     4  11  25  44  65  91 127 171 217 263 316 380
#     4  10  20  37  63  95 128 163 206 258 311 367
#
# _framework density 20.098303000000001
#
# number of rings (size 3 to 8) (size 9 to 14) (size 15 to 20)
#    0.000    1.667    0.000    4.000    2.333    5.667 
#    0.000    0.000    0.000    0.000    0.000    0.000 
#    0.000    0.000    0.000    0.000    0.000    0.000 
#
# Total GULP energy -134097.138178 kJ/mol
# GULP energy per Si atom -5587.380757 kJ/mol
# Density = 2.005256 g / cm^3
# Si number density = 20.098303 Si / 1000 Ang^3
#
#
#
# Elastic Constant Matrix: (Units=GPa)
#
#
# Indices 1 2 3 4 5 6 
#
# 1 74.9397 17.7104 32.4709 0.0000 0.0000 0.0000
# 2 17.7104 63.7976 12.0525 0.0000 0.0000 0.0000
# 3 32.4709 12.0525 57.4538 0.0000 0.0000 0.0000
# 4 0.0000 0.0000 0.0000 19.7578 0.0000 0.0000
# 5 0.0000 0.0000 0.0000 0.0000 36.7472 0.0000
# 6 0.0000 0.0000 0.0000 0.0000 0.0000 30.2374
#
#
#
# Elastic Compliance Matrix: (Units=1/GPa)
#
#
# Indices 1 2 3 4 5 6 
#
# 1 0.018298 -0.003255 -0.009659 0.000000 0.000000 0.000000
# 2 -0.003255 0.016900 -0.001706 0.000000 0.000000 0.000000
# 3 -0.009659 -0.001706 0.023222 0.000000 0.000000 0.000000
# 4 0.000000 0.000000 0.000000 0.050613 0.000000 0.000000
# 5 0.000000 0.000000 0.000000 0.000000 0.027213 0.000000
# 6 0.000000 0.000000 0.000000 0.000000 0.000000 0.033072
#
#
# Mechanical properties :
#
#
# Convention : Reuss Voigt Hill
#
# Bulk Modulus (GPa) = 34.26798 35.62872 34.94835
# Shear Modulus (GPa) = 24.00564 26.27898 25.14231
#
# Velocity S-wave (km/s) = 3.45978 3.61989 3.54074
# Velocity P-wave (km/s) = 5.74867 5.93609 5.84313
#
# Compressibility (1/GPa) = 0.02918176
#
# Stress axis : x y z
#
# Youngs Moduli (GPa) = 54.64962 59.17020 43.06274
#
# Poissons Ratio (x) = 0.19260 0.41593
# Poissons Ratio (y) = 0.17788 0.07345
# Poissons Ratio (z) = 0.52785 0.10093
#
# Static dielectric constant tensor:
#      x y z
#    x 1.693050 0.000000 0.000000 
#    y 0.000000 1.701270 0.000000 
#    z 0.000000 0.000000 1.720260 
# 
# From -- ./inp_files/8119.got.cif
#   From: 2010.05.17/outbox.cif.g08.bks.cpg/sg38_5_cif.got.tgz:8119.got - 2010.06.03 18:07:57.
