data_PCOD9358666
_publ_section_title
;
Structure prediction by ZEFSAII (Michael W. Deem and Ramdas Pophale) SiO2 
 PCOD9358666
Probable space group: A M M 2
;
_chemical_formula_sum "Si O2"
_cell_formula_units_Z 58
_cell_length_a 7.575840
_cell_length_b 15.346711
_cell_length_c 24.906341
_cell_angle_alpha 90.000000
_cell_angle_beta 90.000000
_cell_angle_gamma 90.000000
_cell_volume 2895.716485
_symmetry_space_group_name_H-M "A M M 2"
_symmetry_group_IT_number 38
_symmetry_cell_setting 'orthorhombic'
loop_
_space_group_symop_operation_xyz
x,y,z
-x,-y,z
-x,y,z
x,-y,z
x,1/2+y,1/2+z
-x,1/2-y,1/2+z
-x,1/2+y,1/2+z
x,1/2-y,1/2+z
loop_
_atom_site_type_symbol
_atom_site_label
_atom_site_fract_x
_atom_site_fract_y
_atom_site_fract_z
Si Si1 0.713433 0.101440 0.286200
Si Si2 0.291843 0.596807 0.905892
Si Si3 0.500000 0.000000 0.093686
Si Si4 0.199432 0.247482 0.981725
Si Si5 0.708152 0.900574 0.899638
Si Si6 0.213861 0.900366 0.776843
Si Si7 0.780399 0.160862 0.091990
Si Si8 0.203781 0.248961 0.201964
O O1 0.500000 0.108048 0.283351
O O2 0.776551 0.123483 0.346720
O O3 0.785739 0.167272 0.242432
O O4 0.758607 0.000000 0.276042
O O5 0.500000 0.587710 0.897178
O O6 0.222224 0.500000 0.919381
O O7 0.273548 0.669090 0.951062
O O8 0.658156 0.075624 0.093586
O O9 0.207200 0.167545 0.939809
O O10 0.000000 0.271735 0.993381
O O11 0.270643 0.212841 0.037934
O O12 0.500000 0.900645 0.911585
O O13 0.732307 0.875600 0.837439
O O14 0.774383 0.000000 0.905985
O O15 0.282749 0.831438 0.733510
O O16 0.000000 0.899606 0.776363
O O17 0.271996 0.000000 0.767467
O O18 0.731731 0.217497 0.144404
O O19 0.000000 0.145413 0.091929
O O20 0.000000 0.271852 0.193049
#
# Coordination Sequence:
#
# PCOD9358666 Si02
#       8
#     8   8   2   8   8   8   8   8
#     4   9  19  33  53  82 113 147 191 235 289 356
#     4   9  19  37  59  85 117 152 192 246 295 350
#     4  12  26  44  72  86 114 176 198 244 308 356
#     4  11  23  38  57  82 118 155 194 249 296 350
#     4  10  21  34  54  84 117 151 193 241 296 359
#     4   9  18  35  58  83 112 152 195 237 298 359
#     4  10  26  44  61  93 125 153 206 254 292 357
#     4  10  21  37  55  80 117 152 190 247 296 343
#
# _framework density 20.029585000000001
#
# number of rings (size 3 to 8) (size 9 to 14) (size 15 to 20)
#    0.000    2.207    0.000    2.690    4.828    4.690 
#    0.000    2.069    0.000    2.483    0.000    0.000 
#    0.000    0.000    0.000    0.000    0.000    0.000 
#
# Total GULP energy -161486.123559 kJ/mol
# GULP energy per Si atom -5568.487019 kJ/mol
# Density = 1.998400 g / cm^3
# Si number density = 20.029585 Si / 1000 Ang^3
#
#
#
# Elastic Constant Matrix: (Units=GPa)
#
#
# Indices 1 2 3 4 5 6 
#
# 1 54.0547 0.0073 3.4843 0.0000 0.0000 0.0000
# 2 0.0073 91.9261 95.1511 0.0000 0.0000 0.0000
# 3 3.4843 95.1511 155.2809 0.0000 0.0000 0.0000
# 4 0.0000 0.0000 0.0000 -18.8822 0.0000 0.0000
# 5 0.0000 0.0000 0.0000 0.0000 20.2877 0.0000
# 6 0.0000 0.0000 0.0000 0.0000 0.0000 24.0595
#
#
#
# Elastic Compliance Matrix: (Units=1/GPa)
#
#
# Indices 1 2 3 4 5 6 
#
# 1 0.018573 0.001175 -0.001137 0.000000 0.000000 0.000000
# 2 0.001175 0.029818 -0.018298 0.000000 0.000000 0.000000
# 3 -0.001137 -0.018298 0.017678 0.000000 0.000000 0.000000
# 4 0.000000 0.000000 0.000000 -0.052960 0.000000 0.000000
# 5 0.000000 0.000000 0.000000 0.000000 0.049291 0.000000
# 6 0.000000 0.000000 0.000000 0.000000 0.000000 0.041564
#
#
# Mechanical properties :
#
#
# Convention : Reuss Voigt Hill
#
# Bulk Modulus (GPa) = 33.84120 55.39414 44.61767
# Shear Modulus (GPa) = 33.25969 18.60095 25.93032
#
# Velocity S-wave (km/s) = 4.07938 3.05072 3.60196
# Velocity P-wave (km/s) = 6.25466 6.33446 6.29469
#
# Compressibility (1/GPa) = 0.02954978
#
# Stress axis : x y z
#
# Youngs Moduli (GPa) = 53.84187 33.53674 56.56806
#
# Poissons Ratio (x) = -0.03942 0.06432
# Poissons Ratio (y) = -0.06329 1.03508
# Poissons Ratio (z) = 0.06122 0.61365
#
# Static dielectric constant tensor:
#      x y z
#    x 1.754070 0.000000 0.000000 
#    y 0.000000 1.716450 0.000000 
#    z 0.000000 0.000000 1.715680 
# 
# From -- ./inp_files/22053.got.cif
#   From: 2010.05.17/outbox.cif.g08.bks.cpg/sg38_12_cif.got.tgz:22053.got - 2010.06.03 18:07:57.
