data_PCOD9358903
_publ_section_title
;
Structure prediction by ZEFSAII (Michael W. Deem and Ramdas Pophale) SiO2 
 PCOD9358903
Probable space group: A M M 2
;
_chemical_formula_sum "Si O2"
_cell_formula_units_Z 48
_cell_length_a 9.746886
_cell_length_b 8.168407
_cell_length_c 31.641337
_cell_angle_alpha 90.000000
_cell_angle_beta 90.000000
_cell_angle_gamma 90.000000
_cell_volume 2519.173514
_symmetry_space_group_name_H-M "A M M 2"
_symmetry_group_IT_number 38
_symmetry_cell_setting 'orthorhombic'
loop_
_space_group_symop_operation_xyz
x,y,z
-x,-y,z
-x,y,z
x,-y,z
x,1/2+y,1/2+z
-x,1/2-y,1/2+z
-x,1/2+y,1/2+z
x,1/2-y,1/2+z
loop_
_atom_site_type_symbol
_atom_site_label
_atom_site_fract_x
_atom_site_fract_y
_atom_site_fract_z
Si Si1 0.342806 0.800361 0.077980
Si Si2 0.157675 0.799365 0.155923
Si Si3 0.155449 0.304944 0.905176
Si Si4 0.656672 0.197658 0.982099
Si Si5 0.656971 0.802606 0.234046
Si Si6 0.656499 0.195493 0.827957
O O1 0.500000 0.751801 0.087548
O O2 0.238075 0.745546 0.113862
O O3 0.341233 0.000000 0.078114
O O4 0.309843 0.748613 0.030027
O O5 0.241668 0.745557 0.197287
O O6 0.000000 0.746589 0.156507
O O7 0.158173 0.000000 0.155880
O O8 0.148241 0.500000 0.904451
O O9 0.237396 0.254199 0.947067
O O10 0.241597 0.250821 0.864420
O O11 0.000000 0.238521 0.904794
O O12 0.500000 0.251051 0.972415
O O13 0.655859 0.000000 0.982016
O O14 0.500000 0.744762 0.227139
O O15 0.698963 0.752075 0.281184
O O16 0.654600 0.000000 0.232413
O O17 0.500000 0.257101 0.835365
O O18 0.651760 0.000000 0.828330
#
# Coordination Sequence:
#
# PCOD9358903 Si02
#       6
#     8   8   8   8   8   8
#     4   8  14  26  45  70 100 131 163 202 247 293
#     4   9  16  25  41  69 102 133 166 204 244 288
#     4  11  24  38  52  74 104 136 169 206 251 305
#     4   9  18  33  54  79 104 132 170 214 256 299
#     4   9  17  30  49  72  99 132 167 204 249 297
#     4  10  21  37  57  79 101 128 167 213 257 303
#
# _framework density 19.053867
#
# number of rings (size 3 to 8) (size 9 to 14) (size 15 to 20)
#    0.000    2.667    0.000    3.000    0.000    8.000 
#    0.000    3.333    0.000    1.000    0.000    2.333 
#    0.000    0.000    0.000    0.000    0.000    0.000 
#
# Total GULP energy -133914.411427 kJ/mol
# GULP energy per Si atom -5579.767143 kJ/mol
# Density = 1.901050 g / cm^3
# Si number density = 19.053867 Si / 1000 Ang^3
#
#
#
# Elastic Constant Matrix: (Units=GPa)
#
#
# Indices 1 2 3 4 5 6 
#
# 1 160.8978 14.5389 149.5935 0.0000 0.0000 0.0000
# 2 14.5389 11.5051 15.5338 0.0000 0.0000 0.0000
# 3 149.5935 15.5338 195.9890 0.0000 0.0000 0.0000
# 4 0.0000 0.0000 0.0000 21.0317 0.0000 0.0000
# 5 0.0000 0.0000 0.0000 0.0000 -0.1528 0.0000
# 6 0.0000 0.0000 0.0000 0.0000 0.0000 14.5868
#
#
#
# Elastic Compliance Matrix: (Units=1/GPa)
#
#
# Indices 1 2 3 4 5 6 
#
# 1 0.021731 -0.005674 -0.016137 0.000000 0.000000 0.000000
# 2 -0.005674 0.098815 -0.003501 0.000000 0.000000 0.000000
# 3 -0.016137 -0.003501 0.017697 0.000000 0.000000 0.000000
# 4 0.000000 0.000000 0.000000 0.047547 0.000000 0.000000
# 5 0.000000 0.000000 0.000000 0.000000 -6.543683 0.000000
# 6 0.000000 0.000000 0.000000 0.000000 0.000000 0.068555
#
#
# Mechanical properties :
#
#
# Convention : Reuss Voigt Hill
#
# Bulk Modulus (GPa) = 11.41306 80.85823 46.13564
# Shear Modulus (GPa) = -0.80522 19.67485 9.43481
#
# Velocity S-wave (km/s) = -0.65078 3.21688 2.22765
# Velocity P-wave (km/s) = 2.33200 7.50510 5.55719
#
# Compressibility (1/GPa) = 0.08761896
#
# Stress axis : x y z
#
# Youngs Moduli (GPa) = 46.01652 10.11989 56.50666
#
# Poissons Ratio (x) = 0.05742 0.91186
# Poissons Ratio (y) = 0.26108 0.19785
# Poissons Ratio (z) = 0.74258 0.03543
#
# Static dielectric constant tensor:
#      x y z
#    x 1.652150 0.000000 0.000000 
#    y 0.000000 1.682260 0.000000 
#    z 0.000000 0.000000 1.640980 
# 
# From -- ./inp_files/24275.got.cif
#   From: 2010.05.17/outbox.cif.g08.bks.cpg/sg38_13_cif.got.tgz:24275.got - 2010.06.03 18:07:57.
