data_PCOD9358089
_publ_section_title
;
Structure prediction by ZEFSAII (Michael W. Deem and Ramdas Pophale) SiO2 
 PCOD9358089
Probable space group: A M M 2
;
_chemical_formula_sum "Si O2"
_cell_formula_units_Z 38
_cell_length_a 18.773284
_cell_length_b 17.180595
_cell_length_c 4.979298
_cell_angle_alpha 90.000000
_cell_angle_beta 90.000000
_cell_angle_gamma 90.000000
_cell_volume 1606.003802
_symmetry_space_group_name_H-M "A M M 2"
_symmetry_group_IT_number 38
_symmetry_cell_setting 'orthorhombic'
loop_
_space_group_symop_operation_xyz
x,y,z
-x,-y,z
-x,y,z
x,-y,z
x,1/2+y,1/2+z
-x,1/2-y,1/2+z
-x,1/2+y,1/2+z
x,1/2-y,1/2+z
loop_
_atom_site_type_symbol
_atom_site_label
_atom_site_fract_x
_atom_site_fract_y
_atom_site_fract_z
Si Si1 0.771360 0.907068 0.677850
Si Si2 0.000000 0.804822 0.039916
Si Si3 0.500000 0.500000 0.977394
Si Si4 0.861552 0.906319 0.166392
Si Si5 0.358280 0.913831 0.327246
Si Si6 0.581517 0.696948 0.411988
O O1 0.835418 0.892451 0.468547
O O2 0.700024 0.879395 0.528654
O O3 0.762296 0.000000 0.701551
O O4 0.797963 0.879578 0.966483
O O5 0.068760 0.858224 0.093921
O O6 0.000000 0.732311 0.245259
O O7 0.435482 0.433688 0.959718
O O8 0.872374 0.000000 0.132655
O O9 0.370842 0.867592 0.054052
O O10 0.330806 0.000000 0.247057
O O11 0.500000 0.669332 0.441324
O O12 0.590096 0.770193 0.614708
#
# Coordination Sequence:
#
# PCOD9358089 Si02
#       6
#     8   4   2   8   8   8
#     4   9  19  35  62  88 121 152 206 247 300 342
#     4  12  25  42  65  96 130 158 192 250 307 356
#     4   8  16  32  64  86 124 148 218 250 320 338
#     4  10  21  41  64  90 116 164 200 245 284 367
#     4   9  17  35  60  86 117 157 201 256 300 359
#     4  10  20  35  52  74 105 143 187 237 291 348
#
# _framework density 23.661211999999999
#
# number of rings (size 3 to 8) (size 9 to 14) (size 15 to 20)
#    0.632    1.684    1.053    1.579    0.000    1.684 
#    0.000   13.684    0.000    8.842    0.000    0.000 
#    0.000    0.000    0.000    0.000    0.000    0.000 
#
# Total GULP energy -105947.588351 kJ/mol
# GULP energy per Si atom -5576.188861 kJ/mol
# Density = 2.360736 g / cm^3
# Si number density = 23.661212 Si / 1000 Ang^3
#
#
#
# Elastic Constant Matrix: (Units=GPa)
#
#
# Indices 1 2 3 4 5 6 
#
# 1 117.1776 16.0214 9.1482 0.0000 0.0000 0.0000
# 2 16.0214 44.6825 4.1998 0.0000 0.0000 0.0000
# 3 9.1482 4.1998 70.6501 0.0000 0.0000 0.0000
# 4 0.0000 0.0000 0.0000 26.5592 0.0000 0.0000
# 5 0.0000 0.0000 0.0000 0.0000 29.9374 0.0000
# 6 0.0000 0.0000 0.0000 0.0000 0.0000 33.5936
#
#
#
# Elastic Compliance Matrix: (Units=1/GPa)
#
#
# Indices 1 2 3 4 5 6 
#
# 1 0.009041 -0.003149 -0.000984 0.000000 0.000000 0.000000
# 2 -0.003149 0.023603 -0.000995 0.000000 0.000000 0.000000
# 3 -0.000984 -0.000995 0.014341 0.000000 0.000000 0.000000
# 4 0.000000 0.000000 0.000000 0.037652 0.000000 0.000000
# 5 0.000000 0.000000 0.000000 0.000000 0.033403 0.000000
# 6 0.000000 0.000000 0.000000 0.000000 0.000000 0.029768
#
#
# Mechanical properties :
#
#
# Convention : Reuss Voigt Hill
#
# Bulk Modulus (GPa) = 27.22669 32.36100 29.79385
# Shear Modulus (GPa) = 29.35875 31.56076 30.45976
#
# Velocity S-wave (km/s) = 3.52632 3.65617 3.59183
# Velocity P-wave (km/s) = 5.30205 5.61515 5.46085
#
# Compressibility (1/GPa) = 0.03672866
#
# Stress axis : x y z
#
# Youngs Moduli (GPa) = 110.60167 42.36760 69.73125
#
# Poissons Ratio (x) = 0.13344 0.06858
# Poissons Ratio (y) = 0.34834 0.06940
# Poissons Ratio (z) = 0.10878 0.04217
#
# Static dielectric constant tensor:
#      x y z
#    x 1.902420 0.000000 0.000000 
#    y 0.000000 1.965500 0.000000 
#    z 0.000000 0.000000 1.916980 
# 
# From -- ./inp_files/1550.got.cif
#   From: 2010.05.17/outbox.cif.g08.bks.cpg/sg38_1_cif.got.tgz:1550.got - 2010.06.03 18:07:57.
