data_PCOD9358777
_publ_section_title
;
Structure prediction by ZEFSAII (Michael W. Deem and Ramdas Pophale) SiO2 
 PCOD9358777
Probable space group: A M M 2
;
_chemical_formula_sum "Si O2"
_cell_formula_units_Z 64
_cell_length_a 25.891551
_cell_length_b 7.572764
_cell_length_c 15.236376
_cell_angle_alpha 90.000000
_cell_angle_beta 90.000000
_cell_angle_gamma 90.000000
_cell_volume 2987.405465
_symmetry_space_group_name_H-M "A M M 2"
_symmetry_group_IT_number 38
_symmetry_cell_setting 'orthorhombic'
loop_
_space_group_symop_operation_xyz
x,y,z
-x,-y,z
-x,y,z
x,-y,z
x,1/2+y,1/2+z
-x,1/2-y,1/2+z
-x,1/2+y,1/2+z
x,1/2-y,1/2+z
loop_
_atom_site_type_symbol
_atom_site_label
_atom_site_fract_x
_atom_site_fract_y
_atom_site_fract_z
Si Si1 0.745134 0.288141 0.486940
Si Si2 0.444379 0.791854 0.123551
Si Si3 0.134120 0.712246 0.985133
Si Si4 0.942163 0.711793 0.836788
Si Si5 0.667823 0.788603 0.840616
Si Si6 0.555339 0.214253 0.831697
Si Si7 0.057833 0.288201 0.133498
Si Si8 0.668303 0.213015 0.134434
O O1 0.740694 0.500000 0.487232
O O2 0.805567 0.251152 0.485372
O O3 0.713513 0.220705 0.402219
O O4 0.714854 0.223590 0.573436
O O5 0.500000 0.717859 0.093300
O O6 0.444651 0.772306 0.229654
O O7 0.387739 0.720405 0.100110
O O8 0.444750 0.000000 0.100591
O O9 0.130486 0.500000 0.985112
O O10 0.102498 0.778557 0.069755
O O11 0.102533 0.778558 0.900481
O O12 0.944074 0.500000 0.846548
O O13 0.931998 0.749962 0.735139
O O14 0.000000 0.778680 0.858546
O O15 0.610420 0.724031 0.868075
O O16 0.675024 0.754653 0.737150
O O17 0.666643 0.000000 0.850801
O O18 0.500000 0.271783 0.870123
O O19 0.555655 0.000000 0.833607
O O20 0.055933 0.500000 0.123770
O O21 0.000000 0.221335 0.111737
O O22 0.665988 0.000000 0.128892
#
# Coordination Sequence:
#
# PCOD9358777 Si02
#       8
#     8   8   8   8   8   8   8   8
#     4  10  22  37  50  69 100 134 169 208 246 286
#     4   8  13  23  42  67  91 116 150 193 242 295
#     4  10  21  36  54  75 101 135 171 204 240 286
#     4   9  18  34  56  81 107 133 162 199 244 292
#     4   9  18  33  51  70  95 128 163 202 249 296
#     4   8  13  23  42  67  91 116 150 193 242 295
#     4   9  18  34  56  81 107 133 162 199 244 292
#     4   9  18  33  51  70  95 128 163 202 249 296
#
# _framework density 21.423271
#
# number of rings (size 3 to 8) (size 9 to 14) (size 15 to 20)
#    0.000    3.000    0.000    0.375    0.000    4.500 
#    0.000    5.625    0.000    7.500    0.000    0.000 
#    0.000   21.000    0.000    0.000    0.000    0.000 
#
# Total GULP energy -178421.262539 kJ/mol
# GULP energy per Si atom -5575.664454 kJ/mol
# Density = 2.137451 g / cm^3
# Si number density = 21.423271 Si / 1000 Ang^3
#
#
#
# Elastic Constant Matrix: (Units=GPa)
#
#
# Indices 1 2 3 4 5 6 
#
# 1 259.3974 8.7378 121.5574 0.0000 0.0000 0.0000
# 2 8.7378 51.2993 0.2206 0.0000 0.0000 0.0000
# 3 121.5574 0.2206 104.4048 0.0000 0.0000 0.0000
# 4 0.0000 0.0000 0.0000 12.9822 0.0000 0.0000
# 5 0.0000 0.0000 0.0000 0.0000 50.5010 0.0000
# 6 0.0000 0.0000 0.0000 0.0000 0.0000 16.9286
#
#
#
# Elastic Compliance Matrix: (Units=1/GPa)
#
#
# Indices 1 2 3 4 5 6 
#
# 1 0.008586 -0.001419 -0.009994 0.000000 0.000000 0.000000
# 2 -0.001419 0.019728 0.001611 0.000000 0.000000 0.000000
# 3 -0.009994 0.001611 0.021210 0.000000 0.000000 0.000000
# 4 0.000000 0.000000 0.000000 0.077029 0.000000 0.000000
# 5 0.000000 0.000000 0.000000 0.000000 0.019802 0.000000
# 6 0.000000 0.000000 0.000000 0.000000 0.000000 0.059071
#
#
# Mechanical properties :
#
#
# Convention : Reuss Voigt Hill
#
# Bulk Modulus (GPa) = 33.42215 75.12589 54.27402
# Shear Modulus (GPa) = 21.27623 35.05475 28.16549
#
# Velocity S-wave (km/s) = 3.15483 4.04950 3.62983
# Velocity P-wave (km/s) = 5.37636 7.55037 6.55414
#
# Compressibility (1/GPa) = 0.02992028
#
# Stress axis : x y z
#
# Youngs Moduli (GPa) = 116.46732 50.68863 47.14699
#
# Poissons Ratio (x) = 0.07195 0.47117
# Poissons Ratio (y) = 0.16532 -0.07595
# Poissons Ratio (z) = 1.16394 -0.08166
#
# Static dielectric constant tensor:
#      x y z
#    x 1.797420 0.000000 0.000000 
#    y 0.000000 1.849680 0.000000 
#    z 0.000000 0.000000 1.775090 
# 
# From -- ./inp_files/15862.got.cif
#   From: 2010.05.17/outbox.cif.g08.bks.cpg/sg38_8_cif.got.tgz:15862.got - 2010.06.03 18:07:57.
