data_PCOD9358093
_publ_section_title
;
Structure prediction by ZEFSAII (Michael W. Deem and Ramdas Pophale) SiO2 
 PCOD9358093
Probable space group: A M M 2
;
_chemical_formula_sum "Si O2"
_cell_formula_units_Z 64
_cell_length_a 29.093656
_cell_length_b 8.589659
_cell_length_c 14.546555
_cell_angle_alpha 90.000000
_cell_angle_beta 90.000000
_cell_angle_gamma 90.000000
_cell_volume 3635.250777
_symmetry_space_group_name_H-M "A M M 2"
_symmetry_group_IT_number 38
_symmetry_cell_setting 'orthorhombic'
loop_
_space_group_symop_operation_xyz
x,y,z
-x,-y,z
-x,y,z
x,-y,z
x,1/2+y,1/2+z
-x,1/2-y,1/2+z
-x,1/2+y,1/2+z
x,1/2-y,1/2+z
loop_
_atom_site_type_symbol
_atom_site_label
_atom_site_fract_x
_atom_site_fract_y
_atom_site_fract_z
Si Si1 0.872748 0.813017 0.563000
Si Si2 0.197480 0.685395 0.415715
Si Si3 0.872605 0.813019 0.268682
Si Si4 0.629607 0.811512 0.070188
Si Si5 0.299910 0.813513 0.426271
Si Si6 0.377742 0.687724 0.781210
Si Si7 0.052247 0.810698 0.415941
Si Si8 0.447593 0.187740 0.925370
O O1 0.829900 0.749249 0.504419
O O2 0.873213 0.751316 0.666123
O O3 0.918238 0.764795 0.505463
O O4 0.870674 0.000000 0.563000
O O5 0.194779 0.500000 0.414451
O O6 0.170715 0.752787 0.327279
O O7 0.249932 0.739896 0.417998
O O8 0.917704 0.764124 0.327250
O O9 0.871238 0.000000 0.266877
O O10 0.626012 0.761616 0.175796
O O11 0.632858 0.000000 0.067836
O O12 0.673321 0.742341 0.017247
O O13 0.584646 0.764973 0.011152
O O14 0.333145 0.767000 0.341369
O O15 0.295959 0.000000 0.426690
O O16 0.380449 0.500000 0.782547
O O17 0.421865 0.753178 0.834406
O O18 0.000000 0.753538 0.415511
O O19 0.050885 0.000000 0.415665
O O20 0.500000 0.243076 0.932460
O O21 0.448092 0.000000 0.923800
#
# Coordination Sequence:
#
# PCOD9358093 Si02
#       8
#     8   8   8   8   8   8   8   8
#     4  10  20  35  55  79 108 140 176 219 266 314
#     4  11  22  37  56  77 104 139 179 220 265 314
#     4  10  20  35  55  79 109 142 177 218 263 314
#     4   9  18  34  53  74 101 134 173 210 251 304
#     4  10  20  35  53  76 105 133 167 212 263 312
#     4   9  19  34  53  75 100 132 168 209 252 301
#     4   8  16  32  53  77 107 142 178 217 260 307
#     4   9  18  32  50  73 102 134 168 209 254 300
#
# _framework density 17.605387
#
# number of rings (size 3 to 8) (size 9 to 14) (size 15 to 20)
#    0.000    2.500    0.000    3.000    0.000    3.250 
#    0.000    5.000    0.000   12.750    0.000    0.000 
#    0.000    0.000    0.000    0.000    0.000    0.000 
#
# Total GULP energy -178537.786438 kJ/mol
# GULP energy per Si atom -5579.305826 kJ/mol
# Density = 1.756532 g / cm^3
# Si number density = 17.605387 Si / 1000 Ang^3
#
#
#
# Elastic Constant Matrix: (Units=GPa)
#
#
# Indices 1 2 3 4 5 6 
#
# 1 165.7931 36.3266 79.3469 0.0000 0.0000 0.0000
# 2 36.3266 47.4535 36.1134 0.0000 0.0000 0.0000
# 3 79.3469 36.1134 171.5077 0.0000 0.0000 0.0000
# 4 0.0000 0.0000 0.0000 25.1996 0.0000 0.0000
# 5 0.0000 0.0000 0.0000 0.0000 4.5409 0.0000
# 6 0.0000 0.0000 0.0000 0.0000 0.0000 21.7551
#
#
#
# Elastic Compliance Matrix: (Units=1/GPa)
#
#
# Indices 1 2 3 4 5 6 
#
# 1 0.008373 -0.004123 -0.003006 0.000000 0.000000 0.000000
# 2 -0.004123 0.027124 -0.003804 0.000000 0.000000 0.000000
# 3 -0.003006 -0.003804 0.008022 0.000000 0.000000 0.000000
# 4 0.000000 0.000000 0.000000 0.039683 0.000000 0.000000
# 5 0.000000 0.000000 0.000000 0.000000 0.220223 0.000000
# 6 0.000000 0.000000 0.000000 0.000000 0.000000 0.045966
#
#
# Mechanical properties :
#
#
# Convention : Reuss Voigt Hill
#
# Bulk Modulus (GPa) = 46.17889 76.48091 61.32990
# Shear Modulus (GPa) = 13.21089 25.83027 19.52058
#
# Velocity S-wave (km/s) = 2.74230 3.83453 3.33345
# Velocity P-wave (km/s) = 6.02610 7.94613 7.05176
#
# Compressibility (1/GPa) = 0.02165492
#
# Stress axis : x y z
#
# Youngs Moduli (GPa) = 119.42480 36.86746 124.65247
#
# Poissons Ratio (x) = 0.15199 0.37469
# Poissons Ratio (y) = 0.49233 0.47420
# Poissons Ratio (z) = 0.35898 0.14025
#
# Static dielectric constant tensor:
#      x y z
#    x 1.583790 0.000000 0.000000 
#    y 0.000000 1.594380 0.000000 
#    z 0.000000 0.000000 1.578670 
# 
# From -- ./inp_files/15912.got.cif
#   From: 2010.05.17/outbox.cif.g08.bks.cpg/sg38_8_cif.got.tgz:15912.got - 2010.06.03 18:07:57.
