data_PCOD9358891
_publ_section_title
;
Structure prediction by ZEFSAII (Michael W. Deem and Ramdas Pophale) SiO2 
 PCOD9358891
Probable space group: A M M 2
;
_chemical_formula_sum "Si O2"
_cell_formula_units_Z 48
_cell_length_a 7.725411
_cell_length_b 9.059118
_cell_length_c 35.600006
_cell_angle_alpha 90.000000
_cell_angle_beta 90.000000
_cell_angle_gamma 90.000000
_cell_volume 2491.481010
_symmetry_space_group_name_H-M "A M M 2"
_symmetry_group_IT_number 38
_symmetry_cell_setting 'orthorhombic'
loop_
_space_group_symop_operation_xyz
x,y,z
-x,-y,z
-x,y,z
x,-y,z
x,1/2+y,1/2+z
-x,1/2-y,1/2+z
-x,1/2+y,1/2+z
x,1/2-y,1/2+z
loop_
_atom_site_type_symbol
_atom_site_label
_atom_site_fract_x
_atom_site_fract_y
_atom_site_fract_z
Si Si1 0.707684 0.667002 0.935080
Si Si2 0.000000 0.678382 0.655639
Si Si3 0.706660 0.333702 0.782308
Si Si4 0.702623 0.677733 0.511950
Si Si5 0.000000 0.320922 0.568713
Si Si6 0.293448 0.676164 0.205650
Si Si7 0.205674 0.665844 0.358494
O O1 0.500000 0.659647 0.937490
O O2 0.775900 0.500000 0.933275
O O3 0.747843 0.754618 0.897237
O O4 0.763708 0.749984 0.972903
O O5 0.829857 0.742904 0.676002
O O6 0.000000 0.500000 0.658185
O O7 0.000000 0.724556 0.611948
O O8 0.500000 0.344139 0.779153
O O9 0.778717 0.500000 0.780536
O O10 0.761438 0.235824 0.746798
O O11 0.742256 0.258601 0.822085
O O12 0.500000 0.715290 0.518622
O O13 0.712215 0.500000 0.508152
O O14 0.829445 0.724630 0.545496
O O15 0.000000 0.500000 0.568866
O O16 0.500000 0.706740 0.200213
O O17 0.270130 0.500000 0.203852
O O18 0.279720 0.500000 0.357096
O O19 0.000000 0.655170 0.357486
#
# Coordination Sequence:
#
# PCOD9358891 Si02
#       7
#     8   4   8   8   4   8   8
#     4  10  21  37  56  80 111 147 189 238 289 341
#     4  11  23  39  63  94 125 158 195 247 305 360
#     4  10  21  38  60  85 113 148 192 242 293 345
#     4   9  18  35  59  84 113 151 192 237 288 344
#     4   9  20  37  59  88 117 148 191 237 289 354
#     4  10  22  41  64  89 121 162 204 247 297 358
#     4  11  24  37  52  79 114 153 194 237 284 339
#
# _framework density 19.265649
#
# number of rings (size 3 to 8) (size 9 to 14) (size 15 to 20)
#    0.000    2.000    0.000    2.750    2.333    7.000 
#    0.000    3.333    0.000    2.000    0.000    0.000 
#    0.000    0.000    0.000    0.000    0.000    0.000 
#
# Total GULP energy -134008.581626 kJ/mol
# GULP energy per Si atom -5583.690901 kJ/mol
# Density = 1.922180 g / cm^3
# Si number density = 19.265649 Si / 1000 Ang^3
#
#
#
# Elastic Constant Matrix: (Units=GPa)
#
#
# Indices 1 2 3 4 5 6 
#
# 1 72.3147 46.6097 62.4903 0.0000 0.0000 0.0000
# 2 46.6097 112.3922 76.1285 0.0000 0.0000 0.0000
# 3 62.4903 76.1285 198.8690 0.0000 0.0000 0.0000
# 4 0.0000 0.0000 0.0000 30.3919 0.0000 0.0000
# 5 0.0000 0.0000 0.0000 0.0000 36.4869 0.0000
# 6 0.0000 0.0000 0.0000 0.0000 0.0000 21.0663
#
#
#
# Elastic Compliance Matrix: (Units=1/GPa)
#
#
# Indices 1 2 3 4 5 6 
#
# 1 0.021508 -0.005861 -0.004514 0.000000 0.000000 0.000000
# 2 -0.005861 0.013609 -0.003368 0.000000 0.000000 0.000000
# 3 -0.004514 -0.003368 0.007736 0.000000 0.000000 0.000000
# 4 0.000000 0.000000 0.000000 0.032904 0.000000 0.000000
# 5 0.000000 0.000000 0.000000 0.000000 0.027407 0.000000
# 6 0.000000 0.000000 0.000000 0.000000 0.000000 0.047469
#
#
# Mechanical properties :
#
#
# Convention : Reuss Voigt Hill
#
# Bulk Modulus (GPa) = 65.08074 83.78145 74.43109
# Shear Modulus (GPa) = 27.28620 30.81217 29.04919
#
# Velocity S-wave (km/s) = 3.76748 4.00350 3.88728
# Velocity P-wave (km/s) = 7.26493 8.05932 7.67241
#
# Compressibility (1/GPa) = 0.01536553
#
# Stress axis : x y z
#
# Youngs Moduli (GPa) = 46.49532 73.47818 129.26082
#
# Poissons Ratio (x) = 0.43069 0.58354
# Poissons Ratio (y) = 0.27253 0.43535
# Poissons Ratio (z) = 0.20990 0.24747
#
# Static dielectric constant tensor:
#      x y z
#    x 1.687500 0.000000 0.000000 
#    y 0.000000 1.681910 0.000000 
#    z 0.000000 0.000000 1.650760 
# 
# From -- ./inp_files/24302.got.cif
#   From: 2010.05.17/outbox.cif.g08.bks.cpg/sg38_13_cif.got.tgz:24302.got - 2010.06.03 18:07:57.
