data_PCOD9358009
_publ_section_title
;
Structure prediction by ZEFSAII (Michael W. Deem and Ramdas Pophale) SiO2 
 PCOD9358009
Probable space group: A M M 2
;
_chemical_formula_sum "Si O2"
_cell_formula_units_Z 48
_cell_length_a 8.597117
_cell_length_b 9.329378
_cell_length_c 31.669566
_cell_angle_alpha 90.000000
_cell_angle_beta 90.000000
_cell_angle_gamma 90.000000
_cell_volume 2540.081426
_symmetry_space_group_name_H-M "A M M 2"
_symmetry_group_IT_number 38
_symmetry_cell_setting 'orthorhombic'
loop_
_space_group_symop_operation_xyz
x,y,z
-x,-y,z
-x,y,z
x,-y,z
x,1/2+y,1/2+z
-x,1/2-y,1/2+z
-x,1/2+y,1/2+z
x,1/2-y,1/2+z
loop_
_atom_site_type_symbol
_atom_site_label
_atom_site_fract_x
_atom_site_fract_y
_atom_site_fract_z
Si Si1 0.812790 0.169230 0.855040
Si Si2 0.186416 0.166041 0.694517
Si Si3 0.313471 0.165942 0.113569
Si Si4 0.188478 0.834590 0.532862
Si Si5 0.314126 0.166099 0.275047
Si Si6 0.810625 0.335165 0.450401
O O1 0.734838 0.264081 0.819320
O O2 0.763275 0.206763 0.902930
O O3 0.000000 0.185371 0.852265
O O4 0.778963 0.000000 0.848621
O O5 0.253465 0.249504 0.654377
O O6 0.239816 0.243797 0.737135
O O7 0.000000 0.168347 0.692210
O O8 0.237591 0.000000 0.694349
O O9 0.500000 0.168962 0.113384
O O10 0.251062 0.242095 0.071592
O O11 0.262409 0.000000 0.115068
O O12 0.240195 0.766467 0.488326
O O13 0.000000 0.830277 0.533904
O O14 0.236690 0.000000 0.536643
O O15 0.500000 0.171132 0.270663
O O16 0.264415 0.000000 0.272885
O O17 0.762363 0.500000 0.458078
O O18 0.000000 0.334808 0.450146
#
# Coordination Sequence:
#
# PCOD9358009 Si02
#       6
#     8   8   8   8   8   8
#     4   9  18  34  57  84 111 142 185 232 276 326
#     4  11  24  41  62  87 111 138 178 225 272 326
#     4  11  24  40  58  82 112 146 184 224 269 324
#     4  10  20  34  55  84 114 145 185 229 273 325
#     4  11  24  39  55  80 114 149 185 224 269 324
#     4   8  15  30  53  80 110 144 183 229 277 322
#
# _framework density 18.897031999999999
#
# number of rings (size 3 to 8) (size 9 to 14) (size 15 to 20)
#    0.000    2.000    0.000    4.500    0.000   12.000 
#    0.000    2.500    0.000    1.000    0.000    0.000 
#    0.000    0.000    0.000    0.000    0.000    0.000 
#
# Total GULP energy -134082.992844 kJ/mol
# GULP energy per Si atom -5586.791369 kJ/mol
# Density = 1.885402 g / cm^3
# Si number density = 18.897032 Si / 1000 Ang^3
#
#
#
# Elastic Constant Matrix: (Units=GPa)
#
#
# Indices 1 2 3 4 5 6 
#
# 1 22.0677 40.6336 28.3525 0.0000 0.0000 0.0000
# 2 40.6336 175.7942 117.7937 0.0000 0.0000 0.0000
# 3 28.3525 117.7937 170.7529 0.0000 0.0000 0.0000
# 4 0.0000 0.0000 0.0000 42.0599 0.0000 0.0000
# 5 0.0000 0.0000 0.0000 0.0000 -200.3407 0.0000
# 6 0.0000 0.0000 0.0000 0.0000 0.0000 23.0307
#
#
#
# Elastic Compliance Matrix: (Units=1/GPa)
#
#
# Indices 1 2 3 4 5 6 
#
# 1 0.078978 -0.017607 -0.000968 0.000000 0.000000 0.000000
# 2 -0.017607 0.014503 -0.007082 0.000000 0.000000 0.000000
# 3 -0.000968 -0.007082 0.010902 0.000000 0.000000 0.000000
# 4 0.000000 0.000000 0.000000 0.023776 0.000000 0.000000
# 5 0.000000 0.000000 0.000000 0.000000 -0.004991 0.000000
# 6 0.000000 0.000000 0.000000 0.000000 0.000000 0.043420
#
#
# Mechanical properties :
#
#
# Convention : Reuss Voigt Hill
#
# Bulk Modulus (GPa) = 18.84258 82.46382 50.65320
# Shear Modulus (GPa) = 21.22326 -14.92769 3.14779
#
# Velocity S-wave (km/s) = 3.35490 -2.81365 1.29204
# Velocity P-wave (km/s) = 5.00000 5.76001 5.39341
#
# Compressibility (1/GPa) = 0.05307130
#
# Stress axis : x y z
#
# Youngs Moduli (GPa) = 12.66177 68.95006 91.72347
#
# Poissons Ratio (x) = 1.21398 0.08878
# Poissons Ratio (y) = 0.22293 0.64955
# Poissons Ratio (z) = 0.01225 0.48827
#
# Static dielectric constant tensor:
#      x y z
#    x 1.646990 0.000000 0.000000 
#    y 0.000000 1.639180 0.000000 
#    z 0.000000 0.000000 1.624750 
# 
# From -- ./inp_files/24287.got.cif
#   From: 2010.05.17/outbox.cif.g08.bks.cpg/sg38_13_cif.got.tgz:24287.got - 2010.06.03 18:07:57.
