data_PCOD9358500
_publ_section_title
;
Structure prediction by ZEFSAII (Michael W. Deem and Ramdas Pophale) SiO2 
 PCOD9358500
Probable space group: A M M 2
;
_chemical_formula_sum "Si O2"
_cell_formula_units_Z 64
_cell_length_a 9.287046
_cell_length_b 25.343246
_cell_length_c 14.781782
_cell_angle_alpha 90.000000
_cell_angle_beta 90.000000
_cell_angle_gamma 90.000000
_cell_volume 3479.097733
_symmetry_space_group_name_H-M "A M M 2"
_symmetry_group_IT_number 38
_symmetry_cell_setting 'orthorhombic'
loop_
_space_group_symop_operation_xyz
x,y,z
-x,-y,z
-x,y,z
x,-y,z
x,1/2+y,1/2+z
-x,1/2-y,1/2+z
-x,1/2+y,1/2+z
x,1/2-y,1/2+z
loop_
_atom_site_type_symbol
_atom_site_label
_atom_site_fract_x
_atom_site_fract_y
_atom_site_fract_z
Si Si1 0.665877 0.759971 0.946550
Si Si2 0.169718 0.345492 0.925297
Si Si3 0.333863 0.225765 0.730430
Si Si4 0.671955 0.370022 0.545520
Si Si5 0.328050 0.440062 0.024732
Si Si6 0.830885 0.063099 0.896168
Si Si7 0.830553 0.168930 0.211016
Si Si8 0.329130 0.894431 0.719827
O O1 0.500000 0.745729 0.966441
O O2 0.763376 0.709039 0.962458
O O3 0.674085 0.774429 0.839947
O O4 0.702517 0.812439 0.001498
O O5 0.192258 0.344406 0.816636
O O6 0.000000 0.346917 0.942817
O O7 0.246620 0.395816 0.968125
O O8 0.500000 0.238277 0.705485
O O9 0.230011 0.271821 0.697801
O O10 0.298592 0.166980 0.698402
O O11 0.500000 0.376884 0.548127
O O12 0.746087 0.412364 0.480595
O O13 0.741614 0.368513 0.644468
O O14 0.500000 0.434677 0.010811
O O15 0.285831 0.500000 0.002223
O O16 0.301736 0.428785 0.130907
O O17 0.762030 0.086552 0.804909
O O18 0.000000 0.076694 0.901615
O O19 0.816903 0.000000 0.894698
O O20 0.000000 0.166402 0.191390
O O21 0.500000 0.897335 0.742415
#
# Coordination Sequence:
#
# PCOD9358500 Si02
#       8
#     8   8   8   8   8   8   8   8
#     4   9  18  34  56  83 114 148 187 232 282 339
#     4  10  22  39  59  84 115 153 195 239 296 352
#     4   9  17  33  55  83 117 153 191 229 277 343
#     4  11  22  38  61  88 116 155 201 244 291 346
#     4  10  22  39  60  86 115 151 198 248 293 340
#     4  11  24  40  59  86 122 160 196 241 296 353
#     4  10  22  38  56  84 121 156 192 242 299 353
#     4  10  20  37  60  87 118 155 197 240 288 346
#
# _framework density 18.395575000000001
#
# number of rings (size 3 to 8) (size 9 to 14) (size 15 to 20)
#    0.000    2.000    1.250    1.875    1.750    5.250 
#    0.000    0.625    0.000    0.750    0.000    0.000 
#    0.000    0.000    0.000    0.000    0.000    0.000 
#
# Total GULP energy -178780.356229 kJ/mol
# GULP energy per Si atom -5586.886132 kJ/mol
# Density = 1.835371 g / cm^3
# Si number density = 18.395575 Si / 1000 Ang^3
#
#
#
# Elastic Constant Matrix: (Units=GPa)
#
#
# Indices 1 2 3 4 5 6 
#
# 1 75.0868 49.6367 40.3564 0.0000 0.0000 0.0000
# 2 49.6367 80.2471 18.6137 0.0000 0.0000 0.0000
# 3 40.3564 18.6137 39.1870 0.0000 0.0000 0.0000
# 4 0.0000 0.0000 0.0000 25.3024 0.0000 0.0000
# 5 0.0000 0.0000 0.0000 0.0000 28.9543 0.0000
# 6 0.0000 0.0000 0.0000 0.0000 0.0000 24.6340
#
#
#
# Elastic Compliance Matrix: (Units=1/GPa)
#
#
# Indices 1 2 3 4 5 6 
#
# 1 0.048718 -0.020787 -0.040298 0.000000 0.000000 0.000000
# 2 -0.020787 0.022874 0.010542 0.000000 0.000000 0.000000
# 3 -0.040298 0.010542 0.062012 0.000000 0.000000 0.000000
# 4 0.000000 0.000000 0.000000 0.039522 0.000000 0.000000
# 5 0.000000 0.000000 0.000000 0.000000 0.034537 0.000000
# 6 0.000000 0.000000 0.000000 0.000000 0.000000 0.040594
#
#
# Mechanical properties :
#
#
# Convention : Reuss Voigt Hill
#
# Bulk Modulus (GPa) = 30.75211 45.74828 38.25020
# Shear Modulus (GPa) = 13.88186 21.50576 17.69381
#
# Velocity S-wave (km/s) = 2.75003 3.42288 3.10474
# Velocity P-wave (km/s) = 5.18044 6.36747 5.80438
#
# Compressibility (1/GPa) = 0.03251809
#
# Stress axis : x y z
#
# Youngs Moduli (GPa) = 20.52621 43.71766 16.12602
#
# Poissons Ratio (x) = 0.90877 0.64985
# Poissons Ratio (y) = 0.42668 -0.17001
# Poissons Ratio (z) = 0.82717 -0.46089
#
# Static dielectric constant tensor:
#      x y z
#    x 1.612820 0.000000 0.000000 
#    y 0.000000 1.608660 0.000000 
#    z 0.000000 0.000000 1.642480 
# 
# From -- ./inp_files/12721.got.cif
#   From: 2010.05.17/outbox.cif.g08.bks.cpg/sg38_7_cif.got.tgz:12721.got - 2010.06.03 18:07:57.
