data_PCOD9358482
_publ_section_title
;
Structure prediction by ZEFSAII (Michael W. Deem and Ramdas Pophale) SiO2 
 PCOD9358482
Probable space group: A M M 2
;
_chemical_formula_sum "Si O2"
_cell_formula_units_Z 64
_cell_length_a 24.032582
_cell_length_b 7.619884
_cell_length_c 16.128526
_cell_angle_alpha 90.000000
_cell_angle_beta 90.000000
_cell_angle_gamma 90.000000
_cell_volume 2953.544179
_symmetry_space_group_name_H-M "A M M 2"
_symmetry_group_IT_number 38
_symmetry_cell_setting 'orthorhombic'
loop_
_space_group_symop_operation_xyz
x,y,z
-x,-y,z
-x,y,z
x,-y,z
x,1/2+y,1/2+z
-x,1/2-y,1/2+z
-x,1/2+y,1/2+z
x,1/2-y,1/2+z
loop_
_atom_site_type_symbol
_atom_site_label
_atom_site_fract_x
_atom_site_fract_y
_atom_site_fract_z
Si Si1 0.064245 0.714127 0.602010
Si Si2 0.263967 0.798992 0.450375
Si Si3 0.064263 0.787901 0.288950
Si Si4 0.681557 0.297843 0.786307
Si Si5 0.561029 0.286140 0.533051
Si Si6 0.326240 0.705617 0.611447
Si Si7 0.561706 0.787868 0.838284
Si Si8 0.862014 0.705948 0.447708
O O1 0.064551 0.500000 0.600849
O O2 0.081001 0.767690 0.695491
O O3 0.103035 0.773988 0.526810
O O4 0.000000 0.767793 0.588870
O O5 0.293135 0.716284 0.369521
O O6 0.284161 0.714849 0.535430
O O7 0.198045 0.792342 0.440434
O O8 0.283189 0.000000 0.457198
O O9 0.102709 0.726305 0.363690
O O10 0.000000 0.732606 0.301961
O O11 0.065096 0.000000 0.289696
O O12 0.701497 0.500000 0.787885
O O13 0.696258 0.217804 0.697415
O O14 0.614719 0.290045 0.792644
O O15 0.500000 0.228523 0.562706
O O16 0.561648 0.500000 0.535214
O O17 0.614283 0.219743 0.582618
O O18 0.566312 0.240045 0.435785
O O19 0.336261 0.500000 0.628790
O O20 0.500000 0.733816 0.809278
O O21 0.564770 0.000000 0.832962
O O22 0.851913 0.500000 0.461643
#
# Coordination Sequence:
#
# PCOD9358482 Si02
#       8
#     8   8   8   8   8   8   8   8
#     4   8  16  33  57  84 114 146 178 216 266 321
#     4  11  24  41  55  75 111 147 183 232 284 329
#     4   9  18  35  59  86 117 150 179 214 269 328
#     4  10  22  37  56  81 108 140 181 229 280 330
#     4   8  14  27  51  80 105 131 166 212 265 322
#     4  10  20  37  60  81 102 138 186 229 270 327
#     4   9  17  31  54  82 110 140 173 215 271 332
#     4  11  22  36  58  84 110 146 192 234 269 316
#
# _framework density 21.668882
#
# number of rings (size 3 to 8) (size 9 to 14) (size 15 to 20)
#    0.000    2.500    1.250    2.625    0.000    3.500 
#    0.000    7.500    0.000    1.875    0.000    0.000 
#    0.000    0.000    0.000    0.000    0.000    0.000 
#
# Total GULP energy -178644.315259 kJ/mol
# GULP energy per Si atom -5582.634852 kJ/mol
# Density = 2.161956 g / cm^3
# Si number density = 21.668882 Si / 1000 Ang^3
#
#
#
# Elastic Constant Matrix: (Units=GPa)
#
#
# Indices 1 2 3 4 5 6 
#
# 1 93.1378 -7.8234 68.8628 0.0000 0.0000 0.0000
# 2 -7.8234 45.5786 1.0342 0.0000 0.0000 0.0000
# 3 68.8628 1.0342 158.9210 0.0000 0.0000 0.0000
# 4 0.0000 0.0000 0.0000 10.4891 0.0000 0.0000
# 5 0.0000 0.0000 0.0000 0.0000 -7.0356 0.0000
# 6 0.0000 0.0000 0.0000 0.0000 0.0000 17.7021
#
#
#
# Elastic Compliance Matrix: (Units=1/GPa)
#
#
# Indices 1 2 3 4 5 6 
#
# 1 0.016182 0.002937 -0.007031 0.000000 0.000000 0.000000
# 2 0.002937 0.022476 -0.001419 0.000000 0.000000 0.000000
# 3 -0.007031 -0.001419 0.009348 0.000000 0.000000 0.000000
# 4 0.000000 0.000000 0.000000 0.095337 0.000000 0.000000
# 5 0.000000 0.000000 0.000000 0.000000 -0.142135 0.000000
# 6 0.000000 0.000000 0.000000 0.000000 0.000000 0.056490
#
#
# Mechanical properties :
#
#
# Convention : Reuss Voigt Hill
#
# Bulk Modulus (GPa) = 27.04089 46.86496 36.95292
# Shear Modulus (GPa) = 61.68879 19.93538 40.81209
#
# Velocity S-wave (km/s) = 5.34141 3.03644 4.34457
# Velocity P-wave (km/s) = 7.10965 5.82821 6.50058
#
# Compressibility (1/GPa) = 0.03698103
#
# Stress axis : x y z
#
# Youngs Moduli (GPa) = 61.79720 44.49099 106.97136
#
# Poissons Ratio (x) = -0.13068 0.75211
# Poissons Ratio (y) = -0.18151 0.15179
# Poissons Ratio (z) = 0.43450 0.06313
#
# Static dielectric constant tensor:
#      x y z
#    x 1.750010 0.000000 0.000000 
#    y 0.000000 1.822250 0.000000 
#    z 0.000000 0.000000 1.810900 
# 
# From -- ./inp_files/15770.got.cif
#   From: 2010.05.17/outbox.cif.g08.bks.cpg/sg38_8_cif.got.tgz:15770.got - 2010.06.03 18:07:57.
