data_PCOD9358277
_publ_section_title
;
Structure prediction by ZEFSAII (Michael W. Deem and Ramdas Pophale) SiO2 
 PCOD9358277
Probable space group: A M M 2
;
_chemical_formula_sum "Si O2"
_cell_formula_units_Z 38
_cell_length_a 9.764122
_cell_length_b 23.031886
_cell_length_c 8.524509
_cell_angle_alpha 90.000000
_cell_angle_beta 90.000000
_cell_angle_gamma 90.000000
_cell_volume 1917.043965
_symmetry_space_group_name_H-M "A M M 2"
_symmetry_group_IT_number 38
_symmetry_cell_setting 'orthorhombic'
loop_
_space_group_symop_operation_xyz
x,y,z
-x,-y,z
-x,y,z
x,-y,z
x,1/2+y,1/2+z
-x,1/2-y,1/2+z
-x,1/2+y,1/2+z
x,1/2-y,1/2+z
loop_
_atom_site_type_symbol
_atom_site_label
_atom_site_fract_x
_atom_site_fract_y
_atom_site_fract_z
Si Si1 0.500000 0.166730 0.711990
Si Si2 0.000000 0.273112 0.273130
Si Si3 0.500000 0.500000 0.955803
Si Si4 0.000000 0.401761 0.182786
Si Si5 0.224716 0.825091 0.236779
Si Si6 0.718519 0.098713 0.536996
Si Si7 0.500000 0.712609 0.563555
Si Si8 0.000000 0.131970 0.023802
O O1 0.634074 0.128379 0.679192
O O2 0.500000 0.218366 0.585663
O O3 0.500000 0.194292 0.883068
O O4 0.866897 0.232968 0.255409
O O5 0.000000 0.303713 0.443436
O O6 0.000000 0.330502 0.163885
O O7 0.619653 0.550482 0.965762
O O8 0.000000 0.409008 0.371714
O O9 0.862191 0.423739 0.103739
O O10 0.251846 0.853641 0.404138
O O11 0.364882 0.811117 0.148839
O O12 0.133094 0.869121 0.132513
#
# Coordination Sequence:
#
# PCOD9358277 Si02
#       8
#     4   4   2   4   8   8   4   4
#     4  11  24  36  53  88 128 173 201 265 317 391
#     4   9  22  33  58  94 139 164 191 244 312 395
#     4  10  26  48  64  86 124 162 234 308 316 358
#     4  10  20  35  66  93 126 165 203 256 319 404
#     4  11  22  35  60  91 129 175 211 249 317 391
#     4  11  23  42  65  89 119 169 227 269 333 368
#     4  12  23  34  55  90 136 166 216 246 311 402
#     4   9  22  37  56  92 137 163 192 252 311 389
#
# _framework density 19.822184
#
# number of rings (size 3 to 8) (size 9 to 14) (size 15 to 20)
#    0.632    0.842    0.000    6.316   11.789    0.421 
#    0.000    0.000    0.000   24.000    0.000    0.000 
#    0.000    0.000    0.000    0.000    0.000    0.000 
#
# Total GULP energy -105881.398289 kJ/mol
# GULP energy per Si atom -5572.705173 kJ/mol
# Density = 1.977707 g / cm^3
# Si number density = 19.822184 Si / 1000 Ang^3
#
#
#
# Elastic Constant Matrix: (Units=GPa)
#
#
# Indices 1 2 3 4 5 6 
#
# 1 163.1022 11.1307 29.0894 0.0000 0.0000 0.0000
# 2 11.1307 31.3324 -5.1548 0.0000 0.0000 0.0000
# 3 29.0894 -5.1548 72.2529 0.0000 0.0000 0.0000
# 4 0.0000 0.0000 0.0000 -5.7977 0.0000 0.0000
# 5 0.0000 0.0000 0.0000 0.0000 31.0480 0.0000
# 6 0.0000 0.0000 0.0000 0.0000 0.0000 14.0330
#
#
#
# Elastic Compliance Matrix: (Units=1/GPa)
#
#
# Indices 1 2 3 4 5 6 
#
# 1 0.006861 -0.002926 -0.002971 0.000000 0.000000 0.000000
# 2 -0.002926 0.033543 0.003571 0.000000 0.000000 0.000000
# 3 -0.002971 0.003571 0.015291 0.000000 0.000000 0.000000
# 4 0.000000 0.000000 0.000000 -0.172482 0.000000 0.000000
# 5 0.000000 0.000000 0.000000 0.000000 0.032208 0.000000
# 6 0.000000 0.000000 0.000000 0.000000 0.000000 0.071261
#
#
# Mechanical properties :
#
#
# Convention : Reuss Voigt Hill
#
# Bulk Modulus (GPa) = 19.59132 37.42423 28.50777
# Shear Modulus (GPa) = 598.97777 23.29812 311.13794
#
# Velocity S-wave (km/s) = 17.40205 3.43207 12.54214
# Velocity P-wave (km/s) = 20.33913 5.88442 14.97175
#
# Compressibility (1/GPa) = 0.05104301
#
# Stress axis : x y z
#
# Youngs Moduli (GPa) = 145.75846 29.81268 65.39729
#
# Poissons Ratio (x) = 0.08723 0.19429
# Poissons Ratio (y) = 0.42649 -0.23354
# Poissons Ratio (z) = 0.43303 -0.10646
#
# Static dielectric constant tensor:
#      x y z
#    x 1.693570 0.000000 0.000000 
#    y 0.000000 1.686440 0.000000 
#    z 0.000000 0.000000 1.698860 
# 
# From -- ./inp_files/3373.got.cif
#   From: 2010.05.17/outbox.cif.g08.bks.cpg/sg38_2_cif.got.tgz:3373.got - 2010.06.03 18:07:57.
