data_PCOD9358828
_publ_section_title
;
Structure prediction by ZEFSAII (Michael W. Deem and Ramdas Pophale) SiO2 
 PCOD9358828
Probable space group: A M M 2
;
_chemical_formula_sum "Si O2"
_cell_formula_units_Z 56
_cell_length_a 22.022657
_cell_length_b 8.284922
_cell_length_c 15.852500
_cell_angle_alpha 90.000000
_cell_angle_beta 90.000000
_cell_angle_gamma 90.000000
_cell_volume 2892.383668
_symmetry_space_group_name_H-M "A M M 2"
_symmetry_group_IT_number 38
_symmetry_cell_setting 'orthorhombic'
loop_
_space_group_symop_operation_xyz
x,y,z
-x,-y,z
-x,y,z
x,-y,z
x,1/2+y,1/2+z
-x,1/2-y,1/2+z
-x,1/2+y,1/2+z
x,1/2-y,1/2+z
loop_
_atom_site_type_symbol
_atom_site_label
_atom_site_fract_x
_atom_site_fract_y
_atom_site_fract_z
Si Si1 0.430363 0.696845 0.176760
Si Si2 0.651944 0.305362 0.331255
Si Si3 0.868785 0.692892 0.992565
Si Si4 0.569851 0.694944 0.985007
Si Si5 0.131041 0.307055 0.675707
Si Si6 0.790563 0.193158 0.834132
Si Si7 0.000000 0.196700 0.433006
Si Si8 0.000000 0.303316 0.736005
O O1 0.500000 0.746012 0.194736
O O2 0.429822 0.500000 0.177360
O O3 0.384687 0.753803 0.248855
O O4 0.414988 0.746304 0.080973
O O5 0.653577 0.500000 0.326404
O O6 0.615108 0.259005 0.414770
O O7 0.721189 0.246437 0.333633
O O8 0.870241 0.500000 0.990144
O O9 0.848045 0.748393 0.084446
O O10 0.826129 0.751098 0.917234
O O11 0.937745 0.753316 0.975765
O O12 0.500000 0.744960 0.967614
O O13 0.571234 0.500000 0.983340
O O14 0.129468 0.500000 0.676301
O O15 0.173417 0.250865 0.751768
O O16 0.062140 0.246788 0.693003
O O17 0.789555 0.000000 0.833503
O O18 0.000000 0.243010 0.334500
O O19 0.000000 0.000000 0.435556
O O20 0.000000 0.500000 0.733700
#
# Coordination Sequence:
#
# PCOD9358828 Si02
#       8
#     8   8   8   8   8   8   4   4
#     4   8  15  31  55  80 106 139 177 217 267 325
#     4  10  21  36  56  80 109 146 189 232 274 328
#     4  11  22  39  62  85 113 149 190 238 291 345
#     4   9  18  33  55  84 114 143 181 227 275 333
#     4  11  22  39  62  86 115 149 187 235 292 349
#     4  11  24  40  55  81 117 153 198 243 283 336
#     4   9  17  34  60  87 112 142 186 235 286 349
#     4   9  17  34  60  87 114 144 182 231 288 351
#
# _framework density 19.361194000000001
#
# number of rings (size 3 to 8) (size 9 to 14) (size 15 to 20)
#    0.000    2.143    1.429    3.000    0.000    3.143 
#    0.000    5.000    0.000    0.857    0.000    0.000 
#    0.000    0.000    0.000    0.000    0.000    0.000 
#
# Total GULP energy -156366.057878 kJ/mol
# GULP energy per Si atom -5584.502067 kJ/mol
# Density = 1.931713 g / cm^3
# Si number density = 19.361194 Si / 1000 Ang^3
#
#
#
# Elastic Constant Matrix: (Units=GPa)
#
#
# Indices 1 2 3 4 5 6 
#
# 1 168.5362 23.5019 118.2008 0.0000 0.0000 0.0000
# 2 23.5019 24.6053 21.9830 0.0000 0.0000 0.0000
# 3 118.2008 21.9830 191.8493 0.0000 0.0000 0.0000
# 4 0.0000 0.0000 0.0000 28.3167 0.0000 0.0000
# 5 0.0000 0.0000 0.0000 0.0000 -4.7125 0.0000
# 6 0.0000 0.0000 0.0000 0.0000 0.0000 18.8203
#
#
#
# Elastic Compliance Matrix: (Units=1/GPa)
#
#
# Indices 1 2 3 4 5 6 
#
# 1 0.010962 -0.004942 -0.006188 0.000000 0.000000 0.000000
# 2 -0.004942 0.047505 -0.002398 0.000000 0.000000 0.000000
# 3 -0.006188 -0.002398 0.009300 0.000000 0.000000 0.000000
# 4 0.000000 0.000000 0.000000 0.035315 0.000000 0.000000
# 5 0.000000 0.000000 0.000000 0.000000 -0.212202 0.000000
# 6 0.000000 0.000000 0.000000 0.000000 0.000000 0.053134
#
#
# Mechanical properties :
#
#
# Convention : Reuss Voigt Hill
#
# Bulk Modulus (GPa) = 24.56387 79.15136 51.85761
# Shear Modulus (GPa) = -325.54389 23.23857 -151.15266
#
# Velocity S-wave (km/s) = -12.98104 3.46824 -8.84530
# Velocity P-wave (km/s) = 14.55891 7.55040 8.80209
#
# Compressibility (1/GPa) = 0.04071020
#
# Stress axis : x y z
#
# Youngs Moduli (GPa) = 91.22154 21.05034 107.53215
#
# Poissons Ratio (x) = 0.10404 0.66538
# Poissons Ratio (y) = 0.45086 0.25789
# Poissons Ratio (z) = 0.56445 0.05048
#
# Static dielectric constant tensor:
#      x y z
#    x 1.672180 0.000000 0.000000 
#    y 0.000000 1.674560 0.000000 
#    z 0.000000 0.000000 1.647460 
# 
# From -- ./inp_files/15565.got.cif
#   From: 2010.05.17/outbox.cif.g08.bks.cpg/sg38_8_cif.got.tgz:15565.got - 2010.06.03 18:07:57.
