data_PCOD9358861
_publ_section_title
;
Structure prediction by ZEFSAII (Michael W. Deem and Ramdas Pophale) SiO2 
 PCOD9358861
Probable space group: A M M 2
;
_chemical_formula_sum "Si O2"
_cell_formula_units_Z 48
_cell_length_a 8.557301
_cell_length_b 17.331658
_cell_length_c 17.361532
_cell_angle_alpha 90.000000
_cell_angle_beta 90.000000
_cell_angle_gamma 90.000000
_cell_volume 2574.927255
_symmetry_space_group_name_H-M "A M M 2"
_symmetry_group_IT_number 38
_symmetry_cell_setting 'orthorhombic'
loop_
_space_group_symop_operation_xyz
x,y,z
-x,-y,z
-x,y,z
x,-y,z
x,1/2+y,1/2+z
-x,1/2-y,1/2+z
-x,1/2+y,1/2+z
x,1/2-y,1/2+z
loop_
_atom_site_type_symbol
_atom_site_label
_atom_site_fract_x
_atom_site_fract_y
_atom_site_fract_z
Si Si1 0.689441 0.589705 0.222840
Si Si2 0.312338 0.146062 0.407761
Si Si3 0.186079 0.319882 0.075238
Si Si4 0.689764 0.319358 0.374198
Si Si5 0.310805 0.000000 0.141635
Si Si6 0.310621 0.151327 0.047370
Si Si7 0.185760 0.500000 0.814910
O O1 0.500000 0.593390 0.220508
O O2 0.734525 0.500000 0.223866
O O3 0.754642 0.632541 0.148233
O O4 0.743459 0.632763 0.300607
O O5 0.500000 0.142764 0.406923
O O6 0.255518 0.145875 0.495993
O O7 0.263359 0.229434 0.373456
O O8 0.245956 0.075499 0.359531
O O9 0.244234 0.231403 0.079631
O O10 0.000000 0.321642 0.071146
O O11 0.500000 0.320767 0.373031
O O12 0.736646 0.353172 0.457368
O O13 0.261826 0.923188 0.095656
O O14 0.500000 0.000000 0.143998
O O15 0.248613 0.000000 0.227997
O O16 0.500000 0.156151 0.049544
O O17 0.000000 0.500000 0.814350
#
# Coordination Sequence:
#
# PCOD9358861 Si02
#       7
#     8   8   8   8   4   8   4
#     4  10  21  36  59  89 119 151 193 245 298 352
#     4  10  21  41  65  87 114 153 202 246 292 352
#     4  11  23  39  59  85 120 159 197 242 302 358
#     4   8  17  35  61  90 114 144 190 246 292 338
#     4  10  22  38  62  91 120 157 202 249 294 351
#     4   9  19  38  63  89 117 153 201 249 296 348
#     4  12  26  40  58  89 126 155 192 245 304 363
#
# _framework density 18.641304000000002
#
# number of rings (size 3 to 8) (size 9 to 14) (size 15 to 20)
#    0.000    2.167    0.000    3.750    4.667    1.000 
#    0.000    3.333    0.000    0.000    0.000    0.000 
#    0.000    0.000    0.000    0.000    0.000    0.000 
#
# Total GULP energy -134037.770940 kJ/mol
# GULP energy per Si atom -5584.907123 kJ/mol
# Density = 1.859888 g / cm^3
# Si number density = 18.641304 Si / 1000 Ang^3
#
#
#
# Elastic Constant Matrix: (Units=GPa)
#
#
# Indices 1 2 3 4 5 6 
#
# 1 41.8737 47.0723 41.6556 0.0000 0.0000 0.0000
# 2 47.0723 181.3104 155.2284 0.0000 0.0000 0.0000
# 3 41.6556 155.2284 180.6696 0.0000 0.0000 0.0000
# 4 0.0000 0.0000 0.0000 28.2482 0.0000 0.0000
# 5 0.0000 0.0000 0.0000 0.0000 -7.3422 0.0000
# 6 0.0000 0.0000 0.0000 0.0000 0.0000 1.3414
#
#
#
# Elastic Compliance Matrix: (Units=1/GPa)
#
#
# Indices 1 2 3 4 5 6 
#
# 1 0.033768 -0.007947 -0.000958 0.000000 0.000000 0.000000
# 2 -0.007947 0.022729 -0.017696 0.000000 0.000000 0.000000
# 3 -0.000958 -0.017696 0.020960 0.000000 0.000000 0.000000
# 4 0.000000 0.000000 0.000000 0.035401 0.000000 0.000000
# 5 0.000000 0.000000 0.000000 0.000000 -0.136199 0.000000
# 6 0.000000 0.000000 0.000000 0.000000 0.000000 0.745512
#
#
# Mechanical properties :
#
#
# Convention : Reuss Voigt Hill
#
# Bulk Modulus (GPa) = 41.22841 99.08515 70.15678
# Shear Modulus (GPa) = 6.38196 15.10930 10.74563
#
# Velocity S-wave (km/s) = 1.85229 2.85007 2.40353
# Velocity P-wave (km/s) = 5.17101 8.00621 6.73939
#
# Compressibility (1/GPa) = 0.02425512
#
# Stress axis : x y z
#
# Youngs Moduli (GPa) = 29.61425 43.99584 47.70926
#
# Poissons Ratio (x) = 0.34963 0.04569
# Poissons Ratio (y) = 0.23534 0.84429
# Poissons Ratio (z) = 0.02836 0.77857
#
# Static dielectric constant tensor:
#      x y z
#    x 1.623600 0.000000 0.000000 
#    y 0.000000 1.625150 0.000000 
#    z 0.000000 0.000000 1.617400 
# 
# From -- ./inp_files/12089.got.cif
#   From: 2010.05.17/outbox.cif.g08.bks.cpg/sg38_7_cif.got.tgz:12089.got - 2010.06.03 18:07:57.
