data_PCOD9358749
_publ_section_title
;
Structure prediction by ZEFSAII (Michael W. Deem and Ramdas Pophale) SiO2 
 PCOD9358749
Probable space group: A M M 2
;
_chemical_formula_sum "Si O2"
_cell_formula_units_Z 64
_cell_length_a 21.097760
_cell_length_b 9.272303
_cell_length_c 18.919420
_cell_angle_alpha 90.000000
_cell_angle_beta 90.000000
_cell_angle_gamma 90.000000
_cell_volume 3701.108195
_symmetry_space_group_name_H-M "A M M 2"
_symmetry_group_IT_number 38
_symmetry_cell_setting 'orthorhombic'
loop_
_space_group_symop_operation_xyz
x,y,z
-x,-y,z
-x,y,z
x,-y,z
x,1/2+y,1/2+z
-x,1/2-y,1/2+z
-x,1/2+y,1/2+z
x,1/2-y,1/2+z
loop_
_atom_site_type_symbol
_atom_site_label
_atom_site_fract_x
_atom_site_fract_y
_atom_site_fract_z
Si Si1 0.195916 0.672568 0.212440
Si Si2 0.573930 0.669171 0.198026
Si Si3 0.321662 0.673197 0.958040
Si Si4 0.683381 0.327387 0.308504
Si Si5 0.069635 0.668789 0.715204
Si Si6 0.930087 0.831095 0.043641
Si Si7 0.196787 0.172729 0.547763
Si Si8 0.425113 0.670900 0.551788
O O1 0.188813 0.500000 0.213366
O O2 0.255948 0.709798 0.260277
O O3 0.130975 0.744223 0.238921
O O4 0.206623 0.715019 0.130221
O O5 0.500000 0.687489 0.217129
O O6 0.583561 0.500000 0.178720
O O7 0.620715 0.701546 0.262180
O O8 0.587726 0.766269 0.129917
O O9 0.327541 0.500000 0.956946
O O10 0.316575 0.738251 0.880115
O O11 0.258140 0.710922 0.002097
O O12 0.381211 0.744424 0.997375
O O13 0.685225 0.500000 0.323099
O O14 0.075677 0.500000 0.733122
O O15 0.069237 0.678284 0.629434
O O16 0.000000 0.720078 0.739473
O O17 0.868114 0.744692 0.020682
O O18 0.000000 0.780168 0.019458
O O19 0.924072 0.000000 0.025628
O O20 0.189443 0.000000 0.546040
O O21 0.500000 0.694021 0.537653
O O22 0.412731 0.500000 0.549015
#
# Coordination Sequence:
#
# PCOD9358749 Si02
#       8
#     8   8   8   8   8   8   8   8
#     4   9  17  30  49  71  97 130 166 207 253 302
#     4   9  18  35  59  82 105 135 168 205 252 303
#     4  11  23  37  53  75 105 140 177 216 257 304
#     4  10  21  36  52  74 106 140 174 213 256 302
#     4   8  14  25  42  67  98 126 155 199 252 302
#     4   8  14  25  43  70 101 129 160 202 252 303
#     4   9  18  32  50  73 100 131 168 209 254 304
#     4  10  21  37  58  83 108 134 168 210 254 304
#
# _framework density 17.292119
#
# number of rings (size 3 to 8) (size 9 to 14) (size 15 to 20)
#    0.000    2.750    0.000    2.250    0.000    5.750 
#    0.000    6.250    0.000    0.750    0.000    0.000 
#    0.000    0.000    0.000    0.000    0.000    0.000 
#
# Total GULP energy -178386.678325 kJ/mol
# GULP energy per Si atom -5574.583698 kJ/mol
# Density = 1.725276 g / cm^3
# Si number density = 17.292119 Si / 1000 Ang^3
#
#
#
# Elastic Constant Matrix: (Units=GPa)
#
#
# Indices 1 2 3 4 5 6 
#
# 1 133.0741 70.8879 82.0722 0.0000 0.0000 0.0000
# 2 70.8879 52.7591 53.0516 0.0000 0.0000 0.0000
# 3 82.0722 53.0516 84.4977 0.0000 0.0000 0.0000
# 4 0.0000 0.0000 0.0000 26.6107 0.0000 0.0000
# 5 0.0000 0.0000 0.0000 0.0000 -4.7094 0.0000
# 6 0.0000 0.0000 0.0000 0.0000 0.0000 30.9731
#
#
#
# Elastic Compliance Matrix: (Units=1/GPa)
#
#
# Indices 1 2 3 4 5 6 
#
# 1 0.029334 -0.029196 -0.010162 0.000000 0.000000 0.000000
# 2 -0.029196 0.080470 -0.022165 0.000000 0.000000 0.000000
# 3 -0.010162 -0.022165 0.035621 0.000000 0.000000 0.000000
# 4 0.000000 0.000000 0.000000 0.037579 0.000000 0.000000
# 5 0.000000 0.000000 0.000000 0.000000 -0.212343 0.000000
# 6 0.000000 0.000000 0.000000 0.000000 0.000000 0.032286
#
#
# Mechanical properties :
#
#
# Convention : Reuss Voigt Hill
#
# Bulk Modulus (GPa) = 44.68290 75.81716 60.25003
# Shear Modulus (GPa) = 37.46679 14.86283 26.16481
#
# Velocity S-wave (km/s) = 4.65983 2.93493 3.89409
# Velocity P-wave (km/s) = 7.40595 7.44481 7.42541
#
# Compressibility (1/GPa) = 0.02237993
#
# Stress axis : x y z
#
# Youngs Moduli (GPa) = 34.09001 12.42704 28.07348
#
# Poissons Ratio (x) = 0.36282 0.28527
# Poissons Ratio (y) = 0.99528 0.62225
# Poissons Ratio (z) = 0.34641 0.27544
#
# Static dielectric constant tensor:
#      x y z
#    x 1.594480 0.000000 0.000000 
#    y 0.000000 1.576750 0.000000 
#    z 0.000000 0.000000 1.562050 
# 
# From -- ./inp_files/18966.got.cif
#   From: 2010.05.17/outbox.cif.g08.bks.cpg/sg38_10_cif.got.tgz:18966.got - 2010.06.03 18:07:57.
