data_PCOD9358630
_publ_section_title
;
Structure prediction by ZEFSAII (Michael W. Deem and Ramdas Pophale) SiO2 
 PCOD9358630
Probable space group: A M M 2
;
_chemical_formula_sum "Si O2"
_cell_formula_units_Z 34
_cell_length_a 9.822340
_cell_length_b 19.121368
_cell_length_c 7.940880
_cell_angle_alpha 90.000000
_cell_angle_beta 90.000000
_cell_angle_gamma 90.000000
_cell_volume 1491.428906
_symmetry_space_group_name_H-M "A M M 2"
_symmetry_group_IT_number 38
_symmetry_cell_setting 'orthorhombic'
loop_
_space_group_symop_operation_xyz
x,y,z
-x,-y,z
-x,y,z
x,-y,z
x,1/2+y,1/2+z
-x,1/2-y,1/2+z
-x,1/2+y,1/2+z
x,1/2-y,1/2+z
loop_
_atom_site_type_symbol
_atom_site_label
_atom_site_fract_x
_atom_site_fract_y
_atom_site_fract_z
Si Si1 0.736003 0.576563 0.315900
Si Si2 0.500000 0.339550 0.811884
Si Si3 0.000000 0.000000 0.303629
Si Si4 0.500000 0.321967 0.413424
Si Si5 0.000000 0.140220 0.933862
Si Si6 0.209800 0.111443 0.436863
Si Si7 0.000000 0.215459 0.568570
O O1 0.678519 0.500000 0.356164
O O2 0.630269 0.639093 0.336468
O O3 0.866809 0.592771 0.430033
O O4 0.784816 0.577199 0.122780
O O5 0.500000 0.335786 0.611345
O O6 0.500000 0.260059 0.878950
O O7 0.637933 0.376488 0.873237
O O8 0.118502 0.061401 0.323153
O O9 0.000000 0.182580 0.755181
O O10 0.000000 0.201304 0.069789
O O11 0.131733 0.184732 0.471744
#
# Coordination Sequence:
#
# PCOD9358630 Si02
#       7
#     8   4   2   4   4   8   4
#     4  11  22  41  66  97 133 181 219 273 329 412
#     4  12  26  46  68 101 128 182 224 287 334 398
#     4  10  20  42  68 104 132 176 216 274 314 422
#     4  12  27  45  67  96 142 168 234 279 338 395
#     4  10  21  36  65  91 130 169 227 271 332 385
#     4  10  21  40  71  96 135 170 227 265 336 398
#     4   9  20  35  60  97 124 168 214 283 319 384
#
# _framework density 22.79693
#
# number of rings (size 3 to 8) (size 9 to 14) (size 15 to 20)
#    0.000    1.412    1.176    4.941    0.000    6.118 
#    4.235    1.176    0.000    0.000    0.000    0.000 
#    0.000    0.000    0.000    0.000    0.000    0.000 
#
# Total GULP energy -94923.109158 kJ/mol
# GULP energy per Si atom -5583.712303 kJ/mol
# Density = 2.274504 g / cm^3
# Si number density = 22.796930 Si / 1000 Ang^3
#
#
#
# Elastic Constant Matrix: (Units=GPa)
#
#
# Indices 1 2 3 4 5 6 
#
# 1 160.2705 45.9424 3.5863 0.0000 0.0000 0.0000
# 2 45.9424 128.4323 7.9910 0.0000 0.0000 0.0000
# 3 3.5863 7.9910 78.3085 0.0000 0.0000 0.0000
# 4 0.0000 0.0000 0.0000 11.8547 0.0000 0.0000
# 5 0.0000 0.0000 0.0000 0.0000 54.0856 0.0000
# 6 0.0000 0.0000 0.0000 0.0000 0.0000 22.6716
#
#
#
# Elastic Compliance Matrix: (Units=1/GPa)
#
#
# Indices 1 2 3 4 5 6 
#
# 1 0.006953 -0.002483 -0.000065 0.000000 0.000000 0.000000
# 2 -0.002483 0.008723 -0.000776 0.000000 0.000000 0.000000
# 3 -0.000065 -0.000776 0.012852 0.000000 0.000000 0.000000
# 4 0.000000 0.000000 0.000000 0.084354 0.000000 0.000000
# 5 0.000000 0.000000 0.000000 0.000000 0.018489 0.000000
# 6 0.000000 0.000000 0.000000 0.000000 0.000000 0.044108
#
#
# Mechanical properties :
#
#
# Convention : Reuss Voigt Hill
#
# Bulk Modulus (GPa) = 45.70657 53.56119 49.63388
# Shear Modulus (GPa) = 26.39620 38.35516 32.37568
#
# Velocity S-wave (km/s) = 3.40646 4.10624 3.77261
# Velocity P-wave (km/s) = 5.96363 6.78436 6.38719
#
# Compressibility (1/GPa) = 0.02187869
#
# Stress axis : x y z
#
# Youngs Moduli (GPa) = 143.82932 114.64292 77.80760
#
# Poissons Ratio (x) = 0.28466 0.00506
# Poissons Ratio (y) = 0.35714 0.06041
# Poissons Ratio (z) = 0.00935 0.08901
#
# Static dielectric constant tensor:
#      x y z
#    x 1.824690 0.000000 0.000000 
#    y 0.000000 1.790360 0.000000 
#    z 0.000000 0.000000 1.886030 
# 
# From -- ./inp_files/3206.got.cif
#   From: 2010.05.17/outbox.cif.g08.bks.cpg/sg38_2_cif.got.tgz:3206.got - 2010.06.03 18:07:57.
