data_PCOD9358750
_publ_section_title
;
Structure prediction by ZEFSAII (Michael W. Deem and Ramdas Pophale) SiO2 
 PCOD9358750
Probable space group: A M M 2
;
_chemical_formula_sum "Si O2"
_cell_formula_units_Z 64
_cell_length_a 24.663725
_cell_length_b 7.505829
_cell_length_c 15.460331
_cell_angle_alpha 90.000000
_cell_angle_beta 90.000000
_cell_angle_gamma 90.000000
_cell_volume 2862.042794
_symmetry_space_group_name_H-M "A M M 2"
_symmetry_group_IT_number 38
_symmetry_cell_setting 'orthorhombic'
loop_
_space_group_symop_operation_xyz
x,y,z
-x,-y,z
-x,y,z
x,-y,z
x,1/2+y,1/2+z
-x,1/2-y,1/2+z
-x,1/2+y,1/2+z
x,1/2-y,1/2+z
loop_
_atom_site_type_symbol
_atom_site_label
_atom_site_fract_x
_atom_site_fract_y
_atom_site_fract_z
Si Si1 0.766698 0.713122 0.099150
Si Si2 0.858998 0.780492 0.862731
Si Si3 0.746171 0.213735 0.802802
Si Si4 0.886299 0.702254 0.544869
Si Si5 0.560497 0.711615 0.930361
Si Si6 0.370967 0.285384 0.268879
Si Si7 0.059927 0.705960 0.218958
Si Si8 0.646848 0.217923 0.571173
O O1 0.771525 0.500000 0.087342
O O2 0.760975 0.744023 0.202069
O O3 0.822144 0.795681 0.066296
O O4 0.709556 0.773882 0.058370
O O5 0.796646 0.718398 0.858050
O O6 0.892951 0.719150 0.779911
O O7 0.856576 0.000000 0.863771
O O8 0.889197 0.721352 0.949020
O O9 0.685113 0.282028 0.812740
O O10 0.743886 0.000000 0.815223
O O11 0.905959 0.500000 0.542752
O O12 0.919004 0.791963 0.621240
O O13 0.500000 0.784127 0.943496
O O14 0.558090 0.500000 0.945718
O O15 0.580422 0.737378 0.832156
O O16 0.605541 0.781118 0.997704
O O17 0.368226 0.500000 0.265765
O O18 0.371457 0.227544 0.168450
O O19 0.055612 0.500000 0.245509
O O20 0.000000 0.785920 0.226775
O O21 0.647807 0.000000 0.570848
#
# Coordination Sequence:
#
# PCOD9358750 Si02
#       8
#     8   8   8   8   8   8   8   8
#     4   9  16  32  57  78 105 143 182 218 257 318
#     4   9  18  33  54  80 109 142 178 212 258 322
#     4   8  14  29  54  78 103 137 174 215 261 311
#     4  11  22  33  53  86 116 140 170 219 278 320
#     4  10  21  36  52  74 109 147 178 214 270 332
#     4   9  18  33  56  81 102 133 181 228 264 307
#     4  10  21  40  63  79 100 145 194 223 251 310
#     4   8  17  34  55  78 103 140 183 221 264 314
#
# _framework density 22.361650000000001
#
# number of rings (size 3 to 8) (size 9 to 14) (size 15 to 20)
#    0.000    2.750    1.250    1.875    1.750    1.500 
#    0.000    6.875    0.000    0.000    0.000    0.000 
#    0.000    0.000    0.000    0.000    0.000    0.000 
#
# Total GULP energy -178619.737648 kJ/mol
# GULP energy per Si atom -5581.866801 kJ/mol
# Density = 2.231075 g / cm^3
# Si number density = 22.361650 Si / 1000 Ang^3
#
#
#
# Elastic Constant Matrix: (Units=GPa)
#
#
# Indices 1 2 3 4 5 6 
#
# 1 82.3190 -5.2547 9.5178 0.0000 0.0000 0.0000
# 2 -5.2547 53.5108 -3.7508 0.0000 0.0000 0.0000
# 3 9.5178 -3.7508 37.9589 0.0000 0.0000 0.0000
# 4 0.0000 0.0000 0.0000 11.2044 0.0000 0.0000
# 5 0.0000 0.0000 0.0000 0.0000 10.3044 0.0000
# 6 0.0000 0.0000 0.0000 0.0000 0.0000 -1.6319
#
#
#
# Elastic Compliance Matrix: (Units=1/GPa)
#
#
# Indices 1 2 3 4 5 6 
#
# 1 0.012566 0.001020 -0.003050 0.000000 0.000000 0.000000
# 2 0.001020 0.018901 0.001612 0.000000 0.000000 0.000000
# 3 -0.003050 0.001612 0.027268 0.000000 0.000000 0.000000
# 4 0.000000 0.000000 0.000000 0.089250 0.000000 0.000000
# 5 0.000000 0.000000 0.000000 0.000000 0.097046 0.000000
# 6 0.000000 0.000000 0.000000 0.000000 0.000000 -0.612786
#
#
# Mechanical properties :
#
#
# Convention : Reuss Voigt Hill
#
# Bulk Modulus (GPa) = 17.27142 19.42370 18.34756
# Shear Modulus (GPa) = -14.38356 15.52714 0.57179
#
# Velocity S-wave (km/s) = -2.53894 2.63794 0.50622
# Velocity P-wave (km/s) = 0.92439 4.24067 2.92650
#
# Compressibility (1/GPa) = 0.05789910
#
# Stress axis : x y z
#
# Youngs Moduli (GPa) = 79.58219 52.90735 36.67262
#
# Poissons Ratio (x) = -0.05397 0.11185
# Poissons Ratio (y) = -0.08119 -0.05911
# Poissons Ratio (z) = 0.24272 -0.08528
#
# Static dielectric constant tensor:
#      x y z
#    x 1.817500 0.000000 0.000000 
#    y 0.000000 1.893380 0.000000 
#    z 0.000000 0.000000 1.806120 
# 
# From -- ./inp_files/15822.got.cif
#   From: 2010.05.17/outbox.cif.g08.bks.cpg/sg38_8_cif.got.tgz:15822.got - 2010.06.03 18:07:57.
