data_PCOD9358954
_publ_section_title
;
Structure prediction by ZEFSAII (Michael W. Deem and Ramdas Pophale) SiO2 
 PCOD9358954
Probable space group: A M M 2
;
_chemical_formula_sum "Si O2"
_cell_formula_units_Z 64
_cell_length_a 19.397378
_cell_length_b 8.266983
_cell_length_c 20.513048
_cell_angle_alpha 90.000000
_cell_angle_beta 90.000000
_cell_angle_gamma 90.000000
_cell_volume 3289.427129
_symmetry_space_group_name_H-M "A M M 2"
_symmetry_group_IT_number 38
_symmetry_cell_setting 'orthorhombic'
loop_
_space_group_symop_operation_xyz
x,y,z
-x,-y,z
-x,y,z
x,-y,z
x,1/2+y,1/2+z
-x,1/2-y,1/2+z
-x,1/2+y,1/2+z
x,1/2-y,1/2+z
loop_
_atom_site_type_symbol
_atom_site_label
_atom_site_fract_x
_atom_site_fract_y
_atom_site_fract_z
Si Si1 0.660729 0.697412 0.797020
Si Si2 0.665966 0.306148 0.549132
Si Si3 0.920676 0.693470 0.338886
Si Si4 0.806371 0.306826 0.738471
Si Si5 0.422757 0.302835 0.671567
Si Si6 0.920684 0.304450 0.982284
Si Si7 0.812369 0.307956 0.088622
Si Si8 0.580175 0.303998 0.925003
O O1 0.663297 0.500000 0.798837
O O2 0.736312 0.753681 0.774184
O O3 0.607201 0.744952 0.740905
O O4 0.628482 0.751248 0.865181
O O5 0.672524 0.500000 0.550247
O O6 0.628468 0.250754 0.615150
O O7 0.741817 0.232205 0.550833
O O8 0.617190 0.255316 0.490124
O O9 0.921489 0.500000 0.338811
O O10 0.871397 0.751106 0.281040
O O11 0.896119 0.750911 0.410459
O O12 0.000000 0.751760 0.330769
O O13 0.803593 0.500000 0.739752
O O14 0.809735 0.257731 0.662480
O O15 0.500000 0.244861 0.660542
O O16 0.424054 0.500000 0.670269
O O17 0.919790 0.500000 0.982977
O O18 0.000000 0.249960 0.989095
O O19 0.874144 0.246093 0.042372
O O20 0.819776 0.500000 0.094282
O O21 0.500000 0.251173 0.919937
O O22 0.579369 0.500000 0.924570
#
# Coordination Sequence:
#
# PCOD9358954 Si02
#       8
#     8   8   8   8   8   8   8   8
#     4   9  18  34  55  82 113 146 189 237 285 341
#     4  11  22  37  56  83 117 154 195 242 292 351
#     4  10  22  40  62  90 123 156 193 239 290 346
#     4  11  22  38  60  88 122 158 199 243 290 350
#     4   9  16  30  55  81 105 141 190 238 282 331
#     4   9  20  40  64  88 115 151 195 241 291 351
#     4  11  23  39  60  87 120 158 198 244 300 355
#     4  10  21  37  58  84 114 149 192 244 300 357
#
# _framework density 19.456274000000001
#
# number of rings (size 3 to 8) (size 9 to 14) (size 15 to 20)
#    0.000    2.000    1.250    2.250    1.750    4.500 
#    0.000    1.875    0.000    0.000    0.000    0.000 
#    0.000    0.000    0.000    0.000    0.000    0.000 
#
# Total GULP energy -178628.440878 kJ/mol
# GULP energy per Si atom -5582.138777 kJ/mol
# Density = 1.941199 g / cm^3
# Si number density = 19.456274 Si / 1000 Ang^3
#
#
#
# Elastic Constant Matrix: (Units=GPa)
#
#
# Indices 1 2 3 4 5 6 
#
# 1 86.4362 7.1068 26.0336 0.0000 0.0000 0.0000
# 2 7.1068 18.8049 6.5695 0.0000 0.0000 0.0000
# 3 26.0336 6.5695 85.1725 0.0000 0.0000 0.0000
# 4 0.0000 0.0000 0.0000 30.9982 0.0000 0.0000
# 5 0.0000 0.0000 0.0000 0.0000 40.6439 0.0000
# 6 0.0000 0.0000 0.0000 0.0000 0.0000 16.5803
#
#
#
# Elastic Compliance Matrix: (Units=1/GPa)
#
#
# Indices 1 2 3 4 5 6 
#
# 1 0.012977 -0.003616 -0.003688 0.000000 0.000000 0.000000
# 2 -0.003616 0.055658 -0.003188 0.000000 0.000000 0.000000
# 3 -0.003688 -0.003188 0.013114 0.000000 0.000000 0.000000
# 4 0.000000 0.000000 0.000000 0.032260 0.000000 0.000000
# 5 0.000000 0.000000 0.000000 0.000000 0.024604 0.000000
# 6 0.000000 0.000000 0.000000 0.000000 0.000000 0.060312
#
#
# Mechanical properties :
#
#
# Convention : Reuss Voigt Hill
#
# Bulk Modulus (GPa) = 16.45655 29.98148 23.21902
# Shear Modulus (GPa) = 20.81915 27.69141 24.25528
#
# Velocity S-wave (km/s) = 3.27471 3.77671 3.53463
# Velocity P-wave (km/s) = 4.77230 5.87036 5.34958
#
# Compressibility (1/GPa) = 0.06076609
#
# Stress axis : x y z
#
# Youngs Moduli (GPa) = 77.05811 17.96692 76.25490
#
# Poissons Ratio (x) = 0.06497 0.28120
# Poissons Ratio (y) = 0.27865 0.24308
# Poissons Ratio (z) = 0.28416 0.05727
#
# Static dielectric constant tensor:
#      x y z
#    x 1.685430 0.000000 0.000000 
#    y 0.000000 1.685050 0.000000 
#    z 0.000000 0.000000 1.651970 
# 
# From -- ./inp_files/18910.got.cif
#   From: 2010.05.17/outbox.cif.g08.bks.cpg/sg38_10_cif.got.tgz:18910.got - 2010.06.03 18:07:57.
