data_PCOD9358848
_publ_section_title
;
Structure prediction by ZEFSAII (Michael W. Deem and Ramdas Pophale) SiO2 
 PCOD9358848
Probable space group: A M M 2
;
_chemical_formula_sum "Si O2"
_cell_formula_units_Z 40
_cell_length_a 7.648907
_cell_length_b 13.229264
_cell_length_c 16.896618
_cell_angle_alpha 90.000000
_cell_angle_beta 90.000000
_cell_angle_gamma 90.000000
_cell_volume 1709.758807
_symmetry_space_group_name_H-M "A M M 2"
_symmetry_group_IT_number 38
_symmetry_cell_setting 'orthorhombic'
loop_
_space_group_symop_operation_xyz
x,y,z
-x,-y,z
-x,y,z
x,-y,z
x,1/2+y,1/2+z
-x,1/2-y,1/2+z
-x,1/2+y,1/2+z
x,1/2-y,1/2+z
loop_
_atom_site_type_symbol
_atom_site_label
_atom_site_fract_x
_atom_site_fract_y
_atom_site_fract_z
Si Si1 0.703447 0.780241 0.950170
Si Si2 0.293377 0.500000 0.414785
Si Si3 0.196167 0.822035 0.608280
Si Si4 0.787894 0.500000 0.226054
Si Si5 0.704698 0.390604 0.664596
Si Si6 0.706897 0.893688 0.352988
O O1 0.500000 0.796639 0.931182
O O2 0.786343 0.710161 0.883006
O O3 0.778601 0.893935 0.950575
O O4 0.711502 0.705748 0.025873
O O5 0.500000 0.500000 0.433530
O O6 0.273549 0.500000 0.317981
O O7 0.267245 0.901968 0.672942
O O8 0.194309 0.709474 0.643434
O O9 0.000000 0.856688 0.589413
O O10 0.000000 0.500000 0.230769
O O11 0.500000 0.378460 0.640275
O O12 0.764416 0.500000 0.633436
O O13 0.711158 0.395872 0.758905
O O14 0.500000 0.893706 0.374220
O O15 0.782230 0.000000 0.383398
#
# Coordination Sequence:
#
# PCOD9358848 Si02
#       6
#     8   4   8   4   8   8
#     4  10  21  36  57  86 118 150 191 243 295 350
#     4  10  22  40  64  92 119 152 201 254 303 360
#     4  11  24  39  56  82 119 159 199 242 289 347
#     4  10  24  44  62  84 121 166 209 250 295 354
#     4   9  18  35  60  86 113 145 184 236 293 347
#     4   8  15  30  54  82 108 137 179 231 285 339
#
# _framework density 23.395111
#
# number of rings (size 3 to 8) (size 9 to 14) (size 15 to 20)
#    0.000    2.400    0.000    3.000    2.800    4.400 
#    0.000    1.000    0.000    1.200    0.000    0.000 
#    0.000    0.000    0.000    0.000    0.000    0.000 
#
# Total GULP energy -111396.603822 kJ/mol
# GULP energy per Si atom -5569.830191 kJ/mol
# Density = 2.334186 g / cm^3
# Si number density = 23.395111 Si / 1000 Ang^3
#
#
#
# Elastic Constant Matrix: (Units=GPa)
#
#
# Indices 1 2 3 4 5 6 
#
# 1 43.7561 7.9124 -10.7437 0.0000 0.0000 0.0000
# 2 7.9124 86.1797 4.1242 0.0000 0.0000 0.0000
# 3 -10.7437 4.1242 35.6345 0.0000 0.0000 0.0000
# 4 0.0000 0.0000 0.0000 5.9310 0.0000 0.0000
# 5 0.0000 0.0000 0.0000 0.0000 33.3035 0.0000
# 6 0.0000 0.0000 0.0000 0.0000 0.0000 18.5150
#
#
#
# Elastic Compliance Matrix: (Units=1/GPa)
#
#
# Indices 1 2 3 4 5 6 
#
# 1 0.025292 -0.002702 0.007938 0.000000 0.000000 0.000000
# 2 -0.002702 0.011957 -0.002198 0.000000 0.000000 0.000000
# 3 0.007938 -0.002198 0.030710 0.000000 0.000000 0.000000
# 4 0.000000 0.000000 0.000000 0.168607 0.000000 0.000000
# 5 0.000000 0.000000 0.000000 0.000000 0.030027 0.000000
# 6 0.000000 0.000000 0.000000 0.000000 0.000000 0.054010
#
#
# Mechanical properties :
#
#
# Convention : Reuss Voigt Hill
#
# Bulk Modulus (GPa) = 13.50727 18.68401 16.09564
# Shear Modulus (GPa) = 14.74031 22.50172 18.62102
#
# Velocity S-wave (km/s) = 2.51282 3.10468 2.82429
# Velocity P-wave (km/s) = 3.76897 4.56680 4.18693
#
# Compressibility (1/GPa) = 0.07403420
#
# Stress axis : x y z
#
# Youngs Moduli (GPa) = 39.53881 83.63337 32.56220
#
# Poissons Ratio (x) = 0.22598 -0.25848
# Poissons Ratio (y) = 0.10683 0.07159
# Poissons Ratio (z) = -0.31386 0.18387
#
# Static dielectric constant tensor:
#      x y z
#    x 1.819370 0.000000 0.000000 
#    y 0.000000 1.991150 0.000000 
#    z 0.000000 0.000000 1.950480 
# 
# From -- ./inp_files/19497.got.cif
#   From: 2010.05.17/outbox.cif.g08.bks.cpg/sg38_10_cif.got.tgz:19497.got - 2010.06.03 18:07:57.
