data_PCOD9358843
_publ_section_title
;
Structure prediction by ZEFSAII (Michael W. Deem and Ramdas Pophale) SiO2 
 PCOD9358843
Probable space group: A M M 2
;
_chemical_formula_sum "Si O2"
_cell_formula_units_Z 56
_cell_length_a 20.733522
_cell_length_b 7.634652
_cell_length_c 15.977123
_cell_angle_alpha 90.000000
_cell_angle_beta 90.000000
_cell_angle_gamma 90.000000
_cell_volume 2529.070329
_symmetry_space_group_name_H-M "A M M 2"
_symmetry_group_IT_number 38
_symmetry_cell_setting 'orthorhombic'
loop_
_space_group_symop_operation_xyz
x,y,z
-x,-y,z
-x,y,z
x,-y,z
x,1/2+y,1/2+z
-x,1/2-y,1/2+z
-x,1/2+y,1/2+z
x,1/2-y,1/2+z
loop_
_atom_site_type_symbol
_atom_site_label
_atom_site_fract_x
_atom_site_fract_y
_atom_site_fract_z
Si Si1 0.350203 0.293623 0.528410
Si Si2 0.426499 0.288551 0.688997
Si Si3 0.930157 0.296924 0.067511
Si Si4 0.659619 0.289854 0.349076
Si Si5 0.791671 0.287065 0.083452
Si Si6 0.792587 0.709510 0.277425
Si Si7 0.069155 0.791945 0.262406
O O1 0.365472 0.500000 0.527972
O O2 0.387836 0.219394 0.608071
O O3 0.366182 0.219835 0.437198
O O4 0.273498 0.273270 0.540240
O O5 0.500000 0.225208 0.691193
O O6 0.428193 0.500000 0.684595
O O7 0.386951 0.243791 0.771825
O O8 0.931173 0.500000 0.040696
O O9 0.859750 0.223485 0.044753
O O10 0.928413 0.292533 0.169653
O O11 0.000000 0.218597 0.043499
O O12 0.665330 0.500000 0.357968
O O13 0.731417 0.221401 0.327969
O O14 0.793011 0.500000 0.082796
O O15 0.788202 0.228428 0.180779
O O16 0.787323 0.500000 0.274474
O O17 0.864501 0.750359 0.308838
O O18 0.000000 0.741264 0.301228
O O19 0.068491 0.000000 0.249299
#
# Coordination Sequence:
#
# PCOD9358843 Si02
#       7
#     8   8   8   8   8   8   8
#     4  10  21  36  57  83 112 145 179 221 271 321
#     4  10  22  40  60  85 116 145 174 214 269 327
#     4   8  14  25  41  64  97 138 181 223 268 317
#     4  10  21  38  59  84 111 145 188 225 263 319
#     4   9  16  28  49  75 104 140 183 227 267 318
#     4   9  17  30  49  72 101 139 183 225 265 318
#     4   9  16  24  38  66 101 135 176 225 275 324
#
# _framework density 22.142524000000002
#
# number of rings (size 3 to 8) (size 9 to 14) (size 15 to 20)
#    0.000    2.714    1.429    1.286    0.000    5.143 
#    0.000    1.429    0.000    0.857    0.000    4.000 
#    0.000    0.000    0.000    0.000    0.000    0.000 
#
# Total GULP energy -156170.714129 kJ/mol
# GULP energy per Si atom -5577.525505 kJ/mol
# Density = 2.209213 g / cm^3
# Si number density = 22.142524 Si / 1000 Ang^3
#
#
#
# Elastic Constant Matrix: (Units=GPa)
#
#
# Indices 1 2 3 4 5 6 
#
# 1 158.1510 -15.5187 77.1748 0.0000 0.0000 0.0000
# 2 -15.5187 39.2011 1.3039 0.0000 0.0000 0.0000
# 3 77.1748 1.3039 120.0423 0.0000 0.0000 0.0000
# 4 0.0000 0.0000 0.0000 -24.7498 0.0000 0.0000
# 5 0.0000 0.0000 0.0000 0.0000 -12.2411 0.0000
# 6 0.0000 0.0000 0.0000 0.0000 0.0000 13.2448
#
#
#
# Elastic Compliance Matrix: (Units=1/GPa)
#
#
# Indices 1 2 3 4 5 6 
#
# 1 0.009832 0.004104 -0.006366 0.000000 0.000000 0.000000
# 2 0.004104 0.027232 -0.002934 0.000000 0.000000 0.000000
# 3 -0.006366 -0.002934 0.012455 0.000000 0.000000 0.000000
# 4 0.000000 0.000000 0.000000 -0.040404 0.000000 0.000000
# 5 0.000000 0.000000 0.000000 0.000000 -0.081692 0.000000
# 6 0.000000 0.000000 0.000000 0.000000 0.000000 0.075501
#
#
# Mechanical properties :
#
#
# Convention : Reuss Voigt Hill
#
# Bulk Modulus (GPa) = 25.55788 49.25716 37.40752
# Shear Modulus (GPa) = 189.70047 12.21307 100.95677
#
# Velocity S-wave (km/s) = 9.26598 2.35109 6.75966
# Velocity P-wave (km/s) = 11.22700 5.44646 8.82353
#
# Compressibility (1/GPa) = 0.03912688
#
# Stress axis : x y z
#
# Youngs Moduli (GPa) = 101.70797 36.72180 80.29105
#
# Poissons Ratio (x) = -0.15071 0.51110
# Poissons Ratio (y) = -0.41741 0.23559
# Poissons Ratio (z) = 0.64743 0.10775
#
# Static dielectric constant tensor:
#      x y z
#    x 1.842780 0.000000 0.000000 
#    y 0.000000 1.876770 0.000000 
#    z 0.000000 0.000000 1.822850 
# 
# From -- ./inp_files/15477.got.cif
#   From: 2010.05.17/outbox.cif.g08.bks.cpg/sg38_8_cif.got.tgz:15477.got - 2010.06.03 18:07:57.
