data_PCOD9358296
_publ_section_title
;
Structure prediction by ZEFSAII (Michael W. Deem and Ramdas Pophale) SiO2 
 PCOD9358296
Probable space group: A M M 2
;
_chemical_formula_sum "Si O2"
_cell_formula_units_Z 40
_cell_length_a 7.415534
_cell_length_b 9.219693
_cell_length_c 30.914083
_cell_angle_alpha 90.000000
_cell_angle_beta 90.000000
_cell_angle_gamma 90.000000
_cell_volume 2113.563299
_symmetry_space_group_name_H-M "A M M 2"
_symmetry_group_IT_number 38
_symmetry_cell_setting 'orthorhombic'
loop_
_space_group_symop_operation_xyz
x,y,z
-x,-y,z
-x,y,z
x,-y,z
x,1/2+y,1/2+z
-x,1/2-y,1/2+z
-x,1/2+y,1/2+z
x,1/2-y,1/2+z
loop_
_atom_site_type_symbol
_atom_site_label
_atom_site_fract_x
_atom_site_fract_y
_atom_site_fract_z
Si Si1 0.779733 0.333055 0.269300
Si Si2 0.206143 0.323436 0.174767
Si Si3 0.780522 0.833345 0.354346
Si Si4 0.500000 0.824534 0.604353
Si Si5 0.215345 0.673857 0.951218
Si Si6 0.500000 0.173840 0.011651
O O1 0.723852 0.500000 0.272304
O O2 0.726194 0.273578 0.222100
O O3 0.718645 0.251632 0.312180
O O4 0.000000 0.330535 0.268701
O O5 0.206396 0.500000 0.177511
O O6 0.329551 0.285897 0.134434
O O7 0.000000 0.276380 0.168756
O O8 0.729956 0.781003 0.402296
O O9 0.000000 0.830524 0.353983
O O10 0.724782 0.000000 0.350830
O O11 0.500000 0.740827 0.559546
O O12 0.500000 0.000000 0.597203
O O13 0.249648 0.500000 0.955162
O O14 0.000000 0.694126 0.955892
O O15 0.328061 0.762691 0.985842
O O16 0.500000 0.000000 0.012260
#
# Coordination Sequence:
#
# PCOD9358296 Si02
#       6
#     8   8   8   4   8   4
#     4   8  13  23  42  69 102 137 168 202 250 306
#     4   8  15  29  50  76 102 130 170 215 254 301
#     4   8  14  26  47  76 106 135 170 211 253 301
#     4  10  20  36  57  74  93 131 180 225 267 314
#     4   9  19  38  62  83 106 143 189 228 262 314
#     4  12  26  40  55  80 113 141 172 227 291 340
#
# _framework density 18.925383
#
# number of rings (size 3 to 8) (size 9 to 14) (size 15 to 20)
#    0.000    3.200    0.000    3.300    0.000    2.000 
#    0.000    6.000    0.000    2.400    0.000    0.000 
#    0.000    0.000    0.000    0.000    0.000    0.000 
#
# Total GULP energy -111505.340676 kJ/mol
# GULP energy per Si atom -5575.267034 kJ/mol
# Density = 1.888231 g / cm^3
# Si number density = 18.925383 Si / 1000 Ang^3
#
#
#
# Elastic Constant Matrix: (Units=GPa)
#
#
# Indices 1 2 3 4 5 6 
#
# 1 87.9387 34.5243 72.3426 0.0000 0.0000 0.0000
# 2 34.5243 58.4343 86.1044 0.0000 0.0000 0.0000
# 3 72.3426 86.1044 234.6900 0.0000 0.0000 0.0000
# 4 0.0000 0.0000 0.0000 32.8340 0.0000 0.0000
# 5 0.0000 0.0000 0.0000 0.0000 37.7818 0.0000
# 6 0.0000 0.0000 0.0000 0.0000 0.0000 10.5373
#
#
#
# Elastic Compliance Matrix: (Units=1/GPa)
#
#
# Indices 1 2 3 4 5 6 
#
# 1 0.015806 -0.004701 -0.003148 0.000000 0.000000 0.000000
# 2 -0.004701 0.038650 -0.012731 0.000000 0.000000 0.000000
# 3 -0.003148 -0.012731 0.009902 0.000000 0.000000 0.000000
# 4 0.000000 0.000000 0.000000 0.030456 0.000000 0.000000
# 5 0.000000 0.000000 0.000000 0.000000 0.026468 0.000000
# 6 0.000000 0.000000 0.000000 0.000000 0.000000 0.094901
#
#
# Mechanical properties :
#
#
# Convention : Reuss Voigt Hill
#
# Bulk Modulus (GPa) = 43.10383 85.22285 64.16334
# Shear Modulus (GPa) = 18.86247 28.77006 23.81627
#
# Velocity S-wave (km/s) = 3.16044 3.90318 3.55128
# Velocity P-wave (km/s) = 6.01190 8.08961 7.12688
#
# Compressibility (1/GPa) = 0.02319980
#
# Stress axis : x y z
#
# Youngs Moduli (GPa) = 63.26541 25.87294 100.98781
#
# Poissons Ratio (x) = 0.12162 0.31788
# Poissons Ratio (y) = 0.29738 1.28571
# Poissons Ratio (z) = 0.19914 0.32940
#
# Static dielectric constant tensor:
#      x y z
#    x 1.711860 0.000000 0.000000 
#    y 0.000000 1.628970 0.000000 
#    z 0.000000 0.000000 1.653510 
# 
# From -- ./inp_files/23271.got.cif
#   From: 2010.05.17/outbox.cif.g08.bks.cpg/sg38_12_cif.got.tgz:23271.got - 2010.06.03 18:07:57.
