data_PCOD9358141
_publ_section_title
;
Structure prediction by ZEFSAII (Michael W. Deem and Ramdas Pophale) SiO2 
 PCOD9358141
Probable space group: A M M 2
;
_chemical_formula_sum "Si O2"
_cell_formula_units_Z 30
_cell_length_a 12.959663
_cell_length_b 18.278829
_cell_length_c 4.801201
_cell_angle_alpha 90.000000
_cell_angle_beta 90.000000
_cell_angle_gamma 90.000000
_cell_volume 1137.344328
_symmetry_space_group_name_H-M "A M M 2"
_symmetry_group_IT_number 38
_symmetry_cell_setting 'orthorhombic'
loop_
_space_group_symop_operation_xyz
x,y,z
-x,-y,z
-x,y,z
x,-y,z
x,1/2+y,1/2+z
-x,1/2-y,1/2+z
-x,1/2+y,1/2+z
x,1/2-y,1/2+z
loop_
_atom_site_type_symbol
_atom_site_label
_atom_site_fract_x
_atom_site_fract_y
_atom_site_fract_z
Si Si1 0.804801 0.580661 0.609830
Si Si2 0.500000 0.803766 0.388367
Si Si3 0.387730 0.583661 0.217005
Si Si4 0.876503 0.796554 0.514821
Si Si5 0.000000 0.000000 0.906701
O O1 0.787436 0.500000 0.739930
O O2 0.707580 0.597299 0.417068
O O3 0.827423 0.635556 0.858716
O O4 0.908782 0.563521 0.431227
O O5 0.500000 0.766671 0.091193
O O6 0.595936 0.855529 0.477959
O O7 0.500000 0.586817 0.369430
O O8 0.381411 0.500000 0.114414
O O9 0.849060 0.774813 0.827283
O O10 0.000000 0.805247 0.495206
#
# Coordination Sequence:
#
# PCOD9358141 Si02
#       5
#     8   4   8   8   2
#     4   9  16  33  58  81 118 152 198 243 291 352
#     4  10  21  38  61  90 122 154 200 250 297 354
#     4   8  17  35  57  83 114 159 195 241 295 353
#     4  10  20  35  55  82 115 152 192 240 296 352
#     4   8  16  28  58  90 116 150 206 240 300 338
#
# _framework density 26.377234000000001
#
# number of rings (size 3 to 8) (size 9 to 14) (size 15 to 20)
#    1.600    1.333    1.333    0.000    0.000    2.133 
#    0.000    4.000    0.000   12.800    0.000    0.000 
#    0.000    0.000    0.000    0.000    0.000    0.000 
#
# Total GULP energy -83669.099508 kJ/mol
# GULP energy per Si atom -5577.939967 kJ/mol
# Density = 2.631720 g / cm^3
# Si number density = 26.377234 Si / 1000 Ang^3
#
#
#
# Elastic Constant Matrix: (Units=GPa)
#
#
# Indices 1 2 3 4 5 6 
#
# 1 189.1386 31.1787 37.0292 0.0000 0.0000 0.0000
# 2 31.1787 132.0605 30.1544 0.0000 0.0000 0.0000
# 3 37.0292 30.1544 74.7327 0.0000 0.0000 0.0000
# 4 0.0000 0.0000 0.0000 -18.4547 0.0000 0.0000
# 5 0.0000 0.0000 0.0000 0.0000 25.9859 0.0000
# 6 0.0000 0.0000 0.0000 0.0000 0.0000 20.8658
#
#
#
# Elastic Compliance Matrix: (Units=1/GPa)
#
#
# Indices 1 2 3 4 5 6 
#
# 1 0.005931 -0.000803 -0.002615 0.000000 0.000000 0.000000
# 2 -0.000803 0.008450 -0.003011 0.000000 0.000000 0.000000
# 3 -0.002615 -0.003011 0.015892 0.000000 0.000000 0.000000
# 4 0.000000 0.000000 0.000000 -0.054187 0.000000 0.000000
# 5 0.000000 0.000000 0.000000 0.000000 0.038482 0.000000
# 6 0.000000 0.000000 0.000000 0.000000 0.000000 0.047925
#
#
# Mechanical properties :
#
#
# Convention : Reuss Voigt Hill
#
# Bulk Modulus (GPa) = 57.42586 65.85070 61.63828
# Shear Modulus (GPa) = 61.60866 25.51735 43.56301
#
# Velocity S-wave (km/s) = 4.83813 3.11368 4.06832
# Velocity P-wave (km/s) = 7.28205 6.16002 6.74441
#
# Compressibility (1/GPa) = 0.01741376
#
# Stress axis : x y z
#
# Youngs Moduli (GPa) = 168.59192 118.34952 62.92584
#
# Poissons Ratio (x) = 0.09507 0.16454
# Poissons Ratio (y) = 0.13543 0.18949
# Poissons Ratio (z) = 0.44084 0.35639
#
# Static dielectric constant tensor:
#      x y z
#    x 2.049150 0.000000 0.000000 
#    y 0.000000 2.116790 0.000000 
#    z 0.000000 0.000000 2.050880 
# 
# From -- ./inp_files/1164.got.cif
#   From: 2010.05.17/outbox.cif.g08.bks.cpg/sg38_1_cif.got.tgz:1164.got - 2010.06.03 18:07:57.
