data_PCOD9358790
_publ_section_title
;
Structure prediction by ZEFSAII (Michael W. Deem and Ramdas Pophale) SiO2 
 PCOD9358790
Probable space group: A M M 2
;
_chemical_formula_sum "Si O2"
_cell_formula_units_Z 40
_cell_length_a 11.946962
_cell_length_b 13.232806
_cell_length_c 13.131790
_cell_angle_alpha 90.000000
_cell_angle_beta 90.000000
_cell_angle_gamma 90.000000
_cell_volume 2076.028718
_symmetry_space_group_name_H-M "A M M 2"
_symmetry_group_IT_number 38
_symmetry_cell_setting 'orthorhombic'
loop_
_space_group_symop_operation_xyz
x,y,z
-x,-y,z
-x,y,z
x,-y,z
x,1/2+y,1/2+z
-x,1/2-y,1/2+z
-x,1/2+y,1/2+z
x,1/2-y,1/2+z
loop_
_atom_site_type_symbol
_atom_site_label
_atom_site_fract_x
_atom_site_fract_y
_atom_site_fract_z
Si Si1 0.000000 0.378140 0.439610
Si Si2 0.765629 0.615272 0.101914
Si Si3 0.244448 0.320025 0.503226
Si Si4 0.631894 0.888401 0.204212
Si Si5 0.632161 0.674165 0.298146
Si Si6 0.000000 0.378314 0.205817
O O1 0.113230 0.340889 0.491851
O O2 0.000000 0.340948 0.321906
O O3 0.000000 0.500000 0.439693
O O4 0.771070 0.500000 0.064515
O O5 0.681936 0.621192 0.198027
O O6 0.886732 0.647730 0.146890
O O7 0.733479 0.700583 0.021052
O O8 0.296040 0.372840 0.602460
O O9 0.304007 0.356572 0.400230
O O10 0.500000 0.882443 0.176630
O O11 0.652931 0.793755 0.277648
O O12 0.653086 0.000000 0.247678
O O13 0.500000 0.656721 0.307403
O O14 0.000000 0.500000 0.212370
#
# Coordination Sequence:
#
# PCOD9358790 Si02
#       6
#     4   8   8   8   8   4
#     4  11  21  34  57  84 108 140 183 225 272 323
#     4  10  21  37  57  82 111 144 180 223 273 324
#     4  11  21  35  57  83 108 142 182 226 269 319
#     4   9  19  36  56  78 107 142 178 220 272 324
#     4  10  21  36  54  79 111 144 182 224 268 320
#     4   9  17  34  56  76 104 138 174 217 271 323
#
# _framework density 19.267555999999999
#
# number of rings (size 3 to 8) (size 9 to 14) (size 15 to 20)
#    0.000    2.000    2.000    1.800    0.000    2.800 
#    0.000    0.000    0.000    0.000    0.000    0.000 
#    0.000    0.000    0.000    0.000    0.000    0.000 
#
# Total GULP energy -111640.609722 kJ/mol
# GULP energy per Si atom -5582.030486 kJ/mol
# Density = 1.922370 g / cm^3
# Si number density = 19.267556 Si / 1000 Ang^3
#
#
#
# Elastic Constant Matrix: (Units=GPa)
#
#
# Indices 1 2 3 4 5 6 
#
# 1 79.4400 -3.0965 17.9095 0.0000 0.0000 0.0000
# 2 -3.0965 70.3468 -11.1367 0.0000 0.0000 0.0000
# 3 17.9095 -11.1367 44.6948 0.0000 0.0000 0.0000
# 4 0.0000 0.0000 0.0000 4.2356 0.0000 0.0000
# 5 0.0000 0.0000 0.0000 0.0000 11.3795 0.0000
# 6 0.0000 0.0000 0.0000 0.0000 0.0000 13.3112
#
#
#
# Elastic Compliance Matrix: (Units=1/GPa)
#
#
# Indices 1 2 3 4 5 6 
#
# 1 0.013844 -0.000280 -0.005617 0.000000 0.000000 0.000000
# 2 -0.000280 0.014805 0.003801 0.000000 0.000000 0.000000
# 3 -0.005617 0.003801 0.025572 0.000000 0.000000 0.000000
# 4 0.000000 0.000000 0.000000 0.236091 0.000000 0.000000
# 5 0.000000 0.000000 0.000000 0.000000 0.087877 0.000000
# 6 0.000000 0.000000 0.000000 0.000000 0.000000 0.075124
#
#
# Mechanical properties :
#
#
# Convention : Reuss Voigt Hill
#
# Bulk Modulus (GPa) = 19.98856 22.42603 21.20729
# Shear Modulus (GPa) = 10.54450 18.50564 14.52507
#
# Velocity S-wave (km/s) = 2.34191 3.10248 2.74863
# Velocity P-wave (km/s) = 4.20826 4.94959 4.59390
#
# Compressibility (1/GPa) = 0.05002862
#
# Stress axis : x y z
#
# Youngs Moduli (GPa) = 72.23587 67.54603 39.10555
#
# Poissons Ratio (x) = 0.01890 0.21965
# Poissons Ratio (y) = 0.02022 -0.14864
# Poissons Ratio (z) = 0.40574 -0.25675
#
# Static dielectric constant tensor:
#      x y z
#    x 1.653920 0.000000 0.000000 
#    y 0.000000 1.690150 0.000000 
#    z 0.000000 0.000000 1.632360 
# 
# From -- ./inp_files/11698.got.cif
#   From: 2010.05.17/outbox.cif.g08.bks.cpg/sg38_6_cif.got.tgz:11698.got - 2010.06.03 18:07:57.
