data_PCOD9358229
_publ_section_title
;
Structure prediction by ZEFSAII (Michael W. Deem and Ramdas Pophale) SiO2 
 PCOD9358229
Probable space group: A M M 2
;
_chemical_formula_sum "Si O2"
_cell_formula_units_Z 64
_cell_length_a 7.960590
_cell_length_b 24.355505
_cell_length_c 15.972692
_cell_angle_alpha 90.000000
_cell_angle_beta 90.000000
_cell_angle_gamma 90.000000
_cell_volume 3096.852443
_symmetry_space_group_name_H-M "A M M 2"
_symmetry_group_IT_number 38
_symmetry_cell_setting 'orthorhombic'
loop_
_space_group_symop_operation_xyz
x,y,z
-x,-y,z
-x,y,z
x,-y,z
x,1/2+y,1/2+z
-x,1/2-y,1/2+z
-x,1/2+y,1/2+z
x,1/2-y,1/2+z
loop_
_atom_site_type_symbol
_atom_site_label
_atom_site_fract_x
_atom_site_fract_y
_atom_site_fract_z
Si Si1 0.796739 0.744454 0.319190
Si Si2 0.803139 0.759005 0.126857
Si Si3 0.700842 0.625328 0.382669
Si Si4 0.203499 0.137644 0.384282
Si Si5 0.800032 0.938228 0.232671
Si Si6 0.300668 0.857674 0.567849
Si Si7 0.294307 0.937075 0.717636
Si Si8 0.695822 0.875590 0.067380
O O1 0.743214 0.748999 0.222077
O O2 0.732982 0.688756 0.360191
O O3 0.741830 0.799816 0.365738
O O4 0.000000 0.742507 0.320324
O O5 0.780673 0.702185 0.078239
O O6 0.713979 0.810672 0.085121
O O7 0.000000 0.773389 0.130812
O O8 0.500000 0.617492 0.386083
O O9 0.764133 0.588614 0.305657
O O10 0.768595 0.612507 0.475203
O O11 0.265319 0.098977 0.309043
O O12 0.262887 0.120077 0.475662
O O13 0.000000 0.137617 0.383541
O O14 0.773864 0.908068 0.144646
O O15 0.000000 0.941837 0.245477
O O16 0.730766 0.000000 0.232186
O O17 0.500000 0.850665 0.577967
O O18 0.240086 0.898154 0.641229
O O19 0.500000 0.936498 0.717811
O O20 0.241300 0.000000 0.707724
O O21 0.500000 0.889948 0.066834
#
# Coordination Sequence:
#
# PCOD9358229 Si02
#       8
#     8   8   8   8   8   8   8   8
#     4  10  20  35  58  84 112 149 189 232 286 344
#     4  11  21  37  60  85 117 156 192 235 290 353
#     4  10  21  37  58  85 115 149 189 234 289 347
#     4  10  21  39  59  84 115 152 193 235 288 350
#     4  10  22  42  64  84 114 159 204 243 291 351
#     4  11  22  36  58  89 117 150 193 240 292 347
#     4   9  19  37  58  79 110 152 192 231 280 340
#     4  11  23  37  59  91 121 151 191 244 297 348
#
# _framework density 20.666143999999999
#
# number of rings (size 3 to 8) (size 9 to 14) (size 15 to 20)
#    0.000    1.750    2.500    1.875    0.000    5.750 
#    0.000    1.250    0.000    3.000    0.000    0.000 
#    0.000    0.000    0.000    0.000    0.000    0.000 
#
# Total GULP energy -178822.469787 kJ/mol
# GULP energy per Si atom -5588.202181 kJ/mol
# Density = 2.061911 g / cm^3
# Si number density = 20.666144 Si / 1000 Ang^3
#
#
#
# Elastic Constant Matrix: (Units=GPa)
#
#
# Indices 1 2 3 4 5 6 
#
# 1 15.5205 -10.3142 -7.0962 0.0000 0.0000 0.0000
# 2 -10.3142 106.7177 38.9243 0.0000 0.0000 0.0000
# 3 -7.0962 38.9243 153.1927 0.0000 0.0000 0.0000
# 4 0.0000 0.0000 0.0000 -1.2512 0.0000 0.0000
# 5 0.0000 0.0000 0.0000 0.0000 12.3711 0.0000
# 6 0.0000 0.0000 0.0000 0.0000 0.0000 12.0053
#
#
#
# Elastic Compliance Matrix: (Units=1/GPa)
#
#
# Indices 1 2 3 4 5 6 
#
# 1 0.069234 0.006086 0.001661 0.000000 0.000000 0.000000
# 2 0.006086 0.010863 -0.002478 0.000000 0.000000 0.000000
# 3 0.001661 -0.002478 0.007234 0.000000 0.000000 0.000000
# 4 0.000000 0.000000 0.000000 -0.799244 0.000000 0.000000
# 5 0.000000 0.000000 0.000000 0.000000 0.080834 0.000000
# 6 0.000000 0.000000 0.000000 0.000000 0.000000 0.083297
#
#
# Mechanical properties :
#
#
# Convention : Reuss Voigt Hill
#
# Bulk Modulus (GPa) = 10.21784 35.38431 22.80107
# Shear Modulus (GPa) = -9.51120 21.55284 6.02082
#
# Velocity S-wave (km/s) = -2.14763 3.23291 1.70871
# Velocity P-wave (km/s) = 1.09305 5.57626 3.86652
#
# Compressibility (1/GPa) = 0.09786802
#
# Stress axis : x y z
#
# Youngs Moduli (GPa) = 14.44368 92.05926 138.22996
#
# Poissons Ratio (x) = -0.56024 -0.22957
# Poissons Ratio (y) = -0.08790 0.34255
# Poissons Ratio (z) = -0.02399 0.22814
#
# Static dielectric constant tensor:
#      x y z
#    x 1.760100 0.000000 0.000000 
#    y 0.000000 1.701090 0.000000 
#    z 0.000000 0.000000 1.742760 
# 
# From -- ./inp_files/12711.got.cif
#   From: 2010.05.17/outbox.cif.g08.bks.cpg/sg38_7_cif.got.tgz:12711.got - 2010.06.03 18:07:57.
