data_PCOD9358787
_publ_section_title
;
Structure prediction by ZEFSAII (Michael W. Deem and Ramdas Pophale) SiO2 
 PCOD9358787
Probable space group: A M M 2
;
_chemical_formula_sum "Si O2"
_cell_formula_units_Z 48
_cell_length_a 18.430920
_cell_length_b 8.214741
_cell_length_c 15.592977
_cell_angle_alpha 90.000000
_cell_angle_beta 90.000000
_cell_angle_gamma 90.000000
_cell_volume 2360.858334
_symmetry_space_group_name_H-M "A M M 2"
_symmetry_group_IT_number 38
_symmetry_cell_setting 'orthorhombic'
loop_
_space_group_symop_operation_xyz
x,y,z
-x,-y,z
-x,y,z
x,-y,z
x,1/2+y,1/2+z
-x,1/2-y,1/2+z
-x,1/2+y,1/2+z
x,1/2-y,1/2+z
loop_
_atom_site_type_symbol
_atom_site_label
_atom_site_fract_x
_atom_site_fract_y
_atom_site_fract_z
Si Si1 0.155354 0.818758 0.911790
Si Si2 0.688079 0.700024 0.407625
Si Si3 0.687781 0.302778 0.209430
Si Si4 0.000000 0.313897 0.162318
Si Si5 0.582904 0.696640 0.559349
Si Si6 0.000000 0.178036 0.458430
Si Si7 0.154757 0.685857 0.206111
O O1 0.231960 0.738506 0.937020
O O2 0.076573 0.752924 0.932805
O O3 0.160296 0.825622 0.808712
O O4 0.156666 0.000000 0.948509
O O5 0.690991 0.500000 0.407442
O O6 0.674779 0.748327 0.308488
O O7 0.627236 0.751195 0.475004
O O8 0.691976 0.500000 0.209927
O O9 0.626496 0.249079 0.143813
O O10 0.767821 0.241692 0.179307
O O11 0.923069 0.235325 0.186868
O O12 0.000000 0.500000 0.201158
O O13 0.000000 0.327271 0.060751
O O14 0.500000 0.755218 0.559670
O O15 0.581701 0.500000 0.557318
O O16 0.000000 0.000000 0.419336
O O17 0.150528 0.500000 0.170361
#
# Coordination Sequence:
#
# PCOD9358787 Si02
#       7
#     8   8   8   4   8   4   8
#     4   9  17  33  55  71  90 130 180 215 242 292
#     4   8  17  35  57  80 104 138 180 218 259 313
#     4   9  18  34  58  83 104 132 180 226 256 300
#     4   9  17  27  41  67 102 133 160 194 248 303
#     4  10  21  36  54  78 110 143 169 205 269 333
#     4  11  22  29  41  73 110 135 160 204 262 307
#     4   8  15  30  52  73  93 127 171 211 248 291
#
# _framework density 20.331586999999999
#
# number of rings (size 3 to 8) (size 9 to 14) (size 15 to 20)
#    0.000    3.000    0.000    2.750    2.333    2.333 
#    0.000    5.833    0.000    4.000    0.000    0.000 
#    0.000    0.000    0.000    0.000    0.000    0.000 
#
# Total GULP energy -133650.262212 kJ/mol
# GULP energy per Si atom -5568.760925 kJ/mol
# Density = 2.028531 g / cm^3
# Si number density = 20.331587 Si / 1000 Ang^3
#
#
#
# Elastic Constant Matrix: (Units=GPa)
#
#
# Indices 1 2 3 4 5 6 
#
# 1 254.0738 22.9697 88.0512 0.0000 0.0000 0.0000
# 2 22.9697 6.8510 5.5616 0.0000 0.0000 0.0000
# 3 88.0512 5.5616 78.0369 0.0000 0.0000 0.0000
# 4 0.0000 0.0000 0.0000 14.6173 0.0000 0.0000
# 5 0.0000 0.0000 0.0000 0.0000 41.3517 0.0000
# 6 0.0000 0.0000 0.0000 0.0000 0.0000 10.0384
#
#
#
# Elastic Compliance Matrix: (Units=1/GPa)
#
#
# Indices 1 2 3 4 5 6 
#
# 1 0.008965 -0.023187 -0.008463 0.000000 0.000000 0.000000
# 2 -0.023187 0.214899 0.010847 0.000000 0.000000 0.000000
# 3 -0.008463 0.010847 0.021590 0.000000 0.000000 0.000000
# 4 0.000000 0.000000 0.000000 0.068412 0.000000 0.000000
# 5 0.000000 0.000000 0.000000 0.000000 0.024183 0.000000
# 6 0.000000 0.000000 0.000000 0.000000 0.000000 0.099618
#
#
# Mechanical properties :
#
#
# Convention : Reuss Voigt Hill
#
# Bulk Modulus (GPa) = 4.90560 63.56964 34.23762
# Shear Modulus (GPa) = 9.13704 28.02675 18.58190
#
# Velocity S-wave (km/s) = 2.12221 3.71682 3.02643
# Velocity P-wave (km/s) = 2.90225 7.05365 5.39338
#
# Compressibility (1/GPa) = 0.20384870
#
# Stress axis : x y z
#
# Youngs Moduli (GPa) = 111.54471 4.65334 46.31700
#
# Poissons Ratio (x) = 0.10790 0.39198
# Poissons Ratio (y) = 2.58641 -0.50241
# Poissons Ratio (z) = 0.94400 -0.05048
#
# Static dielectric constant tensor:
#      x y z
#    x 1.808370 0.000000 0.000000 
#    y 0.000000 1.786140 0.000000 
#    z 0.000000 0.000000 1.698940 
# 
# From -- ./inp_files/15026.got.cif
#   From: 2010.05.17/outbox.cif.g08.bks.cpg/sg38_8_cif.got.tgz:15026.got - 2010.06.03 18:07:57.
