data_PCOD9358576
_publ_section_title
;
Structure prediction by ZEFSAII (Michael W. Deem and Ramdas Pophale) SiO2 
 PCOD9358576
Probable space group: A M M 2
;
_chemical_formula_sum "Si O2"
_cell_formula_units_Z 38
_cell_length_a 12.142303
_cell_length_b 11.615097
_cell_length_c 14.658449
_cell_angle_alpha 90.000000
_cell_angle_beta 90.000000
_cell_angle_gamma 90.000000
_cell_volume 2067.340094
_symmetry_space_group_name_H-M "A M M 2"
_symmetry_group_IT_number 38
_symmetry_cell_setting 'orthorhombic'
loop_
_space_group_symop_operation_xyz
x,y,z
-x,-y,z
-x,y,z
x,-y,z
x,1/2+y,1/2+z
-x,1/2-y,1/2+z
-x,1/2+y,1/2+z
x,1/2-y,1/2+z
loop_
_atom_site_type_symbol
_atom_site_label
_atom_site_fract_x
_atom_site_fract_y
_atom_site_fract_z
Si Si1 0.870235 0.249671 0.867390
Si Si2 0.692212 0.500000 0.089252
Si Si3 0.130746 0.000000 0.439844
Si Si4 0.500000 0.368812 0.763650
Si Si5 0.500000 0.500000 0.942446
Si Si6 0.285638 0.271408 0.202746
Si Si7 0.872950 0.137282 0.065589
O O1 0.841698 0.384189 0.884707
O O2 0.791051 0.202073 0.789782
O O3 0.000000 0.242115 0.842699
O O4 0.855777 0.185551 0.963693
O O5 0.680655 0.612922 0.150510
O O6 0.808870 0.500000 0.036745
O O7 0.604813 0.500000 0.007396
O O8 0.000000 0.000000 0.454500
O O9 0.500000 0.500000 0.725323
O O10 0.500000 0.392114 0.872822
O O11 0.608027 0.300453 0.733502
O O12 0.210907 0.196358 0.134357
O O13 0.000000 0.164738 0.091093
O O14 0.860627 0.000000 0.066659
#
# Coordination Sequence:
#
# PCOD9358576 Si02
#       7
#     8   4   4   4   2   8   8
#     4  10  22  39  61  92 130 170 211 260 314 375
#     4  12  24  40  68  92 127 164 208 270 319 366
#     4  10  20  38  62  93 126 169 219 254 301 371
#     4  10  25  42  69  89 117 157 212 261 316 373
#     4  10  24  48  68  86 116 162 214 268 314 370
#     4  12  24  41  64  95 125 163 217 262 317 380
#     4  10  22  39  61  90 130 171 209 258 316 374
#
# _framework density 18.381107
#
# number of rings (size 3 to 8) (size 9 to 14) (size 15 to 20)
#    0.316    1.053    2.105    3.158    4.421    0.842 
#    0.000    0.000    0.000    0.000    0.000    0.000 
#    0.000    0.000    0.000    0.000    0.000    0.000 
#
# Total GULP energy -106166.766767 kJ/mol
# GULP energy per Si atom -5587.724567 kJ/mol
# Density = 1.833927 g / cm^3
# Si number density = 18.381107 Si / 1000 Ang^3
#
#
#
# Elastic Constant Matrix: (Units=GPa)
#
#
# Indices 1 2 3 4 5 6 
#
# 1 110.0407 58.5850 83.9811 0.0000 0.0000 0.0000
# 2 58.5850 102.6954 60.4711 0.0000 0.0000 0.0000
# 3 83.9811 60.4711 119.5577 0.0000 0.0000 0.0000
# 4 0.0000 0.0000 0.0000 31.6998 0.0000 0.0000
# 5 0.0000 0.0000 0.0000 0.0000 34.8521 0.0000
# 6 0.0000 0.0000 0.0000 0.0000 0.0000 17.3508
#
#
#
# Elastic Compliance Matrix: (Units=1/GPa)
#
#
# Indices 1 2 3 4 5 6 
#
# 1 0.021074 -0.004708 -0.012422 0.000000 0.000000 0.000000
# 2 -0.004708 0.014919 -0.004239 0.000000 0.000000 0.000000
# 3 -0.012422 -0.004239 0.019234 0.000000 0.000000 0.000000
# 4 0.000000 0.000000 0.000000 0.031546 0.000000 0.000000
# 5 0.000000 0.000000 0.000000 0.000000 0.028693 0.000000
# 6 0.000000 0.000000 0.000000 0.000000 0.000000 0.057634
#
#
# Mechanical properties :
#
#
# Convention : Reuss Voigt Hill
#
# Bulk Modulus (GPa) = 80.06692 82.04090 81.05391
# Shear Modulus (GPa) = 22.72711 25.39764 24.06237
#
# Velocity S-wave (km/s) = 3.52012 3.72119 3.62205
# Velocity P-wave (km/s) = 7.75729 7.94941 7.85394
#
# Compressibility (1/GPa) = 0.01248955
#
# Stress axis : x y z
#
# Youngs Moduli (GPa) = 47.45137 67.02702 51.99123
#
# Poissons Ratio (x) = 0.31554 0.64584
# Poissons Ratio (y) = 0.22338 0.22040
# Poissons Ratio (z) = 0.58945 0.28414
#
# Static dielectric constant tensor:
#      x y z
#    x 1.654540 0.000000 0.000000 
#    y 0.000000 1.627950 0.000000 
#    z 0.000000 0.000000 1.608480 
# 
# From -- ./inp_files/13550.got.cif
#   From: 2010.05.17/outbox.cif.g08.bks.cpg/sg38_7_cif.got.tgz:13550.got - 2010.06.03 18:07:57.
