data_PCOD9358654
_publ_section_title
;
Structure prediction by ZEFSAII (Michael W. Deem and Ramdas Pophale) SiO2 
 PCOD9358654
Probable space group: A M M 2
;
_chemical_formula_sum "Si O2"
_cell_formula_units_Z 58
_cell_length_a 15.196350
_cell_length_b 14.861885
_cell_length_c 12.223956
_cell_angle_alpha 90.000000
_cell_angle_beta 90.000000
_cell_angle_gamma 90.000000
_cell_volume 2760.736531
_symmetry_space_group_name_H-M "A M M 2"
_symmetry_group_IT_number 38
_symmetry_cell_setting 'orthorhombic'
loop_
_space_group_symop_operation_xyz
x,y,z
-x,-y,z
-x,y,z
x,-y,z
x,1/2+y,1/2+z
-x,1/2-y,1/2+z
-x,1/2+y,1/2+z
x,1/2-y,1/2+z
loop_
_atom_site_type_symbol
_atom_site_label
_atom_site_fract_x
_atom_site_fract_y
_atom_site_fract_z
Si Si1 0.399679 0.102773 0.944070
Si Si2 0.639521 0.902089 0.193749
Si Si3 0.000000 0.500000 0.876293
Si Si4 0.097057 0.600247 0.388129
Si Si5 0.167652 0.398205 0.957135
Si Si6 0.297739 0.739355 0.828973
Si Si7 0.156968 0.598739 0.620501
Si Si8 0.146165 0.208380 0.681277
O O1 0.500000 0.110680 0.903669
O O2 0.338155 0.179218 0.895699
O O3 0.368702 0.000000 0.922024
O O4 0.400402 0.113141 0.075144
O O5 0.626798 0.824739 0.280954
O O6 0.745599 0.904930 0.171140
O O7 0.612606 0.000000 0.234156
O O8 0.078901 0.422184 0.890167
O O9 0.108337 0.500000 0.342530
O O10 0.162543 0.610030 0.489231
O O11 0.102207 0.666284 0.287612
O O12 0.000000 0.606265 0.439351
O O13 0.207943 0.500000 0.971642
O O14 0.141955 0.353870 0.074086
O O15 0.230805 0.325884 0.896975
O O16 0.246219 0.780316 0.724351
O O17 0.115034 0.500000 0.642132
O O18 0.113049 0.690653 0.658952
#
# Coordination Sequence:
#
# PCOD9358654 Si02
#       8
#     8   8   2   8   8   8   8   8
#     4  10  22  40  63  95 133 166 199 251 310 368
#     4   9  18  35  63  85 115 154 203 246 297 366
#     4   8  24  44  64  80 128 166 204 264 324 368
#     4  10  21  34  51  72 101 140 189 245 304 359
#     4  10  22  41  63  85 123 164 206 259 319 371
#     4  11  21  38  62  95 119 162 210 255 305 373
#     4   9  19  37  55  76 109 143 188 248 299 355
#     4  11  21  34  57  86 109 152 204 250 299 368
#
# _framework density 21.008887999999999
#
# number of rings (size 3 to 8) (size 9 to 14) (size 15 to 20)
#    0.414    1.655    0.000    4.138    0.966    3.862 
#    3.724    0.000    1.517    1.241    0.000    0.000 
#    0.000    0.000    0.000    0.000    0.000    0.000 
#
# Total GULP energy -161474.783524 kJ/mol
# GULP energy per Si atom -5568.095984 kJ/mol
# Density = 2.096107 g / cm^3
# Si number density = 21.008888 Si / 1000 Ang^3
#
#
#
# Elastic Constant Matrix: (Units=GPa)
#
#
# Indices 1 2 3 4 5 6 
#
# 1 43.7734 51.8134 3.9113 0.0000 0.0000 0.0000
# 2 51.8134 188.4804 66.2308 0.0000 0.0000 0.0000
# 3 3.9113 66.2308 67.7943 0.0000 0.0000 0.0000
# 4 0.0000 0.0000 0.0000 44.9673 0.0000 0.0000
# 5 0.0000 0.0000 0.0000 0.0000 -19.1902 0.0000
# 6 0.0000 0.0000 0.0000 0.0000 0.0000 15.1904
#
#
#
# Elastic Compliance Matrix: (Units=1/GPa)
#
#
# Indices 1 2 3 4 5 6 
#
# 1 0.040097 -0.015547 0.012875 0.000000 0.000000 0.000000
# 2 -0.015547 0.014107 -0.012885 0.000000 0.000000 0.000000
# 3 0.012875 -0.012885 0.026595 0.000000 0.000000 0.000000
# 4 0.000000 0.000000 0.000000 0.022238 0.000000 0.000000
# 5 0.000000 0.000000 0.000000 0.000000 -0.052110 0.000000
# 6 0.000000 0.000000 0.000000 0.000000 0.000000 0.065831
#
#
# Mechanical properties :
#
#
# Convention : Reuss Voigt Hill
#
# Bulk Modulus (GPa) = 20.12641 60.43993 40.28317
# Shear Modulus (GPa) = 30.40735 20.06635 25.23685
#
# Velocity S-wave (km/s) = 3.80854 3.09388 3.46966
# Velocity P-wave (km/s) = 5.37966 6.44934 5.93863
#
# Compressibility (1/GPa) = 0.04968595
#
# Stress axis : x y z
#
# Youngs Moduli (GPa) = 24.93960 70.88647 37.60061
#
# Poissons Ratio (x) = 1.10206 -0.48411
# Poissons Ratio (y) = 0.38773 0.48448
# Poissons Ratio (z) = -0.32110 0.91336
#
# Static dielectric constant tensor:
#      x y z
#    x 1.895170 0.000000 0.000000 
#    y 0.000000 1.814380 0.000000 
#    z 0.000000 0.000000 1.752210 
# 
# From -- ./inp_files/10557.got.cif
#   From: 2010.05.17/outbox.cif.g08.bks.cpg/sg38_6_cif.got.tgz:10557.got - 2010.06.03 18:07:57.
