data_PCOD9358416
_publ_section_title
;
Structure prediction by ZEFSAII (Michael W. Deem and Ramdas Pophale) SiO2 
 PCOD9358416
Probable space group: A M M 2
;
_chemical_formula_sum "Si O2"
_cell_formula_units_Z 56
_cell_length_a 13.781131
_cell_length_b 9.687825
_cell_length_c 20.464503
_cell_angle_alpha 90.000000
_cell_angle_beta 90.000000
_cell_angle_gamma 90.000000
_cell_volume 2732.199126
_symmetry_space_group_name_H-M "A M M 2"
_symmetry_group_IT_number 38
_symmetry_cell_setting 'orthorhombic'
loop_
_space_group_symop_operation_xyz
x,y,z
-x,-y,z
-x,y,z
x,-y,z
x,1/2+y,1/2+z
-x,1/2-y,1/2+z
-x,1/2+y,1/2+z
x,1/2-y,1/2+z
loop_
_atom_site_type_symbol
_atom_site_label
_atom_site_fract_x
_atom_site_fract_y
_atom_site_fract_z
Si Si1 0.319568 0.150200 0.656720
Si Si2 0.109427 0.226983 0.703552
Si Si3 0.609047 0.160149 0.800651
Si Si4 0.111148 0.148207 0.067608
Si Si5 0.771517 0.163106 0.476202
Si Si6 0.385838 0.834852 0.038329
Si Si7 0.203279 0.163182 0.331599
O O1 0.208232 0.148728 0.682781
O O2 0.383580 0.164942 0.721737
O O3 0.343910 0.271301 0.606174
O O4 0.339851 0.000000 0.626190
O O5 0.110329 0.340557 0.645943
O O6 0.130883 0.280696 0.776293
O O7 0.000000 0.165397 0.700703
O O8 0.500000 0.196736 0.821588
O O9 0.693769 0.260233 0.823841
O O10 0.627873 0.000000 0.819607
O O11 0.000000 0.151547 0.046265
O O12 0.154098 0.000000 0.047860
O O13 0.163472 0.276596 0.034501
O O14 0.673736 0.253226 0.482822
O O15 0.824327 0.186309 0.406997
O O16 0.753606 0.000000 0.482467
O O17 0.500000 0.804996 0.034949
O O18 0.373985 0.000000 0.035044
O O19 0.215059 0.000000 0.321074
#
# Coordination Sequence:
#
# PCOD9358416 Si02
#       7
#     8   8   8   8   8   8   8
#     4  10  20  36  60  92 128 162 198 250 311 367
#     4  10  21  38  64  95 126 161 204 251 303 362
#     4   9  19  36  58  85 119 159 199 244 305 370
#     4  10  21  38  63  92 121 157 202 253 307 364
#     4  11  24  41  61  88 125 167 206 255 314 369
#     4  11  24  40  61  89 121 162 211 260 311 370
#     4  10  23  40  59  88 124 162 207 255 306 363
#
# _framework density 20.496310999999999
#
# number of rings (size 3 to 8) (size 9 to 14) (size 15 to 20)
#    0.000    1.857    1.429    1.714    0.000    8.000 
#    0.000    5.714    0.000    0.000    0.000    0.000 
#    0.000    0.000    0.000    0.000    0.000    0.000 
#
# Total GULP energy -156100.754445 kJ/mol
# GULP energy per Si atom -5575.026944 kJ/mol
# Density = 2.044966 g / cm^3
# Si number density = 20.496311 Si / 1000 Ang^3
#
#
#
# Elastic Constant Matrix: (Units=GPa)
#
#
# Indices 1 2 3 4 5 6 
#
# 1 111.4814 21.0324 13.2516 0.0000 0.0000 0.0000
# 2 21.0324 99.7910 32.6856 0.0000 0.0000 0.0000
# 3 13.2516 32.6856 101.0918 0.0000 0.0000 0.0000
# 4 0.0000 0.0000 0.0000 20.3628 0.0000 0.0000
# 5 0.0000 0.0000 0.0000 0.0000 16.5570 0.0000
# 6 0.0000 0.0000 0.0000 0.0000 0.0000 11.5758
#
#
#
# Elastic Compliance Matrix: (Units=1/GPa)
#
#
# Indices 1 2 3 4 5 6 
#
# 1 0.009381 -0.001761 -0.000660 0.000000 0.000000 0.000000
# 2 -0.001761 0.011538 -0.003500 0.000000 0.000000 0.000000
# 3 -0.000660 -0.003500 0.011110 0.000000 0.000000 0.000000
# 4 0.000000 0.000000 0.000000 0.049109 0.000000 0.000000
# 5 0.000000 0.000000 0.000000 0.000000 0.060398 0.000000
# 6 0.000000 0.000000 0.000000 0.000000 0.000000 0.086387
#
#
# Mechanical properties :
#
#
# Convention : Reuss Voigt Hill
#
# Bulk Modulus (GPa) = 49.53617 49.58927 49.56272
# Shear Modulus (GPa) = 20.28444 26.05876 23.17160
#
# Velocity S-wave (km/s) = 3.14930 3.56952 3.36598
# Velocity P-wave (km/s) = 6.11923 6.42148 6.27218
#
# Compressibility (1/GPa) = 0.02018727
#
# Stress axis : x y z
#
# Youngs Moduli (GPa) = 106.60065 86.66711 90.00783
#
# Poissons Ratio (x) = 0.15261 0.05944
# Poissons Ratio (y) = 0.18771 0.31501
# Poissons Ratio (z) = 0.07039 0.30332
#
# Static dielectric constant tensor:
#      x y z
#    x 1.757580 0.000000 0.000000 
#    y 0.000000 1.715010 0.000000 
#    z 0.000000 0.000000 1.743000 
# 
# From -- ./inp_files/21096.got.cif
#   From: 2010.05.17/outbox.cif.g08.bks.cpg/sg38_11_cif.got.tgz:21096.got - 2010.06.03 18:07:57.
