data_PCOD9358565
_publ_section_title
;
Structure prediction by ZEFSAII (Michael W. Deem and Ramdas Pophale) SiO2 
 PCOD9358565
Probable space group: A M M 2
;
_chemical_formula_sum "Si O2"
_cell_formula_units_Z 64
_cell_length_a 7.835145
_cell_length_b 27.752887
_cell_length_c 13.398509
_cell_angle_alpha 90.000000
_cell_angle_beta 90.000000
_cell_angle_gamma 90.000000
_cell_volume 2913.477562
_symmetry_space_group_name_H-M "A M M 2"
_symmetry_group_IT_number 38
_symmetry_cell_setting 'orthorhombic'
loop_
_space_group_symop_operation_xyz
x,y,z
-x,-y,z
-x,y,z
x,-y,z
x,1/2+y,1/2+z
-x,1/2-y,1/2+z
-x,1/2+y,1/2+z
x,1/2-y,1/2+z
loop_
_atom_site_type_symbol
_atom_site_label
_atom_site_fract_x
_atom_site_fract_y
_atom_site_fract_z
Si Si1 0.695289 0.211436 0.520130
Si Si2 0.802236 0.762489 0.846958
Si Si3 0.703654 0.897705 0.205791
Si Si4 0.205852 0.055236 0.417008
Si Si5 0.705765 0.208970 0.158274
Si Si6 0.795343 0.053695 0.000312
Si Si7 0.803367 0.613259 0.107925
Si Si8 0.789855 0.128832 0.832149
O O1 0.500000 0.202648 0.549580
O O2 0.710506 0.218119 0.402466
O O3 0.745270 0.265637 0.553400
O O4 0.798363 0.167842 0.566263
O O5 0.783996 0.747769 0.732580
O O6 0.732643 0.816626 0.854923
O O7 0.000000 0.761538 0.876457
O O8 0.500000 0.895501 0.204191
O O9 0.754153 0.916564 0.314865
O O10 0.771859 0.844269 0.179497
O O11 0.758109 0.931475 0.114034
O O12 0.272528 0.081193 0.517859
O O13 0.000000 0.054596 0.424056
O O14 0.266241 0.000000 0.410171
O O15 0.500000 0.207960 0.168454
O O16 0.000000 0.052666 0.989492
O O17 0.728867 0.000000 0.980297
O O18 0.733516 0.092765 0.919508
O O19 0.732034 0.613370 0.220637
O O20 0.000000 0.597792 0.118886
O O21 0.000000 0.130338 0.830122
#
# Coordination Sequence:
#
# PCOD9358565 Si02
#       8
#     8   8   8   8   8   8   8   8
#     4  11  22  36  55  81 116 153 190 232 281 341
#     4  11  21  34  56  83 114 150 189 235 281 335
#     4  11  23  39  59  84 116 152 194 245 295 347
#     4  10  22  39  60  86 115 151 194 242 296 349
#     4  10  22  38  55  80 113 150 189 227 280 342
#     4  10  21  38  61  87 116 152 193 240 295 351
#     4  10  20  38  61  86 118 153 195 240 287 346
#     4   9  19  36  58  87 119 149 189 239 287 341
#
# _framework density 21.966875000000002
#
# number of rings (size 3 to 8) (size 9 to 14) (size 15 to 20)
#    0.000    1.750    1.250    3.000    0.000    6.500 
#    0.000    3.750    0.000    0.000    0.000    1.750 
#    0.000    0.000    0.000    0.000    0.000    0.000 
#
# Total GULP energy -178615.686042 kJ/mol
# GULP energy per Si atom -5581.740189 kJ/mol
# Density = 2.191688 g / cm^3
# Si number density = 21.966875 Si / 1000 Ang^3
#
#
#
# Elastic Constant Matrix: (Units=GPa)
#
#
# Indices 1 2 3 4 5 6 
#
# 1 26.5241 -0.9842 -4.8508 0.0000 0.0000 0.0000
# 2 -0.9842 97.7131 16.2124 0.0000 0.0000 0.0000
# 3 -4.8508 16.2124 88.1581 0.0000 0.0000 0.0000
# 4 0.0000 0.0000 0.0000 37.4012 0.0000 0.0000
# 5 0.0000 0.0000 0.0000 0.0000 65.7738 0.0000
# 6 0.0000 0.0000 0.0000 0.0000 0.0000 33.8307
#
#
#
# Elastic Compliance Matrix: (Units=1/GPa)
#
#
# Indices 1 2 3 4 5 6 
#
# 1 0.038085 0.000037 0.002089 0.000000 0.000000 0.000000
# 2 0.000037 0.010556 -0.001939 0.000000 0.000000 0.000000
# 3 0.002089 -0.001939 0.011815 0.000000 0.000000 0.000000
# 4 0.000000 0.000000 0.000000 0.026737 0.000000 0.000000
# 5 0.000000 0.000000 0.000000 0.000000 0.015204 0.000000
# 6 0.000000 0.000000 0.000000 0.000000 0.000000 0.029559
#
#
# Mechanical properties :
#
#
# Convention : Reuss Voigt Hill
#
# Bulk Modulus (GPa) = 16.43955 25.90559 21.17257
# Shear Modulus (GPa) = 32.92533 40.86901 36.89717
#
# Velocity S-wave (km/s) = 3.87571 4.31801 4.10283
# Velocity P-wave (km/s) = 5.24674 6.05631 5.66600
#
# Compressibility (1/GPa) = 0.06082891
#
# Stress axis : x y z
#
# Youngs Moduli (GPa) = 26.25714 94.73132 84.63941
#
# Poissons Ratio (x) = -0.00351 -0.17679
# Poissons Ratio (y) = -0.00097 0.16414
# Poissons Ratio (z) = -0.05484 0.18371
#
# Static dielectric constant tensor:
#      x y z
#    x 1.800430 0.000000 0.000000 
#    y 0.000000 1.799580 0.000000 
#    z 0.000000 0.000000 1.778360 
# 
# From -- ./inp_files/12782.got.cif
#   From: 2010.05.17/outbox.cif.g08.bks.cpg/sg38_7_cif.got.tgz:12782.got - 2010.06.03 18:07:57.
