data_PCOD9358670
_publ_section_title
;
Structure prediction by ZEFSAII (Michael W. Deem and Ramdas Pophale) SiO2 
 PCOD9358670
Probable space group: A M M 2
;
_chemical_formula_sum "Si O2"
_cell_formula_units_Z 48
_cell_length_a 24.003414
_cell_length_b 5.738179
_cell_length_c 13.407667
_cell_angle_alpha 90.000000
_cell_angle_beta 90.000000
_cell_angle_gamma 90.000000
_cell_volume 1846.716895
_symmetry_space_group_name_H-M "A M M 2"
_symmetry_group_IT_number 38
_symmetry_cell_setting 'orthorhombic'
loop_
_space_group_symop_operation_xyz
x,y,z
-x,-y,z
-x,y,z
x,-y,z
x,1/2+y,1/2+z
-x,1/2-y,1/2+z
-x,1/2+y,1/2+z
x,1/2-y,1/2+z
loop_
_atom_site_type_symbol
_atom_site_label
_atom_site_fract_x
_atom_site_fract_y
_atom_site_fract_z
Si Si1 0.172313 0.750049 0.244080
Si Si2 0.913014 0.750220 0.014901
Si Si3 0.300957 0.250447 0.198851
Si Si4 0.788227 0.250368 0.474484
Si Si5 0.567646 0.500000 0.549711
Si Si6 0.565843 0.000000 0.658044
Si Si7 0.000000 0.249971 0.193806
Si Si8 0.360625 0.500000 0.351091
O O1 0.144793 0.500000 0.226335
O O2 0.234115 0.750871 0.195190
O O3 0.188634 0.748850 0.361572
O O4 0.144619 0.000000 0.227088
O O5 0.924744 0.500000 0.963823
O O6 0.846658 0.751296 0.034867
O O7 0.925046 0.000000 0.963627
O O8 0.948614 0.750061 0.115461
O O9 0.319477 0.500000 0.153958
O O10 0.321340 0.285174 0.314265
O O11 0.320630 0.000000 0.163716
O O12 0.758928 0.500000 0.490024
O O13 0.760170 0.000000 0.489921
O O14 0.500000 0.500000 0.525011
O O15 0.577924 0.251542 0.605791
O O16 0.609717 0.500000 0.455761
O O17 0.590305 0.000000 0.769277
O O18 0.500000 0.000000 0.666567
O O19 0.000000 0.500000 0.247851
O O20 0.000000 0.000000 0.247918
#
# Coordination Sequence:
#
# PCOD9358670 Si02
#       8
#     8   8   8   8   4   4   4   4
#     4   8  12  20  29  45  70  90 118 158 191 243
#     4   8  12  16  20  28  37  57  87 119 168 220
#     4   8  16  25  41  66  86 114 150 178 222 275
#     4   8  12  16  24  33  49  74  98 131 179 228
#     4  10  23  39  56  81 107 134 171 207 243 290
#     4  10  23  39  56  81 107 134 171 207 243 290
#     4   8  12  16  20  24  36  50  78 124 160 212
#     4  10  21  34  60  74 106 136 166 201 252 286
#
# _framework density 25.992075
#
# number of rings (size 3 to 8) (size 9 to 14) (size 15 to 20)
#    0.500    3.000    0.000    0.250    2.333    0.000 
#    0.000    2.500    0.000    0.000    0.000    0.000 
#    0.000    0.000    0.000    0.000    0.000    0.000 
#
# Total GULP energy -133784.825863 kJ/mol
# GULP energy per Si atom -5574.367744 kJ/mol
# Density = 2.593292 g / cm^3
# Si number density = 25.992075 Si / 1000 Ang^3
#
#
#
# Elastic Constant Matrix: (Units=GPa)
#
#
# Indices 1 2 3 4 5 6 
#
# 1 93.0047 39.6906 30.8722 0.0000 0.0000 0.0000
# 2 39.6906 346.5036 34.2203 0.0000 0.0000 0.0000
# 3 30.8722 34.2203 73.6605 0.0000 0.0000 0.0000
# 4 0.0000 0.0000 0.0000 16.8433 0.0000 0.0000
# 5 0.0000 0.0000 0.0000 0.0000 33.9197 0.0000
# 6 0.0000 0.0000 0.0000 0.0000 0.0000 26.9659
#
#
#
# Elastic Compliance Matrix: (Units=1/GPa)
#
#
# Indices 1 2 3 4 5 6 
#
# 1 0.012800 -0.000981 -0.004909 0.000000 0.000000 0.000000
# 2 -0.000981 0.003100 -0.001029 0.000000 0.000000 0.000000
# 3 -0.004909 -0.001029 0.016111 0.000000 0.000000 0.000000
# 4 0.000000 0.000000 0.000000 0.059371 0.000000 0.000000
# 5 0.000000 0.000000 0.000000 0.000000 0.029481 0.000000
# 6 0.000000 0.000000 0.000000 0.000000 0.000000 0.037084
#
#
# Mechanical properties :
#
#
# Convention : Reuss Voigt Hill
#
# Bulk Modulus (GPa) = 55.02590 80.30389 67.66490
# Shear Modulus (GPa) = 28.11459 42.77151 35.44305
#
# Velocity S-wave (km/s) = 3.29243 4.06095 3.69671
# Velocity P-wave (km/s) = 5.97241 7.27675 6.65660
#
# Compressibility (1/GPa) = 0.01817326
#
# Stress axis : x y z
#
# Youngs Moduli (GPa) = 78.12217 322.58073 62.06883
#
# Poissons Ratio (x) = 0.31660 0.30469
# Poissons Ratio (y) = 0.07667 0.06386
# Poissons Ratio (z) = 0.38349 0.33188
#
# Static dielectric constant tensor:
#      x y z
#    x 2.040960 0.000000 0.000000 
#    y 0.000000 2.086280 0.000000 
#    z 0.000000 0.000000 2.099200 
# 
# From -- ./inp_files/15895.got.cif
#   From: 2010.05.17/outbox.cif.g08.bks.cpg/sg38_8_cif.got.tgz:15895.got - 2010.06.03 18:07:57.
