data_PCOD9358004
_publ_section_title
;
Structure prediction by ZEFSAII (Michael W. Deem and Ramdas Pophale) SiO2 
 PCOD9358004
Probable space group: A M M 2
;
_chemical_formula_sum "Si O2"
_cell_formula_units_Z 40
_cell_length_a 15.145403
_cell_length_b 9.793835
_cell_length_c 14.342202
_cell_angle_alpha 90.000000
_cell_angle_beta 90.000000
_cell_angle_gamma 90.000000
_cell_volume 2127.401455
_symmetry_space_group_name_H-M "A M M 2"
_symmetry_group_IT_number 38
_symmetry_cell_setting 'orthorhombic'
loop_
_space_group_symop_operation_xyz
x,y,z
-x,-y,z
-x,y,z
x,-y,z
x,1/2+y,1/2+z
-x,1/2-y,1/2+z
-x,1/2+y,1/2+z
x,1/2-y,1/2+z
loop_
_atom_site_type_symbol
_atom_site_label
_atom_site_fract_x
_atom_site_fract_y
_atom_site_fract_z
Si Si1 0.600262 0.844149 0.634910
Si Si2 0.240413 0.156845 0.357455
Si Si3 0.765725 0.160831 0.135287
Si Si4 0.402274 0.156577 0.861886
Si Si5 0.895996 0.839502 0.515976
O O1 0.500000 0.812313 0.605087
O O2 0.674392 0.735898 0.607661
O O3 0.598820 0.844533 0.748370
O O4 0.622133 0.000000 0.605682
O O5 0.225567 0.175408 0.247284
O O6 0.320067 0.252341 0.390211
O O7 0.152578 0.180998 0.416955
O O8 0.267462 0.000000 0.371724
O O9 0.764541 0.000000 0.112784
O O10 0.845136 0.241131 0.086648
O O11 0.500000 0.206281 0.889526
O O12 0.392439 0.000000 0.892803
O O13 0.000000 0.812354 0.511493
O O14 0.883880 0.000000 0.541534
#
# Coordination Sequence:
#
# PCOD9358004 Si02
#       5
#     8   8   8   8   8
#     4   8  14  27  49  76 107 144 180 210 247 303
#     4   9  19  35  55  79 106 138 174 213 260 311
#     4  10  20  34  55  83 111 137 170 218 269 311
#     4   8  14  26  47  76 108 140 172 208 252 301
#     4  10  22  40  58  75 100 137 179 220 264 319
#
# _framework density 18.802282000000002
#
# number of rings (size 3 to 8) (size 9 to 14) (size 15 to 20)
#    0.000    3.000    0.000    1.800    0.000    3.600 
#    0.000    7.000    0.000    1.200    0.000    0.000 
#    0.000    0.000    0.000    0.000    0.000    0.000 
#
# Total GULP energy -111578.264671 kJ/mol
# GULP energy per Si atom -5578.913234 kJ/mol
# Density = 1.875949 g / cm^3
# Si number density = 18.802282 Si / 1000 Ang^3
#
#
#
# Elastic Constant Matrix: (Units=GPa)
#
#
# Indices 1 2 3 4 5 6 
#
# 1 187.8954 123.7659 47.7581 0.0000 0.0000 0.0000
# 2 123.7659 121.0629 54.3530 0.0000 0.0000 0.0000
# 3 47.7581 54.3530 64.6082 0.0000 0.0000 0.0000
# 4 0.0000 0.0000 0.0000 18.9082 0.0000 0.0000
# 5 0.0000 0.0000 0.0000 0.0000 34.9678 0.0000
# 6 0.0000 0.0000 0.0000 0.0000 0.0000 31.0518
#
#
#
# Elastic Compliance Matrix: (Units=1/GPa)
#
#
# Indices 1 2 3 4 5 6 
#
# 1 0.016709 -0.018539 0.003245 0.000000 0.000000 0.000000
# 2 -0.018539 0.033843 -0.014767 0.000000 0.000000 0.000000
# 3 0.003245 -0.014767 0.025502 0.000000 0.000000 0.000000
# 4 0.000000 0.000000 0.000000 0.052887 0.000000 0.000000
# 5 0.000000 0.000000 0.000000 0.000000 0.028598 0.000000
# 6 0.000000 0.000000 0.000000 0.000000 0.000000 0.032204
#
#
# Mechanical properties :
#
#
# Convention : Reuss Voigt Hill
#
# Bulk Modulus (GPa) = 62.76604 91.70226 77.23415
# Shear Modulus (GPa) = 19.59441 26.83152 23.21297
#
# Velocity S-wave (km/s) = 3.23171 3.78171 3.51747
# Velocity P-wave (km/s) = 6.88330 8.24295 7.59362
#
# Compressibility (1/GPa) = 0.01593218
#
# Stress axis : x y z
#
# Youngs Moduli (GPa) = 59.84958 29.54859 39.21201
#
# Poissons Ratio (x) = 0.54779 -0.12724
# Poissons Ratio (y) = 1.10952 0.57905
# Poissons Ratio (z) = -0.19421 0.43635
#
# Static dielectric constant tensor:
#      x y z
#    x 1.618940 0.000000 0.000000 
#    y 0.000000 1.638310 0.000000 
#    z 0.000000 0.000000 1.694220 
# 
# From -- ./inp_files/14260.got.cif
#   From: 2010.05.17/outbox.cif.g08.bks.cpg/sg38_8_cif.got.tgz:14260.got - 2010.06.03 18:07:57.
