data_PCOD9358042
_publ_section_title
;
Structure prediction by ZEFSAII (Michael W. Deem and Ramdas Pophale) SiO2 
 PCOD9358042
Probable space group: A M M 2
;
_chemical_formula_sum "Si O2"
_cell_formula_units_Z 64
_cell_length_a 24.569097
_cell_length_b 8.051392
_cell_length_c 16.024391
_cell_angle_alpha 90.000000
_cell_angle_beta 90.000000
_cell_angle_gamma 90.000000
_cell_volume 3169.871813
_symmetry_space_group_name_H-M "A M M 2"
_symmetry_group_IT_number 38
_symmetry_cell_setting 'orthorhombic'
loop_
_space_group_symop_operation_xyz
x,y,z
-x,-y,z
-x,y,z
x,-y,z
x,1/2+y,1/2+z
-x,1/2-y,1/2+z
-x,1/2+y,1/2+z
x,1/2-y,1/2+z
loop_
_atom_site_type_symbol
_atom_site_label
_atom_site_fract_x
_atom_site_fract_y
_atom_site_fract_z
Si Si1 0.827049 0.697914 0.739750
Si Si2 0.175329 0.299750 0.421227
Si Si3 0.437505 0.799749 0.429309
Si Si4 0.437492 0.799751 0.743962
Si Si5 0.367484 0.799165 0.586662
Si Si6 0.940214 0.197299 0.979361
Si Si7 0.939727 0.697939 0.170191
Si Si8 0.757816 0.799465 0.081551
O O1 0.826423 0.500000 0.736519
O O2 0.805527 0.753661 0.829305
O O3 0.889197 0.755220 0.727321
O O4 0.791461 0.761913 0.661991
O O5 0.173264 0.500000 0.426707
O O6 0.113677 0.235017 0.435432
O O7 0.213324 0.239782 0.496579
O O8 0.500000 0.740868 0.440330
O O9 0.419222 0.749900 0.336655
O O10 0.399080 0.739887 0.503826
O O11 0.438584 0.000000 0.432835
O O12 0.500000 0.740826 0.732901
O O13 0.398954 0.739865 0.669563
O O14 0.438614 0.000000 0.740364
O O15 0.304871 0.748947 0.585951
O O16 0.370040 0.000000 0.586707
O O17 0.000000 0.267164 0.957467
O O18 0.942042 0.000000 0.962443
O O19 0.932713 0.221271 0.078848
O O20 0.939320 0.500000 0.158843
O O21 0.000000 0.745622 0.202047
O O22 0.761068 0.000000 0.081648
#
# Coordination Sequence:
#
# PCOD9358042 Si02
#       8
#     8   8   8   8   8   8   8   8
#     4  11  23  40  60  83 110 146 189 233 282 335
#     4  10  21  39  59  82 111 146 186 230 283 338
#     4   9  18  34  56  83 115 147 180 223 274 328
#     4   9  18  34  56  83 115 148 183 226 274 326
#     4  10  21  36  57  82 109 146 190 229 273 328
#     4   9  17  33  58  83 111 146 180 221 278 338
#     4  10  20  34  56  86 116 145 180 225 278 336
#     4  10  23  42  58  77 112 150 188 234 282 328
#
# _framework density 20.190090000000001
#
# number of rings (size 3 to 8) (size 9 to 14) (size 15 to 20)
#    0.000    2.250    1.250    1.125    0.000    6.750 
#    0.000    6.250    0.000    3.750    0.000    0.000 
#    0.000    0.000    0.000    0.000    0.000    0.000 
#
# Total GULP energy -178655.627175 kJ/mol
# GULP energy per Si atom -5582.988349 kJ/mol
# Density = 2.014414 g / cm^3
# Si number density = 20.190090 Si / 1000 Ang^3
#
#
#
# Elastic Constant Matrix: (Units=GPa)
#
#
# Indices 1 2 3 4 5 6 
#
# 1 131.1144 10.3756 104.8292 0.0000 0.0000 0.0000
# 2 10.3756 11.7266 8.4606 0.0000 0.0000 0.0000
# 3 104.8292 8.4606 173.5166 0.0000 0.0000 0.0000
# 4 0.0000 0.0000 0.0000 22.7116 0.0000 0.0000
# 5 0.0000 0.0000 0.0000 0.0000 -0.5479 0.0000
# 6 0.0000 0.0000 0.0000 0.0000 0.0000 25.8899
#
#
#
# Elastic Compliance Matrix: (Units=1/GPa)
#
#
# Indices 1 2 3 4 5 6 
#
# 1 0.015306 -0.007122 -0.008900 0.000000 0.000000 0.000000
# 2 -0.007122 0.091699 -0.000169 0.000000 0.000000 0.000000
# 3 -0.008900 -0.000169 0.011148 0.000000 0.000000 0.000000
# 4 0.000000 0.000000 0.000000 0.044030 0.000000 0.000000
# 5 0.000000 0.000000 0.000000 0.000000 -1.825219 0.000000
# 6 0.000000 0.000000 0.000000 0.000000 0.000000 0.038625
#
#
# Mechanical properties :
#
#
# Convention : Reuss Voigt Hill
#
# Bulk Modulus (GPa) = 11.65868 62.63205 37.14537
# Shear Modulus (GPa) = -3.19808 22.45688 9.62940
#
# Velocity S-wave (km/s) = -1.25993 3.33869 2.18626
# Velocity P-wave (km/s) = 1.91584 6.77872 4.98104
#
# Compressibility (1/GPa) = 0.08577298
#
# Stress axis : x y z
#
# Youngs Moduli (GPa) = 65.33308 10.90523 89.70063
#
# Poissons Ratio (x) = 0.07766 0.79833
# Poissons Ratio (y) = 0.46528 0.01514
# Poissons Ratio (z) = 0.58146 0.00184
#
# Static dielectric constant tensor:
#      x y z
#    x 1.705370 0.000000 0.000000 
#    y 0.000000 1.727980 0.000000 
#    z 0.000000 0.000000 1.708660 
# 
# From -- ./inp_files/15761.got.cif
#   From: 2010.05.17/outbox.cif.g08.bks.cpg/sg38_8_cif.got.tgz:15761.got - 2010.06.03 18:07:57.
