data_PCOD9358864
_publ_section_title
;
Structure prediction by ZEFSAII (Michael W. Deem and Ramdas Pophale) SiO2 
 PCOD9358864
Probable space group: A M M 2
;
_chemical_formula_sum "Si O2"
_cell_formula_units_Z 48
_cell_length_a 13.464936
_cell_length_b 17.297977
_cell_length_c 9.632431
_cell_angle_alpha 90.000000
_cell_angle_beta 90.000000
_cell_angle_gamma 90.000000
_cell_volume 2243.548775
_symmetry_space_group_name_H-M "A M M 2"
_symmetry_group_IT_number 38
_symmetry_cell_setting 'orthorhombic'
loop_
_space_group_symop_operation_xyz
x,y,z
-x,-y,z
-x,y,z
x,-y,z
x,1/2+y,1/2+z
-x,1/2-y,1/2+z
-x,1/2+y,1/2+z
x,1/2-y,1/2+z
loop_
_atom_site_type_symbol
_atom_site_label
_atom_site_fract_x
_atom_site_fract_y
_atom_site_fract_z
Si Si1 0.673948 0.917470 0.698250
Si Si2 0.109644 0.413478 0.302423
Si Si3 0.111865 0.804532 0.068934
Si Si4 0.761800 0.590953 0.748205
Si Si5 0.297557 0.204250 0.498637
Si Si6 0.385816 0.630004 0.497068
O O1 0.794300 0.911620 0.705801
O O2 0.641595 0.844045 0.611836
O O3 0.636961 0.914278 0.855146
O O4 0.646250 0.000000 0.635202
O O5 0.112563 0.500000 0.367606
O O6 0.118711 0.349875 0.422167
O O7 0.000000 0.405612 0.236970
O O8 0.194828 0.738421 0.062231
O O9 0.000000 0.776085 0.088008
O O10 0.140651 0.866704 0.186651
O O11 0.774019 0.500000 0.781092
O O12 0.725691 0.644733 0.875004
O O13 0.683331 0.600510 0.621727
O O14 0.357125 0.281398 0.461873
O O15 0.500000 0.622782 0.535690
#
# Coordination Sequence:
#
# PCOD9358864 Si02
#       6
#     8   8   8   8   8   8
#     4  11  22  40  63  90 122 159 203 248 298 361
#     4   9  17  32  57  87 117 153 198 244 287 338
#     4  10  21  36  60  89 122 163 207 248 293 353
#     4  11  23  41  63  92 126 161 203 255 312 366
#     4  11  24  40  60  93 127 162 196 249 314 367
#     4  11  24  43  67  90 116 156 207 255 304 370
#
# _framework density 21.394677000000001
#
# number of rings (size 3 to 8) (size 9 to 14) (size 15 to 20)
#    0.000    1.500    3.333    3.500    0.000    6.333 
#    0.000    0.000    0.000    6.000    0.000    0.000 
#    0.000    0.000    0.000    0.000    0.000    0.000 
#
# Total GULP energy -134046.695079 kJ/mol
# GULP energy per Si atom -5585.278962 kJ/mol
# Density = 2.134598 g / cm^3
# Si number density = 21.394677 Si / 1000 Ang^3
#
#
#
# Elastic Constant Matrix: (Units=GPa)
#
#
# Indices 1 2 3 4 5 6 
#
# 1 61.8794 -0.3169 -9.7893 0.0000 0.0000 0.0000
# 2 -0.3169 149.5433 27.5058 0.0000 0.0000 0.0000
# 3 -9.7893 27.5058 35.9615 0.0000 0.0000 0.0000
# 4 0.0000 0.0000 0.0000 38.7477 0.0000 0.0000
# 5 0.0000 0.0000 0.0000 0.0000 -1.6024 0.0000
# 6 0.0000 0.0000 0.0000 0.0000 0.0000 -22.5015
#
#
#
# Elastic Compliance Matrix: (Units=1/GPa)
#
#
# Indices 1 2 3 4 5 6 
#
# 1 0.017003 -0.000949 0.005354 0.000000 0.000000 0.000000
# 2 -0.000949 0.007835 -0.006251 0.000000 0.000000 0.000000
# 3 0.005354 -0.006251 0.034046 0.000000 0.000000 0.000000
# 4 0.000000 0.000000 0.000000 0.025808 0.000000 0.000000
# 5 0.000000 0.000000 0.000000 0.000000 -0.624074 0.000000
# 6 0.000000 0.000000 0.000000 0.000000 0.000000 -0.044442
#
#
# Mechanical properties :
#
#
# Convention : Reuss Voigt Hill
#
# Bulk Modulus (GPa) = 18.11841 31.35370 24.73606
# Shear Modulus (GPa) = -8.90098 18.26107 4.68005
#
# Velocity S-wave (km/s) = -2.04191 2.92470 1.48062
# Velocity P-wave (km/s) = 1.71109 5.10802 3.80918
#
# Compressibility (1/GPa) = 0.05519247
#
# Stress axis : x y z
#
# Youngs Moduli (GPa) = 58.81440 127.63663 29.37197
#
# Poissons Ratio (x) = 0.12110 -0.15726
# Poissons Ratio (y) = 0.05580 0.18360
# Poissons Ratio (z) = -0.31490 0.79783
#
# Static dielectric constant tensor:
#      x y z
#    x 1.783450 0.000000 0.000000 
#    y 0.000000 1.772030 0.000000 
#    z 0.000000 0.000000 1.769580 
# 
# From -- ./inp_files/5476.got.cif
#   From: 2010.05.17/outbox.cif.g08.bks.cpg/sg38_3_cif.got.tgz:5476.got - 2010.06.03 18:07:57.
