data_PCOD9358598
_publ_section_title
;
Structure prediction by ZEFSAII (Michael W. Deem and Ramdas Pophale) SiO2 
 PCOD9358598
Probable space group: A M M 2
;
_chemical_formula_sum "Si O2"
_cell_formula_units_Z 32
_cell_length_a 7.847415
_cell_length_b 24.598118
_cell_length_c 9.061784
_cell_angle_alpha 90.000000
_cell_angle_beta 90.000000
_cell_angle_gamma 90.000000
_cell_volume 1749.211028
_symmetry_space_group_name_H-M "A M M 2"
_symmetry_group_IT_number 38
_symmetry_cell_setting 'orthorhombic'
loop_
_space_group_symop_operation_xyz
x,y,z
-x,-y,z
-x,y,z
x,-y,z
x,1/2+y,1/2+z
-x,1/2-y,1/2+z
-x,1/2+y,1/2+z
x,1/2-y,1/2+z
loop_
_atom_site_type_symbol
_atom_site_label
_atom_site_fract_x
_atom_site_fract_y
_atom_site_fract_z
Si Si1 0.197111 0.500000 0.086620
Si Si2 0.000000 0.692097 0.594451
Si Si3 0.690999 0.611879 0.944781
Si Si4 0.000000 0.309841 0.950014
Si Si5 0.698504 0.610782 0.591471
Si Si6 0.704911 0.500000 0.422666
O O1 0.211730 0.500000 0.262783
O O2 0.000000 0.500000 0.040536
O O3 0.281733 0.445647 0.023435
O O4 0.000000 0.751312 0.524175
O O5 0.832026 0.657692 0.550966
O O6 0.000000 0.696539 0.772458
O O7 0.500000 0.631994 0.974473
O O8 0.708484 0.603270 0.768444
O O9 0.834397 0.654685 0.991387
O O10 0.500000 0.623392 0.555753
O O11 0.747139 0.554463 0.512740
O O12 0.500000 0.500000 0.402591
#
# Coordination Sequence:
#
# PCOD9358598 Si02
#       6
#     4   4   8   4   8   4
#     4  12  23  34  54  88 120 145 180 224 279 334
#     4  10  22  37  58  79 115 142 188 234 273 322
#     4  10  20  39  61  81 111 148 186 227 272 329
#     4  10  22  39  54  85 107 146 190 230 273 328
#     4   9  20  38  60  83 109 148 189 225 272 331
#     4  10  21  36  54  85 119 146 182 225 278 332
#
# _framework density 18.293962000000001
#
# number of rings (size 3 to 8) (size 9 to 14) (size 15 to 20)
#    0.000    2.000    1.250    1.875    1.750    5.000 
#    0.000    0.000    0.000    0.000    0.000    0.000 
#    0.000    0.000    0.000    0.000    0.000    0.000 
#
# Total GULP energy -89351.160128 kJ/mol
# GULP energy per Si atom -5584.447508 kJ/mol
# Density = 1.825232 g / cm^3
# Si number density = 18.293962 Si / 1000 Ang^3
#
#
#
# Elastic Constant Matrix: (Units=GPa)
#
#
# Indices 1 2 3 4 5 6 
#
# 1 139.3648 98.6680 46.9199 0.0000 0.0000 0.0000
# 2 98.6680 178.2360 51.6731 0.0000 0.0000 0.0000
# 3 46.9199 51.6731 26.8606 0.0000 0.0000 0.0000
# 4 0.0000 0.0000 0.0000 39.3337 0.0000 0.0000
# 5 0.0000 0.0000 0.0000 0.0000 21.3176 0.0000
# 6 0.0000 0.0000 0.0000 0.0000 0.0000 6.1182
#
#
#
# Elastic Compliance Matrix: (Units=1/GPa)
#
#
# Indices 1 2 3 4 5 6 
#
# 1 0.017696 -0.001887 -0.027282 0.000000 0.000000 0.000000
# 2 -0.001887 0.012887 -0.021495 0.000000 0.000000 0.000000
# 3 -0.027282 -0.021495 0.126236 0.000000 0.000000 0.000000
# 4 0.000000 0.000000 0.000000 0.025423 0.000000 0.000000
# 5 0.000000 0.000000 0.000000 0.000000 0.046910 0.000000
# 6 0.000000 0.000000 0.000000 0.000000 0.000000 0.163446
#
#
# Mechanical properties :
#
#
# Convention : Reuss Voigt Hill
#
# Bulk Modulus (GPa) = 18.02073 82.10925 50.06499
# Shear Modulus (GPa) = 9.75758 23.16728 16.46243
#
# Velocity S-wave (km/s) = 2.31200 3.56250 3.00306
# Velocity P-wave (km/s) = 4.12300 7.86782 6.28099
#
# Compressibility (1/GPa) = 0.05549166
#
# Stress axis : x y z
#
# Youngs Moduli (GPa) = 56.50907 77.59897 7.92169
#
# Poissons Ratio (x) = 0.14643 0.21612
# Poissons Ratio (y) = 0.10663 0.17028
# Poissons Ratio (z) = 1.54166 1.66798
#
# Static dielectric constant tensor:
#      x y z
#    x 1.647120 0.000000 0.000000 
#    y 0.000000 1.575780 0.000000 
#    z 0.000000 0.000000 1.612330 
# 
# From -- ./inp_files/3282.got.cif
#   From: 2010.05.17/outbox.cif.g08.bks.cpg/sg38_2_cif.got.tgz:3282.got - 2010.06.03 18:07:57.
