data_PCOD9358980
_publ_section_title
;
Structure prediction by ZEFSAII (Michael W. Deem and Ramdas Pophale) SiO2 
 PCOD9358980
Probable space group: A M M 2
;
_chemical_formula_sum "Si O2"
_cell_formula_units_Z 48
_cell_length_a 19.512101
_cell_length_b 8.053614
_cell_length_c 15.465550
_cell_angle_alpha 90.000000
_cell_angle_beta 90.000000
_cell_angle_gamma 90.000000
_cell_volume 2430.301838
_symmetry_space_group_name_H-M "A M M 2"
_symmetry_group_IT_number 38
_symmetry_cell_setting 'orthorhombic'
loop_
_space_group_symop_operation_xyz
x,y,z
-x,-y,z
-x,y,z
x,-y,z
x,1/2+y,1/2+z
-x,1/2-y,1/2+z
-x,1/2+y,1/2+z
x,1/2-y,1/2+z
loop_
_atom_site_type_symbol
_atom_site_label
_atom_site_fract_x
_atom_site_fract_y
_atom_site_fract_z
Si Si1 0.315710 0.804414 0.193180
Si Si2 0.834618 0.694394 0.143880
Si Si3 0.421884 0.702987 0.546794
Si Si4 0.666756 0.302408 0.384995
Si Si5 0.817318 0.797647 0.448430
Si Si6 0.922929 0.802504 0.302722
O O1 0.242663 0.718435 0.178472
O O2 0.371958 0.743835 0.124468
O O3 0.339652 0.778077 0.291103
O O4 0.304407 0.000000 0.178003
O O5 0.850707 0.500000 0.141835
O O6 0.886824 0.775354 0.210771
O O7 0.835891 0.757448 0.045364
O O8 0.500000 0.758983 0.556675
O O9 0.422227 0.500000 0.547736
O O10 0.388269 0.754821 0.456021
O O11 0.659993 0.500000 0.374682
O O12 0.742140 0.263771 0.422246
O O13 0.872473 0.738630 0.377836
O O14 0.815079 0.000000 0.447584
O O15 0.000000 0.733756 0.305633
O O16 0.927350 0.000000 0.316603
#
# Coordination Sequence:
#
# PCOD9358980 Si02
#       6
#     8   8   8   8   8   8
#     4  11  21  36  59  85 115 154 196 237 287 346
#     4  11  22  36  59  89 117 149 195 243 287 339
#     4   9  20  38  58  83 118 156 191 235 293 349
#     4  11  21  35  59  88 115 149 194 240 285 341
#     4  10  21  37  59  85 116 152 190 235 286 344
#     4  10  22  40  60  84 117 157 194 234 290 348
#
# _framework density 19.750633000000001
#
# number of rings (size 3 to 8) (size 9 to 14) (size 15 to 20)
#    0.000    1.667    3.333    1.500    0.000    2.333 
#    0.000    1.667    0.000    7.000    0.000    0.000 
#    0.000    0.000    0.000    0.000    0.000    0.000 
#
# Total GULP energy -134084.539445 kJ/mol
# GULP energy per Si atom -5586.855810 kJ/mol
# Density = 1.970568 g / cm^3
# Si number density = 19.750633 Si / 1000 Ang^3
#
#
#
# Elastic Constant Matrix: (Units=GPa)
#
#
# Indices 1 2 3 4 5 6 
#
# 1 100.6270 -10.4919 15.5180 0.0000 0.0000 0.0000
# 2 -10.4919 12.3735 -12.6825 0.0000 0.0000 0.0000
# 3 15.5180 -12.6825 100.5739 0.0000 0.0000 0.0000
# 4 0.0000 0.0000 0.0000 25.4839 0.0000 0.0000
# 5 0.0000 0.0000 0.0000 0.0000 28.7522 0.0000
# 6 0.0000 0.0000 0.0000 0.0000 0.0000 13.9524
#
#
#
# Elastic Compliance Matrix: (Units=1/GPa)
#
#
# Indices 1 2 3 4 5 6 
#
# 1 0.010932 0.008660 -0.000595 0.000000 0.000000 0.000000
# 2 0.008660 0.099675 0.011233 0.000000 0.000000 0.000000
# 3 -0.000595 0.011233 0.011451 0.000000 0.000000 0.000000
# 4 0.000000 0.000000 0.000000 0.039240 0.000000 0.000000
# 5 0.000000 0.000000 0.000000 0.000000 0.034780 0.000000
# 6 0.000000 0.000000 0.000000 0.000000 0.000000 0.071672
#
#
# Mechanical properties :
#
#
# Convention : Reuss Voigt Hill
#
# Bulk Modulus (GPa) = 6.22448 22.02906 14.12677
# Shear Modulus (GPa) = 17.68620 28.38642 23.03631
#
# Velocity S-wave (km/s) = 2.99570 3.79521 3.41890
# Velocity P-wave (km/s) = 3.88895 5.51204 4.77004
#
# Compressibility (1/GPa) = 0.16065588
#
# Stress axis : x y z
#
# Youngs Moduli (GPa) = 91.47132 10.03259 87.32724
#
# Poissons Ratio (x) = -0.08689 0.05194
# Poissons Ratio (y) = -0.79218 -0.98094
# Poissons Ratio (z) = 0.05440 -0.11269
#
# Static dielectric constant tensor:
#      x y z
#    x 1.662750 0.000000 0.000000 
#    y 0.000000 1.707400 0.000000 
#    z 0.000000 0.000000 1.682940 
# 
# From -- ./inp_files/14955.got.cif
#   From: 2010.05.17/outbox.cif.g08.bks.cpg/sg38_8_cif.got.tgz:14955.got - 2010.06.03 18:07:57.
