data_PCOD9358364
_publ_section_title
;
Structure prediction by ZEFSAII (Michael W. Deem and Ramdas Pophale) SiO2 
 PCOD9358364
Probable space group: A M M 2
;
_chemical_formula_sum "Si O2"
_cell_formula_units_Z 48
_cell_length_a 15.091975
_cell_length_b 8.949444
_cell_length_c 19.513016
_cell_angle_alpha 90.000000
_cell_angle_beta 90.000000
_cell_angle_gamma 90.000000
_cell_volume 2635.521313
_symmetry_space_group_name_H-M "A M M 2"
_symmetry_group_IT_number 38
_symmetry_cell_setting 'orthorhombic'
loop_
_space_group_symop_operation_xyz
x,y,z
-x,-y,z
-x,y,z
x,-y,z
x,1/2+y,1/2+z
-x,1/2-y,1/2+z
-x,1/2+y,1/2+z
x,1/2-y,1/2+z
loop_
_atom_site_type_symbol
_atom_site_label
_atom_site_fract_x
_atom_site_fract_y
_atom_site_fract_z
Si Si1 0.852445 0.177432 0.937600
Si Si2 0.500000 0.178720 0.338232
Si Si3 0.000000 0.177753 0.178433
Si Si4 0.645225 0.321921 0.081465
Si Si5 0.000000 0.179385 0.827553
Si Si6 0.854705 0.323033 0.082860
Si Si7 0.644123 0.677776 0.434433
Si Si8 0.500000 0.821135 0.177072
O O1 0.748828 0.203747 0.922602
O O2 0.914765 0.217038 0.874109
O O3 0.864000 0.000000 0.951013
O O4 0.876695 0.265111 0.006577
O O5 0.415180 0.248051 0.376240
O O6 0.500000 0.213707 0.257673
O O7 0.500000 0.000000 0.346462
O O8 0.000000 0.238766 0.255505
O O9 0.914820 0.239637 0.137754
O O10 0.000000 0.000000 0.177580
O O11 0.630758 0.500000 0.078907
O O12 0.749858 0.294737 0.093403
O O13 0.585093 0.248403 0.139421
O O14 0.621877 0.250016 0.008000
O O15 0.000000 0.000000 0.816066
O O16 0.870204 0.500000 0.087344
O O17 0.628627 0.500000 0.436956
O O18 0.500000 0.000000 0.168684
#
# Coordination Sequence:
#
# PCOD9358364 Si02
#       8
#     8   4   4   8   4   8   8   4
#     4   9  19  36  60  87 113 144 182 227 277 329
#     4  11  24  39  54  77 111 149 188 231 280 329
#     4  12  25  38  55  81 115 153 189 228 277 332
#     4  10  21  38  61  86 112 145 186 232 279 329
#     4  10  21  38  57  81 115 149 183 224 273 330
#     4  10  21  38  61  86 112 145 186 232 279 329
#     4  10  20  36  59  85 112 144 184 228 276 331
#     4  11  24  39  56  81 115 153 188 229 280 331
#
# _framework density 18.212714999999999
#
# number of rings (size 3 to 8) (size 9 to 14) (size 15 to 20)
#    0.000    1.833    0.000    3.750    0.000    6.667 
#    0.000    5.000    0.000    0.000    0.000    0.000 
#    0.000    0.000    0.000    0.000    0.000    0.000 
#
# Total GULP energy -134143.901490 kJ/mol
# GULP energy per Si atom -5589.329229 kJ/mol
# Density = 1.817126 g / cm^3
# Si number density = 18.212715 Si / 1000 Ang^3
#
#
#
# Elastic Constant Matrix: (Units=GPa)
#
#
# Indices 1 2 3 4 5 6 
#
# 1 101.3924 78.8707 107.3838 0.0000 0.0000 0.0000
# 2 78.8707 106.6454 108.0586 0.0000 0.0000 0.0000
# 3 107.3838 108.0586 194.1454 0.0000 0.0000 0.0000
# 4 0.0000 0.0000 0.0000 37.2121 0.0000 0.0000
# 5 0.0000 0.0000 0.0000 0.0000 -53.2592 0.0000
# 6 0.0000 0.0000 0.0000 0.0000 0.0000 24.4135
#
#
#
# Elastic Compliance Matrix: (Units=1/GPa)
#
#
# Indices 1 2 3 4 5 6 
#
# 1 0.029282 -0.012029 -0.009501 0.000000 0.000000 0.000000
# 2 -0.012029 0.026446 -0.008066 0.000000 0.000000 0.000000
# 3 -0.009501 -0.008066 0.014896 0.000000 0.000000 0.000000
# 4 0.000000 0.000000 0.000000 0.026873 0.000000 0.000000
# 5 0.000000 0.000000 0.000000 0.000000 -0.018776 0.000000
# 6 0.000000 0.000000 0.000000 0.000000 0.000000 0.040961
#
#
# Mechanical properties :
#
#
# Convention : Reuss Voigt Hill
#
# Bulk Modulus (GPa) = 87.47946 110.08994 98.78470
# Shear Modulus (GPa) = 27.36951 8.86461 18.11706
#
# Velocity S-wave (km/s) = 3.88076 2.20858 3.15738
# Velocity P-wave (km/s) = 8.25935 8.19034 8.22492
#
# Compressibility (1/GPa) = 0.01143125
#
# Stress axis : x y z
#
# Youngs Moduli (GPa) = 34.15027 37.81273 67.13417
#
# Poissons Ratio (x) = 0.45485 0.63786
# Poissons Ratio (y) = 0.41079 0.54152
# Poissons Ratio (z) = 0.32447 0.30501
#
# Static dielectric constant tensor:
#      x y z
#    x 1.630950 0.000000 0.000000 
#    y 0.000000 1.605260 0.000000 
#    z 0.000000 0.000000 1.577410 
# 
# From -- ./inp_files/18256.got.cif
#   From: 2010.05.17/outbox.cif.g08.bks.cpg/sg38_10_cif.got.tgz:18256.got - 2010.06.03 18:07:57.
