data_PCOD9358478
_publ_section_title
;
Structure prediction by ZEFSAII (Michael W. Deem and Ramdas Pophale) SiO2 
 PCOD9358478
Probable space group: A M M 2
;
_chemical_formula_sum "Si O2"
_cell_formula_units_Z 64
_cell_length_a 24.677608
_cell_length_b 8.122161
_cell_length_c 15.767867
_cell_angle_alpha 90.000000
_cell_angle_beta 90.000000
_cell_angle_gamma 90.000000
_cell_volume 3160.440389
_symmetry_space_group_name_H-M "A M M 2"
_symmetry_group_IT_number 38
_symmetry_cell_setting 'orthorhombic'
loop_
_space_group_symop_operation_xyz
x,y,z
-x,-y,z
-x,y,z
x,-y,z
x,1/2+y,1/2+z
-x,1/2-y,1/2+z
-x,1/2+y,1/2+z
x,1/2-y,1/2+z
loop_
_atom_site_type_symbol
_atom_site_label
_atom_site_fract_x
_atom_site_fract_y
_atom_site_fract_z
Si Si1 0.939074 0.304699 0.976900
Si Si2 0.245679 0.307326 0.399547
Si Si3 0.136524 0.299917 0.825127
Si Si4 0.364468 0.300691 0.895294
Si Si5 0.438346 0.801341 0.240899
Si Si6 0.877564 0.691665 0.640312
Si Si7 0.238068 0.808172 0.588761
Si Si8 0.359546 0.698799 0.090285
O O1 0.942766 0.500000 0.961770
O O2 0.899714 0.239121 0.903411
O O3 0.000000 0.236282 0.975102
O O4 0.910587 0.279797 0.066909
O O5 0.244228 0.500000 0.420451
O O6 0.197323 0.264871 0.336473
O O7 0.305232 0.260952 0.367460
O O8 0.236198 0.207018 0.486464
O O9 0.139011 0.500000 0.826041
O O10 0.111904 0.248187 0.735354
O O11 0.363778 0.500000 0.895585
O O12 0.408955 0.244631 0.827479
O O13 0.372470 0.247047 0.993436
O O14 0.500000 0.740444 0.234508
O O15 0.402526 0.753547 0.159784
O O16 0.439926 0.000000 0.244273
O O17 0.891496 0.500000 0.635027
O O18 0.813385 0.713434 0.624362
O O19 0.298151 0.745998 0.612517
O O20 0.233062 0.000000 0.612691
O O21 0.357960 0.500000 0.088949
#
# Coordination Sequence:
#
# PCOD9358478 Si02
#       8
#     8   8   8   8   8   8   8   8
#     4  10  22  42  65  85 115 164 208 244 292 351
#     4  11  21  34  58  90 121 151 195 245 294 349
#     4  10  22  39  59  86 122 160 196 236 294 357
#     4   9  20  39  59  81 114 157 195 234 292 355
#     4  10  22  39  59  84 115 153 198 243 289 348
#     4  11  23  37  59  92 121 154 199 247 296 346
#     4  10  20  37  59  84 121 159 193 238 299 361
#     4   9  20  37  58  84 113 151 194 239 292 346
#
# _framework density 20.250342
#
# number of rings (size 3 to 8) (size 9 to 14) (size 15 to 20)
#    0.000    2.000    1.250    2.625    1.750    5.500 
#    0.000    2.500    0.000    0.000    0.000    0.000 
#    0.000    0.000    0.000    0.000    0.000    0.000 
#
# Total GULP energy -178721.818368 kJ/mol
# GULP energy per Si atom -5585.056824 kJ/mol
# Density = 2.020425 g / cm^3
# Si number density = 20.250342 Si / 1000 Ang^3
#
#
#
# Elastic Constant Matrix: (Units=GPa)
#
#
# Indices 1 2 3 4 5 6 
#
# 1 90.0552 2.9498 33.4685 0.0000 0.0000 0.0000
# 2 2.9498 14.7516 -0.0121 0.0000 0.0000 0.0000
# 3 33.4685 -0.0121 68.1190 0.0000 0.0000 0.0000
# 4 0.0000 0.0000 0.0000 23.8379 0.0000 0.0000
# 5 0.0000 0.0000 0.0000 0.0000 -17.4270 0.0000
# 6 0.0000 0.0000 0.0000 0.0000 0.0000 11.5346
#
#
#
# Elastic Compliance Matrix: (Units=1/GPa)
#
#
# Indices 1 2 3 4 5 6 
#
# 1 0.013695 -0.002744 -0.006729 0.000000 0.000000 0.000000
# 2 -0.002744 0.068339 0.001360 0.000000 0.000000 0.000000
# 3 -0.006729 0.001360 0.017987 0.000000 0.000000 0.000000
# 4 0.000000 0.000000 0.000000 0.041950 0.000000 0.000000
# 5 0.000000 0.000000 0.000000 0.000000 -0.057382 0.000000
# 6 0.000000 0.000000 0.000000 0.000000 0.000000 0.086696
#
#
# Mechanical properties :
#
#
# Convention : Reuss Voigt Hill
#
# Bulk Modulus (GPa) = 11.93386 27.30423 19.61905
# Shear Modulus (GPa) = 23.20812 12.69042 17.94927
#
# Velocity S-wave (km/s) = 3.38902 2.50607 2.98042
# Velocity P-wave (km/s) = 4.60651 4.67829 4.64254
#
# Compressibility (1/GPa) = 0.08379521
#
# Stress axis : x y z
#
# Youngs Moduli (GPa) = 73.01915 14.63289 55.59685
#
# Poissons Ratio (x) = 0.04015 0.37412
# Poissons Ratio (y) = 0.20037 -0.07563
# Poissons Ratio (z) = 0.49136 -0.01991
#
# Static dielectric constant tensor:
#      x y z
#    x 1.706360 0.000000 0.000000 
#    y 0.000000 1.717630 0.000000 
#    z 0.000000 0.000000 1.716260 
# 
# From -- ./inp_files/15741.got.cif
#   From: 2010.05.17/outbox.cif.g08.bks.cpg/sg38_8_cif.got.tgz:15741.got - 2010.06.03 18:07:57.
