data_PCOD9358578
_publ_section_title
;
Structure prediction by ZEFSAII (Michael W. Deem and Ramdas Pophale) SiO2 
 PCOD9358578
Probable space group: A M M 2
;
_chemical_formula_sum "Si O2"
_cell_formula_units_Z 56
_cell_length_a 16.102569
_cell_length_b 8.155145
_cell_length_c 20.570720
_cell_angle_alpha 90.000000
_cell_angle_beta 90.000000
_cell_angle_gamma 90.000000
_cell_volume 2701.321958
_symmetry_space_group_name_H-M "A M M 2"
_symmetry_group_IT_number 38
_symmetry_cell_setting 'orthorhombic'
loop_
_space_group_symop_operation_xyz
x,y,z
-x,-y,z
-x,y,z
x,-y,z
x,1/2+y,1/2+z
-x,1/2-y,1/2+z
-x,1/2+y,1/2+z
x,1/2-y,1/2+z
loop_
_atom_site_type_symbol
_atom_site_label
_atom_site_fract_x
_atom_site_fract_y
_atom_site_fract_z
Si Si1 0.194993 0.307354 0.049340
Si Si2 0.227949 0.806347 0.332421
Si Si3 0.587986 0.196644 0.653041
Si Si4 0.092336 0.194463 0.935881
Si Si5 0.768355 0.301947 0.193168
Si Si6 0.590333 0.806202 0.367607
Si Si7 0.628556 0.309179 0.509498
O O1 0.217674 0.500000 0.048585
O O2 0.187916 0.259006 0.124921
O O3 0.272324 0.212737 0.017273
O O4 0.116795 0.277021 0.004039
O O5 0.163073 0.735439 0.383649
O O6 0.198289 0.772045 0.259381
O O7 0.322388 0.737354 0.340190
O O8 0.232606 0.000000 0.344980
O O9 0.500000 0.260668 0.678944
O O10 0.672745 0.257631 0.684977
O O11 0.593571 0.238489 0.576731
O O12 0.588810 0.000000 0.659460
O O13 0.000000 0.245942 0.914609
O O14 0.092316 0.000000 0.945726
O O15 0.769255 0.500000 0.198836
O O16 0.500000 0.736406 0.347086
O O17 0.598246 0.782310 0.445337
O O18 0.588986 0.000000 0.352791
O O19 0.607401 0.500000 0.503712
#
# Coordination Sequence:
#
# PCOD9358578 Si02
#       7
#     8   8   8   8   8   8   8
#     4  10  20  38  63  89 117 154 196 240 298 362
#     4  11  23  39  61  88 122 165 207 247 296 356
#     4   9  18  33  52  75 109 156 205 251 301 357
#     4  11  24  42  67  97 125 153 190 245 307 361
#     4   9  20  37  58  83 117 159 200 245 300 354
#     4  10  21  36  53  77 115 162 206 249 299 353
#     4  11  20  30  50  81 115 151 195 251 305 350
#
# _framework density 20.730588999999998
#
# number of rings (size 3 to 8) (size 9 to 14) (size 15 to 20)
#    0.000    1.857    1.429    3.857    0.000    7.429 
#    0.000    0.714    0.000    0.857    0.000    0.000 
#    0.000    0.000    0.000    0.000    0.000    0.000 
#
# Total GULP energy -156350.824323 kJ/mol
# GULP energy per Si atom -5583.958012 kJ/mol
# Density = 2.068341 g / cm^3
# Si number density = 20.730589 Si / 1000 Ang^3
#
#
#
# Elastic Constant Matrix: (Units=GPa)
#
#
# Indices 1 2 3 4 5 6 
#
# 1 100.2468 12.3441 43.4484 0.0000 0.0000 0.0000
# 2 12.3441 24.1150 -1.6060 0.0000 0.0000 0.0000
# 3 43.4484 -1.6060 103.7791 0.0000 0.0000 0.0000
# 4 0.0000 0.0000 0.0000 20.1466 0.0000 0.0000
# 5 0.0000 0.0000 0.0000 0.0000 11.4098 0.0000
# 6 0.0000 0.0000 0.0000 0.0000 0.0000 9.3568
#
#
#
# Elastic Compliance Matrix: (Units=1/GPa)
#
#
# Indices 1 2 3 4 5 6 
#
# 1 0.013329 -0.007202 -0.005692 0.000000 0.000000 0.000000
# 2 -0.007202 0.045402 0.003718 0.000000 0.000000 0.000000
# 3 -0.005692 0.003718 0.012076 0.000000 0.000000 0.000000
# 4 0.000000 0.000000 0.000000 0.049636 0.000000 0.000000
# 5 0.000000 0.000000 0.000000 0.000000 0.087644 0.000000
# 6 0.000000 0.000000 0.000000 0.000000 0.000000 0.106875
#
#
# Mechanical properties :
#
#
# Convention : Reuss Voigt Hill
#
# Bulk Modulus (GPa) = 19.06375 37.39042 28.22709
# Shear Modulus (GPa) = 14.25314 19.77960 17.01637
#
# Velocity S-wave (km/s) = 2.62495 3.09224 2.86813
# Velocity P-wave (km/s) = 4.28988 5.55201 4.96124
#
# Compressibility (1/GPa) = 0.05245556
#
# Stress axis : x y z
#
# Youngs Moduli (GPa) = 75.02346 22.02536 82.80645
#
# Poissons Ratio (x) = 0.15863 0.47132
# Poissons Ratio (y) = 0.54032 -0.30786
# Poissons Ratio (z) = 0.42702 -0.08189
#
# Static dielectric constant tensor:
#      x y z
#    x 1.787410 0.000000 0.000000 
#    y 0.000000 1.724000 0.000000 
#    z 0.000000 0.000000 1.716760 
# 
# From -- ./inp_files/21070.got.cif
#   From: 2010.05.17/outbox.cif.g08.bks.cpg/sg38_11_cif.got.tgz:21070.got - 2010.06.03 18:07:57.
