data_PCOD9358228
_publ_section_title
;
Structure prediction by ZEFSAII (Michael W. Deem and Ramdas Pophale) SiO2 
 PCOD9358228
Probable space group: A M M 2
;
_chemical_formula_sum "Si O2"
_cell_formula_units_Z 48
_cell_length_a 15.460962
_cell_length_b 8.852778
_cell_length_c 19.352554
_cell_angle_alpha 90.000000
_cell_angle_beta 90.000000
_cell_angle_gamma 90.000000
_cell_volume 2648.831756
_symmetry_space_group_name_H-M "A M M 2"
_symmetry_group_IT_number 38
_symmetry_cell_setting 'orthorhombic'
loop_
_space_group_symop_operation_xyz
x,y,z
-x,-y,z
-x,y,z
x,-y,z
x,1/2+y,1/2+z
-x,1/2-y,1/2+z
-x,1/2+y,1/2+z
x,1/2-y,1/2+z
loop_
_atom_site_type_symbol
_atom_site_label
_atom_site_fract_x
_atom_site_fract_y
_atom_site_fract_z
Si Si1 0.899565 0.180293 0.613860
Si Si2 0.500000 0.168049 0.692716
Si Si3 0.500000 0.320879 0.837468
Si Si4 0.771422 0.178842 0.001694
Si Si5 0.210943 0.170803 0.228909
Si Si6 0.309815 0.817683 0.858168
Si Si7 0.360989 0.833234 0.115548
O O1 0.842805 0.239407 0.548907
O O2 0.865773 0.248245 0.686768
O O3 0.000000 0.219400 0.603772
O O4 0.890236 0.000000 0.617138
O O5 0.500000 0.285977 0.755246
O O6 0.419880 0.201624 0.643825
O O7 0.500000 0.000000 0.721832
O O8 0.500000 0.500000 0.850200
O O9 0.592210 0.249909 0.862057
O O10 0.680609 0.196557 0.041865
O O11 0.792432 0.000000 0.002165
O O12 0.749825 0.226086 0.923851
O O13 0.258407 0.258744 0.290785
O O14 0.282759 0.158124 0.169219
O O15 0.187431 0.000000 0.250777
O O16 0.317341 0.000000 0.856315
O O17 0.402684 0.000000 0.115126
#
# Coordination Sequence:
#
# PCOD9358228 Si02
#       7
#     8   4   4   8   8   8   8
#     4  10  21  38  62  90 117 147 188 239 290 345
#     4  12  22  31  50  79 107 143 193 245 286 327
#     4  12  24  37  54  79 115 159 199 239 286 339
#     4   9  21  39  59  83 113 151 190 233 291 349
#     4  10  20  35  58  84 112 148 187 232 286 343
#     4  11  22  38  59  85 117 155 197 241 287 340
#     4   9  18  34  53  74 105 142 184 230 280 337
#
# _framework density 18.121196000000001
#
# number of rings (size 3 to 8) (size 9 to 14) (size 15 to 20)
#    0.000    1.833    1.667    4.000    0.000    6.000 
#    0.000    4.167    0.000    1.000    0.000    0.000 
#    0.000    0.000    0.000    0.000    0.000    0.000 
#
# Total GULP energy -133729.953048 kJ/mol
# GULP energy per Si atom -5572.081377 kJ/mol
# Density = 1.807995 g / cm^3
# Si number density = 18.121196 Si / 1000 Ang^3
#
#
#
# Elastic Constant Matrix: (Units=GPa)
#
#
# Indices 1 2 3 4 5 6 
#
# 1 103.1003 46.8162 36.7502 0.0000 0.0000 0.0000
# 2 46.8162 79.9193 28.6934 0.0000 0.0000 0.0000
# 3 36.7502 28.6934 100.4885 0.0000 0.0000 0.0000
# 4 0.0000 0.0000 0.0000 19.4080 0.0000 0.0000
# 5 0.0000 0.0000 0.0000 0.0000 19.2046 0.0000
# 6 0.0000 0.0000 0.0000 0.0000 0.0000 63.3349
#
#
#
# Elastic Compliance Matrix: (Units=1/GPa)
#
#
# Indices 1 2 3 4 5 6 
#
# 1 0.014032 -0.007106 -0.003103 0.000000 0.000000 0.000000
# 2 -0.007106 0.017540 -0.002410 0.000000 0.000000 0.000000
# 3 -0.003103 -0.002410 0.011774 0.000000 0.000000 0.000000
# 4 0.000000 0.000000 0.000000 0.051525 0.000000 0.000000
# 5 0.000000 0.000000 0.000000 0.000000 0.052071 0.000000
# 6 0.000000 0.000000 0.000000 0.000000 0.000000 0.015789
#
#
# Mechanical properties :
#
#
# Convention : Reuss Voigt Hill
#
# Bulk Modulus (GPa) = 55.21849 56.44752 55.83301
# Shear Modulus (GPa) = 25.77258 31.80606 28.78932
#
# Velocity S-wave (km/s) = 3.77534 4.19404 3.99019
# Velocity P-wave (km/s) = 7.03862 7.39398 7.21849
#
# Compressibility (1/GPa) = 0.01810988
#
# Stress axis : x y z
#
# Youngs Moduli (GPa) = 71.26621 57.01137 84.93179
#
# Poissons Ratio (x) = 0.40511 0.26352
# Poissons Ratio (y) = 0.50641 0.20466
# Poissons Ratio (z) = 0.22112 0.13738
#
# Static dielectric constant tensor:
#      x y z
#    x 1.602650 0.000000 0.000000 
#    y 0.000000 1.642220 0.000000 
#    z 0.000000 0.000000 1.602140 
# 
# From -- ./inp_files/18184.got.cif
#   From: 2010.05.17/outbox.cif.g08.bks.cpg/sg38_10_cif.got.tgz:18184.got - 2010.06.03 18:07:57.
