data_PCOD9358011
_publ_section_title
;
Structure prediction by ZEFSAII (Michael W. Deem and Ramdas Pophale) SiO2 
 PCOD9358011
Probable space group: A M M 2
;
_chemical_formula_sum "Si O2"
_cell_formula_units_Z 48
_cell_length_a 8.754672
_cell_length_b 28.957567
_cell_length_c 10.543975
_cell_angle_alpha 90.000000
_cell_angle_beta 90.000000
_cell_angle_gamma 90.000000
_cell_volume 2673.045289
_symmetry_space_group_name_H-M "A M M 2"
_symmetry_group_IT_number 38
_symmetry_cell_setting 'orthorhombic'
loop_
_space_group_symop_operation_xyz
x,y,z
-x,-y,z
-x,y,z
x,-y,z
x,1/2+y,1/2+z
-x,1/2-y,1/2+z
-x,1/2+y,1/2+z
x,1/2-y,1/2+z
loop_
_atom_site_type_symbol
_atom_site_label
_atom_site_fract_x
_atom_site_fract_y
_atom_site_fract_z
Si Si1 0.682912 0.354857 0.837580
Si Si2 0.182673 0.447463 0.924206
Si Si3 0.315817 0.647268 0.319976
Si Si4 0.684436 0.697699 0.578941
Si Si5 0.182052 0.699753 0.077680
Si Si6 0.683663 0.448231 0.205861
O O1 0.500000 0.354769 0.848880
O O2 0.742428 0.407227 0.842127
O O3 0.725388 0.328699 0.708260
O O4 0.752027 0.328080 0.957777
O O5 0.224646 0.500000 0.887166
O O6 0.000000 0.443293 0.920909
O O7 0.239347 0.440960 0.069050
O O8 0.500000 0.650918 0.309340
O O9 0.272096 0.667879 0.455704
O O10 0.243099 0.676340 0.206129
O O11 0.274220 0.593684 0.297954
O O12 0.500000 0.703555 0.577805
O O13 0.760244 0.747730 0.572892
O O14 0.000000 0.697908 0.074755
O O15 0.500000 0.446628 0.187667
O O16 0.723390 0.500000 0.250304
#
# Coordination Sequence:
#
# PCOD9358011 Si02
#       6
#     8   8   8   8   8   8
#     4  11  22  38  59  83 113 151 191 232 277 329
#     4  10  20  34  55  84 115 145 183 232 280 329
#     4  10  20  37  59  83 112 146 183 229 281 332
#     4  10  23  40  57  80 113 151 189 231 280 333
#     4  12  24  37  57  84 111 146 191 236 281 332
#     4   9  17  31  55  84 110 140 180 225 276 332
#
# _framework density 17.957045999999998
#
# number of rings (size 3 to 8) (size 9 to 14) (size 15 to 20)
#    0.000    1.667    1.667    3.500    0.000    7.000 
#    0.000    0.833    0.000    3.000    0.000    2.333 
#    0.000    0.000    0.000    0.000    0.000    0.000 
#
# Total GULP energy -134064.731730 kJ/mol
# GULP energy per Si atom -5586.030489 kJ/mol
# Density = 1.791617 g / cm^3
# Si number density = 17.957046 Si / 1000 Ang^3
#
#
#
# Elastic Constant Matrix: (Units=GPa)
#
#
# Indices 1 2 3 4 5 6 
#
# 1 34.5554 47.6422 39.8898 0.0000 0.0000 0.0000
# 2 47.6422 165.2049 72.8367 0.0000 0.0000 0.0000
# 3 39.8898 72.8367 120.7382 0.0000 0.0000 0.0000
# 4 0.0000 0.0000 0.0000 -4.9616 0.0000 0.0000
# 5 0.0000 0.0000 0.0000 0.0000 -18.2660 0.0000
# 6 0.0000 0.0000 0.0000 0.0000 0.0000 17.8821
#
#
#
# Elastic Compliance Matrix: (Units=1/GPa)
#
#
# Indices 1 2 3 4 5 6 
#
# 1 0.059552 -0.011579 -0.012690 0.000000 0.000000 0.000000
# 2 -0.011579 0.010498 -0.002507 0.000000 0.000000 0.000000
# 3 -0.012690 -0.002507 0.013987 0.000000 0.000000 0.000000
# 4 0.000000 0.000000 0.000000 -0.201549 0.000000 0.000000
# 5 0.000000 0.000000 0.000000 0.000000 -0.054746 0.000000
# 6 0.000000 0.000000 0.000000 0.000000 0.000000 0.055922
#
#
# Mechanical properties :
#
#
# Convention : Reuss Voigt Hill
#
# Bulk Modulus (GPa) = 32.80313 71.24842 52.02577
# Shear Modulus (GPa) = -95.01605 9.60622 -42.70492
#
# Velocity S-wave (km/s) = -7.28202 2.31542 -4.88194
# Velocity P-wave (km/s) = 7.23855 6.84920 1.65606
#
# Compressibility (1/GPa) = 0.03048490
#
# Stress axis : x y z
#
# Youngs Moduli (GPa) = 16.79204 95.25850 71.49252
#
# Poissons Ratio (x) = 1.10300 0.90722
# Poissons Ratio (y) = 0.19444 0.17926
# Poissons Ratio (z) = 0.21309 0.23885
#
# Static dielectric constant tensor:
#      x y z
#    x 1.600480 0.000000 0.000000 
#    y 0.000000 1.622760 0.000000 
#    z 0.000000 0.000000 1.576890 
# 
# From -- ./inp_files/3736.got.cif
#   From: 2010.05.17/outbox.cif.g08.bks.cpg/sg38_2_cif.got.tgz:3736.got - 2010.06.03 18:07:57.
