data_PCOD9358348
_publ_section_title
;
Structure prediction by ZEFSAII (Michael W. Deem and Ramdas Pophale) SiO2 
 PCOD9358348
Probable space group: A M M 2
;
_chemical_formula_sum "Si O2"
_cell_formula_units_Z 40
_cell_length_a 8.915889
_cell_length_b 18.909555
_cell_length_c 13.666402
_cell_angle_alpha 90.000000
_cell_angle_beta 90.000000
_cell_angle_gamma 90.000000
_cell_volume 2304.093788
_symmetry_space_group_name_H-M "A M M 2"
_symmetry_group_IT_number 38
_symmetry_cell_setting 'orthorhombic'
loop_
_space_group_symop_operation_xyz
x,y,z
-x,-y,z
-x,y,z
x,-y,z
x,1/2+y,1/2+z
-x,1/2-y,1/2+z
-x,1/2+y,1/2+z
x,1/2-y,1/2+z
loop_
_atom_site_type_symbol
_atom_site_label
_atom_site_fract_x
_atom_site_fract_y
_atom_site_fract_z
Si Si1 0.178969 0.500000 0.033540
Si Si2 0.679157 0.145281 0.857246
Si Si3 0.320819 0.357530 0.950749
Si Si4 0.679878 0.000000 0.747667
Si Si5 0.177835 0.282973 0.539276
Si Si6 0.677712 0.211631 0.243753
O O1 0.233813 0.500000 0.145711
O O2 0.000000 0.500000 0.028368
O O3 0.245363 0.430042 0.982955
O O4 0.500000 0.148626 0.876517
O O5 0.714748 0.070333 0.809229
O O6 0.712804 0.209082 0.781931
O O7 0.764971 0.162589 0.956951
O O8 0.500000 0.360768 0.965672
O O9 0.293002 0.338502 0.836899
O O10 0.255585 0.291871 0.012484
O O11 0.500000 0.000000 0.728030
O O12 0.230149 0.304859 0.647101
O O13 0.000000 0.275256 0.534174
O O14 0.500000 0.208739 0.221692
#
# Coordination Sequence:
#
# PCOD9358348 Si02
#       6
#     4   8   8   4   8   8
#     4  12  24  36  55  84 115 140 167 216 276 324
#     4   9  19  35  55  79 106 140 182 223 261 312
#     4  10  21  38  58  78 105 143 185 222 257 312
#     4  10  20  36  59  82 107 144 185 220 258 312
#     4  11  21  33  54  82 111 141 174 222 277 320
#     4   9  18  34  56  78 103 140 183 223 262 312
#
# _framework density 17.360403999999999
#
# number of rings (size 3 to 8) (size 9 to 14) (size 15 to 20)
#    0.000    2.000    0.000    5.700    0.000    6.400 
#    0.000    1.000    0.000    2.400    0.000    0.000 
#    0.000    0.000    0.000    0.000    0.000    0.000 
#
# Total GULP energy -111709.624019 kJ/mol
# GULP energy per Si atom -5585.481201 kJ/mol
# Density = 1.732089 g / cm^3
# Si number density = 17.360404 Si / 1000 Ang^3
#
#
#
# Elastic Constant Matrix: (Units=GPa)
#
#
# Indices 1 2 3 4 5 6 
#
# 1 103.8487 70.0622 87.3903 0.0000 0.0000 0.0000
# 2 70.0622 133.2514 70.2428 0.0000 0.0000 0.0000
# 3 87.3903 70.2428 124.3290 0.0000 0.0000 0.0000
# 4 0.0000 0.0000 0.0000 8.9592 0.0000 0.0000
# 5 0.0000 0.0000 0.0000 0.0000 -22.9830 0.0000
# 6 0.0000 0.0000 0.0000 0.0000 0.0000 21.2170
#
#
#
# Elastic Compliance Matrix: (Units=1/GPa)
#
#
# Indices 1 2 3 4 5 6 
#
# 1 0.026422 -0.005842 -0.015271 0.000000 0.000000 0.000000
# 2 -0.005842 0.011979 -0.002662 0.000000 0.000000 0.000000
# 3 -0.015271 -0.002662 0.020281 0.000000 0.000000 0.000000
# 4 0.000000 0.000000 0.000000 0.111617 0.000000 0.000000
# 5 0.000000 0.000000 0.000000 0.000000 -0.043510 0.000000
# 6 0.000000 0.000000 0.000000 0.000000 0.000000 0.047132
#
#
# Mechanical properties :
#
#
# Convention : Reuss Voigt Hill
#
# Bulk Modulus (GPa) = 89.82852 90.75774 90.29313
# Shear Modulus (GPa) = 22.20441 10.35425 16.27933
#
# Velocity S-wave (km/s) = 3.58023 2.44484 3.06556
# Velocity P-wave (km/s) = 8.30339 7.76928 8.04077
#
# Compressibility (1/GPa) = 0.01113232
#
# Stress axis : x y z
#
# Youngs Moduli (GPa) = 37.84781 83.47637 49.30776
#
# Poissons Ratio (x) = 0.48769 0.75298
# Poissons Ratio (y) = 0.22111 0.13124
# Poissons Ratio (z) = 0.57797 0.22218
#
# Static dielectric constant tensor:
#      x y z
#    x 1.577430 0.000000 0.000000 
#    y 0.000000 1.567790 0.000000 
#    z 0.000000 0.000000 1.573120 
# 
# From -- ./inp_files/7975.got.cif
#   From: 2010.05.17/outbox.cif.g08.bks.cpg/sg38_4_cif.got.tgz:7975.got - 2010.06.03 18:07:57.
