data_PCOD9358470
_publ_section_title
;
Structure prediction by ZEFSAII (Michael W. Deem and Ramdas Pophale) SiO2 
 PCOD9358470
Probable space group: A M M 2
;
_chemical_formula_sum "Si O2"
_cell_formula_units_Z 56
_cell_length_a 16.996026
_cell_length_b 9.361719
_cell_length_c 20.584320
_cell_angle_alpha 90.000000
_cell_angle_beta 90.000000
_cell_angle_gamma 90.000000
_cell_volume 3275.212726
_symmetry_space_group_name_H-M "A M M 2"
_symmetry_group_IT_number 38
_symmetry_cell_setting 'orthorhombic'
loop_
_space_group_symop_operation_xyz
x,y,z
-x,-y,z
-x,y,z
x,-y,z
x,1/2+y,1/2+z
-x,1/2-y,1/2+z
-x,1/2+y,1/2+z
x,1/2-y,1/2+z
loop_
_atom_site_type_symbol
_atom_site_label
_atom_site_fract_x
_atom_site_fract_y
_atom_site_fract_z
Si Si1 0.000000 0.335668 0.922611
Si Si2 0.328387 0.170994 0.125599
Si Si3 0.155944 0.330899 0.424828
Si Si4 0.000000 0.335814 0.080753
Si Si5 0.670236 0.169382 0.885075
Si Si6 0.593327 0.331185 0.244645
Si Si7 0.405713 0.666833 0.004758
Si Si8 0.155644 0.830996 0.078883
O O1 0.079802 0.256115 0.902463
O O2 0.000000 0.500000 0.902282
O O3 0.000000 0.331153 0.001682
O O4 0.364279 0.236309 0.190772
O O5 0.235470 0.201528 0.117120
O O6 0.338689 0.000000 0.122696
O O7 0.371630 0.245756 0.065288
O O8 0.139871 0.500000 0.419112
O O9 0.236728 0.297898 0.387782
O O10 0.169663 0.301437 0.501876
O O11 0.920391 0.256314 0.101080
O O12 0.000000 0.500000 0.101094
O O13 0.631702 0.192857 0.815076
O O14 0.627540 0.262582 0.939458
O O15 0.662099 0.000000 0.901226
O O16 0.500000 0.301255 0.246571
O O17 0.602684 0.500000 0.228752
O O18 0.500000 0.675251 0.005145
O O19 0.383030 0.500000 0.009227
O O20 0.139328 0.000000 0.084024
#
# Coordination Sequence:
#
# PCOD9358470 Si02
#       8
#     4   8   8   4   8   8   8   8
#     4   9  17  27  43  74 111 142 171 209 263 318
#     4  11  22  37  57  80 107 144 187 227 270 327
#     4   9  16  30  51  76 105 138 177 218 264 317
#     4   9  17  27  45  76 109 140 171 209 263 320
#     4  10  20  37  59  81 107 143 185 226 271 328
#     4  10  22  39  57  79 109 145 184 229 280 328
#     4  11  23  36  53  80 111 140 175 226 282 327
#     4   9  17  31  50  75 106 139 176 218 265 316
#
# _framework density 17.098126000000001
#
# number of rings (size 3 to 8) (size 9 to 14) (size 15 to 20)
#    0.000    2.143    1.429    2.143    0.000    7.714 
#    0.000    0.000    0.000    0.857    0.000    1.000 
#    0.000    0.000    0.000    0.000    0.000    0.000 
#
# Total GULP energy -156263.786715 kJ/mol
# GULP energy per Si atom -5580.849526 kJ/mol
# Density = 1.705921 g / cm^3
# Si number density = 17.098126 Si / 1000 Ang^3
#
#
#
# Elastic Constant Matrix: (Units=GPa)
#
#
# Indices 1 2 3 4 5 6 
#
# 1 160.0901 97.8126 63.9832 0.0000 0.0000 0.0000
# 2 97.8126 96.9737 65.1734 0.0000 0.0000 0.0000
# 3 63.9832 65.1734 74.0885 0.0000 0.0000 0.0000
# 4 0.0000 0.0000 0.0000 26.3598 0.0000 0.0000
# 5 0.0000 0.0000 0.0000 0.0000 -41.8364 0.0000
# 6 0.0000 0.0000 0.0000 0.0000 0.0000 27.3778
#
#
#
# Elastic Compliance Matrix: (Units=1/GPa)
#
#
# Indices 1 2 3 4 5 6 
#
# 1 0.016305 -0.017081 0.000944 0.000000 0.000000 0.000000
# 2 -0.017081 0.043119 -0.023179 0.000000 0.000000 0.000000
# 3 0.000944 -0.023179 0.033072 0.000000 0.000000 0.000000
# 4 0.000000 0.000000 0.000000 0.037937 0.000000 0.000000
# 5 0.000000 0.000000 0.000000 0.000000 -0.023903 0.000000
# 6 0.000000 0.000000 0.000000 0.000000 0.000000 0.036526
#
#
# Mechanical properties :
#
#
# Convention : Reuss Voigt Hill
#
# Bulk Modulus (GPa) = 72.12733 87.23228 79.67981
# Shear Modulus (GPa) = 22.09367 9.32578 15.70972
#
# Velocity S-wave (km/s) = 3.59858 2.33797 3.03446
# Velocity P-wave (km/s) = 7.71636 7.64314 7.67984
#
# Compressibility (1/GPa) = 0.01386437
#
# Stress axis : x y z
#
# Youngs Moduli (GPa) = 61.32979 23.19169 30.23712
#
# Poissons Ratio (x) = 0.39614 -0.02855
# Poissons Ratio (y) = 1.04757 0.70087
# Poissons Ratio (z) = -0.05791 0.53756
#
# Static dielectric constant tensor:
#      x y z
#    x 1.574500 0.000000 0.000000 
#    y 0.000000 1.572450 0.000000 
#    z 0.000000 0.000000 1.552790 
# 
# From -- ./inp_files/21132.got.cif
#   From: 2010.05.17/outbox.cif.g08.bks.cpg/sg38_11_cif.got.tgz:21132.got - 2010.06.03 18:07:57.
