data_PCOD9358325
_publ_section_title
;
Structure prediction by ZEFSAII (Michael W. Deem and Ramdas Pophale) SiO2 
 PCOD9358325
Probable space group: A M M 2
;
_chemical_formula_sum "Si O2"
_cell_formula_units_Z 64
_cell_length_a 18.455134
_cell_length_b 15.132599
_cell_length_c 12.139480
_cell_angle_alpha 90.000000
_cell_angle_beta 90.000000
_cell_angle_gamma 90.000000
_cell_volume 3390.242865
_symmetry_space_group_name_H-M "A M M 2"
_symmetry_group_IT_number 38
_symmetry_cell_setting 'orthorhombic'
loop_
_space_group_symop_operation_xyz
x,y,z
-x,-y,z
-x,y,z
x,-y,z
x,1/2+y,1/2+z
-x,1/2-y,1/2+z
-x,1/2+y,1/2+z
x,1/2-y,1/2+z
loop_
_atom_site_type_symbol
_atom_site_label
_atom_site_fract_x
_atom_site_fract_y
_atom_site_fract_z
Si Si1 0.086074 0.101801 0.529520
Si Si2 0.177611 0.737022 0.429351
Si Si3 0.417800 0.318337 0.205876
Si Si4 0.693715 0.320848 0.789583
Si Si5 0.085805 0.598539 0.293040
Si Si6 0.727103 0.603427 0.565818
Si Si7 0.578827 0.395609 0.446318
Si Si8 0.419106 0.394964 0.964631
O O1 0.134326 0.178530 0.476390
O O2 0.095607 0.107180 0.661628
O O3 0.000000 0.114351 0.506350
O O4 0.104711 0.000000 0.496752
O O5 0.240496 0.772865 0.349811
O O6 0.125527 0.674583 0.358475
O O7 0.213784 0.672835 0.520996
O O8 0.500000 0.281703 0.204099
O O9 0.355809 0.247314 0.222153
O O10 0.413576 0.377732 0.316208
O O11 0.406931 0.368769 0.091454
O O12 0.720462 0.389262 0.697543
O O13 0.641370 0.358588 0.883674
O O14 0.111925 0.500000 0.324792
O O15 0.000000 0.602405 0.314165
O O16 0.740199 0.500000 0.535187
O O17 0.650410 0.633400 0.510529
O O18 0.500000 0.357460 0.481035
O O19 0.575485 0.500000 0.465086
O O20 0.500000 0.362482 0.933089
O O21 0.419170 0.500000 0.956686
#
# Coordination Sequence:
#
# PCOD9358325 Si02
#       8
#     8   8   8   8   8   8   8   8
#     4   9  20  40  65  92 120 152 193 241 291 346
#     4  12  22  38  60  89 121 159 199 233 289 354
#     4  10  20  36  58  82 109 143 195 257 307 352
#     4  12  24  38  53  84 119 158 193 241 297 358
#     4   9  19  38  64  92 119 149 191 243 292 340
#     4  11  24  40  56  82 121 161 200 246 295 355
#     4   9  18  35  58  81 107 147 199 252 303 354
#     4  10  22  40  60  80 106 147 200 255 305 352
#
# _framework density 18.877704000000001
#
# number of rings (size 3 to 8) (size 9 to 14) (size 15 to 20)
#    0.000    1.750    1.250    4.125    0.000    3.500 
#    0.000    2.500    0.000    0.000    0.000    5.250 
#    0.000    0.000    0.000    0.000    0.000    0.000 
#
# Total GULP energy -178633.316527 kJ/mol
# GULP energy per Si atom -5582.291141 kJ/mol
# Density = 1.883474 g / cm^3
# Si number density = 18.877704 Si / 1000 Ang^3
#
#
#
# Elastic Constant Matrix: (Units=GPa)
#
#
# Indices 1 2 3 4 5 6 
#
# 1 98.2709 80.1563 54.1158 0.0000 0.0000 0.0000
# 2 80.1563 116.1000 43.0863 0.0000 0.0000 0.0000
# 3 54.1158 43.0863 88.3738 0.0000 0.0000 0.0000
# 4 0.0000 0.0000 0.0000 29.0723 0.0000 0.0000
# 5 0.0000 0.0000 0.0000 0.0000 28.8195 0.0000
# 6 0.0000 0.0000 0.0000 0.0000 0.0000 24.7694
#
#
#
# Elastic Compliance Matrix: (Units=1/GPa)
#
#
# Indices 1 2 3 4 5 6 
#
# 1 0.028796 -0.016284 -0.009695 0.000000 0.000000 0.000000
# 2 -0.016284 0.019724 0.000355 0.000000 0.000000 0.000000
# 3 -0.009695 0.000355 0.017079 0.000000 0.000000 0.000000
# 4 0.000000 0.000000 0.000000 0.034397 0.000000 0.000000
# 5 0.000000 0.000000 0.000000 0.000000 0.034699 0.000000
# 6 0.000000 0.000000 0.000000 0.000000 0.000000 0.040372
#
#
# Mechanical properties :
#
#
# Convention : Reuss Voigt Hill
#
# Bulk Modulus (GPa) = 69.67186 73.05129 71.36157
# Shear Modulus (GPa) = 21.63584 24.89133 23.26358
#
# Velocity S-wave (km/s) = 3.38909 3.63513 3.51427
# Velocity P-wave (km/s) = 7.23199 7.51000 7.37230
#
# Compressibility (1/GPa) = 0.01435300
#
# Stress axis : x y z
#
# Youngs Moduli (GPa) = 34.72645 50.70013 58.55147
#
# Poissons Ratio (x) = 0.82558 0.56763
# Poissons Ratio (y) = 0.56547 -0.02078
# Poissons Ratio (z) = 0.33666 -0.01800
#
# Static dielectric constant tensor:
#      x y z
#    x 1.640330 0.000000 0.000000 
#    y 0.000000 1.663470 0.000000 
#    z 0.000000 0.000000 1.635600 
# 
# From -- ./inp_files/10591.got.cif
#   From: 2010.05.17/outbox.cif.g08.bks.cpg/sg38_6_cif.got.tgz:10591.got - 2010.06.03 18:07:57.
