data_PCOD9358721
_publ_section_title
;
Structure prediction by ZEFSAII (Michael W. Deem and Ramdas Pophale) SiO2 
 PCOD9358721
Probable space group: A M M 2
;
_chemical_formula_sum "Si O2"
_cell_formula_units_Z 56
_cell_length_a 13.771651
_cell_length_b 23.475617
_cell_length_c 10.169612
_cell_angle_alpha 90.000000
_cell_angle_beta 90.000000
_cell_angle_gamma 90.000000
_cell_volume 3287.815264
_symmetry_space_group_name_H-M "A M M 2"
_symmetry_group_IT_number 38
_symmetry_cell_setting 'orthorhombic'
loop_
_space_group_symop_operation_xyz
x,y,z
-x,-y,z
-x,y,z
x,-y,z
x,1/2+y,1/2+z
-x,1/2-y,1/2+z
-x,1/2+y,1/2+z
x,1/2-y,1/2+z
loop_
_atom_site_type_symbol
_atom_site_label
_atom_site_fract_x
_atom_site_fract_y
_atom_site_fract_z
Si Si1 0.613997 0.383904 0.278350
Si Si2 0.382620 0.500000 0.836139
Si Si3 0.309601 0.622387 0.771121
Si Si4 0.889813 0.681362 0.733305
Si Si5 0.686659 0.685197 0.041180
Si Si6 0.384969 0.312779 0.521731
Si Si7 0.381472 0.000000 0.646211
Si Si8 0.890018 0.722010 0.022455
O O1 0.500000 0.393843 0.302186
O O2 0.627628 0.337439 0.164436
O O3 0.654292 0.356222 0.411117
O O4 0.653396 0.443314 0.221310
O O5 0.500000 0.500000 0.826512
O O6 0.340165 0.556882 0.770777
O O7 0.355677 0.500000 0.991836
O O8 0.195616 0.635567 0.746776
O O9 0.365344 0.658912 0.661933
O O10 0.335617 0.647579 0.914031
O O11 0.878305 0.719071 0.601886
O O12 0.000000 0.658567 0.735731
O O13 0.880324 0.722024 0.863312
O O14 0.663396 0.750972 0.012827
O O15 0.802011 0.682270 0.069149
O O16 0.500000 0.304833 0.501599
O O17 0.500000 0.000000 0.647570
O O18 0.000000 0.702152 0.050955
#
# Coordination Sequence:
#
# PCOD9358721 Si02
#       8
#     8   4   8   8   8   8   4   8
#     4  10  21  35  53  75 103 141 182 221 260 310
#     4  11  22  37  56  76 105 148 193 227 260 314
#     4  11  22  36  55  80 109 143 186 224 266 323
#     4   9  18  34  55  80 110 140 176 222 271 325
#     4  11  20  33  54  78 109 140 174 217 265 329
#     4  11  23  34  49  78 112 140 171 221 278 318
#     4   9  18  37  57  72  93 136 192 225 251 306
#     4   9  18  31  50  76 107 139 169 210 264 324
#
# _framework density 17.032588000000001
#
# number of rings (size 3 to 8) (size 9 to 14) (size 15 to 20)
#    0.000    1.857    2.857    1.714    2.000    3.429 
#    0.000    1.786    0.000    0.000    0.000    0.500 
#    0.000    0.000    0.000    0.000    0.000    0.000 
#
# Total GULP energy -156058.610961 kJ/mol
# GULP energy per Si atom -5573.521820 kJ/mol
# Density = 1.699382 g / cm^3
# Si number density = 17.032588 Si / 1000 Ang^3
#
#
#
# Elastic Constant Matrix: (Units=GPa)
#
#
# Indices 1 2 3 4 5 6 
#
# 1 39.3856 19.5243 11.2810 0.0000 0.0000 0.0000
# 2 19.5243 84.8528 10.1077 0.0000 0.0000 0.0000
# 3 11.2810 10.1077 35.8551 0.0000 0.0000 0.0000
# 4 0.0000 0.0000 0.0000 16.1052 0.0000 0.0000
# 5 0.0000 0.0000 0.0000 0.0000 19.7202 0.0000
# 6 0.0000 0.0000 0.0000 0.0000 0.0000 -85.1365
#
#
#
# Elastic Compliance Matrix: (Units=1/GPa)
#
#
# Indices 1 2 3 4 5 6 
#
# 1 0.030695 -0.006118 -0.007933 0.000000 0.000000 0.000000
# 2 -0.006118 0.013414 -0.001857 0.000000 0.000000 0.000000
# 3 -0.007933 -0.001857 0.030909 0.000000 0.000000 0.000000
# 4 0.000000 0.000000 0.000000 0.062092 0.000000 0.000000
# 5 0.000000 0.000000 0.000000 0.000000 0.050710 0.000000
# 6 0.000000 0.000000 0.000000 0.000000 0.000000 -0.011746
#
#
# Mechanical properties :
#
#
# Convention : Reuss Voigt Hill
#
# Bulk Modulus (GPa) = 23.14620 26.87994 25.01307
# Shear Modulus (GPa) = 22.49320 -1.91687 10.28816
#
# Velocity S-wave (km/s) = 3.63795 -1.06201 2.46036
# Velocity P-wave (km/s) = 5.59152 3.78311 4.77373
#
# Compressibility (1/GPa) = 0.04320364
#
# Stress axis : x y z
#
# Youngs Moduli (GPa) = 32.57875 74.54924 32.35268
#
# Poissons Ratio (x) = 0.45608 0.25665
# Poissons Ratio (y) = 0.19931 0.06007
# Poissons Ratio (z) = 0.25844 0.13841
#
# Static dielectric constant tensor:
#      x y z
#    x 1.605020 0.000000 0.000000 
#    y 0.000000 1.553870 0.000000 
#    z 0.000000 0.000000 1.587010 
# 
# From -- ./inp_files/5746.got.cif
#   From: 2010.05.17/outbox.cif.g08.bks.cpg/sg38_3_cif.got.tgz:5746.got - 2010.06.03 18:07:57.
