data_PCOD9358310
_publ_section_title
;
Structure prediction by ZEFSAII (Michael W. Deem and Ramdas Pophale) SiO2 
 PCOD9358310
Probable space group: A M M 2
;
_chemical_formula_sum "Si O2"
_cell_formula_units_Z 58
_cell_length_a 23.774626
_cell_length_b 7.975594
_cell_length_c 14.870976
_cell_angle_alpha 90.000000
_cell_angle_beta 90.000000
_cell_angle_gamma 90.000000
_cell_volume 2819.786354
_symmetry_space_group_name_H-M "A M M 2"
_symmetry_group_IT_number 38
_symmetry_cell_setting 'orthorhombic'
loop_
_space_group_symop_operation_xyz
x,y,z
-x,-y,z
-x,y,z
x,-y,z
x,1/2+y,1/2+z
-x,1/2-y,1/2+z
-x,1/2+y,1/2+z
x,1/2-y,1/2+z
loop_
_atom_site_type_symbol
_atom_site_label
_atom_site_fract_x
_atom_site_fract_y
_atom_site_fract_z
Si Si1 0.560622 0.685985 0.483630
Si Si2 0.142820 0.800592 0.452478
Si Si3 0.500000 0.500000 0.055543
Si Si4 0.654273 0.310948 0.850482
Si Si5 0.842055 0.297545 0.247232
Si Si6 0.281447 0.301625 0.180524
Si Si7 0.063394 0.795299 0.605936
Si Si8 0.264317 0.188489 0.988512
O O1 0.500000 0.681319 0.433779
O O2 0.568193 0.500000 0.525872
O O3 0.608716 0.716619 0.411145
O O4 0.549129 0.848065 0.546913
O O5 0.143640 0.754874 0.348236
O O6 0.088190 0.747384 0.508593
O O7 0.198288 0.721902 0.496917
O O8 0.148018 0.000000 0.462035
O O9 0.634633 0.500000 0.836621
O O10 0.672195 0.233429 0.755899
O O11 0.709643 0.306991 0.913293
O O12 0.840612 0.500000 0.244573
O O13 0.779517 0.241553 0.217826
O O14 0.890772 0.239894 0.179392
O O15 0.277304 0.500000 0.163970
O O16 0.292316 0.215808 0.085021
O O17 0.000000 0.735497 0.621137
O O18 0.062065 0.000000 0.609499
O O19 0.273233 0.000000 0.955541
#
# Coordination Sequence:
#
# PCOD9358310 Si02
#       8
#     8   8   2   8   8   8   8   8
#     4   9  17  32  55  85 118 159 205 250 296 351
#     4  11  21  36  57  82 110 145 186 232 288 348
#     4   8  14  32  52  86 116 160 206 246 302 346
#     4  12  22  37  60  88 119 156 199 245 298 355
#     4  10  20  36  57  81 109 144 184 229 285 348
#     4  11  22  37  56  85 117 151 190 240 296 355
#     4   9  19  37  59  79 107 147 187 230 284 347
#     4  12  24  37  55  84 117 154 193 240 293 353
#
# _framework density 20.568933999999999
#
# number of rings (size 3 to 8) (size 9 to 14) (size 15 to 20)
#    0.414    1.103    3.448    3.310    0.000    1.103 
#    0.000    0.000    0.000    3.724    0.000    0.000 
#    0.000    0.000    0.000    0.000    0.000    0.000 
#
# Total GULP energy -161546.269347 kJ/mol
# GULP energy per Si atom -5570.561012 kJ/mol
# Density = 2.052212 g / cm^3
# Si number density = 20.568934 Si / 1000 Ang^3
#
#
#
# Elastic Constant Matrix: (Units=GPa)
#
#
# Indices 1 2 3 4 5 6 
#
# 1 31.2402 0.8304 -24.2939 0.0000 0.0000 0.0000
# 2 0.8304 87.1899 -2.7394 0.0000 0.0000 0.0000
# 3 -24.2939 -2.7394 58.9497 0.0000 0.0000 0.0000
# 4 0.0000 0.0000 0.0000 21.7210 0.0000 0.0000
# 5 0.0000 0.0000 0.0000 0.0000 -19.9557 0.0000
# 6 0.0000 0.0000 0.0000 0.0000 0.0000 20.9528
#
#
#
# Elastic Compliance Matrix: (Units=1/GPa)
#
#
# Indices 1 2 3 4 5 6 
#
# 1 0.047109 0.000162 0.019422 0.000000 0.000000 0.000000
# 2 0.000162 0.011487 0.000600 0.000000 0.000000 0.000000
# 3 0.019422 0.000600 0.024995 0.000000 0.000000 0.000000
# 4 0.000000 0.000000 0.000000 0.046038 0.000000 0.000000
# 5 0.000000 0.000000 0.000000 0.000000 -0.050111 0.000000
# 6 0.000000 0.000000 0.000000 0.000000 0.000000 0.047726
#
#
# Mechanical properties :
#
#
# Convention : Reuss Voigt Hill
#
# Bulk Modulus (GPa) = 8.06724 13.88601 10.97662
# Shear Modulus (GPa) = 39.00245 18.11579 28.55912
#
# Velocity S-wave (km/s) = 4.35924 2.97094 3.73025
# Velocity P-wave (km/s) = 5.40998 4.30514 4.88887
#
# Compressibility (1/GPa) = 0.12395812
#
# Stress axis : x y z
#
# Youngs Moduli (GPa) = 21.22737 87.05844 40.00731
#
# Poissons Ratio (x) = -0.01406 -0.77701
# Poissons Ratio (y) = -0.00343 -0.02402
# Poissons Ratio (z) = -0.41227 -0.05227
#
# Static dielectric constant tensor:
#      x y z
#    x 1.770570 0.000000 0.000000 
#    y 0.000000 1.756560 0.000000 
#    z 0.000000 0.000000 1.704960 
# 
# From -- ./inp_files/15663.got.cif
#   From: 2010.05.17/outbox.cif.g08.bks.cpg/sg38_8_cif.got.tgz:15663.got - 2010.06.03 18:07:57.
