data_PCOD9358918
_publ_section_title
;
Structure prediction by ZEFSAII (Michael W. Deem and Ramdas Pophale) SiO2 
 PCOD9358918
Probable space group: A M M 2
;
_chemical_formula_sum "Si O2"
_cell_formula_units_Z 64
_cell_length_a 16.049939
_cell_length_b 15.654900
_cell_length_c 13.290351
_cell_angle_alpha 90.000000
_cell_angle_beta 90.000000
_cell_angle_gamma 90.000000
_cell_volume 3339.336118
_symmetry_space_group_name_H-M "A M M 2"
_symmetry_group_IT_number 38
_symmetry_cell_setting 'orthorhombic'
loop_
_space_group_symop_operation_xyz
x,y,z
-x,-y,z
-x,y,z
x,-y,z
x,1/2+y,1/2+z
-x,1/2-y,1/2+z
-x,1/2+y,1/2+z
x,1/2-y,1/2+z
loop_
_atom_site_type_symbol
_atom_site_label
_atom_site_fract_x
_atom_site_fract_y
_atom_site_fract_z
Si Si1 0.801607 0.665412 0.593480
Si Si2 0.178225 0.591089 0.905241
Si Si3 0.100846 0.400951 0.398640
Si Si4 0.098274 0.234332 0.285035
Si Si5 0.678225 0.408911 0.734586
Si Si6 0.401726 0.265668 0.854792
Si Si7 0.301606 0.165412 0.546347
Si Si8 0.399154 0.599049 0.241187
O O1 0.853834 0.627713 0.501405
O O2 0.860088 0.693476 0.686705
O O3 0.730828 0.601170 0.633381
O O4 0.750000 0.750000 0.569913
O O5 0.133277 0.500000 0.901080
O O6 0.122374 0.672285 0.878145
O O7 0.250000 0.590705 0.819913
O O8 0.230828 0.601169 0.006445
O O9 0.120251 0.500000 0.374830
O O10 0.125746 0.330419 0.314636
O O11 0.000000 0.394726 0.410977
O O12 0.000000 0.235191 0.270984
O O13 0.633278 0.500000 0.738747
O O14 0.622374 0.327715 0.761682
O O15 0.500000 0.264809 0.868843
O O16 0.374254 0.169581 0.825191
O O17 0.360088 0.306524 0.953122
O O18 0.353834 0.127713 0.638422
O O19 0.500000 0.605274 0.228850
O O20 0.379749 0.500000 0.264996
#
# Coordination Sequence:
#
# PCOD9358918 Si02
#       8
#     8   8   8   8   8   8   8   8
#     4  11  20  35  58  84 115 149 188 235 286 340
#     4   9  18  33  54  80 110 139 177 227 280 336
#     4  10  21  38  60  86 116 155 199 237 282 346
#     4  10  21  37  57  81 113 149 188 238 289 339
#     4   9  18  33  54  80 110 139 177 227 280 336
#     4  10  21  37  57  81 113 149 188 238 289 339
#     4  11  20  35  58  84 115 149 188 235 286 340
#     4  10  21  38  60  86 116 155 199 237 282 346
#
# _framework density 19.165486000000001
#
# number of rings (size 3 to 8) (size 9 to 14) (size 15 to 20)
#    0.000    2.000    2.500    1.500    0.000    1.500 
#    0.000    3.750    0.000    0.000    0.000    0.000 
#    0.000    0.000    0.000    0.000    0.000    0.000 
#
# Total GULP energy -178344.163607 kJ/mol
# GULP energy per Si atom -5573.255113 kJ/mol
# Density = 1.912186 g / cm^3
# Si number density = 19.165486 Si / 1000 Ang^3
#
#
#
# Elastic Constant Matrix: (Units=GPa)
#
#
# Indices 1 2 3 4 5 6 
#
# 1 32.7949 18.0114 5.5374 0.0000 0.0000 0.0000
# 2 18.0114 141.9411 2.2023 0.0000 0.0000 0.0000
# 3 5.5374 2.2023 20.3464 0.0000 0.0000 0.0000
# 4 0.0000 0.0000 0.0000 16.7673 0.0000 0.0000
# 5 0.0000 0.0000 0.0000 0.0000 16.3165 0.0000
# 6 0.0000 0.0000 0.0000 0.0000 0.0000 28.1381
#
#
#
# Elastic Compliance Matrix: (Units=1/GPa)
#
#
# Indices 1 2 3 4 5 6 
#
# 1 0.034307 -0.004216 -0.008881 0.000000 0.000000 0.000000
# 2 -0.004216 0.007575 0.000327 0.000000 0.000000 0.000000
# 3 -0.008881 0.000327 0.051530 0.000000 0.000000 0.000000
# 4 0.000000 0.000000 0.000000 0.059640 0.000000 0.000000
# 5 0.000000 0.000000 0.000000 0.000000 0.061288 0.000000
# 6 0.000000 0.000000 0.000000 0.000000 0.000000 0.035539
#
#
# Mechanical properties :
#
#
# Convention : Reuss Voigt Hill
#
# Bulk Modulus (GPa) = 14.73300 27.39830 21.06565
# Shear Modulus (GPa) = 16.77618 23.53315 20.15466
#
# Velocity S-wave (km/s) = 2.96181 3.50793 3.24638
# Velocity P-wave (km/s) = 4.40459 5.54384 5.00672
#
# Compressibility (1/GPa) = 0.06787482
#
# Stress axis : x y z
#
# Youngs Moduli (GPa) = 29.14832 132.01270 19.40608
#
# Poissons Ratio (x) = 0.55651 0.17234
# Poissons Ratio (y) = 0.12288 -0.00635
# Poissons Ratio (z) = 0.25886 -0.04322
#
# Static dielectric constant tensor:
#      x y z
#    x 1.659590 0.000000 0.000000 
#    y 0.000000 1.724000 0.000000 
#    z 0.000000 0.000000 1.706730 
# 
# From -- ./inp_files/10625.got.cif
#   From: 2010.05.17/outbox.cif.g08.bks.cpg/sg38_6_cif.got.tgz:10625.got - 2010.06.03 18:07:57.
