data_PCOD9358350
_publ_section_title
;
Structure prediction by ZEFSAII (Michael W. Deem and Ramdas Pophale) SiO2 
 PCOD9358350
Probable space group: A M M 2
;
_chemical_formula_sum "Si O2"
_cell_formula_units_Z 48
_cell_length_a 7.525670
_cell_length_b 28.241198
_cell_length_c 9.854442
_cell_angle_alpha 90.000000
_cell_angle_beta 90.000000
_cell_angle_gamma 90.000000
_cell_volume 2094.403351
_symmetry_space_group_name_H-M "A M M 2"
_symmetry_group_IT_number 38
_symmetry_cell_setting 'orthorhombic'
loop_
_space_group_symop_operation_xyz
x,y,z
-x,-y,z
-x,y,z
x,-y,z
x,1/2+y,1/2+z
-x,1/2-y,1/2+z
-x,1/2+y,1/2+z
x,1/2-y,1/2+z
loop_
_atom_site_type_symbol
_atom_site_label
_atom_site_fract_x
_atom_site_fract_y
_atom_site_fract_z
Si Si1 0.707166 0.089028 0.214620
Si Si2 0.784587 0.628075 0.213964
Si Si3 0.294292 0.773936 0.591090
Si Si4 0.786212 0.050929 0.500528
Si Si5 0.795124 0.447424 0.426217
Si Si6 0.718524 0.305873 0.793803
O O1 0.500000 0.093910 0.180992
O O2 0.728098 0.056905 0.346641
O O3 0.775823 0.140948 0.257160
O O4 0.793494 0.065768 0.083800
O O5 0.715086 0.680468 0.189206
O O6 0.722489 0.597439 0.342969
O O7 0.000000 0.632205 0.216001
O O8 0.726310 0.595551 0.087430
O O9 0.500000 0.762104 0.565797
O O10 0.220274 0.729871 0.675885
O O11 0.220284 0.788768 0.443433
O O12 0.000000 0.051531 0.504607
O O13 0.727104 0.000000 0.556018
O O14 0.716081 0.500000 0.406095
O O15 0.000000 0.450846 0.379601
O O16 0.500000 0.306191 0.797523
#
# Coordination Sequence:
#
# PCOD9358350 Si02
#       6
#     8   8   8   8   8   8
#     4  11  22  37  57  86 117 146 187 239 284 330
#     4  10  21  38  59  85 114 146 189 240 283 329
#     4  10  20  38  60  83 112 149 189 230 280 343
#     4  10  20  36  59  83 110 149 189 227 281 345
#     4  10  22  40  59  81 114 156 195 230 278 340
#     4   9  20  36  58  84 111 146 187 228 280 340
#
# _framework density 22.918222
#
# number of rings (size 3 to 8) (size 9 to 14) (size 15 to 20)
#    0.000    2.000    1.667    1.500    2.333    5.333 
#    0.000    2.500    0.000    3.000    0.000    0.000 
#    0.000    0.000    0.000    0.000    0.000    0.000 
#
# Total GULP energy -134089.822033 kJ/mol
# GULP energy per Si atom -5587.075918 kJ/mol
# Density = 2.286606 g / cm^3
# Si number density = 22.918222 Si / 1000 Ang^3
#
#
#
# Elastic Constant Matrix: (Units=GPa)
#
#
# Indices 1 2 3 4 5 6 
#
# 1 57.0360 -2.6786 -5.5507 0.0000 0.0000 0.0000
# 2 -2.6786 113.0567 1.2855 0.0000 0.0000 0.0000
# 3 -5.5507 1.2855 72.4802 0.0000 0.0000 0.0000
# 4 0.0000 0.0000 0.0000 51.6031 0.0000 0.0000
# 5 0.0000 0.0000 0.0000 0.0000 -0.9063 0.0000
# 6 0.0000 0.0000 0.0000 0.0000 0.0000 21.3769
#
#
#
# Elastic Compliance Matrix: (Units=1/GPa)
#
#
# Indices 1 2 3 4 5 6 
#
# 1 0.017683 0.000404 0.001347 0.000000 0.000000 0.000000
# 2 0.000404 0.008856 -0.000126 0.000000 0.000000 0.000000
# 3 0.001347 -0.000126 0.013902 0.000000 0.000000 0.000000
# 4 0.000000 0.000000 0.000000 0.019379 0.000000 0.000000
# 5 0.000000 0.000000 0.000000 0.000000 -1.103412 0.000000
# 6 0.000000 0.000000 0.000000 0.000000 0.000000 0.046779
#
#
# Mechanical properties :
#
#
# Convention : Reuss Voigt Hill
#
# Bulk Modulus (GPa) = 22.88840 25.40948 24.14894
# Shear Modulus (GPa) = -5.07358 31.04919 12.98781
#
# Velocity S-wave (km/s) = -1.48949 3.68473 2.38313
# Velocity P-wave (km/s) = 2.65529 5.40500 4.25821
#
# Compressibility (1/GPa) = 0.04369025
#
# Stress axis : x y z
#
# Youngs Moduli (GPa) = 56.55199 112.91635 71.93072
#
# Poissons Ratio (x) = -0.04558 -0.09689
# Poissons Ratio (y) = -0.02283 0.00908
# Poissons Ratio (z) = -0.07618 0.01425
#
# Static dielectric constant tensor:
#      x y z
#    x 1.904010 0.000000 0.000000 
#    y 0.000000 1.786910 0.000000 
#    z 0.000000 0.000000 1.822920 
# 
# From -- ./inp_files/3750.got.cif
#   From: 2010.05.17/outbox.cif.g08.bks.cpg/sg38_2_cif.got.tgz:3750.got - 2010.06.03 18:07:57.
