data_PCOD9358725
_publ_section_title
;
Structure prediction by ZEFSAII (Michael W. Deem and Ramdas Pophale) SiO2 
 PCOD9358725
Probable space group: A M M 2
;
_chemical_formula_sum "Si O2"
_cell_formula_units_Z 64
_cell_length_a 14.493452
_cell_length_b 8.237067
_cell_length_c 26.792682
_cell_angle_alpha 90.000000
_cell_angle_beta 90.000000
_cell_angle_gamma 90.000000
_cell_volume 3198.605094
_symmetry_space_group_name_H-M "A M M 2"
_symmetry_group_IT_number 38
_symmetry_cell_setting 'orthorhombic'
loop_
_space_group_symop_operation_xyz
x,y,z
-x,-y,z
-x,y,z
x,-y,z
x,1/2+y,1/2+z
-x,1/2-y,1/2+z
-x,1/2+y,1/2+z
x,1/2-y,1/2+z
loop_
_atom_site_type_symbol
_atom_site_label
_atom_site_fract_x
_atom_site_fract_y
_atom_site_fract_z
Si Si1 0.605508 0.695942 0.266760
Si Si2 0.103539 0.306603 0.407226
Si Si3 0.713740 0.694064 0.669137
Si Si4 0.887853 0.814655 0.515399
Si Si5 0.392712 0.693637 0.962592
Si Si6 0.894371 0.196349 0.624728
Si Si7 0.607552 0.304187 0.570288
Si Si8 0.287706 0.805002 0.864460
O O1 0.500000 0.755651 0.264336
O O2 0.602143 0.500000 0.269552
O O3 0.661994 0.742441 0.217725
O O4 0.657112 0.757191 0.316499
O O5 0.097966 0.500000 0.400279
O O6 0.134171 0.276469 0.464491
O O7 0.183351 0.241485 0.371319
O O8 0.000000 0.238693 0.400648
O O9 0.709249 0.500000 0.669336
O O10 0.819693 0.748140 0.664528
O O11 0.662284 0.754140 0.618841
O O12 0.862803 0.743905 0.569474
O O13 0.000000 0.820639 0.517533
O O14 0.853939 0.000000 0.511091
O O15 0.500000 0.747452 0.960998
O O16 0.389791 0.500000 0.958743
O O17 0.340556 0.766880 0.915599
O O18 0.355507 0.743271 0.017044
O O19 0.000000 0.248595 0.634066
O O20 0.894910 0.000000 0.621932
O O21 0.500000 0.253219 0.574351
O O22 0.609830 0.500000 0.569586
O O23 0.282465 0.000000 0.859620
#
# Coordination Sequence:
#
# PCOD9358725 Si02
#       8
#     8   8   8   8   8   8   8   8
#     4  10  22  41  63  84 108 145 193 241 289 347
#     4   9  18  32  51  78 112 147 185 228 272 324
#     4  11  23  37  58  86 115 147 188 239 294 344
#     4   8  15  29  49  74 107 147 186 224 267 316
#     4  10  21  35  53  81 113 143 179 228 285 341
#     4   9  19  36  56  80 114 155 196 235 278 334
#     4   9  19  36  55  77 110 149 183 220 278 349
#     4  10  21  37  58  82 111 148 191 233 280 337
#
# _framework density 20.008723
#
# number of rings (size 3 to 8) (size 9 to 14) (size 15 to 20)
#    0.000    2.500    0.000    2.250    1.750    4.750 
#    0.000    3.125    0.000    2.250    0.000    0.000 
#    0.000    0.000    0.000    0.000    0.000    0.000 
#
# Total GULP energy -178618.345089 kJ/mol
# GULP energy per Si atom -5581.823284 kJ/mol
# Density = 1.996318 g / cm^3
# Si number density = 20.008723 Si / 1000 Ang^3
#
#
#
# Elastic Constant Matrix: (Units=GPa)
#
#
# Indices 1 2 3 4 5 6 
#
# 1 141.3413 11.5054 93.4377 0.0000 0.0000 0.0000
# 2 11.5054 5.8876 7.1829 0.0000 0.0000 0.0000
# 3 93.4377 7.1829 145.9027 0.0000 0.0000 0.0000
# 4 0.0000 0.0000 0.0000 24.3405 0.0000 0.0000
# 5 0.0000 0.0000 0.0000 0.0000 36.7505 0.0000
# 6 0.0000 0.0000 0.0000 0.0000 0.0000 15.6828
#
#
#
# Elastic Compliance Matrix: (Units=1/GPa)
#
#
# Indices 1 2 3 4 5 6 
#
# 1 0.013720 -0.017120 -0.007944 0.000000 0.000000 0.000000
# 2 -0.017120 0.202065 0.001016 0.000000 0.000000 0.000000
# 3 -0.007944 0.001016 0.011891 0.000000 0.000000 0.000000
# 4 0.000000 0.000000 0.000000 0.041084 0.000000 0.000000
# 5 0.000000 0.000000 0.000000 0.000000 0.027210 0.000000
# 6 0.000000 0.000000 0.000000 0.000000 0.000000 0.063764
#
#
# Mechanical properties :
#
#
# Convention : Reuss Voigt Hill
#
# Bulk Modulus (GPa) = 5.56852 57.48708 31.52780
# Shear Modulus (GPa) = 10.69083 27.42181 19.05632
#
# Velocity S-wave (km/s) = 2.31402 3.70603 3.08945
# Velocity P-wave (km/s) = 3.15098 6.86340 5.34018
#
# Compressibility (1/GPa) = 0.17958107
#
# Stress axis : x y z
#
# Youngs Moduli (GPa) = 72.88593 4.94889 84.09681
#
# Poissons Ratio (x) = 0.08473 0.66804
# Poissons Ratio (y) = 1.24783 -0.08546
# Poissons Ratio (z) = 0.57898 -0.00503
#
# Static dielectric constant tensor:
#      x y z
#    x 1.755920 0.000000 0.000000 
#    y 0.000000 1.698820 0.000000 
#    z 0.000000 0.000000 1.683200 
# 
# From -- ./inp_files/23005.got.cif
#   From: 2010.05.17/outbox.cif.g08.bks.cpg/sg38_12_cif.got.tgz:23005.got - 2010.06.03 18:07:57.
