data_PCOD9358719
_publ_section_title
;
Structure prediction by ZEFSAII (Michael W. Deem and Ramdas Pophale) SiO2 
 PCOD9358719
Probable space group: A M M 2
;
_chemical_formula_sum "Si O2"
_cell_formula_units_Z 64
_cell_length_a 14.138736
_cell_length_b 9.387699
_cell_length_c 26.590639
_cell_angle_alpha 90.000000
_cell_angle_beta 90.000000
_cell_angle_gamma 90.000000
_cell_volume 3529.380774
_symmetry_space_group_name_H-M "A M M 2"
_symmetry_group_IT_number 38
_symmetry_cell_setting 'orthorhombic'
loop_
_space_group_symop_operation_xyz
x,y,z
-x,-y,z
-x,y,z
x,-y,z
x,1/2+y,1/2+z
-x,1/2-y,1/2+z
-x,1/2+y,1/2+z
x,1/2-y,1/2+z
loop_
_atom_site_type_symbol
_atom_site_label
_atom_site_fract_x
_atom_site_fract_y
_atom_site_fract_z
Si Si1 0.611348 0.329041 0.610680
Si Si2 0.891129 0.668391 0.765770
Si Si3 0.890978 0.330313 0.966203
Si Si4 0.298237 0.169627 0.216722
Si Si5 0.614355 0.165180 0.810797
Si Si6 0.385836 0.165165 0.410031
Si Si7 0.295710 0.329975 0.017530
Si Si8 0.885040 0.837754 0.865784
O O1 0.500000 0.295457 0.612728
O O2 0.621039 0.500000 0.605725
O O3 0.660419 0.286014 0.663081
O O4 0.658808 0.253069 0.563407
O O5 0.888880 0.500000 0.778442
O O6 0.814312 0.692885 0.722502
O O7 0.859831 0.757020 0.814607
O O8 0.000000 0.704528 0.753129
O O9 0.886936 0.500000 0.956396
O O10 0.860281 0.249152 0.915700
O O11 0.000000 0.293523 0.977889
O O12 0.815440 0.298963 0.009485
O O13 0.346970 0.251044 0.262722
O O14 0.316057 0.000000 0.222464
O O15 0.500000 0.172196 0.809626
O O16 0.644955 0.238493 0.863148
O O17 0.642305 0.000000 0.809166
O O18 0.500000 0.171364 0.412928
O O19 0.344862 0.206989 0.464217
O O20 0.358742 0.000000 0.400582
O O21 0.307848 0.500000 0.024590
O O22 0.000000 0.840936 0.865581
O O23 0.851006 0.000000 0.867142
#
# Coordination Sequence:
#
# PCOD9358719 Si02
#       8
#     8   8   8   8   8   8   8   8
#     4  10  22  40  60  82 108 139 178 228 284 335
#     4   9  18  33  53  77 107 144 185 224 262 313
#     4   9  18  33  52  76 110 149 187 224 263 315
#     4  10  21  37  58  80 106 143 185 223 269 329
#     4  10  21  35  52  79 112 142 175 220 275 329
#     4   9  18  33  52  75 105 140 177 219 270 328
#     4  10  21  36  57  82 107 141 187 229 270 322
#     4   9  17  29  47  74 109 146 181 220 266 313
#
# _framework density 18.133492
#
# number of rings (size 3 to 8) (size 9 to 14) (size 15 to 20)
#    0.000    2.500    0.000    1.500    1.750    5.500 
#    0.000    1.875    0.000    0.750    0.000    0.000 
#    0.000    0.000    0.000    0.000    0.000    0.000 
#
# Total GULP energy -178612.739597 kJ/mol
# GULP energy per Si atom -5581.648112 kJ/mol
# Density = 1.809222 g / cm^3
# Si number density = 18.133492 Si / 1000 Ang^3
#
#
#
# Elastic Constant Matrix: (Units=GPa)
#
#
# Indices 1 2 3 4 5 6 
#
# 1 102.0455 50.3963 83.9451 0.0000 0.0000 0.0000
# 2 50.3963 52.8297 71.4805 0.0000 0.0000 0.0000
# 3 83.9451 71.4805 164.6973 0.0000 0.0000 0.0000
# 4 0.0000 0.0000 0.0000 32.9797 0.0000 0.0000
# 5 0.0000 0.0000 0.0000 0.0000 34.7570 0.0000
# 6 0.0000 0.0000 0.0000 0.0000 0.0000 19.1907
#
#
#
# Elastic Compliance Matrix: (Units=1/GPa)
#
#
# Indices 1 2 3 4 5 6 
#
# 1 0.019874 -0.012725 -0.004606 0.000000 0.000000 0.000000
# 2 -0.012725 0.054007 -0.016953 0.000000 0.000000 0.000000
# 3 -0.004606 -0.016953 0.015778 0.000000 0.000000 0.000000
# 4 0.000000 0.000000 0.000000 0.030322 0.000000 0.000000
# 5 0.000000 0.000000 0.000000 0.000000 0.028771 0.000000
# 6 0.000000 0.000000 0.000000 0.000000 0.000000 0.052109
#
#
# Mechanical properties :
#
#
# Convention : Reuss Voigt Hill
#
# Bulk Modulus (GPa) = 47.42222 81.24626 64.33424
# Shear Modulus (GPa) = 18.08588 24.96886 21.52737
#
# Velocity S-wave (km/s) = 3.16155 3.71475 3.44926
# Velocity P-wave (km/s) = 6.28774 7.95619 7.17066
#
# Compressibility (1/GPa) = 0.02108716
#
# Stress axis : x y z
#
# Youngs Moduli (GPa) = 50.31826 18.51622 63.38105
#
# Poissons Ratio (x) = 0.23563 0.29196
# Poissons Ratio (y) = 0.64032 1.07453
# Poissons Ratio (z) = 0.23179 0.31391
#
# Static dielectric constant tensor:
#      x y z
#    x 1.671200 0.000000 0.000000 
#    y 0.000000 1.612500 0.000000 
#    z 0.000000 0.000000 1.568690 
# 
# From -- ./inp_files/22926.got.cif
#   From: 2010.05.17/outbox.cif.g08.bks.cpg/sg38_12_cif.got.tgz:22926.got - 2010.06.03 18:07:57.
