data_PCOD9358548
_publ_section_title
;
Structure prediction by ZEFSAII (Michael W. Deem and Ramdas Pophale) SiO2 
 PCOD9358548
Probable space group: A M M 2
;
_chemical_formula_sum "Si O2"
_cell_formula_units_Z 64
_cell_length_a 16.643855
_cell_length_b 34.229320
_cell_length_c 5.218344
_cell_angle_alpha 90.000000
_cell_angle_beta 90.000000
_cell_angle_gamma 90.000000
_cell_volume 2972.931483
_symmetry_space_group_name_H-M "A M M 2"
_symmetry_group_IT_number 38
_symmetry_cell_setting 'orthorhombic'
loop_
_space_group_symop_operation_xyz
x,y,z
-x,-y,z
-x,y,z
x,-y,z
x,1/2+y,1/2+z
-x,1/2-y,1/2+z
-x,1/2+y,1/2+z
x,1/2-y,1/2+z
loop_
_atom_site_type_symbol
_atom_site_label
_atom_site_fract_x
_atom_site_fract_y
_atom_site_fract_z
Si Si1 0.174886 0.728057 0.754800
Si Si2 0.589525 0.566156 0.440438
Si Si3 0.243521 0.043637 0.176099
Si Si4 0.906208 0.853360 0.382446
Si Si5 0.368310 0.229064 0.193557
Si Si6 0.303750 0.896141 0.580504
Si Si7 0.158364 0.604212 0.382661
Si Si8 0.586661 0.353194 0.753494
O O1 0.147359 0.740340 0.469107
O O2 0.144626 0.686526 0.860469
O O3 0.271421 0.727952 0.720742
O O4 0.500000 0.549022 0.449858
O O5 0.666103 0.543788 0.556677
O O6 0.586610 0.608089 0.581203
O O7 0.619786 0.577376 0.157139
O O8 0.250028 0.076036 0.400014
O O9 0.224700 0.000000 0.264318
O O10 0.178639 0.059566 0.968823
O O11 0.886541 0.880469 0.629209
O O12 0.000000 0.843692 0.386641
O O13 0.883483 0.876373 0.124216
O O14 0.395196 0.240431 0.478422
O O15 0.400051 0.186970 0.109390
O O16 0.250631 0.883158 0.821502
O O17 0.338607 0.858934 0.440889
O O18 0.500000 0.351891 0.887608
#
# Coordination Sequence:
#
# PCOD9358548 Si02
#       8
#     8   8   8   8   8   8   8   8
#     4  10  22  40  62  95 132 171 213 263 324 388
#     4   9  20  36  57  93 132 172 216 271 331 387
#     4  10  22  41  66  97 129 172 221 271 325 390
#     4  12  25  43  71 102 135 172 212 262 325 397
#     4  10  23  38  55  83 119 165 217 272 325 380
#     4  10  20  37  65  93 124 171 221 267 323 386
#     4  11  23  43  66 101 131 172 214 270 312 390
#     4  10  21  36  57  84 124 173 226 280 329 382
#
# _framework density 21.527570999999998
#
# number of rings (size 3 to 8) (size 9 to 14) (size 15 to 20)
#    0.000    1.750    1.250    2.250    5.250    4.750 
#    0.000    0.000    0.000    2.250    0.000    0.000 
#    0.000    0.000    0.000    0.000    0.000    0.000 
#
# Total GULP energy -178392.365141 kJ/mol
# GULP energy per Si atom -5574.761411 kJ/mol
# Density = 2.147857 g / cm^3
# Si number density = 21.527571 Si / 1000 Ang^3
#
#
#
# Elastic Constant Matrix: (Units=GPa)
#
#
# Indices 1 2 3 4 5 6 
#
# 1 50.9153 9.6143 17.8498 0.0000 0.0000 0.0000
# 2 9.6143 67.5188 13.1570 0.0000 0.0000 0.0000
# 3 17.8498 13.1570 99.1117 0.0000 0.0000 0.0000
# 4 0.0000 0.0000 0.0000 5.6092 0.0000 0.0000
# 5 0.0000 0.0000 0.0000 0.0000 25.4527 0.0000
# 6 0.0000 0.0000 0.0000 0.0000 0.0000 9.5523
#
#
#
# Elastic Compliance Matrix: (Units=1/GPa)
#
#
# Indices 1 2 3 4 5 6 
#
# 1 0.021321 -0.002348 -0.003528 0.000000 0.000000 0.000000
# 2 -0.002348 0.015463 -0.001630 0.000000 0.000000 0.000000
# 3 -0.003528 -0.001630 0.010941 0.000000 0.000000 0.000000
# 4 0.000000 0.000000 0.000000 0.178279 0.000000 0.000000
# 5 0.000000 0.000000 0.000000 0.000000 0.039289 0.000000
# 6 0.000000 0.000000 0.000000 0.000000 0.000000 0.104687
#
#
# Mechanical properties :
#
#
# Convention : Reuss Voigt Hill
#
# Bulk Modulus (GPa) = 30.56949 33.19865 31.88407
# Shear Modulus (GPa) = 12.62959 19.91782 16.27370
#
# Velocity S-wave (km/s) = 2.42476 3.04505 2.75243
# Velocity P-wave (km/s) = 4.69790 5.27428 4.99441
#
# Compressibility (1/GPa) = 0.03271235
#
# Stress axis : x y z
#
# Youngs Moduli (GPa) = 46.90263 64.67187 91.39627
#
# Poissons Ratio (x) = 0.15188 0.32245
# Poissons Ratio (y) = 0.11015 0.14895
# Poissons Ratio (z) = 0.16548 0.10540
#
# Static dielectric constant tensor:
#      x y z
#    x 1.803250 0.000000 0.000000 
#    y 0.000000 1.789490 0.000000 
#    z 0.000000 0.000000 1.857100 
# 
# From -- ./inp_files/1745.got.cif
#   From: 2010.05.17/outbox.cif.g08.bks.cpg/sg38_1_cif.got.tgz:1745.got - 2010.06.03 18:07:57.
