data_PCOD9358182
_publ_section_title
;
Structure prediction by ZEFSAII (Michael W. Deem and Ramdas Pophale) SiO2 
 PCOD9358182
Probable space group: A M M 2
;
_chemical_formula_sum "Si O2"
_cell_formula_units_Z 64
_cell_length_a 9.055686
_cell_length_b 25.453138
_cell_length_c 15.026277
_cell_angle_alpha 90.000000
_cell_angle_beta 90.000000
_cell_angle_gamma 90.000000
_cell_volume 3463.491115
_symmetry_space_group_name_H-M "A M M 2"
_symmetry_group_IT_number 38
_symmetry_cell_setting 'orthorhombic'
loop_
_space_group_symop_operation_xyz
x,y,z
-x,-y,z
-x,y,z
x,-y,z
x,1/2+y,1/2+z
-x,1/2-y,1/2+z
-x,1/2+y,1/2+z
x,1/2-y,1/2+z
loop_
_atom_site_type_symbol
_atom_site_label
_atom_site_fract_x
_atom_site_fract_y
_atom_site_fract_z
Si Si1 0.322976 0.849511 0.077700
Si Si2 0.823972 0.329347 0.765889
Si Si3 0.825401 0.633944 0.956577
Si Si4 0.176021 0.939839 0.962523
Si Si5 0.671014 0.768197 0.543029
Si Si6 0.326324 0.937442 0.599395
Si Si7 0.671520 0.280372 0.257129
Si Si8 0.175106 0.889324 0.773672
O O1 0.500000 0.850786 0.085843
O O2 0.251200 0.849098 0.175553
O O3 0.285699 0.792870 0.033430
O O4 0.262494 0.897677 0.021034
O O5 0.795684 0.365769 0.851246
O O6 0.755773 0.272054 0.786028
O O7 0.000000 0.324662 0.753493
O O8 0.000000 0.627798 0.970939
O O9 0.773340 0.690430 0.993813
O O10 0.738487 0.590659 0.012536
O O11 0.200356 0.926127 0.858913
O O12 0.000000 0.934444 0.979110
O O13 0.218666 0.000000 0.980814
O O14 0.500000 0.774808 0.514840
O O15 0.677107 0.780061 0.648986
O O16 0.500000 0.925165 0.607296
O O17 0.243796 0.914491 0.685377
O O18 0.307522 0.000000 0.595302
O O19 0.500000 0.278494 0.283755
O O20 0.748648 0.333193 0.289682
O O21 0.000000 0.882123 0.761822
#
# Coordination Sequence:
#
# PCOD9358182 Si02
#       8
#     8   8   8   8   8   8   8   8
#     4  10  22  40  62  89 117 155 201 247 302 356
#     4  10  22  39  59  87 122 158 198 246 300 356
#     4  11  23  37  59  89 119 156 202 247 296 352
#     4  10  23  42  62  86 118 157 201 250 302 354
#     4   9  19  35  55  83 119 154 190 236 293 353
#     4  11  24  41  61  86 120 161 202 247 299 353
#     4  10  20  35  56  86 122 159 196 237 291 352
#     4  11  22  37  60  89 121 158 199 243 293 355
#
# _framework density 18.478466000000001
#
# number of rings (size 3 to 8) (size 9 to 14) (size 15 to 20)
#    0.000    1.750    1.250    3.375    1.750    7.250 
#    0.000    0.625    0.000    0.750    0.000    0.000 
#    0.000    0.000    0.000    0.000    0.000    0.000 
#
# Total GULP energy -178852.627466 kJ/mol
# GULP energy per Si atom -5589.144608 kJ/mol
# Density = 1.843641 g / cm^3
# Si number density = 18.478466 Si / 1000 Ang^3
#
#
#
# Elastic Constant Matrix: (Units=GPa)
#
#
# Indices 1 2 3 4 5 6 
#
# 1 78.5888 45.9111 41.3249 0.0000 0.0000 0.0000
# 2 45.9111 87.5446 29.3103 0.0000 0.0000 0.0000
# 3 41.3249 29.3103 53.0425 0.0000 0.0000 0.0000
# 4 0.0000 0.0000 0.0000 25.6295 0.0000 0.0000
# 5 0.0000 0.0000 0.0000 0.0000 -139.9430 0.0000
# 6 0.0000 0.0000 0.0000 0.0000 0.0000 27.7497
#
#
#
# Elastic Compliance Matrix: (Units=1/GPa)
#
#
# Indices 1 2 3 4 5 6 
#
# 1 0.025687 -0.008308 -0.015422 0.000000 0.000000 0.000000
# 2 -0.008308 0.016703 -0.002757 0.000000 0.000000 0.000000
# 3 -0.015422 -0.002757 0.032391 0.000000 0.000000 0.000000
# 4 0.000000 0.000000 0.000000 0.039018 0.000000 0.000000
# 5 0.000000 0.000000 0.000000 0.000000 -0.007146 0.000000
# 6 0.000000 0.000000 0.000000 0.000000 0.000000 0.036036
#
#
# Mechanical properties :
#
#
# Convention : Reuss Voigt Hill
#
# Bulk Modulus (GPa) = 45.85539 50.25207 48.05373
# Shear Modulus (GPa) = 24.63872 -10.47081 7.08396
#
# Velocity S-wave (km/s) = 3.65550 -2.38302 1.96009
# Velocity P-wave (km/s) = 6.53348 4.43647 5.58429
#
# Compressibility (1/GPa) = 0.02180769
#
# Stress axis : x y z
#
# Youngs Moduli (GPa) = 38.92971 59.87044 30.87245
#
# Poissons Ratio (x) = 0.49740 0.47611
# Poissons Ratio (y) = 0.32342 0.08512
# Poissons Ratio (z) = 0.60037 0.16506
#
# Static dielectric constant tensor:
#      x y z
#    x 1.616640 0.000000 0.000000 
#    y 0.000000 1.614260 0.000000 
#    z 0.000000 0.000000 1.637550 
# 
# From -- ./inp_files/12764.got.cif
#   From: 2010.05.17/outbox.cif.g08.bks.cpg/sg38_7_cif.got.tgz:12764.got - 2010.06.03 18:07:57.
