data_PCOD9358658
_publ_section_title
;
Structure prediction by ZEFSAII (Michael W. Deem and Ramdas Pophale) SiO2 
 PCOD9358658
Probable space group: A M M 2
;
_chemical_formula_sum "Si O2"
_cell_formula_units_Z 48
_cell_length_a 7.689041
_cell_length_b 9.162894
_cell_length_c 35.512962
_cell_angle_alpha 90.000000
_cell_angle_beta 90.000000
_cell_angle_gamma 90.000000
_cell_volume 2502.025524
_symmetry_space_group_name_H-M "A M M 2"
_symmetry_group_IT_number 38
_symmetry_cell_setting 'orthorhombic'
loop_
_space_group_symop_operation_xyz
x,y,z
-x,-y,z
-x,y,z
x,-y,z
x,1/2+y,1/2+z
-x,1/2-y,1/2+z
-x,1/2+y,1/2+z
x,1/2-y,1/2+z
loop_
_atom_site_type_symbol
_atom_site_label
_atom_site_fract_x
_atom_site_fract_y
_atom_site_fract_z
Si Si1 0.000000 0.324629 0.458350
Si Si2 0.206252 0.835202 0.168243
Si Si3 0.703033 0.174234 0.018078
Si Si4 0.000000 0.324670 0.877646
Si Si5 0.292680 0.336926 0.093182
Si Si6 0.708489 0.826155 0.827588
Si Si7 0.292135 0.333294 0.751352
O O1 0.169676 0.290907 0.483647
O O2 0.000000 0.234317 0.420166
O O3 0.000000 0.500000 0.450603
O O4 0.263115 0.742618 0.132623
O O5 0.249470 0.775957 0.209719
O O6 0.000000 0.845316 0.166137
O O7 0.280657 0.000000 0.166151
O O8 0.500000 0.213376 0.010899
O O9 0.767935 0.249100 0.056509
O O10 0.709321 0.000000 0.023754
O O11 0.829760 0.258895 0.856887
O O12 0.000000 0.500000 0.875701
O O13 0.500000 0.345642 0.088640
O O14 0.219805 0.500000 0.093983
O O15 0.500000 0.799570 0.832887
O O16 0.761113 0.766658 0.786216
O O17 0.736363 0.000000 0.830301
O O18 0.500000 0.342506 0.753424
O O19 0.222252 0.500000 0.754619
#
# Coordination Sequence:
#
# PCOD9358658 Si02
#       7
#     4   8   8   4   8   8   8
#     4  10  22  40  62  89 118 149 192 238 289 356
#     4  10  21  34  51  79 114 152 195 238 284 340
#     4   9  19  37  61  86 114 151 192 237 290 348
#     4  12  26  42  64  93 126 161 198 242 297 362
#     4  10  21  36  54  78 110 149 193 241 290 339
#     4  10  22  41  65  92 123 160 202 249 301 358
#     4   9  18  34  56  82 113 151 195 243 294 348
#
# _framework density 19.184456999999998
#
# number of rings (size 3 to 8) (size 9 to 14) (size 15 to 20)
#    0.000    2.167    0.000    2.250    2.333    5.000 
#    0.000    3.333    0.000    0.000    0.000    0.000 
#    0.000    0.000    0.000    0.000    0.000    0.000 
#
# Total GULP energy -133947.018809 kJ/mol
# GULP energy per Si atom -5581.125784 kJ/mol
# Density = 1.914079 g / cm^3
# Si number density = 19.184457 Si / 1000 Ang^3
#
#
#
# Elastic Constant Matrix: (Units=GPa)
#
#
# Indices 1 2 3 4 5 6 
#
# 1 75.5742 51.6893 61.8312 0.0000 0.0000 0.0000
# 2 51.6893 99.8297 101.8764 0.0000 0.0000 0.0000
# 3 61.8312 101.8764 195.0105 0.0000 0.0000 0.0000
# 4 0.0000 0.0000 0.0000 39.8874 0.0000 0.0000
# 5 0.0000 0.0000 0.0000 0.0000 32.9687 0.0000
# 6 0.0000 0.0000 0.0000 0.0000 0.0000 16.7322
#
#
#
# Elastic Compliance Matrix: (Units=1/GPa)
#
#
# Indices 1 2 3 4 5 6 
#
# 1 0.020875 -0.008683 -0.002082 0.000000 0.000000 0.000000
# 2 -0.008683 0.025068 -0.010342 0.000000 0.000000 0.000000
# 3 -0.002082 -0.010342 0.011191 0.000000 0.000000 0.000000
# 4 0.000000 0.000000 0.000000 0.025071 0.000000 0.000000
# 5 0.000000 0.000000 0.000000 0.000000 0.030332 0.000000
# 6 0.000000 0.000000 0.000000 0.000000 0.000000 0.059765
#
#
# Mechanical properties :
#
#
# Convention : Reuss Voigt Hill
#
# Bulk Modulus (GPa) = 67.03683 89.02313 78.02998
# Shear Modulus (GPa) = 22.78010 28.25217 25.51613
#
# Velocity S-wave (km/s) = 3.44964 3.84169 3.65093
# Velocity P-wave (km/s) = 7.13343 8.13527 7.65077
#
# Compressibility (1/GPa) = 0.01491717
#
# Stress axis : x y z
#
# Youngs Moduli (GPa) = 47.90475 39.89210 89.35555
#
# Poissons Ratio (x) = 0.34640 0.18607
# Poissons Ratio (y) = 0.41598 0.92416
# Poissons Ratio (z) = 0.09975 0.41258
#
# Static dielectric constant tensor:
#      x y z
#    x 1.686370 0.000000 0.000000 
#    y 0.000000 1.659980 0.000000 
#    z 0.000000 0.000000 1.650240 
# 
# From -- ./inp_files/24373.got.cif
#   From: 2010.05.17/outbox.cif.g08.bks.cpg/sg38_13_cif.got.tgz:24373.got - 2010.06.03 18:07:57.
