data_PCOD9358570
_publ_section_title
;
Structure prediction by ZEFSAII (Michael W. Deem and Ramdas Pophale) SiO2 
 PCOD9358570
Probable space group: A M M 2
;
_chemical_formula_sum "Si O2"
_cell_formula_units_Z 34
_cell_length_a 7.504469
_cell_length_b 10.887878
_cell_length_c 19.774726
_cell_angle_alpha 90.000000
_cell_angle_beta 90.000000
_cell_angle_gamma 90.000000
_cell_volume 1615.748228
_symmetry_space_group_name_H-M "A M M 2"
_symmetry_group_IT_number 38
_symmetry_cell_setting 'orthorhombic'
loop_
_space_group_symop_operation_xyz
x,y,z
-x,-y,z
-x,y,z
x,-y,z
x,1/2+y,1/2+z
-x,1/2-y,1/2+z
-x,1/2+y,1/2+z
x,1/2-y,1/2+z
loop_
_atom_site_type_symbol
_atom_site_label
_atom_site_fract_x
_atom_site_fract_y
_atom_site_fract_z
Si Si1 0.787400 0.862023 0.993930
Si Si2 0.712911 0.863337 0.835609
Si Si3 0.000000 0.000000 0.636223
Si Si4 0.702196 0.788462 0.620176
Si Si5 0.715082 0.363959 0.747064
O O1 0.746931 0.842475 0.914927
O O2 0.000000 0.859295 0.002218
O O3 0.723051 0.000000 0.010650
O O4 0.709488 0.761284 0.043837
O O5 0.500000 0.867899 0.825573
O O6 0.782920 0.749310 0.792373
O O7 0.783713 0.000000 0.817294
O O8 0.155957 0.893323 0.632977
O O9 0.500000 0.828263 0.636624
O O10 0.746116 0.674636 0.669756
O O11 0.500000 0.368155 0.756564
O O12 0.783678 0.500000 0.762816
#
# Coordination Sequence:
#
# PCOD9358570 Si02
#       5
#     8   8   2   8   8
#     4  10  20  38  61  91 125 164 213 266 313 376
#     4   9  18  34  58  87 123 167 215 262 312 373
#     4  12  26  44  58  98 132 160 216 262 320 394
#     4  11  23  42  67  91 125 169 211 265 323 376
#     4   9  19  37  62  93 124 162 213 264 316 378
#
# _framework density 21.042881999999999
#
# number of rings (size 3 to 8) (size 9 to 14) (size 15 to 20)
#    0.000    2.118    1.176    1.765    1.647    2.353 
#    4.235    0.000    0.000    0.000    0.000    0.000 
#    0.000    0.000    0.000    0.000    0.000    0.000 
#
# Total GULP energy -94698.348447 kJ/mol
# GULP energy per Si atom -5570.491085 kJ/mol
# Density = 2.099499 g / cm^3
# Si number density = 21.042882 Si / 1000 Ang^3
#
#
#
# Elastic Constant Matrix: (Units=GPa)
#
#
# Indices 1 2 3 4 5 6 
#
# 1 106.2887 39.1732 2.7079 0.0000 0.0000 0.0000
# 2 39.1732 171.7499 62.4327 0.0000 0.0000 0.0000
# 3 2.7079 62.4327 64.6505 0.0000 0.0000 0.0000
# 4 0.0000 0.0000 0.0000 4.0906 0.0000 0.0000
# 5 0.0000 0.0000 0.0000 0.0000 -130.1545 0.0000
# 6 0.0000 0.0000 0.0000 0.0000 0.0000 20.3674
#
#
#
# Elastic Compliance Matrix: (Units=1/GPa)
#
#
# Indices 1 2 3 4 5 6 
#
# 1 0.010617 -0.003482 0.002918 0.000000 0.000000 0.000000
# 2 -0.003482 0.010114 -0.009621 0.000000 0.000000 0.000000
# 3 0.002918 -0.009621 0.024637 0.000000 0.000000 0.000000
# 4 0.000000 0.000000 0.000000 0.244465 0.000000 0.000000
# 5 0.000000 0.000000 0.000000 0.000000 -0.007683 0.000000
# 6 0.000000 0.000000 0.000000 0.000000 0.000000 0.049098
#
#
# Mechanical properties :
#
#
# Convention : Reuss Voigt Hill
#
# Bulk Modulus (GPa) = 40.00409 61.25740 50.63074
# Shear Modulus (GPa) = 13.89074 -5.24762 4.32156
#
# Velocity S-wave (km/s) = 2.57206 -1.58088 1.43463
# Velocity P-wave (km/s) = 5.27946 5.08347 5.18239
#
# Compressibility (1/GPa) = 0.02499744
#
# Stress axis : x y z
#
# Youngs Moduli (GPa) = 94.18428 98.87130 40.58966
#
# Poissons Ratio (x) = 0.34432 -0.11845
# Poissons Ratio (y) = 0.32800 0.39053
# Poissons Ratio (z) = -0.27486 0.95127
#
# Static dielectric constant tensor:
#      x y z
#    x 1.784410 0.000000 0.000000 
#    y 0.000000 1.744920 0.000000 
#    z 0.000000 0.000000 1.737220 
# 
# From -- ./inp_files/16265.got.cif
#   From: 2010.05.17/outbox.cif.g08.bks.cpg/sg38_9_cif.got.tgz:16265.got - 2010.06.03 18:07:57.
