data_PCOD9358753
_publ_section_title
;
Structure prediction by ZEFSAII (Michael W. Deem and Ramdas Pophale) SiO2 
 PCOD9358753
Probable space group: A M M 2
;
_chemical_formula_sum "Si O2"
_cell_formula_units_Z 64
_cell_length_a 7.883358
_cell_length_b 16.552251
_cell_length_c 23.421369
_cell_angle_alpha 90.000000
_cell_angle_beta 90.000000
_cell_angle_gamma 90.000000
_cell_volume 3056.191679
_symmetry_space_group_name_H-M "A M M 2"
_symmetry_group_IT_number 38
_symmetry_cell_setting 'orthorhombic'
loop_
_space_group_symop_operation_xyz
x,y,z
-x,-y,z
-x,y,z
x,-y,z
x,1/2+y,1/2+z
-x,1/2-y,1/2+z
-x,1/2+y,1/2+z
x,1/2-y,1/2+z
loop_
_atom_site_type_symbol
_atom_site_label
_atom_site_fract_x
_atom_site_fract_y
_atom_site_fract_z
Si Si1 0.204105 0.090159 0.105050
Si Si2 0.303780 0.590603 0.038742
Si Si3 0.704836 0.729250 0.514874
Si Si4 0.297478 0.239192 0.891175
Si Si5 0.194833 0.406491 0.166148
Si Si6 0.301060 0.414658 0.858514
Si Si7 0.801368 0.377166 0.733775
Si Si8 0.196976 0.191223 0.769198
O O1 0.264613 0.102666 0.170645
O O2 0.000000 0.089170 0.108132
O O3 0.260351 0.000000 0.085679
O O4 0.247016 0.164934 0.063569
O O5 0.500000 0.588115 0.019729
O O6 0.231219 0.500000 0.025665
O O7 0.293745 0.599453 0.107188
O O8 0.231588 0.677370 0.019202
O O9 0.500000 0.733769 0.517707
O O10 0.759997 0.702580 0.451226
O O11 0.500000 0.247151 0.895146
O O12 0.226929 0.330469 0.881442
O O13 0.263419 0.190938 0.833330
O O14 0.182381 0.500000 0.180421
O O15 0.276283 0.362746 0.219932
O O16 0.000000 0.375888 0.155946
O O17 0.500000 0.414909 0.873414
O O18 0.226349 0.500000 0.878952
O O19 0.286876 0.412521 0.789755
O O20 0.791848 0.281611 0.744654
O O21 0.000000 0.401043 0.736322
O O22 0.000000 0.167771 0.772980
#
# Coordination Sequence:
#
# PCOD9358753 Si02
#       8
#     8   8   8   8   8   8   8   8
#     4  10  21  36  54  76 101 132 170 210 253 300
#     4   9  18  32  51  77 106 134 166 203 245 298
#     4  10  21  36  53  73 100 136 173 210 252 293
#     4   9  19  34  49  67  93 126 164 201 238 285
#     4   9  17  30  49  73  99 125 156 198 248 299
#     4   9  17  29  47  72  99 125 154 191 236 287
#     4   9  17  30  49  72  98 126 155 191 240 297
#     4   9  17  30  49  72  96 124 157 195 242 292
#
# _framework density 20.941096000000002
#
# number of rings (size 3 to 8) (size 9 to 14) (size 15 to 20)
#    0.000    2.750    0.000    1.125    0.000    4.500 
#    0.000    5.625    0.000    2.250    0.000    3.500 
#    0.000    0.000    0.000    0.000    0.000    0.000 
#
# Total GULP energy -178260.334156 kJ/mol
# GULP energy per Si atom -5570.635442 kJ/mol
# Density = 2.089343 g / cm^3
# Si number density = 20.941096 Si / 1000 Ang^3
#
#
#
# Elastic Constant Matrix: (Units=GPa)
#
#
# Indices 1 2 3 4 5 6 
#
# 1 24.8421 7.5700 4.8940 0.0000 0.0000 0.0000
# 2 7.5700 49.4475 49.4427 0.0000 0.0000 0.0000
# 3 4.8940 49.4427 122.8616 0.0000 0.0000 0.0000
# 4 0.0000 0.0000 0.0000 56.8573 0.0000 0.0000
# 5 0.0000 0.0000 0.0000 0.0000 16.7360 0.0000
# 6 0.0000 0.0000 0.0000 0.0000 0.0000 11.1691
#
#
#
# Elastic Compliance Matrix: (Units=1/GPa)
#
#
# Indices 1 2 3 4 5 6 
#
# 1 0.042399 -0.008036 0.001545 0.000000 0.000000 0.000000
# 2 -0.008036 0.035363 -0.013911 0.000000 0.000000 0.000000
# 3 0.001545 -0.013911 0.013676 0.000000 0.000000 0.000000
# 4 0.000000 0.000000 0.000000 0.017588 0.000000 0.000000
# 5 0.000000 0.000000 0.000000 0.000000 0.059751 0.000000
# 6 0.000000 0.000000 0.000000 0.000000 0.000000 0.089532
#
#
# Mechanical properties :
#
#
# Convention : Reuss Voigt Hill
#
# Bulk Modulus (GPa) = 19.74952 35.66273 27.70612
# Shear Modulus (GPa) = 15.82324 25.96879 20.89601
#
# Velocity S-wave (km/s) = 2.75181 3.52531 3.16230
# Velocity P-wave (km/s) = 4.42132 5.79977 5.15681
#
# Compressibility (1/GPa) = 0.05063415
#
# Stress axis : x y z
#
# Youngs Moduli (GPa) = 23.58574 28.27787 73.12157
#
# Poissons Ratio (x) = 0.22723 -0.11296
# Poissons Ratio (y) = 0.18953 1.01720
# Poissons Ratio (z) = -0.03644 0.39337
#
# Static dielectric constant tensor:
#      x y z
#    x 1.789440 0.000000 0.000000 
#    y 0.000000 1.787080 0.000000 
#    z 0.000000 0.000000 1.768270 
# 
# From -- ./inp_files/20075.got.cif
#   From: 2010.05.17/outbox.cif.g08.bks.cpg/sg38_11_cif.got.tgz:20075.got - 2010.06.03 18:07:57.
