data_PCOD9358219
_publ_section_title
;
Structure prediction by ZEFSAII (Michael W. Deem and Ramdas Pophale) SiO2 
 PCOD9358219
Probable space group: A M M 2
;
_chemical_formula_sum "Si O2"
_cell_formula_units_Z 64
_cell_length_a 19.557736
_cell_length_b 8.842322
_cell_length_c 20.786586
_cell_angle_alpha 90.000000
_cell_angle_beta 90.000000
_cell_angle_gamma 90.000000
_cell_volume 3594.744865
_symmetry_space_group_name_H-M "A M M 2"
_symmetry_group_IT_number 38
_symmetry_cell_setting 'orthorhombic'
loop_
_space_group_symop_operation_xyz
x,y,z
-x,-y,z
-x,y,z
x,-y,z
x,1/2+y,1/2+z
-x,1/2-y,1/2+z
-x,1/2+y,1/2+z
x,1/2-y,1/2+z
loop_
_atom_site_type_symbol
_atom_site_label
_atom_site_fract_x
_atom_site_fract_y
_atom_site_fract_z
Si Si1 0.579466 0.679238 0.524870
Si Si2 0.709017 0.679745 0.081168
Si Si3 0.921457 0.819202 0.503010
Si Si4 0.289761 0.319590 0.325925
Si Si5 0.921698 0.318660 0.155414
Si Si6 0.214434 0.319883 0.703531
Si Si7 0.213479 0.178986 0.960151
Si Si8 0.578771 0.180509 0.382658
O O1 0.500000 0.701379 0.542235
O O2 0.594039 0.500000 0.523820
O O3 0.631779 0.762770 0.571564
O O4 0.588802 0.744700 0.452914
O O5 0.712260 0.500000 0.087766
O O6 0.745122 0.756979 0.141632
O O7 0.748346 0.731152 0.016670
O O8 0.912000 0.785773 0.579205
O O9 0.865146 0.730004 0.463169
O O10 0.000000 0.782987 0.486582
O O11 0.912064 0.000000 0.495374
O O12 0.294753 0.500000 0.317935
O O13 0.249740 0.247827 0.266613
O O14 0.248490 0.288832 0.391951
O O15 0.364864 0.249204 0.335573
O O16 0.914384 0.500000 0.162678
O O17 0.863550 0.235788 0.195350
O O18 0.000000 0.278434 0.171997
O O19 0.217146 0.500000 0.704565
O O20 0.219504 0.000000 0.972807
O O21 0.500000 0.210319 0.363360
O O22 0.587692 0.000000 0.388249
#
# Coordination Sequence:
#
# PCOD9358219 Si02
#       8
#     8   8   8   8   8   8   8   8
#     4  10  20  35  57  87 121 154 193 243 294 344
#     4  12  23  37  60  86 118 154 193 239 292 350
#     4   9  18  33  56  86 118 153 192 238 292 347
#     4  11  24  41  60  84 120 160 200 244 294 350
#     4   9  18  35  59  86 117 153 193 237 290 351
#     4  12  25  40  60  87 120 154 199 248 295 353
#     4  11  22  36  58  88 117 149 193 242 290 343
#     4  10  20  35  58  88 119 153 195 241 291 348
#
# _framework density 17.803767000000001
#
# number of rings (size 3 to 8) (size 9 to 14) (size 15 to 20)
#    0.000    1.500    2.500    4.500    0.000    3.500 
#    0.000    2.500    0.000    4.500    0.000    0.000 
#    0.000    0.000    0.000    0.000    0.000    0.000 
#
# Total GULP energy -178811.723128 kJ/mol
# GULP energy per Si atom -5587.866348 kJ/mol
# Density = 1.776324 g / cm^3
# Si number density = 17.803767 Si / 1000 Ang^3
#
#
#
# Elastic Constant Matrix: (Units=GPa)
#
#
# Indices 1 2 3 4 5 6 
#
# 1 137.7249 68.0774 62.4172 0.0000 0.0000 0.0000
# 2 68.0774 95.3401 60.5835 0.0000 0.0000 0.0000
# 3 62.4172 60.5835 84.2931 0.0000 0.0000 0.0000
# 4 0.0000 0.0000 0.0000 28.0626 0.0000 0.0000
# 5 0.0000 0.0000 0.0000 0.0000 28.3365 0.0000
# 6 0.0000 0.0000 0.0000 0.0000 0.0000 36.6788
#
#
#
# Elastic Compliance Matrix: (Units=1/GPa)
#
#
# Indices 1 2 3 4 5 6 
#
# 1 0.012330 -0.005527 -0.005158 0.000000 0.000000 0.000000
# 2 -0.005527 0.021783 -0.011564 0.000000 0.000000 0.000000
# 3 -0.005158 -0.011564 0.023994 0.000000 0.000000 0.000000
# 4 0.000000 0.000000 0.000000 0.035635 0.000000 0.000000
# 5 0.000000 0.000000 0.000000 0.000000 0.035290 0.000000
# 6 0.000000 0.000000 0.000000 0.000000 0.000000 0.027264
#
#
# Mechanical properties :
#
#
# Convention : Reuss Voigt Hill
#
# Bulk Modulus (GPa) = 73.47337 77.72380 75.59859
# Shear Modulus (GPa) = 24.35102 27.03425 25.69263
#
# Velocity S-wave (km/s) = 3.70232 3.90097 3.80294
# Velocity P-wave (km/s) = 7.72232 8.00254 7.86368
#
# Compressibility (1/GPa) = 0.01361037
#
# Stress axis : x y z
#
# Youngs Moduli (GPa) = 81.10016 45.90686 41.67708
#
# Poissons Ratio (x) = 0.25372 0.21498
# Poissons Ratio (y) = 0.44822 0.48194
# Poissons Ratio (z) = 0.41833 0.53085
#
# Static dielectric constant tensor:
#      x y z
#    x 1.628400 0.000000 0.000000 
#    y 0.000000 1.592090 0.000000 
#    z 0.000000 0.000000 1.572460 
# 
# From -- ./inp_files/18884.got.cif
#   From: 2010.05.17/outbox.cif.g08.bks.cpg/sg38_10_cif.got.tgz:18884.got - 2010.06.03 18:07:57.
