data_PCOD9358235
_publ_section_title
;
Structure prediction by ZEFSAII (Michael W. Deem and Ramdas Pophale) SiO2 
 PCOD9358235
Probable space group: A M M 2
;
_chemical_formula_sum "Si O2"
_cell_formula_units_Z 64
_cell_length_a 7.904425
_cell_length_b 24.295285
_cell_length_c 15.989028
_cell_angle_alpha 90.000000
_cell_angle_beta 90.000000
_cell_angle_gamma 90.000000
_cell_volume 3070.537064
_symmetry_space_group_name_H-M "A M M 2"
_symmetry_group_IT_number 38
_symmetry_cell_setting 'orthorhombic'
loop_
_space_group_symop_operation_xyz
x,y,z
-x,-y,z
-x,y,z
x,-y,z
x,1/2+y,1/2+z
-x,1/2-y,1/2+z
-x,1/2+y,1/2+z
x,1/2-y,1/2+z
loop_
_atom_site_type_symbol
_atom_site_label
_atom_site_fract_x
_atom_site_fract_y
_atom_site_fract_z
Si Si1 0.292690 0.063011 0.533510
Si Si2 0.702560 0.125874 0.368789
Si Si3 0.802700 0.259558 0.624662
Si Si4 0.697817 0.856766 0.681113
Si Si5 0.705142 0.563355 0.519066
Si Si6 0.204770 0.254464 0.933020
Si Si7 0.200891 0.861971 0.861992
Si Si8 0.698106 0.376133 0.684810
O O1 0.500000 0.063352 0.533753
O O2 0.234377 0.089018 0.445745
O O3 0.237201 0.101956 0.609786
O O4 0.238862 0.000000 0.543115
O O5 0.500000 0.118347 0.365860
O O6 0.735381 0.189479 0.391026
O O7 0.772083 0.112502 0.276630
O O8 0.784303 0.202671 0.673958
O O9 0.740147 0.249039 0.529985
O O10 0.712024 0.311127 0.666449
O O11 0.000000 0.274646 0.619856
O O12 0.500000 0.847464 0.664830
O O13 0.720895 0.879733 0.774075
O O14 0.500000 0.564755 0.520031
O O15 0.758933 0.500000 0.514354
O O16 0.761579 0.597980 0.438917
O O17 0.769061 0.591848 0.604534
O O18 0.000000 0.255048 0.932470
O O19 0.263134 0.199224 0.886654
O O20 0.000000 0.858977 0.850421
O O21 0.500000 0.390989 0.688525
#
# Coordination Sequence:
#
# PCOD9358235 Si02
#       8
#     8   8   8   8   8   8   8   8
#     4   9  19  36  57  81 111 147 187 230 277 331
#     4  10  20  35  58  87 114 145 187 232 282 339
#     4  11  21  36  58  84 116 153 190 234 287 346
#     4  11  22  37  59  88 117 151 191 236 289 346
#     4  10  22  40  60  84 116 154 196 244 294 344
#     4  10  21  36  56  82 114 150 186 230 286 341
#     4  11  23  40  60  86 116 152 194 238 291 350
#     4  10  21  36  58  88 118 149 189 239 290 344
#
# _framework density 20.843260999999998
#
# number of rings (size 3 to 8) (size 9 to 14) (size 15 to 20)
#    0.000    1.750    2.500    1.875    0.000    5.250 
#    0.000    3.750    0.000    3.000    0.000    1.750 
#    0.000    0.000    0.000    0.000    0.000    0.000 
#
# Total GULP energy -178828.651125 kJ/mol
# GULP energy per Si atom -5588.395348 kJ/mol
# Density = 2.079582 g / cm^3
# Si number density = 20.843261 Si / 1000 Ang^3
#
#
#
# Elastic Constant Matrix: (Units=GPa)
#
#
# Indices 1 2 3 4 5 6 
#
# 1 23.1750 -9.0633 -4.2968 0.0000 0.0000 0.0000
# 2 -9.0633 103.0823 37.2423 0.0000 0.0000 0.0000
# 3 -4.2968 37.2423 153.5102 0.0000 0.0000 0.0000
# 4 0.0000 0.0000 0.0000 -1.3158 0.0000 0.0000
# 5 0.0000 0.0000 0.0000 0.0000 13.1896 0.0000
# 6 0.0000 0.0000 0.0000 0.0000 0.0000 -103.5863
#
#
#
# Elastic Compliance Matrix: (Units=1/GPa)
#
#
# Indices 1 2 3 4 5 6 
#
# 1 0.044701 0.003812 0.000326 0.000000 0.000000 0.000000
# 2 0.003812 0.010958 -0.002552 0.000000 0.000000 0.000000
# 3 0.000326 -0.002552 0.007142 0.000000 0.000000 0.000000
# 4 0.000000 0.000000 0.000000 -0.759983 0.000000 0.000000
# 5 0.000000 0.000000 0.000000 0.000000 0.075817 0.000000
# 6 0.000000 0.000000 0.000000 0.000000 0.000000 -0.009654
#
#
# Mechanical properties :
#
#
# Convention : Reuss Voigt Hill
#
# Bulk Modulus (GPa) = 15.15706 36.39243 25.77474
# Shear Modulus (GPa) = -8.16728 -1.28348 -4.72538
#
# Velocity S-wave (km/s) = -1.98165 -0.78557 -1.50732
# Velocity P-wave (km/s) = 1.43241 4.08352 3.05998
#
# Compressibility (1/GPa) = 0.06597587
#
# Stress axis : x y z
#
# Youngs Moduli (GPa) = 22.37063 91.25667 140.00839
#
# Poissons Ratio (x) = -0.34791 -0.04569
# Poissons Ratio (y) = -0.08529 0.35727
# Poissons Ratio (z) = -0.00730 0.23287
#
# Static dielectric constant tensor:
#      x y z
#    x 1.767620 0.000000 0.000000 
#    y 0.000000 1.698180 0.000000 
#    z 0.000000 0.000000 1.758070 
# 
# From -- ./inp_files/12716.got.cif
#   From: 2010.05.17/outbox.cif.g08.bks.cpg/sg38_7_cif.got.tgz:12716.got - 2010.06.03 18:07:57.
