data_PCOD9358343
_publ_section_title
;
Structure prediction by ZEFSAII (Michael W. Deem and Ramdas Pophale) SiO2 
 PCOD9358343
Probable space group: A M M 2
;
_chemical_formula_sum "Si O2"
_cell_formula_units_Z 58
_cell_length_a 10.318809
_cell_length_b 18.049022
_cell_length_c 17.034150
_cell_angle_alpha 90.000000
_cell_angle_beta 90.000000
_cell_angle_gamma 90.000000
_cell_volume 3172.515228
_symmetry_space_group_name_H-M "A M M 2"
_symmetry_group_IT_number 38
_symmetry_cell_setting 'orthorhombic'
loop_
_space_group_symop_operation_xyz
x,y,z
-x,-y,z
-x,y,z
x,-y,z
x,1/2+y,1/2+z
-x,1/2-y,1/2+z
-x,1/2+y,1/2+z
x,1/2-y,1/2+z
loop_
_atom_site_type_symbol
_atom_site_label
_atom_site_fract_x
_atom_site_fract_y
_atom_site_fract_z
Si Si1 0.500000 0.000000 0.889060
Si Si2 0.142249 0.586353 0.226646
Si Si3 0.349792 0.313406 0.654044
Si Si4 0.349927 0.649759 0.110270
Si Si5 0.850794 0.911444 0.062379
Si Si6 0.342695 0.416468 0.941437
Si Si7 0.740673 0.118014 0.890396
Si Si8 0.655514 0.220148 0.336048
O O1 0.385785 0.934725 0.889102
O O2 0.145806 0.500000 0.205135
O O3 0.256491 0.625534 0.179753
O O4 0.168104 0.592781 0.318961
O O5 0.000000 0.616779 0.207058
O O6 0.500000 0.339713 0.651776
O O7 0.342798 0.238393 0.602531
O O8 0.249546 0.372094 0.620650
O O9 0.318845 0.290099 0.743483
O O10 0.500000 0.631471 0.129604
O O11 0.313267 0.608672 0.030174
O O12 0.000000 0.889365 0.076669
O O13 0.841308 0.000000 0.070093
O O14 0.808700 0.890597 0.974148
O O15 0.500000 0.417990 0.936104
O O16 0.296198 0.500000 0.925541
O O17 0.296910 0.352582 0.882514
O O18 0.707722 0.203560 0.871577
O O19 0.500000 0.223312 0.344325
#
# Coordination Sequence:
#
# PCOD9358343 Si02
#       8
#     2   8   8   8   8   8   8   8
#     4  12  24  32  66 100 122 160 204 264 312 384
#     4  11  23  36  54  83 123 162 197 240 297 367
#     4  10  22  38  61  90 118 153 201 254 309 361
#     4  10  20  36  58  87 118 152 196 250 300 358
#     4  11  25  43  61  85 124 165 206 253 305 369
#     4   9  18  33  54  83 116 153 190 235 300 357
#     4  12  22  38  60  90 123 159 205 249 311 373
#     4  10  20  36  59  88 123 152 191 255 305 356
#
# _framework density 18.282025000000001
#
# number of rings (size 3 to 8) (size 9 to 14) (size 15 to 20)
#    0.000    1.517    3.448    1.655    1.931    4.414 
#    0.000    1.379    0.000    0.828    0.000    1.931 
#    0.000    0.000    0.000    0.000    0.000    0.000 
#
# Total GULP energy -161612.052610 kJ/mol
# GULP energy per Si atom -5572.829400 kJ/mol
# Density = 1.824041 g / cm^3
# Si number density = 18.282025 Si / 1000 Ang^3
#
#
#
# Elastic Constant Matrix: (Units=GPa)
#
#
# Indices 1 2 3 4 5 6 
#
# 1 92.3301 53.9999 41.4336 0.0000 0.0000 0.0000
# 2 53.9999 127.0708 54.2162 0.0000 0.0000 0.0000
# 3 41.4336 54.2162 44.7068 0.0000 0.0000 0.0000
# 4 0.0000 0.0000 0.0000 22.2694 0.0000 0.0000
# 5 0.0000 0.0000 0.0000 0.0000 4.3623 0.0000
# 6 0.0000 0.0000 0.0000 0.0000 0.0000 8.2656
#
#
#
# Elastic Compliance Matrix: (Units=1/GPa)
#
#
# Indices 1 2 3 4 5 6 
#
# 1 0.018622 -0.001140 -0.015876 0.000000 0.000000 0.000000
# 2 -0.001140 0.016377 -0.018804 0.000000 0.000000 0.000000
# 3 -0.015876 -0.018804 0.059886 0.000000 0.000000 0.000000
# 4 0.000000 0.000000 0.000000 0.044905 0.000000 0.000000
# 5 0.000000 0.000000 0.000000 0.000000 0.229239 0.000000
# 6 0.000000 0.000000 0.000000 0.000000 0.000000 0.120983
#
#
# Mechanical properties :
#
#
# Convention : Reuss Voigt Hill
#
# Bulk Modulus (GPa) = 43.02137 62.60076 52.81106
# Shear Modulus (GPa) = 8.78117 14.60999 11.69558
#
# Velocity S-wave (km/s) = 2.19399 2.82998 2.53203
# Velocity P-wave (km/s) = 5.47734 6.70779 6.12355
#
# Compressibility (1/GPa) = 0.02324426
#
# Stress axis : x y z
#
# Youngs Moduli (GPa) = 53.70035 61.06131 16.69843
#
# Poissons Ratio (x) = 0.06959 0.26511
# Poissons Ratio (y) = 0.06120 0.31400
# Poissons Ratio (z) = 0.85256 1.14821
#
# Static dielectric constant tensor:
#      x y z
#    x 1.618260 0.000000 0.000000 
#    y 0.000000 1.634020 0.000000 
#    z 0.000000 0.000000 1.624040 
# 
# From -- ./inp_files/16979.got.cif
#   From: 2010.05.17/outbox.cif.g08.bks.cpg/sg38_9_cif.got.tgz:16979.got - 2010.06.03 18:07:57.
