data_PCOD9358377
_publ_section_title
;
Structure prediction by ZEFSAII (Michael W. Deem and Ramdas Pophale) SiO2 
 PCOD9358377
Probable space group: A M M 2
;
_chemical_formula_sum "Si O2"
_cell_formula_units_Z 64
_cell_length_a 24.473998
_cell_length_b 8.259247
_cell_length_c 15.725526
_cell_angle_alpha 90.000000
_cell_angle_beta 90.000000
_cell_angle_gamma 90.000000
_cell_volume 3178.707418
_symmetry_space_group_name_H-M "A M M 2"
_symmetry_group_IT_number 38
_symmetry_cell_setting 'orthorhombic'
loop_
_space_group_symop_operation_xyz
x,y,z
-x,-y,z
-x,y,z
x,-y,z
x,1/2+y,1/2+z
-x,1/2-y,1/2+z
-x,1/2+y,1/2+z
x,1/2-y,1/2+z
loop_
_atom_site_type_symbol
_atom_site_label
_atom_site_fract_x
_atom_site_fract_y
_atom_site_fract_z
Si Si1 0.061821 0.805567 0.371570
Si Si2 0.144217 0.803744 0.518626
Si Si3 0.129945 0.694417 0.214150
Si Si4 0.619560 0.188405 0.477503
Si Si5 0.734280 0.187944 0.031136
Si Si6 0.746826 0.192350 0.720512
Si Si7 0.638593 0.196490 0.293402
Si Si8 0.438660 0.692545 0.642470
O O1 0.102118 0.747018 0.446563
O O2 0.086635 0.764732 0.279611
O O3 0.000000 0.743415 0.380454
O O4 0.060113 0.000000 0.379392
O O5 0.127080 0.754260 0.614924
O O6 0.205507 0.741558 0.502267
O O7 0.146153 0.000000 0.518433
O O8 0.124687 0.500000 0.215460
O O9 0.191372 0.736477 0.245375
O O10 0.684120 0.211319 0.494207
O O11 0.610292 0.244521 0.381354
O O12 0.586300 0.278663 0.549927
O O13 0.605485 0.000000 0.484059
O O14 0.733561 0.215823 0.132891
O O15 0.725339 0.000000 0.011661
O O16 0.699707 0.235335 0.786248
O O17 0.746490 0.000000 0.702687
O O18 0.603410 0.255704 0.213238
O O19 0.642324 0.000000 0.292053
O O20 0.500000 0.759053 0.649677
O O21 0.441577 0.500000 0.656604
#
# Coordination Sequence:
#
# PCOD9358377 Si02
#       8
#     8   8   8   8   8   8   8   8
#     4  10  22  39  59  84 115 153 198 243 289 347
#     4   9  20  39  59  82 114 154 195 239 293 351
#     4   9  20  37  57  84 115 150 191 237 292 347
#     4  11  23  38  59  90 122 156 201 244 292 352
#     4  11  21  35  58  87 121 156 195 241 299 355
#     4  10  20  36  59  87 121 154 192 242 296 355
#     4  10  22  38  59  88 120 158 197 239 295 352
#     4  10  22  42  64  86 118 160 203 248 295 346
#
# _framework density 20.133970000000001
#
# number of rings (size 3 to 8) (size 9 to 14) (size 15 to 20)
#    0.000    2.000    1.250    2.625    1.750    5.500 
#    0.000    2.500    0.000    0.000    0.000    0.000 
#    0.000    0.000    0.000    0.000    0.000    0.000 
#
# Total GULP energy -178713.314165 kJ/mol
# GULP energy per Si atom -5584.791068 kJ/mol
# Density = 2.008814 g / cm^3
# Si number density = 20.133970 Si / 1000 Ang^3
#
#
#
# Elastic Constant Matrix: (Units=GPa)
#
#
# Indices 1 2 3 4 5 6 
#
# 1 70.5251 -4.5952 10.5051 0.0000 0.0000 0.0000
# 2 -4.5952 11.2036 -3.0254 0.0000 0.0000 0.0000
# 3 10.5051 -3.0254 41.1305 0.0000 0.0000 0.0000
# 4 0.0000 0.0000 0.0000 25.9115 0.0000 0.0000
# 5 0.0000 0.0000 0.0000 0.0000 6.0668 0.0000
# 6 0.0000 0.0000 0.0000 0.0000 0.0000 19.8720
#
#
#
# Elastic Compliance Matrix: (Units=1/GPa)
#
#
# Indices 1 2 3 4 5 6 
#
# 1 0.015035 0.005234 -0.003455 0.000000 0.000000 0.000000
# 2 0.005234 0.092887 0.005496 0.000000 0.000000 0.000000
# 3 -0.003455 0.005496 0.025600 0.000000 0.000000 0.000000
# 4 0.000000 0.000000 0.000000 0.038593 0.000000 0.000000
# 5 0.000000 0.000000 0.000000 0.000000 0.164830 0.000000
# 6 0.000000 0.000000 0.000000 0.000000 0.000000 0.050322
#
#
# Mechanical properties :
#
#
# Convention : Reuss Voigt Hill
#
# Bulk Modulus (GPa) = 6.75355 14.29203 10.52279
# Shear Modulus (GPa) = 11.84623 18.36839 15.10731
#
# Velocity S-wave (km/s) = 2.42827 3.02372 2.74220
# Velocity P-wave (km/s) = 3.35016 4.39368 3.90691
#
# Compressibility (1/GPa) = 0.14807032
#
# Stress axis : x y z
#
# Youngs Moduli (GPa) = 66.51146 10.76573 39.06316
#
# Poissons Ratio (x) = -0.05634 0.13497
# Poissons Ratio (y) = -0.34809 -0.21468
# Poissons Ratio (z) = 0.22980 -0.05917
#
# Static dielectric constant tensor:
#      x y z
#    x 1.699700 0.000000 0.000000 
#    y 0.000000 1.703000 0.000000 
#    z 0.000000 0.000000 1.714900 
# 
# From -- ./inp_files/15736.got.cif
#   From: 2010.05.17/outbox.cif.g08.bks.cpg/sg38_8_cif.got.tgz:15736.got - 2010.06.03 18:07:57.
