data_PCOD9358872
_publ_section_title
;
Structure prediction by ZEFSAII (Michael W. Deem and Ramdas Pophale) SiO2 
 PCOD9358872
Probable space group: A M M 2
;
_chemical_formula_sum "Si O2"
_cell_formula_units_Z 48
_cell_length_a 16.023934
_cell_length_b 18.177200
_cell_length_c 7.908891
_cell_angle_alpha 90.000000
_cell_angle_beta 90.000000
_cell_angle_gamma 90.000000
_cell_volume 2303.624683
_symmetry_space_group_name_H-M "A M M 2"
_symmetry_group_IT_number 38
_symmetry_cell_setting 'orthorhombic'
loop_
_space_group_symop_operation_xyz
x,y,z
-x,-y,z
-x,y,z
x,-y,z
x,1/2+y,1/2+z
-x,1/2-y,1/2+z
-x,1/2+y,1/2+z
x,1/2-y,1/2+z
loop_
_atom_site_type_symbol
_atom_site_label
_atom_site_fract_x
_atom_site_fract_y
_atom_site_fract_z
Si Si1 0.819068 0.184911 0.222680
Si Si2 0.817356 0.853075 0.821840
Si Si3 0.647968 0.081006 0.881175
Si Si4 0.000000 0.854765 0.808287
Si Si5 0.325375 0.418428 0.784291
Si Si6 0.000000 0.812142 0.204794
Si Si7 0.500000 0.648638 0.889861
Si Si8 0.500000 0.815121 0.780254
O O1 0.808758 0.272480 0.238835
O O2 0.746299 0.141406 0.317976
O O3 0.912296 0.164783 0.286271
O O4 0.817501 0.163318 0.024484
O O5 0.735053 0.900520 0.789252
O O6 0.907836 0.887411 0.775691
O O7 0.581434 0.145471 0.855889
O O8 0.616264 0.000000 0.828986
O O9 0.666201 0.078173 0.080872
O O10 0.000000 0.776368 0.712909
O O11 0.000000 0.837119 0.009856
O O12 0.303029 0.500000 0.845638
O O13 0.415922 0.394714 0.847778
O O14 0.500000 0.727775 0.799323
O O15 0.500000 0.666088 0.085376
#
# Coordination Sequence:
#
# PCOD9358872 Si02
#       8
#     8   8   8   4   8   4   4   4
#     4   9  17  30  50  75 102 135 174 215 257 301
#     4   9  17  30  50  75 102 135 174 215 257 301
#     4  10  21  37  55  77 108 142 173 210 259 310
#     4   8  14  26  45  71 101 131 169 214 255 296
#     4  10  21  37  55  77 108 142 173 210 259 310
#     4   8  14  26  45  71 101 131 169 214 255 296
#     4  12  25  40  59  81 103 131 171 216 261 310
#     4  12  25  40  59  81 103 131 171 216 261 310
#
# _framework density 20.836725999999999
#
# number of rings (size 3 to 8) (size 9 to 14) (size 15 to 20)
#    0.000    2.333    0.000    3.000    0.000    6.667 
#    0.000    0.833    0.000    5.000    0.000    0.000 
#    0.000   16.000    0.000    0.000    0.000    0.000 
#
# Total GULP energy -133892.587970 kJ/mol
# GULP energy per Si atom -5578.857832 kJ/mol
# Density = 2.078930 g / cm^3
# Si number density = 20.836726 Si / 1000 Ang^3
#
#
#
# Elastic Constant Matrix: (Units=GPa)
#
#
# Indices 1 2 3 4 5 6 
#
# 1 88.8626 -1.6891 1.3197 0.0000 0.0000 0.0000
# 2 -1.6891 36.3680 3.3063 0.0000 0.0000 0.0000
# 3 1.3197 3.3063 12.5971 0.0000 0.0000 0.0000
# 4 0.0000 0.0000 0.0000 15.4323 0.0000 0.0000
# 5 0.0000 0.0000 0.0000 0.0000 4.9821 0.0000
# 6 0.0000 0.0000 0.0000 0.0000 0.0000 -19.3764
#
#
#
# Elastic Compliance Matrix: (Units=1/GPa)
#
#
# Indices 1 2 3 4 5 6 
#
# 1 0.011286 0.000647 -0.001352 0.000000 0.000000 0.000000
# 2 0.000647 0.028206 -0.007471 0.000000 0.000000 0.000000
# 3 -0.001352 -0.007471 0.081486 0.000000 0.000000 0.000000
# 4 0.000000 0.000000 0.000000 0.064799 0.000000 0.000000
# 5 0.000000 0.000000 0.000000 0.000000 0.200717 0.000000
# 6 0.000000 0.000000 0.000000 0.000000 0.000000 -0.051609
#
#
# Mechanical properties :
#
#
# Convention : Reuss Voigt Hill
#
# Bulk Modulus (GPa) = 9.55788 15.96683 12.76235
# Shear Modulus (GPa) = 12.94963 9.20035 11.07499
#
# Velocity S-wave (km/s) = 2.49566 2.10358 2.30796
# Velocity P-wave (km/s) = 3.59185 3.68504 3.63874
#
# Compressibility (1/GPa) = 0.10462575
#
# Stress axis : x y z
#
# Youngs Moduli (GPa) = 88.60769 35.45354 12.27209
#
# Poissons Ratio (x) = -0.02294 0.01659
# Poissons Ratio (y) = -0.05734 0.09168
# Poissons Ratio (z) = 0.11981 0.26486
#
# Static dielectric constant tensor:
#      x y z
#    x 1.846970 0.000000 0.000000 
#    y 0.000000 1.718730 0.000000 
#    z 0.000000 0.000000 1.754720 
# 
# From -- ./inp_files/5539.got.cif
#   From: 2010.05.17/outbox.cif.g08.bks.cpg/sg38_3_cif.got.tgz:5539.got - 2010.06.03 18:07:57.
