data_PCOD9358471
_publ_section_title
;
Structure prediction by ZEFSAII (Michael W. Deem and Ramdas Pophale) SiO2 
 PCOD9358471
Probable space group: A M M 2
;
_chemical_formula_sum "Si O2"
_cell_formula_units_Z 40
_cell_length_a 18.799518
_cell_length_b 18.879781
_cell_length_c 5.259096
_cell_angle_alpha 90.000000
_cell_angle_beta 90.000000
_cell_angle_gamma 90.000000
_cell_volume 1866.615060
_symmetry_space_group_name_H-M "A M M 2"
_symmetry_group_IT_number 38
_symmetry_cell_setting 'orthorhombic'
loop_
_space_group_symop_operation_xyz
x,y,z
-x,-y,z
-x,y,z
x,-y,z
x,1/2+y,1/2+z
-x,1/2-y,1/2+z
-x,1/2+y,1/2+z
x,1/2-y,1/2+z
loop_
_atom_site_type_symbol
_atom_site_label
_atom_site_fract_x
_atom_site_fract_y
_atom_site_fract_z
Si Si1 0.301253 0.585884 0.605690
Si Si2 0.784587 0.914966 0.614064
Si Si3 0.584818 0.204021 0.041037
Si Si4 0.918491 0.582461 0.792724
Si Si5 0.914437 0.212142 0.961398
O O1 0.311129 0.500000 0.592416
O O2 0.246937 0.609563 0.381766
O O3 0.372127 0.631110 0.564635
O O4 0.267669 0.603082 0.879921
O O5 0.862959 0.898074 0.510168
O O6 0.784788 0.000000 0.635057
O O7 0.500000 0.190945 0.044901
O O8 0.602102 0.254505 0.280840
O O9 0.909155 0.500000 0.726639
O O10 0.905942 0.631508 0.549809
O O11 0.000000 0.593644 0.878330
O O12 0.885565 0.257112 0.200175
O O13 0.000000 0.222984 0.944439
#
# Coordination Sequence:
#
# PCOD9358471 Si02
#       5
#     8   8   8   8   8
#     4  10  20  37  59  81 111 151 191 228 271 332
#     4   9  19  35  55  81 112 145 185 238 288 324
#     4  10  21  38  60  88 122 152 180 225 279 326
#     4   9  18  35  58  81 106 143 192 239 285 340
#     4   9  18  33  50  69  97 129 162 210 271 325
#
# _framework density 21.429164
#
# number of rings (size 3 to 8) (size 9 to 14) (size 15 to 20)
#    0.000    2.600    0.000    1.200    0.000    2.000 
#    0.000   12.000    0.000   24.000    0.000    0.000 
#    0.000    0.000    0.000    0.000    0.000    0.000 
#
# Total GULP energy -111745.013396 kJ/mol
# GULP energy per Si atom -5587.250670 kJ/mol
# Density = 2.138039 g / cm^3
# Si number density = 21.429164 Si / 1000 Ang^3
#
#
#
# Elastic Constant Matrix: (Units=GPa)
#
#
# Indices 1 2 3 4 5 6 
#
# 1 64.3208 37.2013 19.2861 0.0000 0.0000 0.0000
# 2 37.2013 88.0100 27.9645 0.0000 0.0000 0.0000
# 3 19.2861 27.9645 109.9595 0.0000 0.0000 0.0000
# 4 0.0000 0.0000 0.0000 25.6223 0.0000 0.0000
# 5 0.0000 0.0000 0.0000 0.0000 3.7808 0.0000
# 6 0.0000 0.0000 0.0000 0.0000 0.0000 16.2208
#
#
#
# Elastic Compliance Matrix: (Units=1/GPa)
#
#
# Indices 1 2 3 4 5 6 
#
# 1 0.020814 -0.008309 -0.001537 0.000000 0.000000 0.000000
# 2 -0.008309 0.015679 -0.002530 0.000000 0.000000 0.000000
# 3 -0.001537 -0.002530 0.010007 0.000000 0.000000 0.000000
# 4 0.000000 0.000000 0.000000 0.039028 0.000000 0.000000
# 5 0.000000 0.000000 0.000000 0.000000 0.264496 0.000000
# 6 0.000000 0.000000 0.000000 0.000000 0.000000 0.061649
#
#
# Mechanical properties :
#
#
# Convention : Reuss Voigt Hill
#
# Bulk Modulus (GPa) = 45.98468 47.91045 46.94757
# Shear Modulus (GPa) = 11.26948 20.98067 16.12508
#
# Velocity S-wave (km/s) = 2.29573 3.13241 2.74612
# Velocity P-wave (km/s) = 5.34160 5.95724 5.65780
#
# Compressibility (1/GPa) = 0.02174637
#
# Stress axis : x y z
#
# Youngs Moduli (GPa) = 48.04454 63.78135 99.92708
#
# Poissons Ratio (x) = 0.52999 0.15363
# Poissons Ratio (y) = 0.39922 0.25281
# Poissons Ratio (z) = 0.07386 0.16136
#
# Static dielectric constant tensor:
#      x y z
#    x 1.776800 0.000000 0.000000 
#    y 0.000000 1.787730 0.000000 
#    z 0.000000 0.000000 1.804450 
# 
# From -- ./inp_files/1538.got.cif
#   From: 2010.05.17/outbox.cif.g08.bks.cpg/sg38_1_cif.got.tgz:1538.got - 2010.06.03 18:07:57.
