data_PCOD9358197
_publ_section_title
;
Structure prediction by ZEFSAII (Michael W. Deem and Ramdas Pophale) SiO2 
 PCOD9358197
Probable space group: A M M 2
;
_chemical_formula_sum "Si O2"
_cell_formula_units_Z 48
_cell_length_a 7.524749
_cell_length_b 14.385197
_cell_length_c 18.988987
_cell_angle_alpha 90.000000
_cell_angle_beta 90.000000
_cell_angle_gamma 90.000000
_cell_volume 2055.462836
_symmetry_space_group_name_H-M "A M M 2"
_symmetry_group_IT_number 38
_symmetry_cell_setting 'orthorhombic'
loop_
_space_group_symop_operation_xyz
x,y,z
-x,-y,z
-x,y,z
x,-y,z
x,1/2+y,1/2+z
-x,1/2-y,1/2+z
-x,1/2+y,1/2+z
x,1/2-y,1/2+z
loop_
_atom_site_type_symbol
_atom_site_label
_atom_site_fract_x
_atom_site_fract_y
_atom_site_fract_z
Si Si1 0.713443 0.395181 0.269700
Si Si2 0.290021 0.899516 0.261095
Si Si3 0.291097 0.601947 0.983385
Si Si4 0.212055 0.197307 0.620432
Si Si5 0.714417 0.747743 0.377553
Si Si6 0.201300 0.898314 0.101831
O O1 0.500000 0.399472 0.275288
O O2 0.781037 0.500000 0.259219
O O3 0.746407 0.331840 0.200492
O O4 0.779339 0.348232 0.342747
O O5 0.500000 0.892269 0.244617
O O6 0.246981 0.819732 0.314630
O O7 0.193512 0.897843 0.186962
O O8 0.259540 0.000000 0.294851
O O9 0.500000 0.598515 0.964112
O O10 0.215657 0.500000 0.965891
O O11 0.275177 0.619301 0.066408
O O12 0.217232 0.694264 0.944632
O O13 0.286617 0.296769 0.591951
O O14 0.000000 0.204593 0.616288
O O15 0.500000 0.737243 0.386341
O O16 0.000000 0.897621 0.073365
O O17 0.280914 0.000000 0.082269
#
# Coordination Sequence:
#
# PCOD9358197 Si02
#       6
#     8   8   8   8   8   8
#     4  10  20  35  57  83 110 143 182 225 275 328
#     4   9  15  25  47  76 101 126 162 211 261 308
#     4  10  21  37  57  80 109 147 184 221 273 331
#     4  11  22  36  55  80 112 147 184 227 271 319
#     4   9  17  32  53  78 106 136 174 221 268 320
#     4   9  18  32  49  72 103 137 172 212 263 317
#
# _framework density 23.352404
#
# number of rings (size 3 to 8) (size 9 to 14) (size 15 to 20)
#    0.000    2.333    1.667    1.500    0.000    5.333 
#    0.000    2.500    0.000    3.000    0.000    0.000 
#    0.000    0.000    0.000    0.000    0.000    0.000 
#
# Total GULP energy -133737.596088 kJ/mol
# GULP energy per Si atom -5572.399837 kJ/mol
# Density = 2.329925 g / cm^3
# Si number density = 23.352404 Si / 1000 Ang^3
#
#
#
# Elastic Constant Matrix: (Units=GPa)
#
#
# Indices 1 2 3 4 5 6 
#
# 1 53.9132 14.1583 -4.3804 0.0000 0.0000 0.0000
# 2 14.1583 152.2162 28.9732 0.0000 0.0000 0.0000
# 3 -4.3804 28.9732 74.7886 0.0000 0.0000 0.0000
# 4 0.0000 0.0000 0.0000 11.3218 0.0000 0.0000
# 5 0.0000 0.0000 0.0000 0.0000 19.1494 0.0000
# 6 0.0000 0.0000 0.0000 0.0000 0.0000 5.7300
#
#
#
# Elastic Compliance Matrix: (Units=1/GPa)
#
#
# Indices 1 2 3 4 5 6 
#
# 1 0.019278 -0.002168 0.001969 0.000000 0.000000 0.000000
# 2 -0.002168 0.007336 -0.002969 0.000000 0.000000 0.000000
# 3 0.001969 -0.002969 0.014637 0.000000 0.000000 0.000000
# 4 0.000000 0.000000 0.000000 0.088325 0.000000 0.000000
# 5 0.000000 0.000000 0.000000 0.000000 0.052221 0.000000
# 6 0.000000 0.000000 0.000000 0.000000 0.000000 0.174519
#
#
# Mechanical properties :
#
#
# Convention : Reuss Voigt Hill
#
# Bulk Modulus (GPa) = 28.64137 39.82445 34.23291
# Shear Modulus (GPa) = 13.35865 23.38472 18.37169
#
# Velocity S-wave (km/s) = 2.39434 3.16790 2.80789
# Velocity P-wave (km/s) = 4.46490 5.52010 5.02030
#
# Compressibility (1/GPa) = 0.03491453
#
# Stress axis : x y z
#
# Youngs Moduli (GPa) = 51.87363 136.30688 68.32199
#
# Poissons Ratio (x) = 0.29549 -0.13452
# Poissons Ratio (y) = 0.11245 0.20285
# Poissons Ratio (z) = -0.10214 0.40471
#
# Static dielectric constant tensor:
#      x y z
#    x 1.915150 0.000000 0.000000 
#    y 0.000000 1.978880 0.000000 
#    z 0.000000 0.000000 1.835290 
# 
# From -- ./inp_files/16644.got.cif
#   From: 2010.05.17/outbox.cif.g08.bks.cpg/sg38_9_cif.got.tgz:16644.got - 2010.06.03 18:07:57.
