data_PCOD9358618
_publ_section_title
;
Structure prediction by ZEFSAII (Michael W. Deem and Ramdas Pophale) SiO2 
 PCOD9358618
Probable space group: A M M 2
;
_chemical_formula_sum "Si O2"
_cell_formula_units_Z 48
_cell_length_a 13.583228
_cell_length_b 15.801439
_cell_length_c 10.247091
_cell_angle_alpha 90.000000
_cell_angle_beta 90.000000
_cell_angle_gamma 90.000000
_cell_volume 2199.379752
_symmetry_space_group_name_H-M "A M M 2"
_symmetry_group_IT_number 38
_symmetry_cell_setting 'orthorhombic'
loop_
_space_group_symop_operation_xyz
x,y,z
-x,-y,z
-x,y,z
x,-y,z
x,1/2+y,1/2+z
-x,1/2-y,1/2+z
-x,1/2+y,1/2+z
x,1/2-y,1/2+z
loop_
_atom_site_type_symbol
_atom_site_label
_atom_site_fract_x
_atom_site_fract_y
_atom_site_fract_z
Si Si1 0.759034 0.000000 0.536650
Si Si2 0.880699 0.337780 0.938147
Si Si3 0.382333 0.683243 0.694456
Si Si4 0.380762 0.000000 0.786743
Si Si5 0.116776 0.184103 0.130655
Si Si6 0.381266 0.817599 0.906174
Si Si7 0.884707 0.500000 0.636757
Si Si8 0.313894 0.000000 0.276563
O O1 0.824399 0.082872 0.504021
O O2 0.699779 0.000000 0.671541
O O3 0.671756 0.000000 0.430061
O O4 0.856483 0.258146 0.031055
O O5 0.000000 0.351934 0.939482
O O6 0.852324 0.320858 0.784734
O O7 0.500000 0.689632 0.694457
O O8 0.345939 0.750683 0.799641
O O9 0.345311 0.703578 0.550311
O O10 0.356651 0.586093 0.720810
O O11 0.362434 0.914407 0.867726
O O12 0.500000 0.000000 0.750391
O O13 0.133790 0.090222 0.069599
O O14 0.000000 0.193856 0.142286
O O15 0.500000 0.810124 0.909811
O O16 0.803299 0.500000 0.749566
O O17 0.000000 0.500000 0.679317
#
# Coordination Sequence:
#
# PCOD9358618 Si02
#       8
#     4   8   8   4   8   8   4   4
#     4  12  25  39  61  95 125 171 213 258 319 362
#     4  10  20  40  66  93 124 161 209 258 314 377
#     4  10  22  41  66  96 128 163 208 255 311 376
#     4  10  23  42  61  88 129 169 212 260 316 371
#     4   9  18  36  64  89 118 158 199 255 312 369
#     4   9  20  42  69  92 124 169 207 256 315 370
#     4  10  20  40  61  86 120 162 211 255 307 371
#     4  12  24  37  59  95 122 172 210 257 312 370
#
# _framework density 21.824335000000001
#
# number of rings (size 3 to 8) (size 9 to 14) (size 15 to 20)
#    0.000    2.000    1.667    1.000    2.333    3.333 
#    0.000    2.500    0.000    4.000    0.000    0.000 
#    0.000    0.000    0.000    0.000    0.000    0.000 
#
# Total GULP energy -133896.769719 kJ/mol
# GULP energy per Si atom -5579.032072 kJ/mol
# Density = 2.177466 g / cm^3
# Si number density = 21.824335 Si / 1000 Ang^3
#
#
#
# Elastic Constant Matrix: (Units=GPa)
#
#
# Indices 1 2 3 4 5 6 
#
# 1 37.2356 22.3137 -1.1790 0.0000 0.0000 0.0000
# 2 22.3137 214.8169 108.8866 0.0000 0.0000 0.0000
# 3 -1.1790 108.8866 153.2524 0.0000 0.0000 0.0000
# 4 0.0000 0.0000 0.0000 35.5059 0.0000 0.0000
# 5 0.0000 0.0000 0.0000 0.0000 12.7215 0.0000
# 6 0.0000 0.0000 0.0000 0.0000 0.0000 10.2824
#
#
#
# Elastic Compliance Matrix: (Units=1/GPa)
#
#
# Indices 1 2 3 4 5 6 
#
# 1 0.030006 -0.005054 0.003822 0.000000 0.000000 0.000000
# 2 -0.005054 0.008126 -0.005813 0.000000 0.000000 0.000000
# 3 0.003822 -0.005813 0.010685 0.000000 0.000000 0.000000
# 4 0.000000 0.000000 0.000000 0.028164 0.000000 0.000000
# 5 0.000000 0.000000 0.000000 0.000000 0.078607 0.000000
# 6 0.000000 0.000000 0.000000 0.000000 0.000000 0.097254
#
#
# Mechanical properties :
#
#
# Convention : Reuss Voigt Hill
#
# Bulk Modulus (GPa) = 28.79638 73.92753 51.36195
# Shear Modulus (GPa) = 17.95287 30.05420 24.00353
#
# Velocity S-wave (km/s) = 2.87123 3.71495 3.32000
# Velocity P-wave (km/s) = 4.92089 7.23523 6.18723
#
# Compressibility (1/GPa) = 0.03472659
#
# Stress axis : x y z
#
# Youngs Moduli (GPa) = 33.32714 123.05442 93.59261
#
# Poissons Ratio (x) = 0.62191 -0.35768
# Poissons Ratio (y) = 0.16843 0.54403
# Poissons Ratio (z) = -0.12736 0.71529
#
# Static dielectric constant tensor:
#      x y z
#    x 1.823850 0.000000 0.000000 
#    y 0.000000 1.801770 0.000000 
#    z 0.000000 0.000000 1.801230 
# 
# From -- ./inp_files/5530.got.cif
#   From: 2010.05.17/outbox.cif.g08.bks.cpg/sg38_3_cif.got.tgz:5530.got - 2010.06.03 18:07:57.
