data_PCOD9358437
_publ_section_title
;
Structure prediction by ZEFSAII (Michael W. Deem and Ramdas Pophale) SiO2 
 PCOD9358437
Probable space group: A M M 2
;
_chemical_formula_sum "Si O2"
_cell_formula_units_Z 44
_cell_length_a 7.494355
_cell_length_b 30.322004
_cell_length_c 8.633627
_cell_angle_alpha 90.000000
_cell_angle_beta 90.000000
_cell_angle_gamma 90.000000
_cell_volume 1961.938745
_symmetry_space_group_name_H-M "A M M 2"
_symmetry_group_IT_number 38
_symmetry_cell_setting 'orthorhombic'
loop_
_space_group_symop_operation_xyz
x,y,z
-x,-y,z
-x,y,z
x,-y,z
x,1/2+y,1/2+z
-x,1/2-y,1/2+z
-x,1/2+y,1/2+z
x,1/2-y,1/2+z
loop_
_atom_site_type_symbol
_atom_site_label
_atom_site_fract_x
_atom_site_fract_y
_atom_site_fract_z
Si Si1 0.295495 0.315258 0.414150
Si Si2 0.216065 0.592610 0.911808
Si Si3 0.783935 0.907390 0.056696
Si Si4 0.782200 0.500000 0.055454
Si Si5 0.000000 0.750000 0.984252
Si Si6 0.217800 0.500000 0.413050
Si Si7 0.295495 0.684742 0.054354
O O1 0.500000 0.301805 0.434918
O O2 0.280601 0.366751 0.453968
O O3 0.241823 0.307826 0.234252
O O4 0.156621 0.287287 0.512338
O O5 0.271571 0.599061 0.734252
O O6 0.000000 0.592929 0.917115
O O7 0.275672 0.544961 0.973016
O O8 0.280601 0.633249 0.014536
O O9 0.000000 0.907071 0.051389
O O10 0.724328 0.955039 0.995488
O O11 0.728031 0.500000 0.234252
O O12 0.000000 0.500000 0.051413
O O13 0.843379 0.712713 0.956165
O O14 0.000000 0.500000 0.417091
O O15 0.500000 0.698195 0.033586
#
# Coordination Sequence:
#
# PCOD9358437 Si02
#       7
#     8   8   8   4   4   4   8
#     4  11  25  44  68  98 131 169 217 270 325 389
#     4  10  20  36  61  94 133 173 216 266 322 381
#     4  10  20  36  61  94 133 173 216 266 322 381
#     4   9  17  31  58  93 130 174 221 263 314 381
#     4  12  24  44  72  94 126 168 214 270 328 392
#     4   9  17  31  58  93 130 174 221 263 314 381
#     4  11  25  44  68  98 131 169 217 270 325 389
#
# _framework density 22.426794000000001
#
# number of rings (size 3 to 8) (size 9 to 14) (size 15 to 20)
#    0.000    1.636    1.818    2.727    0.000    7.273 
#    0.000    0.909    0.000    5.455    0.000    0.000 
#    0.000    0.000    0.000    0.000    0.000    0.000 
#
# Total GULP energy -122562.155063 kJ/mol
# GULP energy per Si atom -5571.007048 kJ/mol
# Density = 2.237575 g / cm^3
# Si number density = 22.426794 Si / 1000 Ang^3
#
#
#
# Elastic Constant Matrix: (Units=GPa)
#
#
# Indices 1 2 3 4 5 6 
#
# 1 95.8745 11.1423 7.1040 0.0000 0.0000 0.0000
# 2 11.1423 129.9251 -7.5015 0.0000 0.0000 0.0000
# 3 7.1040 -7.5015 47.9161 0.0000 0.0000 0.0000
# 4 0.0000 0.0000 0.0000 -27.3047 0.0000 0.0000
# 5 0.0000 0.0000 0.0000 0.0000 27.8686 0.0000
# 6 0.0000 0.0000 0.0000 0.0000 0.0000 -476.0281
#
#
#
# Elastic Compliance Matrix: (Units=1/GPa)
#
#
# Indices 1 2 3 4 5 6 
#
# 1 0.010677 -0.001016 -0.001742 0.000000 0.000000 0.000000
# 2 -0.001016 0.007864 0.001382 0.000000 0.000000 0.000000
# 3 -0.001742 0.001382 0.021344 0.000000 0.000000 0.000000
# 4 0.000000 0.000000 0.000000 -0.036624 0.000000 0.000000
# 5 0.000000 0.000000 0.000000 0.000000 0.035883 0.000000
# 6 0.000000 0.000000 0.000000 0.000000 0.000000 -0.002101
#
#
# Mechanical properties :
#
#
# Convention : Reuss Voigt Hill
#
# Bulk Modulus (GPa) = 26.93073 32.80058 29.86566
# Shear Modulus (GPa) = 95.83227 -77.56142 9.13542
#
# Velocity S-wave (km/s) = 6.54400 -5.88722 2.02047
# Velocity P-wave (km/s) = 8.31462 5.61739 4.33462
#
# Compressibility (1/GPa) = 0.03713230
#
# Stress axis : x y z
#
# Youngs Moduli (GPa) = 93.65490 127.16700 46.85067
#
# Poissons Ratio (x) = 0.12924 0.08162
# Poissons Ratio (y) = 0.09518 -0.06474
# Poissons Ratio (z) = 0.16316 -0.17572
#
# Static dielectric constant tensor:
#      x y z
#    x 1.842950 0.000000 0.000000 
#    y 0.000000 1.788070 0.000000 
#    z 0.000000 0.000000 1.838080 
# 
# From -- ./inp_files/3697.got.cif
#   From: 2010.05.17/outbox.cif.g08.bks.cpg/sg38_2_cif.got.tgz:3697.got - 2010.06.03 18:07:57.
