data_PCOD9358226
_publ_section_title
;
Structure prediction by ZEFSAII (Michael W. Deem and Ramdas Pophale) SiO2 
 PCOD9358226
Probable space group: A M M 2
;
_chemical_formula_sum "Si O2"
_cell_formula_units_Z 48
_cell_length_a 7.798311
_cell_length_b 9.455514
_cell_length_c 35.495819
_cell_angle_alpha 90.000000
_cell_angle_beta 90.000000
_cell_angle_gamma 90.000000
_cell_volume 2617.356584
_symmetry_space_group_name_H-M "A M M 2"
_symmetry_group_IT_number 38
_symmetry_cell_setting 'orthorhombic'
loop_
_space_group_symop_operation_xyz
x,y,z
-x,-y,z
-x,y,z
x,-y,z
x,1/2+y,1/2+z
-x,1/2-y,1/2+z
-x,1/2+y,1/2+z
x,1/2-y,1/2+z
loop_
_atom_site_type_symbol
_atom_site_label
_atom_site_fract_x
_atom_site_fract_y
_atom_site_fract_z
Si Si1 0.792560 0.163965 0.215540
Si Si2 0.500000 0.827843 0.930136
Si Si3 0.297761 0.838435 0.642370
Si Si4 0.192367 0.667044 0.570178
Si Si5 0.791426 0.162840 0.299706
Si Si6 0.500000 0.672150 0.516141
Si Si7 0.799588 0.169989 0.873878
O O1 0.728688 0.262218 0.182226
O O2 0.735609 0.206859 0.257703
O O3 0.000000 0.167268 0.214853
O O4 0.741037 0.000000 0.209617
O O5 0.330134 0.786143 0.906916
O O6 0.500000 0.000000 0.931140
O O7 0.500000 0.777261 0.973168
O O8 0.500000 0.838983 0.634004
O O9 0.210365 0.751244 0.608984
O O10 0.236019 0.000000 0.643800
O O11 0.221141 0.500000 0.578016
O O12 0.333206 0.714490 0.539992
O O13 0.000000 0.682849 0.555191
O O14 0.741580 0.259887 0.334608
O O15 0.000000 0.164011 0.298936
O O16 0.738166 0.000000 0.305580
O O17 0.500000 0.500000 0.514790
O O18 0.000000 0.207774 0.880926
O O19 0.792026 0.000000 0.870371
#
# Coordination Sequence:
#
# PCOD9358226 Si02
#       7
#     8   4   8   8   8   4   8
#     4   9  18  33  53  76 101 134 178 223 265 308
#     4   9  18  32  51  78 109 136 165 210 261 305
#     4  11  23  36  50  73 107 144 178 215 262 314
#     4  10  20  35  58  83 104 135 177 216 261 315
#     4   8  15  30  51  73 100 134 172 216 260 301
#     4   9  18  34  55  80 109 134 165 216 265 307
#     4   9  17  30  50  75 103 138 175 209 253 307
#
# _framework density 18.339113000000001
#
# number of rings (size 3 to 8) (size 9 to 14) (size 15 to 20)
#    0.000    2.667    0.833    2.000    0.000    5.000 
#    1.500    5.417    0.000    2.000    0.000    2.333 
#    0.000    0.000    0.000    0.000    0.000    0.000 
#
# Total GULP energy -133845.411747 kJ/mol
# GULP energy per Si atom -5576.892156 kJ/mol
# Density = 1.829737 g / cm^3
# Si number density = 18.339113 Si / 1000 Ang^3
#
#
#
# Elastic Constant Matrix: (Units=GPa)
#
#
# Indices 1 2 3 4 5 6 
#
# 1 81.0347 34.9938 64.2752 0.0000 0.0000 0.0000
# 2 34.9938 44.7524 56.7743 0.0000 0.0000 0.0000
# 3 64.2752 56.7743 166.7261 0.0000 0.0000 0.0000
# 4 0.0000 0.0000 0.0000 22.7666 0.0000 0.0000
# 5 0.0000 0.0000 0.0000 0.0000 33.8994 0.0000
# 6 0.0000 0.0000 0.0000 0.0000 0.0000 13.7139
#
#
#
# Elastic Compliance Matrix: (Units=1/GPa)
#
#
# Indices 1 2 3 4 5 6 
#
# 1 0.020203 -0.010417 -0.004241 0.000000 0.000000 0.000000
# 2 -0.010417 0.044711 -0.011209 0.000000 0.000000 0.000000
# 3 -0.004241 -0.011209 0.011450 0.000000 0.000000 0.000000
# 4 0.000000 0.000000 0.000000 0.043924 0.000000 0.000000
# 5 0.000000 0.000000 0.000000 0.000000 0.029499 0.000000
# 6 0.000000 0.000000 0.000000 0.000000 0.000000 0.072919
#
#
# Mechanical properties :
#
#
# Convention : Reuss Voigt Hill
#
# Bulk Modulus (GPa) = 40.60262 67.17777 53.89020
# Shear Modulus (GPa) = 17.68968 23.17397 20.43183
#
# Velocity S-wave (km/s) = 3.10915 3.55862 3.34145
# Velocity P-wave (km/s) = 5.92259 7.32089 6.65855
#
# Compressibility (1/GPa) = 0.02462895
#
# Stress axis : x y z
#
# Youngs Moduli (GPa) = 49.49779 22.36576 87.33613
#
# Poissons Ratio (x) = 0.23298 0.37042
# Poissons Ratio (y) = 0.51561 0.97899
# Poissons Ratio (z) = 0.20993 0.25071
#
# Static dielectric constant tensor:
#      x y z
#    x 1.663880 0.000000 0.000000 
#    y 0.000000 1.614750 0.000000 
#    z 0.000000 0.000000 1.606180 
# 
# From -- ./inp_files/24321.got.cif
#   From: 2010.05.17/outbox.cif.g08.bks.cpg/sg38_13_cif.got.tgz:24321.got - 2010.06.03 18:07:57.
