data_PCOD9358231
_publ_section_title
;
Structure prediction by ZEFSAII (Michael W. Deem and Ramdas Pophale) SiO2 
 PCOD9358231
Probable space group: A M M 2
;
_chemical_formula_sum "Si O2"
_cell_formula_units_Z 40
_cell_length_a 14.823310
_cell_length_b 7.490275
_cell_length_c 16.242486
_cell_angle_alpha 90.000000
_cell_angle_beta 90.000000
_cell_angle_gamma 90.000000
_cell_volume 1803.414076
_symmetry_space_group_name_H-M "A M M 2"
_symmetry_group_IT_number 38
_symmetry_cell_setting 'orthorhombic'
loop_
_space_group_symop_operation_xyz
x,y,z
-x,-y,z
-x,y,z
x,-y,z
x,1/2+y,1/2+z
-x,1/2-y,1/2+z
-x,1/2+y,1/2+z
x,1/2-y,1/2+z
loop_
_atom_site_type_symbol
_atom_site_label
_atom_site_fract_x
_atom_site_fract_y
_atom_site_fract_z
Si Si1 0.400161 0.715584 0.269990
Si Si2 0.599033 0.717413 0.077161
Si Si3 0.783643 0.787336 0.502571
Si Si4 0.896912 0.284536 0.665015
Si Si5 0.795333 0.706619 0.826010
O O1 0.500000 0.773060 0.298749
O O2 0.397563 0.500000 0.273546
O O3 0.391642 0.766860 0.173509
O O4 0.312919 0.785502 0.316574
O O5 0.500000 0.775424 0.048011
O O6 0.599876 0.500000 0.075557
O O7 0.684781 0.783654 0.027024
O O8 0.848619 0.762478 0.579843
O O9 0.817886 0.714487 0.415278
O O10 0.773022 0.000000 0.491139
O O11 0.897269 0.500000 0.667859
O O12 0.840673 0.215773 0.743902
O O13 0.000000 0.222466 0.667822
O O14 0.824263 0.500000 0.826905
#
# Coordination Sequence:
#
# PCOD9358231 Si02
#       5
#     8   8   8   8   8
#     4   9  17  31  53  79 110 149 186 219 259 311
#     4   8  14  27  49  76 106 140 176 214 256 303
#     4  10  20  35  58  85 108 138 182 225 264 316
#     4  10  22  40  57  75 107 145 176 219 282 335
#     4  10  21  35  55  84 113 140 175 224 277 322
#
# _framework density 22.180153000000001
#
# number of rings (size 3 to 8) (size 9 to 14) (size 15 to 20)
#    0.000    2.600    2.000    1.200    0.000    3.200 
#    0.000    4.000    0.000    0.600    0.000    0.000 
#    0.000    0.000    0.000    0.000    0.000    0.000 
#
# Total GULP energy -111667.253492 kJ/mol
# GULP energy per Si atom -5583.362675 kJ/mol
# Density = 2.212967 g / cm^3
# Si number density = 22.180153 Si / 1000 Ang^3
#
#
#
# Elastic Constant Matrix: (Units=GPa)
#
#
# Indices 1 2 3 4 5 6 
#
# 1 116.2802 -10.3575 81.9009 0.0000 0.0000 0.0000
# 2 -10.3575 59.8510 1.6175 0.0000 0.0000 0.0000
# 3 81.9009 1.6175 178.1523 0.0000 0.0000 0.0000
# 4 0.0000 0.0000 0.0000 4.9679 0.0000 0.0000
# 5 0.0000 0.0000 0.0000 0.0000 -4.0181 0.0000
# 6 0.0000 0.0000 0.0000 0.0000 0.0000 16.0701
#
#
#
# Elastic Compliance Matrix: (Units=1/GPa)
#
#
# Indices 1 2 3 4 5 6 
#
# 1 0.013060 0.002423 -0.006026 0.000000 0.000000 0.000000
# 2 0.002423 0.017162 -0.001270 0.000000 0.000000 0.000000
# 3 -0.006026 -0.001270 0.008395 0.000000 0.000000 0.000000
# 4 0.000000 0.000000 0.000000 0.201291 0.000000 0.000000
# 5 0.000000 0.000000 0.000000 0.000000 -0.248872 0.000000
# 6 0.000000 0.000000 0.000000 0.000000 0.000000 0.062227
#
#
# Mechanical properties :
#
#
# Convention : Reuss Voigt Hill
#
# Bulk Modulus (GPa) = 34.63644 55.62282 45.12963
# Shear Modulus (GPa) = 68.83890 22.14548 45.49219
#
# Velocity S-wave (km/s) = 5.57706 3.16323 4.53374
# Velocity P-wave (km/s) = 7.55787 6.20271 6.91357
#
# Compressibility (1/GPa) = 0.02887133
#
# Stress axis : x y z
#
# Youngs Moduli (GPa) = 76.56892 58.26904 119.11818
#
# Poissons Ratio (x) = -0.14118 0.71781
# Poissons Ratio (y) = -0.18552 0.15125
# Poissons Ratio (z) = 0.46141 0.07398
#
# Static dielectric constant tensor:
#      x y z
#    x 1.787040 0.000000 0.000000 
#    y 0.000000 1.839600 0.000000 
#    z 0.000000 0.000000 1.830080 
# 
# From -- ./inp_files/13483.got.cif
#   From: 2010.05.17/outbox.cif.g08.bks.cpg/sg38_7_cif.got.tgz:13483.got - 2010.06.03 18:07:57.
