data_PCOD9358024
_publ_section_title
;
Structure prediction by ZEFSAII (Michael W. Deem and Ramdas Pophale) SiO2 
 PCOD9358024
Probable space group: A M M 2
;
_chemical_formula_sum "Si O2"
_cell_formula_units_Z 40
_cell_length_a 8.800398
_cell_length_b 8.006372
_cell_length_c 29.479194
_cell_angle_alpha 90.000000
_cell_angle_beta 90.000000
_cell_angle_gamma 90.000000
_cell_volume 2077.082199
_symmetry_space_group_name_H-M "A M M 2"
_symmetry_group_IT_number 38
_symmetry_cell_setting 'orthorhombic'
loop_
_space_group_symop_operation_xyz
x,y,z
-x,-y,z
-x,y,z
x,-y,z
x,1/2+y,1/2+z
-x,1/2-y,1/2+z
-x,1/2+y,1/2+z
x,1/2-y,1/2+z
loop_
_atom_site_type_symbol
_atom_site_label
_atom_site_fract_x
_atom_site_fract_y
_atom_site_fract_z
Si Si1 0.821038 0.301059 0.471580
Si Si2 0.682847 0.815801 0.165221
Si Si3 0.681177 0.688024 0.879663
Si Si4 0.181146 0.000000 0.825700
Si Si5 0.684700 0.000000 0.725211
Si Si6 0.820189 0.801021 0.572098
O O1 0.809553 0.500000 0.465013
O O2 0.729463 0.211629 0.431973
O O3 0.768714 0.256522 0.522298
O O4 0.000000 0.254554 0.468145
O O5 0.500000 0.812855 0.165522
O O6 0.733831 0.664259 0.197238
O O7 0.737571 0.784075 0.114088
O O8 0.733550 0.000000 0.180438
O O9 0.500000 0.705974 0.875339
O O10 0.723425 0.500000 0.864885
O O11 0.760411 0.834966 0.851631
O O12 0.247224 0.000000 0.775118
O O13 0.000000 0.000000 0.825504
O O14 0.500000 0.000000 0.728018
O O15 0.000000 0.762659 0.575132
O O16 0.800370 0.000000 0.575708
#
# Coordination Sequence:
#
# PCOD9358024 Si02
#       6
#     8   8   8   4   4   8
#     4  10  20  35  57  87 123 165 208 254 310 367
#     4  10  21  38  61  88 119 158 203 251 305 361
#     4  11  24  42  65  93 126 165 209 258 312 373
#     4  12  26  44  68  96 126 162 206 262 323 382
#     4  10  22  42  64  88 122 160 204 260 313 370
#     4  10  20  34  55  85 123 165 207 250 301 362
#
# _framework density 19.257784000000001
#
# number of rings (size 3 to 8) (size 9 to 14) (size 15 to 20)
#    0.000    1.600    2.000    2.700    0.000    6.000 
#    0.000    2.000    0.000    0.000    0.000    0.000 
#    0.000    0.000    0.000    0.000    0.000    0.000 
#
# Total GULP energy -111771.385368 kJ/mol
# GULP energy per Si atom -5588.569268 kJ/mol
# Density = 1.921395 g / cm^3
# Si number density = 19.257784 Si / 1000 Ang^3
#
#
#
# Elastic Constant Matrix: (Units=GPa)
#
#
# Indices 1 2 3 4 5 6 
#
# 1 33.7372 49.4459 31.7031 0.0000 0.0000 0.0000
# 2 49.4459 150.4835 86.3263 0.0000 0.0000 0.0000
# 3 31.7031 86.3263 132.7183 0.0000 0.0000 0.0000
# 4 0.0000 0.0000 0.0000 26.6425 0.0000 0.0000
# 5 0.0000 0.0000 0.0000 0.0000 37.8365 0.0000
# 6 0.0000 0.0000 0.0000 0.0000 0.0000 1.1665
#
#
#
# Elastic Compliance Matrix: (Units=1/GPa)
#
#
# Indices 1 2 3 4 5 6 
#
# 1 0.057616 -0.017605 -0.002312 0.000000 0.000000 0.000000
# 2 -0.017605 0.015980 -0.006189 0.000000 0.000000 0.000000
# 3 -0.002312 -0.006189 0.012113 0.000000 0.000000 0.000000
# 4 0.000000 0.000000 0.000000 0.037534 0.000000 0.000000
# 5 0.000000 0.000000 0.000000 0.000000 0.026430 0.000000
# 6 0.000000 0.000000 0.000000 0.000000 0.000000 0.857280
#
#
# Mechanical properties :
#
#
# Convention : Reuss Voigt Hill
#
# Bulk Modulus (GPa) = 29.85350 72.43218 51.14284
# Shear Modulus (GPa) = 4.67146 23.09334 13.88240
#
# Velocity S-wave (km/s) = 1.55917 3.46666 2.68782
# Velocity P-wave (km/s) = 4.33325 7.32920 6.02056
#
# Compressibility (1/GPa) = 0.03349691
#
# Stress axis : x y z
#
# Youngs Moduli (GPa) = 17.35636 62.57699 82.55926
#
# Poissons Ratio (x) = 1.10169 0.19085
# Poissons Ratio (y) = 0.30556 0.51095
# Poissons Ratio (z) = 0.04012 0.38728
#
# Static dielectric constant tensor:
#      x y z
#    x 1.649400 0.000000 0.000000 
#    y 0.000000 1.694490 0.000000 
#    z 0.000000 0.000000 1.636410 
# 
# From -- ./inp_files/23249.got.cif
#   From: 2010.05.17/outbox.cif.g08.bks.cpg/sg38_12_cif.got.tgz:23249.got - 2010.06.03 18:07:57.
