data_PCOD9358531
_publ_section_title
;
Structure prediction by ZEFSAII (Michael W. Deem and Ramdas Pophale) SiO2 
 PCOD9358531
Probable space group: A M M 2
;
_chemical_formula_sum "Si O2"
_cell_formula_units_Z 64
_cell_length_a 8.143153
_cell_length_b 31.788207
_cell_length_c 12.234768
_cell_angle_alpha 90.000000
_cell_angle_beta 90.000000
_cell_angle_gamma 90.000000
_cell_volume 3167.045959
_symmetry_space_group_name_H-M "A M M 2"
_symmetry_group_IT_number 38
_symmetry_cell_setting 'orthorhombic'
loop_
_space_group_symop_operation_xyz
x,y,z
-x,-y,z
-x,y,z
x,-y,z
x,1/2+y,1/2+z
-x,1/2-y,1/2+z
-x,1/2+y,1/2+z
x,1/2-y,1/2+z
loop_
_atom_site_type_symbol
_atom_site_label
_atom_site_fract_x
_atom_site_fract_y
_atom_site_fract_z
Si Si1 0.190828 0.337969 0.480440
Si Si2 0.690986 0.200598 0.760890
Si Si3 0.804085 0.454054 0.234580
Si Si4 0.199569 0.372387 0.102028
Si Si5 0.196862 0.546037 0.713973
Si Si6 0.310466 0.431323 0.473658
Si Si7 0.801490 0.293627 0.704324
Si Si8 0.200598 0.373011 0.849346
O O1 0.208794 0.313133 0.367863
O O2 0.291404 0.380906 0.474499
O O3 0.241377 0.309776 0.583197
O O4 0.000000 0.350192 0.497483
O O5 0.500000 0.195229 0.786605
O O6 0.738404 0.169018 0.663495
O O7 0.727284 0.248529 0.730206
O O8 0.738127 0.500000 0.201693
O O9 0.741399 0.413853 0.167344
O O10 0.772821 0.447417 0.363037
O O11 0.000000 0.454681 0.217313
O O12 0.000000 0.371633 0.105850
O O13 0.250225 0.373804 0.975646
O O14 0.259545 0.500000 0.748875
O O15 0.234143 0.552333 0.586185
O O16 0.259178 0.585950 0.782788
O O17 0.000000 0.545824 0.727096
O O18 0.500000 0.443505 0.470445
O O19 0.749334 0.330247 0.788227
O O20 0.000000 0.289854 0.709782
O O21 0.000000 0.373565 0.846615
#
# Coordination Sequence:
#
# PCOD9358531 Si02
#       8
#     8   8   8   8   8   8   8   8
#     4  11  22  41  68  91 118 157 204 251 299 354
#     4  12  26  41  60  91 128 158 196 245 301 360
#     4  10  21  37  59  87 119 159 204 248 297 356
#     4  10  21  39  63  87 119 160 203 249 297 355
#     4  10  20  37  62  90 121 158 201 249 300 358
#     4  12  23  36  58  89 125 159 197 249 309 360
#     4  10  22  41  65  89 118 157 202 246 294 354
#     4   9  19  38  62  90 117 152 203 252 297 349
#
# _framework density 20.208103999999999
#
# number of rings (size 3 to 8) (size 9 to 14) (size 15 to 20)
#    0.000    1.500    2.500    3.000    1.750    3.500 
#    0.000    3.125    0.000    0.000    0.000    1.750 
#    0.000    0.000    0.000    0.000    0.000    0.000 
#
# Total GULP energy -178862.432060 kJ/mol
# GULP energy per Si atom -5589.451002 kJ/mol
# Density = 2.016211 g / cm^3
# Si number density = 20.208104 Si / 1000 Ang^3
#
#
#
# Elastic Constant Matrix: (Units=GPa)
#
#
# Indices 1 2 3 4 5 6 
#
# 1 17.8953 6.2874 -4.6763 0.0000 0.0000 0.0000
# 2 6.2874 182.1885 73.7819 0.0000 0.0000 0.0000
# 3 -4.6763 73.7819 133.4546 0.0000 0.0000 0.0000
# 4 0.0000 0.0000 0.0000 -13.2816 0.0000 0.0000
# 5 0.0000 0.0000 0.0000 0.0000 -10.9766 0.0000
# 6 0.0000 0.0000 0.0000 0.0000 0.0000 -17.4861
#
#
#
# Elastic Compliance Matrix: (Units=1/GPa)
#
#
# Indices 1 2 3 4 5 6 
#
# 1 0.058225 -0.003654 0.004060 0.000000 0.000000 0.000000
# 2 -0.003654 0.007302 -0.004165 0.000000 0.000000 0.000000
# 3 0.004060 -0.004165 0.009938 0.000000 0.000000 0.000000
# 4 0.000000 0.000000 0.000000 -0.075292 0.000000 0.000000
# 5 0.000000 0.000000 0.000000 0.000000 -0.091103 0.000000
# 6 0.000000 0.000000 0.000000 0.000000 0.000000 -0.057188
#
#
# Mechanical properties :
#
#
# Convention : Reuss Voigt Hill
#
# Bulk Modulus (GPa) = 14.71704 53.81382 34.26543
# Shear Modulus (GPa) = -42.38986 8.86084 -16.76451
#
# Velocity S-wave (km/s) = -4.58500 2.09626 -2.88339
# Velocity P-wave (km/s) = 4.55314 5.70497 2.43060
#
# Compressibility (1/GPa) = 0.06794846
#
# Stress axis : x y z
#
# Youngs Moduli (GPa) = 17.17464 136.95755 100.62402
#
# Poissons Ratio (x) = 0.50040 -0.40855
# Poissons Ratio (y) = 0.06275 0.41907
# Poissons Ratio (z) = -0.06973 0.57039
#
# Static dielectric constant tensor:
#      x y z
#    x 1.699960 0.000000 0.000000 
#    y 0.000000 1.707680 0.000000 
#    z 0.000000 0.000000 1.679510 
# 
# From -- ./inp_files/8553.got.cif
#   From: 2010.05.17/outbox.cif.g08.bks.cpg/sg38_5_cif.got.tgz:8553.got - 2010.06.03 18:07:57.
