data_PCOD9358368
_publ_section_title
;
Structure prediction by ZEFSAII (Michael W. Deem and Ramdas Pophale) SiO2 
 PCOD9358368
Probable space group: A M M 2
;
_chemical_formula_sum "Si O2"
_cell_formula_units_Z 64
_cell_length_a 7.784710
_cell_length_b 24.502670
_cell_length_c 15.904821
_cell_angle_alpha 90.000000
_cell_angle_beta 90.000000
_cell_angle_gamma 90.000000
_cell_volume 3033.783852
_symmetry_space_group_name_H-M "A M M 2"
_symmetry_group_IT_number 38
_symmetry_cell_setting 'orthorhombic'
loop_
_space_group_symop_operation_xyz
x,y,z
-x,-y,z
-x,y,z
x,-y,z
x,1/2+y,1/2+z
-x,1/2-y,1/2+z
-x,1/2+y,1/2+z
x,1/2-y,1/2+z
loop_
_atom_site_type_symbol
_atom_site_label
_atom_site_fract_x
_atom_site_fract_y
_atom_site_fract_z
Si Si1 0.793618 0.369171 0.432290
Si Si2 0.297188 0.938702 0.580094
Si Si3 0.290032 0.860260 0.245546
Si Si4 0.197568 0.878134 0.747539
Si Si5 0.707404 0.437990 0.594860
Si Si6 0.796582 0.245922 0.005147
Si Si7 0.291871 0.139267 0.432206
Si Si8 0.699353 0.740319 0.196300
O O1 0.726402 0.385991 0.340590
O O2 0.754605 0.411393 0.506016
O O3 0.731016 0.309432 0.461806
O O4 0.000000 0.364593 0.423454
O O5 0.500000 0.943016 0.562784
O O6 0.280292 0.910020 0.670272
O O7 0.225986 0.899578 0.506823
O O8 0.224934 0.000000 0.580179
O O9 0.500000 0.859392 0.241871
O O10 0.230060 0.899230 0.170512
O O11 0.239978 0.878730 0.338786
O O12 0.233413 0.797904 0.230796
O O13 0.206863 0.813554 0.728103
O O14 0.000000 0.895928 0.748381
O O15 0.500000 0.438957 0.599948
O O16 0.769772 0.500000 0.602270
O O17 0.766231 0.299027 0.949043
O O18 0.000000 0.239705 0.020485
O O19 0.710982 0.255948 0.095396
O O20 0.500000 0.139764 0.434879
O O21 0.500000 0.734498 0.220904
#
# Coordination Sequence:
#
# PCOD9358368 Si02
#       8
#     8   8   8   8   8   8   8   8
#     4  10  23  40  58  83 116 153 190 231 288 345
#     4  10  22  39  58  82 113 150 194 239 282 334
#     4   9  19  35  57  87 117 147 185 229 282 339
#     4  11  23  39  59  84 115 151 190 236 287 342
#     4  10  21  38  60  85 114 150 194 242 284 328
#     4  11  21  35  57  85 116 150 185 229 282 340
#     4  10  20  36  59  85 115 150 186 229 282 340
#     4  11  20  34  58  86 117 151 183 227 283 341
#
# _framework density 21.095769000000001
#
# number of rings (size 3 to 8) (size 9 to 14) (size 15 to 20)
#    0.000    1.750    2.500    1.875    0.000    3.000 
#    0.000    6.250    0.000    0.000    0.000    1.750 
#    0.000    0.000    0.000    0.000    0.000    0.000 
#
# Total GULP energy -178822.536210 kJ/mol
# GULP energy per Si atom -5588.204257 kJ/mol
# Density = 2.104775 g / cm^3
# Si number density = 21.095769 Si / 1000 Ang^3
#
#
#
# Elastic Constant Matrix: (Units=GPa)
#
#
# Indices 1 2 3 4 5 6 
#
# 1 28.8830 -8.3591 -12.3520 0.0000 0.0000 0.0000
# 2 -8.3591 114.3905 39.0847 0.0000 0.0000 0.0000
# 3 -12.3520 39.0847 130.1693 0.0000 0.0000 0.0000
# 4 0.0000 0.0000 0.0000 -1.7803 0.0000 0.0000
# 5 0.0000 0.0000 0.0000 0.0000 24.6562 0.0000
# 6 0.0000 0.0000 0.0000 0.0000 0.0000 -465.9172
#
#
#
# Elastic Compliance Matrix: (Units=1/GPa)
#
#
# Indices 1 2 3 4 5 6 
#
# 1 0.036363 0.001647 0.002956 0.000000 0.000000 0.000000
# 2 0.001647 0.009816 -0.002791 0.000000 0.000000 0.000000
# 3 0.002956 -0.002791 0.008801 0.000000 0.000000 0.000000
# 4 0.000000 0.000000 0.000000 -0.561716 0.000000 0.000000
# 5 0.000000 0.000000 0.000000 0.000000 0.040558 0.000000
# 6 0.000000 0.000000 0.000000 0.000000 0.000000 -0.002146
#
#
# Mechanical properties :
#
#
# Convention : Reuss Voigt Hill
#
# Bulk Modulus (GPa) = 17.06349 34.46553 25.76451
# Shear Modulus (GPa) = -11.05184 -71.60363 -41.32774
#
# Velocity S-wave (km/s) = -2.29134 -5.83231 -4.43092
# Velocity P-wave (km/s) = 1.05157 5.38343 3.73333
#
# Compressibility (1/GPa) = 0.05860465
#
# Stress axis : x y z
#
# Youngs Moduli (GPa) = 27.50019 101.87458 113.62549
#
# Poissons Ratio (x) = -0.16782 -0.33587
# Poissons Ratio (y) = -0.04530 0.31713
# Poissons Ratio (z) = -0.08129 0.28434
#
# Static dielectric constant tensor:
#      x y z
#    x 1.781960 0.000000 0.000000 
#    y 0.000000 1.730830 0.000000 
#    z 0.000000 0.000000 1.749730 
# 
# From -- ./inp_files/12758.got.cif
#   From: 2010.05.17/outbox.cif.g08.bks.cpg/sg38_7_cif.got.tgz:12758.got - 2010.06.03 18:07:57.
