data_PCOD9358473
_publ_section_title
;
Structure prediction by ZEFSAII (Michael W. Deem and Ramdas Pophale) SiO2 
 PCOD9358473
Probable space group: A M M 2
;
_chemical_formula_sum "Si O2"
_cell_formula_units_Z 48
_cell_length_a 17.859089
_cell_length_b 8.615169
_cell_length_c 16.065001
_cell_angle_alpha 90.000000
_cell_angle_beta 90.000000
_cell_angle_gamma 90.000000
_cell_volume 2471.746112
_symmetry_space_group_name_H-M "A M M 2"
_symmetry_group_IT_number 38
_symmetry_cell_setting 'orthorhombic'
loop_
_space_group_symop_operation_xyz
x,y,z
-x,-y,z
-x,y,z
x,-y,z
x,1/2+y,1/2+z
-x,1/2-y,1/2+z
-x,1/2+y,1/2+z
x,1/2-y,1/2+z
loop_
_atom_site_type_symbol
_atom_site_label
_atom_site_fract_x
_atom_site_fract_y
_atom_site_fract_z
Si Si1 0.000000 0.174929 0.645061
Si Si2 0.586902 0.312043 0.748410
Si Si3 0.844523 0.820254 0.395543
Si Si4 0.683819 0.313508 0.591891
Si Si5 0.000000 0.828043 0.841196
Si Si6 0.149453 0.816212 0.075478
Si Si7 0.685124 0.814544 0.898462
O O1 0.000000 0.157384 0.743009
O O2 0.074553 0.268190 0.621846
O O3 0.000000 0.000000 0.607177
O O4 0.500000 0.266174 0.747147
O O5 0.590728 0.500000 0.748621
O O6 0.628945 0.255475 0.664237
O O7 0.627442 0.253153 0.831792
O O8 0.848658 0.788432 0.493675
O O9 0.768937 0.731992 0.369574
O O10 0.923457 0.757488 0.363558
O O11 0.836306 0.000000 0.374866
O O12 0.673795 0.500000 0.587820
O O13 0.770374 0.286970 0.618427
O O14 0.674212 0.259292 0.495342
O O15 0.000000 0.000000 0.881005
O O16 0.147808 0.000000 0.053796
O O17 0.679510 0.000000 0.899516
#
# Coordination Sequence:
#
# PCOD9358473 Si02
#       7
#     4   8   8   8   4   8   8
#     4  11  24  37  52  81 117 151 194 243 294 343
#     4  10  21  38  61  90 121 154 194 244 299 360
#     4  11  22  38  60  84 113 153 199 243 296 351
#     4   8  18  37  60  85 114 155 199 238 288 355
#     4  11  24  39  54  81 119 155 196 245 294 341
#     4  10  20  37  59  81 111 152 198 242 290 348
#     4  10  21  39  62  89 120 157 200 247 301 357
#
# _framework density 19.41947
#
# number of rings (size 3 to 8) (size 9 to 14) (size 15 to 20)
#    0.000    2.000    0.000    4.500    2.333    2.333 
#    0.000    5.833    0.000    0.000    0.000    0.000 
#    0.000    0.000    0.000    0.000    0.000    0.000 
#
# Total GULP energy -133860.779277 kJ/mol
# GULP energy per Si atom -5577.532470 kJ/mol
# Density = 1.937527 g / cm^3
# Si number density = 19.419470 Si / 1000 Ang^3
#
#
#
# Elastic Constant Matrix: (Units=GPa)
#
#
# Indices 1 2 3 4 5 6 
#
# 1 181.6568 27.9299 87.0069 0.0000 0.0000 0.0000
# 2 27.9299 38.0056 14.9701 0.0000 0.0000 0.0000
# 3 87.0069 14.9701 86.5143 0.0000 0.0000 0.0000
# 4 0.0000 0.0000 0.0000 17.4921 0.0000 0.0000
# 5 0.0000 0.0000 0.0000 0.0000 -23.4282 0.0000
# 6 0.0000 0.0000 0.0000 0.0000 0.0000 27.6050
#
#
#
# Elastic Compliance Matrix: (Units=1/GPa)
#
#
# Indices 1 2 3 4 5 6 
#
# 1 0.011176 -0.004063 -0.010537 0.000000 0.000000 0.000000
# 2 -0.004063 0.029713 -0.001055 0.000000 0.000000 0.000000
# 3 -0.010537 -0.001055 0.022338 0.000000 0.000000 0.000000
# 4 0.000000 0.000000 0.000000 0.057169 0.000000 0.000000
# 5 0.000000 0.000000 0.000000 0.000000 -0.042684 0.000000
# 6 0.000000 0.000000 0.000000 0.000000 0.000000 0.036225
#
#
# Mechanical properties :
#
#
# Convention : Reuss Voigt Hill
#
# Bulk Modulus (GPa) = 31.33076 62.88784 47.10930
# Shear Modulus (GPa) = 32.07423 16.08512 24.07968
#
# Velocity S-wave (km/s) = 4.06846 2.88114 3.52515
# Velocity P-wave (km/s) = 6.18373 6.59713 6.39378
#
# Compressibility (1/GPa) = 0.03191751
#
# Stress axis : x y z
#
# Youngs Moduli (GPa) = 89.47423 33.65478 44.76595
#
# Poissons Ratio (x) = 0.13674 0.47170
# Poissons Ratio (y) = 0.36353 0.04725
# Poissons Ratio (z) = 0.94279 0.03552
#
# Static dielectric constant tensor:
#      x y z
#    x 2.274830 0.000000 0.000000 
#    y 0.000000 1.709150 0.000000 
#    z 0.000000 0.000000 1.685070 
# 
# From -- ./inp_files/18180.got.cif
#   From: 2010.05.17/outbox.cif.g08.bks.cpg/sg38_10_cif.got.tgz:18180.got - 2010.06.03 18:07:57.
