data_PCOD9358816
_publ_section_title
;
Structure prediction by ZEFSAII (Michael W. Deem and Ramdas Pophale) SiO2 
 PCOD9358816
Probable space group: A M M 2
;
_chemical_formula_sum "Si O2"
_cell_formula_units_Z 56
_cell_length_a 9.680357
_cell_length_b 13.649699
_cell_length_c 19.578356
_cell_angle_alpha 90.000000
_cell_angle_beta 90.000000
_cell_angle_gamma 90.000000
_cell_volume 2586.965694
_symmetry_space_group_name_H-M "A M M 2"
_symmetry_group_IT_number 38
_symmetry_cell_setting 'orthorhombic'
loop_
_space_group_symop_operation_xyz
x,y,z
-x,-y,z
-x,y,z
x,-y,z
x,1/2+y,1/2+z
-x,1/2-y,1/2+z
-x,1/2+y,1/2+z
x,1/2-y,1/2+z
loop_
_atom_site_type_symbol
_atom_site_label
_atom_site_fract_x
_atom_site_fract_y
_atom_site_fract_z
Si Si1 0.162420 0.882670 0.542080
Si Si2 0.851214 0.615799 0.432746
Si Si3 0.835962 0.291248 0.189734
Si Si4 0.654633 0.388571 0.695907
Si Si5 0.356025 0.385810 0.533105
Si Si6 0.337126 0.305592 0.317809
Si Si7 0.663794 0.887038 0.404399
O O1 0.200779 0.827800 0.613195
O O2 0.252189 0.863698 0.473846
O O3 0.000000 0.862624 0.528882
O O4 0.175609 0.000000 0.555413
O O5 0.869749 0.500000 0.437720
O O6 0.786214 0.653525 0.503378
O O7 0.734549 0.635109 0.377958
O O8 0.000000 0.660512 0.416037
O O9 0.787010 0.179822 0.203674
O O10 0.741566 0.338314 0.248935
O O11 0.000000 0.305532 0.199251
O O12 0.500000 0.353669 0.719963
O O13 0.670955 0.500000 0.719409
O O14 0.643077 0.388077 0.613909
O O15 0.500000 0.337748 0.508932
O O16 0.361372 0.500000 0.511923
O O17 0.500000 0.322359 0.313601
O O18 0.311900 0.192665 0.344415
O O19 0.500000 0.883294 0.418940
O O20 0.697552 0.000000 0.385191
#
# Coordination Sequence:
#
# PCOD9358816 Si02
#       7
#     8   8   8   8   8   8   8
#     4   9  20  40  64  89 119 156 198 248 307 366
#     4  10  21  36  55  81 115 153 190 234 289 346
#     4  11  24  39  57  87 122 158 200 248 304 365
#     4   9  19  36  57  81 113 154 194 234 285 345
#     4   8  15  30  52  78 107 141 183 226 272 332
#     4  11  24  40  59  86 119 159 202 247 301 363
#     4   9  20  40  65  91 117 150 199 256 307 357
#
# _framework density 21.646982000000001
#
# number of rings (size 3 to 8) (size 9 to 14) (size 15 to 20)
#    0.000    2.429    0.000    2.143    2.000    5.143 
#    0.000    4.286    0.000    0.000    0.000    0.000 
#    0.000    0.000    0.000    0.000    0.000    0.000 
#
# Total GULP energy -156028.724889 kJ/mol
# GULP energy per Si atom -5572.454460 kJ/mol
# Density = 2.159771 g / cm^3
# Si number density = 21.646982 Si / 1000 Ang^3
#
#
#
# Elastic Constant Matrix: (Units=GPa)
#
#
# Indices 1 2 3 4 5 6 
#
# 1 114.7141 20.0311 63.8267 0.0000 0.0000 0.0000
# 2 20.0311 53.5835 8.3300 0.0000 0.0000 0.0000
# 3 63.8267 8.3300 128.1757 0.0000 0.0000 0.0000
# 4 0.0000 0.0000 0.0000 13.3724 0.0000 0.0000
# 5 0.0000 0.0000 0.0000 0.0000 39.6076 0.0000
# 6 0.0000 0.0000 0.0000 0.0000 0.0000 26.0957
#
#
#
# Elastic Compliance Matrix: (Units=1/GPa)
#
#
# Indices 1 2 3 4 5 6 
#
# 1 0.012792 -0.003830 -0.006121 0.000000 0.000000 0.000000
# 2 -0.003830 0.020000 0.000608 0.000000 0.000000 0.000000
# 3 -0.006121 0.000608 0.010810 0.000000 0.000000 0.000000
# 4 0.000000 0.000000 0.000000 0.074781 0.000000 0.000000
# 5 0.000000 0.000000 0.000000 0.000000 0.025248 0.000000
# 6 0.000000 0.000000 0.000000 0.000000 0.000000 0.038320
#
#
# Mechanical properties :
#
#
# Convention : Reuss Voigt Hill
#
# Bulk Modulus (GPa) = 40.13703 53.42764 46.78234
# Shear Modulus (GPa) = 23.92991 29.43418 26.68205
#
# Velocity S-wave (km/s) = 3.32846 3.69146 3.51465
# Velocity P-wave (km/s) = 5.77524 6.55012 6.17485
#
# Compressibility (1/GPa) = 0.02491465
#
# Stress axis : x y z
#
# Youngs Moduli (GPa) = 78.17477 50.00016 92.50446
#
# Poissons Ratio (x) = 0.19152 0.56621
# Poissons Ratio (y) = 0.29944 -0.05621
# Poissons Ratio (z) = 0.47850 -0.03038
#
# Static dielectric constant tensor:
#      x y z
#    x 1.811730 0.000000 0.000000 
#    y 0.000000 1.902610 0.000000 
#    z 0.000000 0.000000 1.851970 
# 
# From -- ./inp_files/19791.got.cif
#   From: 2010.05.17/outbox.cif.g08.bks.cpg/sg38_10_cif.got.tgz:19791.got - 2010.06.03 18:07:57.
