data_PCOD9358528
_publ_section_title
;
Structure prediction by ZEFSAII (Michael W. Deem and Ramdas Pophale) SiO2 
 PCOD9358528
Probable space group: A M M 2
;
_chemical_formula_sum "Si O2"
_cell_formula_units_Z 56
_cell_length_a 16.998808
_cell_length_b 7.618415
_cell_length_c 19.702885
_cell_angle_alpha 90.000000
_cell_angle_beta 90.000000
_cell_angle_gamma 90.000000
_cell_volume 2551.601904
_symmetry_space_group_name_H-M "A M M 2"
_symmetry_group_IT_number 38
_symmetry_cell_setting 'orthorhombic'
loop_
_space_group_symop_operation_xyz
x,y,z
-x,-y,z
-x,y,z
x,-y,z
x,1/2+y,1/2+z
-x,1/2-y,1/2+z
-x,1/2+y,1/2+z
x,1/2-y,1/2+z
loop_
_atom_site_type_symbol
_atom_site_label
_atom_site_fract_x
_atom_site_fract_y
_atom_site_fract_z
Si Si1 0.590092 0.211346 0.735900
Si Si2 0.319524 0.795554 0.370625
Si Si3 0.851180 0.209944 0.338376
Si Si4 0.000000 0.708599 0.432413
Si Si5 0.587852 0.295213 0.498493
Si Si6 0.146417 0.784878 0.182299
Si Si7 0.694125 0.297813 0.612920
Si Si8 0.000000 0.285600 0.588619
O O1 0.500000 0.262855 0.747907
O O2 0.645802 0.276193 0.795731
O O3 0.623741 0.288340 0.666749
O O4 0.593814 0.000000 0.732487
O O5 0.231043 0.721534 0.369050
O O6 0.380337 0.710506 0.422359
O O7 0.316238 0.000000 0.389096
O O8 0.863285 0.273801 0.260687
O O9 0.923642 0.241657 0.388356
O O10 0.841480 0.000000 0.332535
O O11 0.000000 0.776578 0.510262
O O12 0.000000 0.500000 0.437976
O O13 0.500000 0.219009 0.504932
O O14 0.581933 0.500000 0.518328
O O15 0.656329 0.215842 0.545658
O O16 0.228727 0.723159 0.149597
O O17 0.076096 0.732074 0.132294
O O18 0.146752 0.000000 0.184467
O O19 0.715640 0.500000 0.597471
O O20 0.000000 0.500000 0.586981
#
# Coordination Sequence:
#
# PCOD9358528 Si02
#       8
#     8   8   8   4   8   8   8   4
#     4  11  23  38  58  86 121 157 194 246 307 356
#     4  11  23  39  61  88 116 156 207 250 293 352
#     4  10  21  40  63  86 116 154 195 238 291 349
#     4  11  24  37  59  95 124 149 188 234 288 353
#     4  10  22  38  57  85 122 162 200 247 308 359
#     4   9  17  35  61  86 113 149 194 239 284 340
#     4  10  20  37  62  88 115 155 205 247 292 356
#     4   9  19  33  57  91 118 145 186 234 284 339
#
# _framework density 21.946997
#
# number of rings (size 3 to 8) (size 9 to 14) (size 15 to 20)
#    0.000    1.857    1.429    2.357    2.000    6.571 
#    0.000    0.000    0.000    3.429    0.000    0.000 
#    0.000    0.000    0.000    0.000    0.000    0.000 
#
# Total GULP energy -156382.885362 kJ/mol
# GULP energy per Si atom -5585.103049 kJ/mol
# Density = 2.189704 g / cm^3
# Si number density = 21.946997 Si / 1000 Ang^3
#
#
#
# Elastic Constant Matrix: (Units=GPa)
#
#
# Indices 1 2 3 4 5 6 
#
# 1 130.7991 8.1507 18.4517 0.0000 0.0000 0.0000
# 2 8.1507 47.7102 3.4096 0.0000 0.0000 0.0000
# 3 18.4517 3.4096 86.3305 0.0000 0.0000 0.0000
# 4 0.0000 0.0000 0.0000 17.8579 0.0000 0.0000
# 5 0.0000 0.0000 0.0000 0.0000 35.7450 0.0000
# 6 0.0000 0.0000 0.0000 0.0000 0.0000 2.0140
#
#
#
# Elastic Compliance Matrix: (Units=1/GPa)
#
#
# Indices 1 2 3 4 5 6 
#
# 1 0.007956 -0.001241 -0.001651 0.000000 0.000000 0.000000
# 2 -0.001241 0.021213 -0.000573 0.000000 0.000000 0.000000
# 3 -0.001651 -0.000573 0.011959 0.000000 0.000000 0.000000
# 4 0.000000 0.000000 0.000000 0.055998 0.000000 0.000000
# 5 0.000000 0.000000 0.000000 0.000000 0.027976 0.000000
# 6 0.000000 0.000000 0.000000 0.000000 0.000000 0.496531
#
#
# Mechanical properties :
#
#
# Convention : Reuss Voigt Hill
#
# Bulk Modulus (GPa) = 29.24202 36.09600 32.66901
# Shear Modulus (GPa) = 7.81297 26.77855 17.29576
#
# Velocity S-wave (km/s) = 1.88882 3.49685 2.81030
# Velocity P-wave (km/s) = 4.25555 5.72595 5.04461
#
# Compressibility (1/GPa) = 0.03419736
#
# Stress axis : x y z
#
# Youngs Moduli (GPa) = 125.69748 47.14135 83.61938
#
# Poissons Ratio (x) = 0.05851 0.13809
# Poissons Ratio (y) = 0.15600 0.04787
# Poissons Ratio (z) = 0.20757 0.02699
#
# Static dielectric constant tensor:
#      x y z
#    x 1.703710 0.000000 0.000000 
#    y 0.000000 1.852830 0.000000 
#    z 0.000000 0.000000 1.751790 
# 
# From -- ./inp_files/21145.got.cif
#   From: 2010.05.17/outbox.cif.g08.bks.cpg/sg38_11_cif.got.tgz:21145.got - 2010.06.03 18:07:57.
