data_PCOD9358140
_publ_section_title
;
Structure prediction by ZEFSAII (Michael W. Deem and Ramdas Pophale) SiO2 
 PCOD9358140
Probable space group: A M M 2
;
_chemical_formula_sum "Si O2"
_cell_formula_units_Z 64
_cell_length_a 19.477450
_cell_length_b 7.532312
_cell_length_c 20.092895
_cell_angle_alpha 90.000000
_cell_angle_beta 90.000000
_cell_angle_gamma 90.000000
_cell_volume 2947.833254
_symmetry_space_group_name_H-M "A M M 2"
_symmetry_group_IT_number 38
_symmetry_cell_setting 'orthorhombic'
loop_
_space_group_symop_operation_xyz
x,y,z
-x,-y,z
-x,y,z
x,-y,z
x,1/2+y,1/2+z
-x,1/2-y,1/2+z
-x,1/2+y,1/2+z
x,1/2-y,1/2+z
loop_
_atom_site_type_symbol
_atom_site_label
_atom_site_fract_x
_atom_site_fract_y
_atom_site_fract_z
Si Si1 0.851480 0.212337 0.576530
Si Si2 0.300715 0.706781 0.902492
Si Si3 0.921599 0.291238 0.436633
Si Si4 0.824532 0.700673 0.820295
Si Si5 0.923338 0.291303 0.711607
Si Si6 0.578659 0.285454 0.305246
Si Si7 0.578905 0.216583 0.654091
Si Si8 0.697720 0.282643 0.054309
O O1 0.881749 0.266625 0.505535
O O2 0.899410 0.278362 0.635761
O O3 0.772322 0.271761 0.581812
O O4 0.851617 0.000000 0.579326
O O5 0.280881 0.500000 0.911659
O O6 0.241358 0.787148 0.855544
O O7 0.370553 0.717706 0.861408
O O8 0.306838 0.777913 0.977386
O O9 0.922001 0.500000 0.420358
O O10 0.881471 0.195635 0.377984
O O11 0.000000 0.230250 0.443296
O O12 0.803660 0.500000 0.800110
O O13 0.863187 0.786573 0.757840
O O14 0.927259 0.500000 0.729233
O O15 0.000000 0.216716 0.721325
O O16 0.500000 0.231450 0.316986
O O17 0.581143 0.500000 0.306698
O O18 0.597283 0.229998 0.229786
O O19 0.500000 0.271518 0.640584
O O20 0.634697 0.276810 0.600398
O O21 0.578743 0.000000 0.653457
O O22 0.695680 0.500000 0.054583
#
# Coordination Sequence:
#
# PCOD9358140 Si02
#       8
#     8   8   8   8   8   8   8   8
#     4  11  22  37  57  82 113 147 185 233 283 336
#     4  10  20  35  55  82 114 143 180 227 272 329
#     4  11  23  38  58  83 111 145 189 236 280 335
#     4  10  21  39  59  82 114 150 187 231 286 343
#     4  10  22  39  57  79 110 147 187 232 284 342
#     4   9  19  35  55  81 112 146 184 223 268 326
#     4   8  15  30  53  79 107 141 180 221 266 315
#     4   9  18  33  52  79 111 139 178 227 270 321
#
# _framework density 21.710861000000001
#
# number of rings (size 3 to 8) (size 9 to 14) (size 15 to 20)
#    0.000    2.250    1.250    2.250    1.750    5.000 
#    0.000    1.250    0.000    0.750    0.000    0.000 
#    0.000    0.000    0.000    0.000    0.000    0.000 
#
# Total GULP energy -178718.070432 kJ/mol
# GULP energy per Si atom -5584.939701 kJ/mol
# Density = 2.166145 g / cm^3
# Si number density = 21.710861 Si / 1000 Ang^3
#
#
#
# Elastic Constant Matrix: (Units=GPa)
#
#
# Indices 1 2 3 4 5 6 
#
# 1 88.0972 -2.3457 13.6034 0.0000 0.0000 0.0000
# 2 -2.3457 57.6912 -7.3979 0.0000 0.0000 0.0000
# 3 13.6034 -7.3979 57.5735 0.0000 0.0000 0.0000
# 4 0.0000 0.0000 0.0000 -172.2663 0.0000 0.0000
# 5 0.0000 0.0000 0.0000 0.0000 48.3766 0.0000
# 6 0.0000 0.0000 0.0000 0.0000 0.0000 13.6764
#
#
#
# Elastic Compliance Matrix: (Units=1/GPa)
#
#
# Indices 1 2 3 4 5 6 
#
# 1 0.011782 0.000124 -0.002768 0.000000 0.000000 0.000000
# 2 0.000124 0.017625 0.002235 0.000000 0.000000 0.000000
# 3 -0.002768 0.002235 0.018310 0.000000 0.000000 0.000000
# 4 0.000000 0.000000 0.000000 -0.005805 0.000000 0.000000
# 5 0.000000 0.000000 0.000000 0.000000 0.020671 0.000000
# 6 0.000000 0.000000 0.000000 0.000000 0.000000 0.073119
#
#
# Mechanical properties :
#
#
# Convention : Reuss Voigt Hill
#
# Bulk Modulus (GPa) = 21.32154 23.45350 22.38752
# Shear Modulus (GPa) = 32.86177 -8.74253 12.05962
#
# Velocity S-wave (km/s) = 3.89473 -2.00887 2.35939
# Velocity P-wave (km/s) = 5.48336 2.33354 4.21383
#
# Compressibility (1/GPa) = 0.04690093
#
# Stress axis : x y z
#
# Youngs Moduli (GPa) = 84.87665 56.73643 54.61395
#
# Poissons Ratio (x) = -0.00704 0.15116
# Poissons Ratio (y) = -0.01053 -0.12209
# Poissons Ratio (z) = 0.23493 -0.12683
#
# Static dielectric constant tensor:
#      x y z
#    x 1.774100 0.000000 0.000000 
#    y 0.000000 1.878150 0.000000 
#    z 0.000000 0.000000 1.747170 
# 
# From -- ./inp_files/18904.got.cif
#   From: 2010.05.17/outbox.cif.g08.bks.cpg/sg38_10_cif.got.tgz:18904.got - 2010.06.03 18:07:57.
