data_PCOD9358436
_publ_section_title
;
Structure prediction by ZEFSAII (Michael W. Deem and Ramdas Pophale) SiO2 
 PCOD9358436
Probable space group: A M M 2
;
_chemical_formula_sum "Si O2"
_cell_formula_units_Z 64
_cell_length_a 27.292820
_cell_length_b 13.734686
_cell_length_c 8.046919
_cell_angle_alpha 90.000000
_cell_angle_beta 90.000000
_cell_angle_gamma 90.000000
_cell_volume 3016.454479
_symmetry_space_group_name_H-M "A M M 2"
_symmetry_group_IT_number 38
_symmetry_cell_setting 'orthorhombic'
loop_
_space_group_symop_operation_xyz
x,y,z
-x,-y,z
-x,y,z
x,-y,z
x,1/2+y,1/2+z
-x,1/2-y,1/2+z
-x,1/2+y,1/2+z
x,1/2-y,1/2+z
loop_
_atom_site_type_symbol
_atom_site_label
_atom_site_fract_x
_atom_site_fract_y
_atom_site_fract_z
Si Si1 0.222067 0.382577 0.658230
Si Si2 0.052597 0.362024 0.963560
Si Si3 0.052870 0.361898 0.362517
Si Si4 0.390218 0.234745 0.940014
Si Si5 0.664095 0.117436 0.225517
Si Si6 0.836481 0.388629 0.346221
Si Si7 0.837180 0.110646 0.469945
Si Si8 0.442464 0.614429 0.151783
O O1 0.214593 0.500000 0.656562
O O2 0.279827 0.366962 0.671601
O O3 0.197440 0.345122 0.489145
O O4 0.194646 0.345149 0.822748
O O5 0.052016 0.375285 0.163011
O O6 0.106221 0.395324 0.910615
O O7 0.000000 0.399884 0.900354
O O8 0.052420 0.249945 0.913746
O O9 0.107295 0.393553 0.411653
O O10 0.000000 0.399837 0.425087
O O11 0.370716 0.162886 0.083146
O O12 0.431666 0.311207 0.000698
O O13 0.348323 0.310823 0.879281
O O14 0.410488 0.163583 0.797416
O O15 0.656645 0.000000 0.251916
O O16 0.820122 0.500000 0.326982
O O17 0.836535 0.347316 0.157772
O O18 0.819299 0.000000 0.487156
O O19 0.500000 0.616683 0.193038
O O20 0.429542 0.500000 0.121501
#
# Coordination Sequence:
#
# PCOD9358436 Si02
#       8
#     8   8   8   8   8   8   8   8
#     4   9  19  37  56  75 105 144 184 235 301 352
#     4   9  18  31  46  67  94 125 158 203 267 336
#     4   9  18  31  46  67  94 125 158 203 267 336
#     4  10  21  38  60  92 124 166 219 254 300 376
#     4  10  21  41  61  83 125 166 205 267 317 356
#     4   9  18  34  53  74  98 129 173 222 277 346
#     4   9  18  34  53  74  98 129 173 222 277 346
#     4  10  20  36  61  94 131 169 208 256 310 359
#
# _framework density 21.216961000000001
#
# number of rings (size 3 to 8) (size 9 to 14) (size 15 to 20)
#    0.000    2.625    0.000    1.125    1.750    0.500 
#    6.750    2.500    0.000    8.250    0.000    0.000 
#    0.000    0.000    0.000    0.000    0.000    0.000 
#
# Total GULP energy -178162.376124 kJ/mol
# GULP energy per Si atom -5567.574254 kJ/mol
# Density = 2.116867 g / cm^3
# Si number density = 21.216961 Si / 1000 Ang^3
#
#
#
# Elastic Constant Matrix: (Units=GPa)
#
#
# Indices 1 2 3 4 5 6 
#
# 1 74.8970 20.0395 14.8279 0.0000 0.0000 0.0000
# 2 20.0395 126.7558 18.0884 0.0000 0.0000 0.0000
# 3 14.8279 18.0884 26.5276 0.0000 0.0000 0.0000
# 4 0.0000 0.0000 0.0000 20.9674 0.0000 0.0000
# 5 0.0000 0.0000 0.0000 0.0000 23.6206 0.0000
# 6 0.0000 0.0000 0.0000 0.0000 0.0000 25.1889
#
#
#
# Elastic Compliance Matrix: (Units=1/GPa)
#
#
# Indices 1 2 3 4 5 6 
#
# 1 0.015210 -0.001320 -0.007602 0.000000 0.000000 0.000000
# 2 -0.001320 0.008854 -0.005300 0.000000 0.000000 0.000000
# 3 -0.007602 -0.005300 0.045559 0.000000 0.000000 0.000000
# 4 0.000000 0.000000 0.000000 0.047693 0.000000 0.000000
# 5 0.000000 0.000000 0.000000 0.000000 0.042336 0.000000
# 6 0.000000 0.000000 0.000000 0.000000 0.000000 0.039700
#
#
# Mechanical properties :
#
#
# Convention : Reuss Voigt Hill
#
# Bulk Modulus (GPa) = 24.28316 37.12135 30.70226
# Shear Modulus (GPa) = 20.70209 25.63702 23.16956
#
# Velocity S-wave (km/s) = 3.12706 3.47987 3.30817
# Velocity P-wave (km/s) = 4.95056 5.80345 5.39389
#
# Compressibility (1/GPa) = 0.04118080
#
# Stress axis : x y z
#
# Youngs Moduli (GPa) = 65.74722 112.94190 21.94943
#
# Poissons Ratio (x) = 0.14906 0.16685
# Poissons Ratio (y) = 0.08677 0.11632
# Poissons Ratio (z) = 0.49979 0.59855
#
# Static dielectric constant tensor:
#      x y z
#    x 1.751520 0.000000 0.000000 
#    y 0.000000 1.801350 0.000000 
#    z 0.000000 0.000000 1.818830 
# 
# From -- ./inp_files/6993.got.cif
#   From: 2010.05.17/outbox.cif.g08.bks.cpg/sg38_4_cif.got.tgz:6993.got - 2010.06.03 18:07:57.
