data_PCOD9358014
_publ_section_title
;
Structure prediction by ZEFSAII (Michael W. Deem and Ramdas Pophale) SiO2 
 PCOD9358014
Probable space group: A M M 2
;
_chemical_formula_sum "Si O2"
_cell_formula_units_Z 56
_cell_length_a 8.952600
_cell_length_b 14.399429
_cell_length_c 23.293880
_cell_angle_alpha 90.000000
_cell_angle_beta 90.000000
_cell_angle_gamma 90.000000
_cell_volume 3002.868300
_symmetry_space_group_name_H-M "A M M 2"
_symmetry_group_IT_number 38
_symmetry_cell_setting 'orthorhombic'
loop_
_space_group_symop_operation_xyz
x,y,z
-x,-y,z
-x,y,z
x,-y,z
x,1/2+y,1/2+z
-x,1/2-y,1/2+z
-x,1/2+y,1/2+z
x,1/2-y,1/2+z
loop_
_atom_site_type_symbol
_atom_site_label
_atom_site_fract_x
_atom_site_fract_y
_atom_site_fract_z
Si Si1 0.820797 0.892298 0.461390
Si Si2 0.821268 0.391073 0.309554
Si Si3 0.321340 0.893779 0.146145
Si Si4 0.173300 0.888782 0.023471
Si Si5 0.677482 0.713565 0.417185
Si Si6 0.826469 0.611289 0.094874
Si Si7 0.323218 0.292799 0.201011
O O1 0.737832 0.818498 0.422122
O O2 0.787342 0.870348 0.528465
O O3 0.000000 0.883843 0.454886
O O4 0.781047 0.000000 0.451050
O O5 0.779987 0.500000 0.309176
O O6 0.747917 0.339617 0.363369
O O7 0.765519 0.342641 0.251503
O O8 0.000000 0.384993 0.313788
O O9 0.500000 0.889039 0.135398
O O10 0.286160 0.816157 0.193266
O O11 0.284768 0.000000 0.162270
O O12 0.237034 0.871157 0.086909
O O13 0.266609 0.837917 0.974714
O O14 0.000000 0.860050 0.019810
O O15 0.181116 0.000000 0.014262
O O16 0.500000 0.712087 0.413630
O O17 0.818854 0.500000 0.102734
O O18 0.722143 0.660556 0.140675
O O19 0.000000 0.638955 0.104014
O O20 0.500000 0.302483 0.211014
#
# Coordination Sequence:
#
# PCOD9358014 Si02
#       7
#     8   8   8   8   8   8   8
#     4   9  19  37  60  85 115 151 190 231 273 322
#     4  11  25  44  63  81 105 142 187 232 278 333
#     4   9  19  36  56  81 115 150 183 223 274 331
#     4  10  20  34  55  84 116 150 189 232 278 331
#     4  12  24  37  57  84 114 148 185 230 284 336
#     4   9  18  33  54  81 113 149 185 222 269 324
#     4  11  22  35  55  83 112 145 184 228 280 331
#
# _framework density 18.648835999999999
#
# number of rings (size 3 to 8) (size 9 to 14) (size 15 to 20)
#    0.000    1.857    0.000    5.143    0.000   10.000 
#    0.000    2.143    0.000    2.571    0.000    0.000 
#    0.000    0.000    0.000    0.000    0.000    0.000 
#
# Total GULP energy -156480.773244 kJ/mol
# GULP energy per Si atom -5588.599044 kJ/mol
# Density = 1.860639 g / cm^3
# Si number density = 18.648836 Si / 1000 Ang^3
#
#
#
# Elastic Constant Matrix: (Units=GPa)
#
#
# Indices 1 2 3 4 5 6 
#
# 1 77.1625 69.9644 56.1476 0.0000 0.0000 0.0000
# 2 69.9644 128.9378 89.6879 0.0000 0.0000 0.0000
# 3 56.1476 89.6879 80.4886 0.0000 0.0000 0.0000
# 4 0.0000 0.0000 0.0000 32.8794 0.0000 0.0000
# 5 0.0000 0.0000 0.0000 0.0000 0.0222 0.0000
# 6 0.0000 0.0000 0.0000 0.0000 0.0000 27.1491
#
#
#
# Elastic Compliance Matrix: (Units=1/GPa)
#
#
# Indices 1 2 3 4 5 6 
#
# 1 0.027696 -0.007067 -0.011446 0.000000 0.000000 0.000000
# 2 -0.007067 0.036287 -0.035505 0.000000 0.000000 0.000000
# 3 -0.011446 -0.035505 0.059971 0.000000 0.000000 0.000000
# 4 0.000000 0.000000 0.000000 0.030414 0.000000 0.000000
# 5 0.000000 0.000000 0.000000 0.000000 45.091705 0.000000
# 6 0.000000 0.000000 0.000000 0.000000 0.000000 0.036834
#
#
# Mechanical properties :
#
#
# Convention : Reuss Voigt Hill
#
# Bulk Modulus (GPa) = 62.81582 79.79873 71.30727
# Shear Modulus (GPa) = 0.11014 16.72941 8.41978
#
# Velocity S-wave (km/s) = 0.24329 2.99837 2.12714
# Velocity P-wave (km/s) = 5.81683 7.40743 6.65979
#
# Compressibility (1/GPa) = 0.01591956
#
# Stress axis : x y z
#
# Youngs Moduli (GPa) = 36.10668 27.55813 16.67475
#
# Poissons Ratio (x) = 0.19475 0.19085
# Poissons Ratio (y) = 0.25516 0.59203
# Poissons Ratio (z) = 0.41326 0.97844
#
# Static dielectric constant tensor:
#      x y z
#    x 1.633780 0.000000 0.000000 
#    y 0.000000 1.670580 0.000000 
#    z 0.000000 0.000000 1.608680 
# 
# From -- ./inp_files/19739.got.cif
#   From: 2010.05.17/outbox.cif.g08.bks.cpg/sg38_10_cif.got.tgz:19739.got - 2010.06.03 18:07:57.
