data_PCOD9358932
_publ_section_title
;
Structure prediction by ZEFSAII (Michael W. Deem and Ramdas Pophale) SiO2 
 PCOD9358932
Probable space group: A M M 2
;
_chemical_formula_sum "Si O2"
_cell_formula_units_Z 48
_cell_length_a 17.100861
_cell_length_b 16.109071
_cell_length_c 10.310125
_cell_angle_alpha 90.000000
_cell_angle_beta 90.000000
_cell_angle_gamma 90.000000
_cell_volume 2840.222760
_symmetry_space_group_name_H-M "A M M 2"
_symmetry_group_IT_number 38
_symmetry_cell_setting 'orthorhombic'
loop_
_space_group_symop_operation_xyz
x,y,z
-x,-y,z
-x,y,z
x,-y,z
x,1/2+y,1/2+z
-x,1/2-y,1/2+z
-x,1/2+y,1/2+z
x,1/2-y,1/2+z
loop_
_atom_site_type_symbol
_atom_site_label
_atom_site_fract_x
_atom_site_fract_y
_atom_site_fract_z
Si Si1 0.305457 0.241122 0.145390
Si Si2 0.592748 0.905225 0.249199
Si Si3 0.907249 0.594776 0.290773
Si Si4 0.805473 0.241110 0.894682
Si Si5 0.656110 0.408569 0.040711
Si Si6 0.156113 0.091430 0.499245
O O1 0.360711 0.162707 0.168012
O O2 0.250021 0.250011 0.270069
O O3 0.354371 0.326477 0.126335
O O4 0.249964 0.230648 0.020070
O O5 0.500000 0.894895 0.236596
O O6 0.616662 0.896386 0.400620
O O7 0.613420 0.000000 0.212238
O O8 0.886595 0.500000 0.327753
O O9 0.860721 0.662700 0.371995
O O10 0.000000 0.605115 0.303319
O O11 0.883300 0.603611 0.139366
O O12 0.854393 0.326470 0.913650
O O13 0.632004 0.500000 0.091379
O O14 0.749996 0.412084 0.019943
O O15 0.131990 0.000000 0.448595
#
# Coordination Sequence:
#
# PCOD9358932 Si02
#       6
#     8   8   8   8   8   8
#     4  11  20  35  57  86 114 145 189 232 277 327
#     4  10  21  37  57  83 115 150 185 228 284 337
#     4  10  21  37  57  83 115 150 185 228 284 337
#     4  11  20  35  57  86 114 145 189 232 277 327
#     4   9  17  33  58  81 109 146 187 223 265 334
#     4   9  17  33  58  81 109 146 187 223 265 334
#
# _framework density 16.900082000000001
#
# number of rings (size 3 to 8) (size 9 to 14) (size 15 to 20)
#    0.000    2.000    6.667    0.000    0.000    2.000 
#    0.000    0.000    0.000    0.000    0.000    0.000 
#    0.000    0.000    0.000    0.000    0.000    0.000 
#
# Total GULP energy -133706.778508 kJ/mol
# GULP energy per Si atom -5571.115771 kJ/mol
# Density = 1.686162 g / cm^3
# Si number density = 16.900082 Si / 1000 Ang^3
#
#
#
# Elastic Constant Matrix: (Units=GPa)
#
#
# Indices 1 2 3 4 5 6 
#
# 1 53.3613 61.0418 29.6785 0.0000 0.0000 0.0000
# 2 61.0418 209.0405 66.4269 0.0000 0.0000 0.0000
# 3 29.6785 66.4269 83.6526 0.0000 0.0000 0.0000
# 4 0.0000 0.0000 0.0000 27.3505 0.0000 0.0000
# 5 0.0000 0.0000 0.0000 0.0000 24.8393 0.0000
# 6 0.0000 0.0000 0.0000 0.0000 0.0000 14.6893
#
#
#
# Elastic Compliance Matrix: (Units=1/GPa)
#
#
# Indices 1 2 3 4 5 6 
#
# 1 0.029545 -0.007084 -0.004857 0.000000 0.000000 0.000000
# 2 -0.007084 0.008097 -0.003916 0.000000 0.000000 0.000000
# 3 -0.004857 -0.003916 0.016787 0.000000 0.000000 0.000000
# 4 0.000000 0.000000 0.000000 0.036562 0.000000 0.000000
# 5 0.000000 0.000000 0.000000 0.000000 0.040259 0.000000
# 6 0.000000 0.000000 0.000000 0.000000 0.000000 0.068077
#
#
# Mechanical properties :
#
#
# Convention : Reuss Voigt Hill
#
# Bulk Modulus (GPa) = 44.02393 73.37206 58.69799
# Shear Modulus (GPa) = 20.95444 25.96965 23.46204
#
# Velocity S-wave (km/s) = 3.52504 3.92428 3.73001
# Velocity P-wave (km/s) = 6.53253 8.00267 7.30468
#
# Compressibility (1/GPa) = 0.02271492
#
# Stress axis : x y z
#
# Youngs Moduli (GPa) = 33.84649 123.50477 59.56964
#
# Poissons Ratio (x) = 0.87492 0.28931
# Poissons Ratio (y) = 0.23977 0.23329
# Poissons Ratio (z) = 0.16438 0.48367
#
# Static dielectric constant tensor:
#      x y z
#    x 1.554980 0.000000 0.000000 
#    y 0.000000 1.631500 0.000000 
#    z 0.000000 0.000000 1.544910 
# 
# From -- ./inp_files/6180.got.cif
#   From: 2010.05.17/outbox.cif.g08.bks.cpg/sg38_4_cif.got.tgz:6180.got - 2010.06.03 18:07:57.
