data_PCOD9358099
_publ_section_title
;
Structure prediction by ZEFSAII (Michael W. Deem and Ramdas Pophale) SiO2 
 PCOD9358099
Probable space group: A M M 2
;
_chemical_formula_sum "Si O2"
_cell_formula_units_Z 58
_cell_length_a 24.921193
_cell_length_b 7.909326
_cell_length_c 15.278774
_cell_angle_alpha 90.000000
_cell_angle_beta 90.000000
_cell_angle_gamma 90.000000
_cell_volume 3011.596695
_symmetry_space_group_name_H-M "A M M 2"
_symmetry_group_IT_number 38
_symmetry_cell_setting 'orthorhombic'
loop_
_space_group_symop_operation_xyz
x,y,z
-x,-y,z
-x,y,z
x,-y,z
x,1/2+y,1/2+z
-x,1/2-y,1/2+z
-x,1/2+y,1/2+z
x,1/2-y,1/2+z
loop_
_atom_site_type_symbol
_atom_site_label
_atom_site_fract_x
_atom_site_fract_y
_atom_site_fract_z
Si Si1 0.500000 0.000000 0.054050
Si Si2 0.745639 0.205200 0.547673
Si Si3 0.939141 0.802153 0.137816
Si Si4 0.863166 0.696985 0.983280
Si Si5 0.864217 0.196148 0.791745
Si Si6 0.557285 0.687567 0.981201
Si Si7 0.335878 0.198300 0.897152
Si Si8 0.256066 0.206609 0.748360
O O1 0.546549 0.847443 0.044751
O O2 0.805409 0.258378 0.518555
O O3 0.702676 0.277762 0.480712
O O4 0.735730 0.255684 0.647870
O O5 0.743337 0.000000 0.543932
O O6 0.906038 0.716269 0.060117
O O7 0.906414 0.782125 0.227677
O O8 0.000000 0.737830 0.145899
O O9 0.941125 0.000000 0.116329
O O10 0.857297 0.500000 0.961399
O O11 0.878243 0.787857 0.893477
O O12 0.803368 0.262160 0.778523
O O13 0.863463 0.000000 0.765277
O O14 0.500000 0.687712 0.930323
O O15 0.562373 0.500000 0.022726
O O16 0.607940 0.715951 0.919881
O O17 0.302117 0.265682 0.814482
O O18 0.346208 0.000000 0.883143
O O19 0.256094 0.000000 0.752717
#
# Coordination Sequence:
#
# PCOD9358099 Si02
#       8
#     2   8   8   8   8   8   8   8
#     4   8  14  32  52  82 112 152 202 238 294 342
#     4  10  20  35  53  82 115 149 188 236 289 344
#     4  11  25  43  62  84 112 147 191 240 289 348
#     4  11  22  38  61  87 116 150 189 234 288 348
#     4  11  21  39  62  86 115 149 188 233 289 348
#     4   9  17  31  53  82 114 154 198 244 289 343
#     4  11  19  33  56  84 116 154 195 236 286 348
#     4   9  19  34  54  81 115 151 188 232 288 344
#
# _framework density 19.258886
#
# number of rings (size 3 to 8) (size 9 to 14) (size 15 to 20)
#    0.414    1.379    3.448    1.655    0.000    2.207 
#    0.000    1.379    0.000    0.828    0.000    1.931 
#    0.000    0.000    0.000    0.000    0.000    0.000 
#
# Total GULP energy -161457.134616 kJ/mol
# GULP energy per Si atom -5567.487401 kJ/mol
# Density = 1.921505 g / cm^3
# Si number density = 19.258886 Si / 1000 Ang^3
#
#
#
# Elastic Constant Matrix: (Units=GPa)
#
#
# Indices 1 2 3 4 5 6 
#
# 1 90.4128 6.7356 12.4269 0.0000 0.0000 0.0000
# 2 6.7356 66.9095 -3.4257 0.0000 0.0000 0.0000
# 3 12.4269 -3.4257 81.1580 0.0000 0.0000 0.0000
# 4 0.0000 0.0000 0.0000 21.3220 0.0000 0.0000
# 5 0.0000 0.0000 0.0000 0.0000 11.0914 0.0000
# 6 0.0000 0.0000 0.0000 0.0000 0.0000 23.1734
#
#
#
# Elastic Compliance Matrix: (Units=1/GPa)
#
#
# Indices 1 2 3 4 5 6 
#
# 1 0.011400 -0.001240 -0.001798 0.000000 0.000000 0.000000
# 2 -0.001240 0.015113 0.000828 0.000000 0.000000 0.000000
# 3 -0.001798 0.000828 0.012632 0.000000 0.000000 0.000000
# 4 0.000000 0.000000 0.000000 0.046900 0.000000 0.000000
# 5 0.000000 0.000000 0.000000 0.000000 0.090160 0.000000
# 6 0.000000 0.000000 0.000000 0.000000 0.000000 0.043153
#
#
# Mechanical properties :
#
#
# Convention : Reuss Voigt Hill
#
# Bulk Modulus (GPa) = 28.79780 29.99488 29.39634
# Shear Modulus (GPa) = 21.24480 25.96693 23.60587
#
# Velocity S-wave (km/s) = 3.32492 3.67592 3.50482
# Velocity P-wave (km/s) = 5.45212 5.79869 5.62808
#
# Compressibility (1/GPa) = 0.03472488
#
# Stress axis : x y z
#
# Youngs Moduli (GPa) = 87.72052 66.16935 79.16484
#
# Poissons Ratio (x) = 0.08203 0.14233
# Poissons Ratio (y) = 0.10874 -0.06553
# Poissons Ratio (z) = 0.15771 -0.05477
#
# Static dielectric constant tensor:
#      x y z
#    x 1.672160 0.000000 0.000000 
#    y 0.000000 1.715760 0.000000 
#    z 0.000000 0.000000 1.636380 
# 
# From -- ./inp_files/15636.got.cif
#   From: 2010.05.17/outbox.cif.g08.bks.cpg/sg38_8_cif.got.tgz:15636.got - 2010.06.03 18:07:57.
