data_PCOD9358880
_publ_section_title
;
Structure prediction by ZEFSAII (Michael W. Deem and Ramdas Pophale) SiO2 
 PCOD9358880
Probable space group: A M M 2
;
_chemical_formula_sum "Si O2"
_cell_formula_units_Z 64
_cell_length_a 20.409062
_cell_length_b 8.727061
_cell_length_c 20.759466
_cell_angle_alpha 90.000000
_cell_angle_beta 90.000000
_cell_angle_gamma 90.000000
_cell_volume 3697.491927
_symmetry_space_group_name_H-M "A M M 2"
_symmetry_group_IT_number 38
_symmetry_cell_setting 'orthorhombic'
loop_
_space_group_symop_operation_xyz
x,y,z
-x,-y,z
-x,y,z
x,-y,z
x,1/2+y,1/2+z
-x,1/2-y,1/2+z
-x,1/2+y,1/2+z
x,1/2-y,1/2+z
loop_
_atom_site_type_symbol
_atom_site_label
_atom_site_fract_x
_atom_site_fract_y
_atom_site_fract_z
Si Si1 0.325922 0.182459 0.355950
Si Si2 0.925028 0.684653 0.609624
Si Si3 0.074654 0.686663 0.462526
Si Si4 0.672823 0.685169 0.215414
Si Si5 0.576491 0.316792 0.461382
Si Si6 0.423918 0.315511 0.100928
Si Si7 0.823730 0.316173 0.211371
Si Si8 0.181672 0.814371 0.858802
O O1 0.343238 0.243573 0.284627
O O2 0.377387 0.242600 0.408080
O O3 0.253472 0.246986 0.371323
O O4 0.324400 0.000000 0.355790
O O5 0.923706 0.500000 0.610554
O O6 0.909961 0.733320 0.535994
O O7 0.873690 0.745995 0.660851
O O8 0.000000 0.732699 0.624035
O O9 0.074743 0.500000 0.461640
O O10 0.128096 0.737222 0.410718
O O11 0.000000 0.734741 0.447445
O O12 0.670533 0.500000 0.221866
O O13 0.623182 0.731474 0.159205
O O14 0.747938 0.727365 0.198834
O O15 0.500000 0.274918 0.451014
O O16 0.581992 0.500000 0.458291
O O17 0.594358 0.259644 0.532954
O O18 0.500000 0.277227 0.114595
O O19 0.419437 0.500000 0.094317
O O20 0.827957 0.500000 0.207229
O O21 0.837897 0.272251 0.285609
O O22 0.186515 0.000000 0.860959
#
# Coordination Sequence:
#
# PCOD9358880 Si02
#       8
#     8   8   8   8   8   8   8   8
#     4  11  22  35  53  77 106 138 173 215 258 304
#     4   9  18  32  49  70  97 127 160 202 250 300
#     4   8  15  30  52  75  97 126 168 212 250 294
#     4   9  19  36  54  75 105 137 171 212 257 305
#     4  10  21  37  56  77 104 138 174 212 254 303
#     4   9  18  34  56  80 106 135 167 207 255 304
#     4   9  18  31  48  71  99 129 162 203 247 295
#     4   9  18  34  54  74  98 130 169 212 255 301
#
# _framework density 17.309031000000001
#
# number of rings (size 3 to 8) (size 9 to 14) (size 15 to 20)
#    0.000    2.750    0.000    3.000    0.000    5.500 
#    0.000    5.625    0.000    1.125    0.000    0.000 
#    0.000    0.000    0.000    0.000    0.000    0.000 
#
# Total GULP energy -178456.550623 kJ/mol
# GULP energy per Si atom -5576.767207 kJ/mol
# Density = 1.726963 g / cm^3
# Si number density = 17.309031 Si / 1000 Ang^3
#
#
#
# Elastic Constant Matrix: (Units=GPa)
#
#
# Indices 1 2 3 4 5 6 
#
# 1 129.2103 41.7698 137.5769 0.0000 0.0000 0.0000
# 2 41.7698 24.9741 47.7618 0.0000 0.0000 0.0000
# 3 137.5769 47.7618 173.9573 0.0000 0.0000 0.0000
# 4 0.0000 0.0000 0.0000 28.4717 0.0000 0.0000
# 5 0.0000 0.0000 0.0000 0.0000 44.5040 0.0000
# 6 0.0000 0.0000 0.0000 0.0000 0.0000 22.7651
#
#
#
# Elastic Compliance Matrix: (Units=1/GPa)
#
#
# Indices 1 2 3 4 5 6 
#
# 1 0.052470 -0.017680 -0.036642 0.000000 0.000000 0.000000
# 2 -0.017680 0.090271 -0.010802 0.000000 0.000000 0.000000
# 3 -0.036642 -0.010802 0.037693 0.000000 0.000000 0.000000
# 4 0.000000 0.000000 0.000000 0.035123 0.000000 0.000000
# 5 0.000000 0.000000 0.000000 0.000000 0.022470 0.000000
# 6 0.000000 0.000000 0.000000 0.000000 0.000000 0.043927
#
#
# Mechanical properties :
#
#
# Convention : Reuss Voigt Hill
#
# Bulk Modulus (GPa) = 19.92639 86.92875 53.42757
# Shear Modulus (GPa) = 11.65691 25.88371 18.77031
#
# Velocity S-wave (km/s) = 2.59792 3.87122 3.29663
# Velocity P-wave (km/s) = 4.53167 8.38525 6.73975
#
# Compressibility (1/GPa) = 0.05018472
#
# Stress axis : x y z
#
# Youngs Moduli (GPa) = 19.05865 11.07780 26.52987
#
# Poissons Ratio (x) = 0.19586 0.97211
# Poissons Ratio (y) = 0.33696 0.28658
# Poissons Ratio (z) = 0.69835 0.11966
#
# Static dielectric constant tensor:
#      x y z
#    x 1.573490 0.000000 0.000000 
#    y 0.000000 1.586320 0.000000 
#    z 0.000000 0.000000 1.566430 
# 
# From -- ./inp_files/15884.got.cif
#   From: 2010.05.17/outbox.cif.g08.bks.cpg/sg38_8_cif.got.tgz:15884.got - 2010.06.03 18:07:57.
