data_PCOD9358730
_publ_section_title
;
Structure prediction by ZEFSAII (Michael W. Deem and Ramdas Pophale) SiO2 
 PCOD9358730
Probable space group: A M M 2
;
_chemical_formula_sum "Si O2"
_cell_formula_units_Z 58
_cell_length_a 15.161177
_cell_length_b 7.363218
_cell_length_c 24.499085
_cell_angle_alpha 90.000000
_cell_angle_beta 90.000000
_cell_angle_gamma 90.000000
_cell_volume 2734.956613
_symmetry_space_group_name_H-M "A M M 2"
_symmetry_group_IT_number 38
_symmetry_cell_setting 'orthorhombic'
loop_
_space_group_symop_operation_xyz
x,y,z
-x,-y,z
-x,y,z
x,-y,z
x,1/2+y,1/2+z
-x,1/2-y,1/2+z
-x,1/2+y,1/2+z
x,1/2-y,1/2+z
loop_
_atom_site_type_symbol
_atom_site_label
_atom_site_fract_x
_atom_site_fract_y
_atom_site_fract_z
Si Si1 0.397780 0.278317 0.349360
Si Si2 0.098779 0.219741 0.484241
Si Si3 0.000000 0.000000 0.142343
Si Si4 0.739012 0.294224 0.559878
Si Si5 0.247790 0.706559 0.272011
Si Si6 0.099368 0.219419 0.357976
Si Si7 0.156499 0.291558 0.162841
Si Si8 0.602392 0.778859 0.971655
O O1 0.500000 0.227271 0.342187
O O2 0.394406 0.500000 0.349243
O O3 0.333138 0.212153 0.301923
O O4 0.368886 0.221480 0.410582
O O5 0.174219 0.295635 0.521935
O O6 0.112037 0.271623 0.421097
O O7 0.000000 0.276271 0.501058
O O8 0.101866 0.000000 0.487149
O O9 0.922242 0.159391 0.145333
O O10 0.713111 0.500000 0.573599
O O11 0.770156 0.203405 0.615325
O O12 0.663383 0.213884 0.520936
O O13 0.271676 0.500000 0.257024
O O14 0.172929 0.706031 0.318449
O O15 0.202736 0.782595 0.217875
O O16 0.000000 0.272720 0.341625
O O17 0.103362 0.000000 0.355648
O O18 0.125691 0.500000 0.172322
O O19 0.500000 0.729224 0.978231
O O20 0.607096 0.000000 0.971810
#
# Coordination Sequence:
#
# PCOD9358730 Si02
#       8
#     8   8   2   8   8   8   8   8
#     4   8  14  29  55  86 118 154 198 249 305 367
#     4   9  19  34  50  74 107 146 187 237 300 360
#     4  12  26  48  68  86 114 168 222 256 304 376
#     4  11  21  35  56  83 116 156 204 254 307 370
#     4  10  21  35  54  82 114 148 193 252 306 356
#     4   9  19  33  51  74 105 145 187 232 293 361
#     4  11  26  43  62  91 123 157 210 265 310 360
#     4   8  15  29  54  87 120 156 202 255 308 366
#
# _framework density 21.206917000000001
#
# number of rings (size 3 to 8) (size 9 to 14) (size 15 to 20)
#    0.000    2.483    0.690    3.103    2.897    2.207 
#    0.000    2.069    0.000    2.897    0.000    5.793 
#    0.000    0.000    0.000    0.000    0.000    0.000 
#
# Total GULP energy -161680.932863 kJ/mol
# GULP energy per Si atom -5575.204581 kJ/mol
# Density = 2.115865 g / cm^3
# Si number density = 21.206917 Si / 1000 Ang^3
#
#
#
# Elastic Constant Matrix: (Units=GPa)
#
#
# Indices 1 2 3 4 5 6 
#
# 1 75.1191 4.8098 44.6983 0.0000 0.0000 0.0000
# 2 4.8098 97.8418 4.1625 0.0000 0.0000 0.0000
# 3 44.6983 4.1625 62.1062 0.0000 0.0000 0.0000
# 4 0.0000 0.0000 0.0000 9.0676 0.0000 0.0000
# 5 0.0000 0.0000 0.0000 0.0000 -9.8175 0.0000
# 6 0.0000 0.0000 0.0000 0.0000 0.0000 -26.7635
#
#
#
# Elastic Compliance Matrix: (Units=1/GPa)
#
#
# Indices 1 2 3 4 5 6 
#
# 1 0.023302 -0.000433 -0.016741 0.000000 0.000000 0.000000
# 2 -0.000433 0.010258 -0.000376 0.000000 0.000000 0.000000
# 3 -0.016741 -0.000376 0.028175 0.000000 0.000000 0.000000
# 4 0.000000 0.000000 0.000000 0.110283 0.000000 0.000000
# 5 0.000000 0.000000 0.000000 0.000000 -0.101859 0.000000
# 6 0.000000 0.000000 0.000000 0.000000 0.000000 -0.037364
#
#
# Mechanical properties :
#
#
# Convention : Reuss Voigt Hill
#
# Bulk Modulus (GPa) = 37.54537 38.04536 37.79537
# Shear Modulus (GPa) = 65.12671 6.59040 35.85856
#
# Velocity S-wave (km/s) = 5.54768 1.76477 4.11650
# Velocity P-wave (km/s) = 7.66671 4.70442 6.36043
#
# Compressibility (1/GPa) = 0.02663444
#
# Stress axis : x y z
#
# Youngs Moduli (GPa) = 42.91558 97.48618 35.49183
#
# Poissons Ratio (x) = 0.04224 0.59418
# Poissons Ratio (y) = 0.01859 0.01333
# Poissons Ratio (z) = 0.71846 0.03663
#
# Static dielectric constant tensor:
#      x y z
#    x 1.735910 0.000000 0.000000 
#    y 0.000000 1.820370 0.000000 
#    z 0.000000 0.000000 1.758410 
# 
# From -- ./inp_files/22858.got.cif
#   From: 2010.05.17/outbox.cif.g08.bks.cpg/sg38_12_cif.got.tgz:22858.got - 2010.06.03 18:07:57.
