data_PCOD9358019
_publ_section_title
;
Structure prediction by ZEFSAII (Michael W. Deem and Ramdas Pophale) SiO2 
 PCOD9358019
Probable space group: A M M 2
;
_chemical_formula_sum "Si O2"
_cell_formula_units_Z 64
_cell_length_a 19.763810
_cell_length_b 8.802408
_cell_length_c 20.769315
_cell_angle_alpha 90.000000
_cell_angle_beta 90.000000
_cell_angle_gamma 90.000000
_cell_volume 3613.219438
_symmetry_space_group_name_H-M "A M M 2"
_symmetry_group_IT_number 38
_symmetry_cell_setting 'orthorhombic'
loop_
_space_group_symop_operation_xyz
x,y,z
-x,-y,z
-x,y,z
x,-y,z
x,1/2+y,1/2+z
-x,1/2-y,1/2+z
-x,1/2+y,1/2+z
x,1/2-y,1/2+z
loop_
_atom_site_type_symbol
_atom_site_label
_atom_site_fract_x
_atom_site_fract_y
_atom_site_fract_z
Si Si1 0.923973 0.682955 0.082880
Si Si2 0.924161 0.683138 0.440346
Si Si3 0.577691 0.318765 0.208931
Si Si4 0.708697 0.319822 0.762685
Si Si5 0.292725 0.319966 0.007261
Si Si6 0.785535 0.818839 0.641899
Si Si7 0.783189 0.318043 0.385480
Si Si8 0.578254 0.819031 0.066192
O O1 0.920674 0.500000 0.076590
O O2 0.863334 0.727455 0.130023
O O3 0.000000 0.724329 0.104099
O O4 0.913217 0.752162 0.012062
O O5 0.923071 0.500000 0.444324
O O6 0.861605 0.729410 0.395653
O O7 0.000000 0.729651 0.419487
O O8 0.500000 0.287205 0.228336
O O9 0.586130 0.500000 0.203249
O O10 0.634126 0.252364 0.255839
O O11 0.587991 0.245916 0.138309
O O12 0.703140 0.500000 0.765526
O O13 0.749274 0.269100 0.698919
O O14 0.748242 0.257199 0.824274
O O15 0.291996 0.500000 0.994349
O O16 0.256372 0.232878 0.949561
O O17 0.252614 0.293978 0.074166
O O18 0.368286 0.260591 0.019768
O O19 0.782494 0.000000 0.655763
O O20 0.780764 0.500000 0.378971
O O21 0.500000 0.790200 0.048474
O O22 0.589490 0.000000 0.067077
#
# Coordination Sequence:
#
# PCOD9358019 Si02
#       8
#     8   8   8   8   8   8   8   8
#     4   9  17  31  54  83 113 146 185 232 283 334
#     4   9  18  33  55  83 111 143 185 231 280 336
#     4  10  20  36  59  85 113 146 185 230 283 340
#     4  12  25  39  58  83 115 152 194 237 282 338
#     4  11  21  35  58  86 116 148 187 233 281 335
#     4  10  20  35  56  83 115 148 186 231 281 336
#     4  11  23  39  59  82 116 154 191 235 286 341
#     4  10  20  34  55  85 117 149 189 235 282 332
#
# _framework density 17.712736
#
# number of rings (size 3 to 8) (size 9 to 14) (size 15 to 20)
#    0.000    1.750    2.500    2.625    0.000    3.000 
#    0.000    1.250    0.000    7.500    0.000    0.000 
#    0.000    0.000    0.000    0.000    0.000    0.000 
#
# Total GULP energy -178675.316714 kJ/mol
# GULP energy per Si atom -5583.603647 kJ/mol
# Density = 1.767242 g / cm^3
# Si number density = 17.712736 Si / 1000 Ang^3
#
#
#
# Elastic Constant Matrix: (Units=GPa)
#
#
# Indices 1 2 3 4 5 6 
#
# 1 140.8631 41.3202 46.3779 0.0000 0.0000 0.0000
# 2 41.3202 48.4623 27.9200 0.0000 0.0000 0.0000
# 3 46.3779 27.9200 58.6514 0.0000 0.0000 0.0000
# 4 0.0000 0.0000 0.0000 30.1905 0.0000 0.0000
# 5 0.0000 0.0000 0.0000 0.0000 29.1070 0.0000
# 6 0.0000 0.0000 0.0000 0.0000 0.0000 22.2725
#
#
#
# Elastic Compliance Matrix: (Units=1/GPa)
#
#
# Indices 1 2 3 4 5 6 
#
# 1 0.010677 -0.005841 -0.005662 0.000000 0.000000 0.000000
# 2 -0.005841 0.031628 -0.010437 0.000000 0.000000 0.000000
# 3 -0.005662 -0.010437 0.026495 0.000000 0.000000 0.000000
# 4 0.000000 0.000000 0.000000 0.033123 0.000000 0.000000
# 5 0.000000 0.000000 0.000000 0.000000 0.034356 0.000000
# 6 0.000000 0.000000 0.000000 0.000000 0.000000 0.044898
#
#
# Mechanical properties :
#
#
# Convention : Reuss Voigt Hill
#
# Bulk Modulus (GPa) = 40.12892 53.24588 46.68740
# Shear Modulus (GPa) = 21.42575 25.13792 23.28184
#
# Velocity S-wave (km/s) = 3.48174 3.77131 3.62942
# Velocity P-wave (km/s) = 6.23441 7.00641 6.63166
#
# Compressibility (1/GPa) = 0.02491969
#
# Stress axis : x y z
#
# Youngs Moduli (GPa) = 93.66236 31.61751 37.74271
#
# Poissons Ratio (x) = 0.18469 0.21369
# Poissons Ratio (y) = 0.54712 0.39392
# Poissons Ratio (z) = 0.53029 0.32999
#
# Static dielectric constant tensor:
#      x y z
#    x 1.638690 0.000000 0.000000 
#    y 0.000000 1.589640 0.000000 
#    z 0.000000 0.000000 1.557470 
# 
# From -- ./inp_files/18961.got.cif
#   From: 2010.05.17/outbox.cif.g08.bks.cpg/sg38_10_cif.got.tgz:18961.got - 2010.06.03 18:07:57.
