data_PCOD9358763
_publ_section_title
;
Structure prediction by ZEFSAII (Michael W. Deem and Ramdas Pophale) SiO2 
 PCOD9358763
Probable space group: A M M 2
;
_chemical_formula_sum "Si O2"
_cell_formula_units_Z 48
_cell_length_a 9.675733
_cell_length_b 7.778064
_cell_length_c 31.788141
_cell_angle_alpha 90.000000
_cell_angle_beta 90.000000
_cell_angle_gamma 90.000000
_cell_volume 2392.326872
_symmetry_space_group_name_H-M "A M M 2"
_symmetry_group_IT_number 38
_symmetry_cell_setting 'orthorhombic'
loop_
_space_group_symop_operation_xyz
x,y,z
-x,-y,z
-x,y,z
x,-y,z
x,1/2+y,1/2+z
-x,1/2-y,1/2+z
-x,1/2+y,1/2+z
x,1/2-y,1/2+z
loop_
_atom_site_type_symbol
_atom_site_label
_atom_site_fract_x
_atom_site_fract_y
_atom_site_fract_z
Si Si1 0.158244 0.704269 0.111730
Si Si2 0.341183 0.792357 0.377513
Si Si3 0.843252 0.705490 0.456806
Si Si4 0.842449 0.207434 0.205677
Si Si5 0.656485 0.204559 0.033044
Si Si6 0.659187 0.290148 0.783073
O O1 0.151652 0.500000 0.107307
O O2 0.207003 0.745425 0.159009
O O3 0.261100 0.770721 0.076304
O O4 0.000000 0.772664 0.106952
O O5 0.500000 0.735060 0.385704
O O6 0.236427 0.735680 0.413300
O O7 0.300442 0.735773 0.330300
O O8 0.343361 0.000000 0.377393
O O9 0.853182 0.500000 0.462706
O O10 0.749461 0.775862 0.494891
O O11 0.000000 0.774139 0.456810
O O12 0.752282 0.271327 0.244646
O O13 0.000000 0.270107 0.209233
O O14 0.844235 0.000000 0.207807
O O15 0.500000 0.274498 0.034064
O O16 0.645049 0.000000 0.026164
O O17 0.500000 0.240709 0.776679
O O18 0.663854 0.500000 0.782924
#
# Coordination Sequence:
#
# PCOD9358763 Si02
#       6
#     8   8   8   8   8   8
#     4  10  21  36  53  75 105 138 169 205 253 305
#     4   9  18  33  53  77 105 137 172 210 253 300
#     4  10  21  36  54  77 104 134 169 209 253 302
#     4   9  17  30  50  74  99 131 171 211 250 294
#     4  10  21  37  57  78  99 129 170 212 254 302
#     4   8  15  29  49  73 100 130 167 210 251 293
#
# _framework density 20.064147999999999
#
# number of rings (size 3 to 8) (size 9 to 14) (size 15 to 20)
#    0.000    2.667    0.000    2.500    0.000    5.333 
#    0.000    4.167    0.000    3.000    0.000    0.000 
#    0.000    0.000    0.000    0.000    0.000    0.000 
#
# Total GULP energy -133919.700031 kJ/mol
# GULP energy per Si atom -5579.987501 kJ/mol
# Density = 2.001848 g / cm^3
# Si number density = 20.064148 Si / 1000 Ang^3
#
#
#
# Elastic Constant Matrix: (Units=GPa)
#
#
# Indices 1 2 3 4 5 6 
#
# 1 149.8765 7.6925 134.3428 0.0000 0.0000 0.0000
# 2 7.6925 26.0529 -2.9563 0.0000 0.0000 0.0000
# 3 134.3428 -2.9563 198.9743 0.0000 0.0000 0.0000
# 4 0.0000 0.0000 0.0000 23.1492 0.0000 0.0000
# 5 0.0000 0.0000 0.0000 0.0000 39.7662 0.0000
# 6 0.0000 0.0000 0.0000 0.0000 0.0000 15.7696
#
#
#
# Elastic Compliance Matrix: (Units=1/GPa)
#
#
# Indices 1 2 3 4 5 6 
#
# 1 0.017998 -0.006704 -0.012251 0.000000 0.000000 0.000000
# 2 -0.006704 0.040946 0.005135 0.000000 0.000000 0.000000
# 3 -0.012251 0.005135 0.013374 0.000000 0.000000 0.000000
# 4 0.000000 0.000000 0.000000 0.043198 0.000000 0.000000
# 5 0.000000 0.000000 0.000000 0.000000 0.025147 0.000000
# 6 0.000000 0.000000 0.000000 0.000000 0.000000 0.063413
#
#
# Mechanical properties :
#
#
# Convention : Reuss Voigt Hill
#
# Bulk Modulus (GPa) = 22.38340 72.56239 47.47290
# Shear Modulus (GPa) = 20.27503 31.45865 25.86684
#
# Velocity S-wave (km/s) = 3.18230 3.96397 3.59445
# Velocity P-wave (km/s) = 4.96818 7.56270 6.39833
#
# Compressibility (1/GPa) = 0.04467596
#
# Stress axis : x y z
#
# Youngs Moduli (GPa) = 55.56239 24.42265 74.77278
#
# Poissons Ratio (x) = 0.16374 0.91606
# Poissons Ratio (y) = 0.37251 -0.38395
# Poissons Ratio (z) = 0.68071 -0.12541
#
# Static dielectric constant tensor:
#      x y z
#    x 1.702110 0.000000 0.000000 
#    y 0.000000 1.750830 0.000000 
#    z 0.000000 0.000000 1.685540 
# 
# From -- ./inp_files/24274.got.cif
#   From: 2010.05.17/outbox.cif.g08.bks.cpg/sg38_13_cif.got.tgz:24274.got - 2010.06.03 18:07:57.
