data_PCOD9358386
_publ_section_title
;
Structure prediction by ZEFSAII (Michael W. Deem and Ramdas Pophale) SiO2 
 PCOD9358386
Probable space group: A M M 2
;
_chemical_formula_sum "Si O2"
_cell_formula_units_Z 32
_cell_length_a 9.114710
_cell_length_b 8.109259
_cell_length_c 23.998615
_cell_angle_alpha 90.000000
_cell_angle_beta 90.000000
_cell_angle_gamma 90.000000
_cell_volume 1773.822688
_symmetry_space_group_name_H-M "A M M 2"
_symmetry_group_IT_number 38
_symmetry_cell_setting 'orthorhombic'
loop_
_space_group_symop_operation_xyz
x,y,z
-x,-y,z
-x,y,z
x,-y,z
x,1/2+y,1/2+z
-x,1/2-y,1/2+z
-x,1/2+y,1/2+z
x,1/2-y,1/2+z
loop_
_atom_site_type_symbol
_atom_site_label
_atom_site_fract_x
_atom_site_fract_y
_atom_site_fract_z
Si Si1 0.675355 0.184136 0.954860
Si Si2 0.666876 0.312337 0.668166
Si Si3 0.322919 0.000000 0.379305
Si Si4 0.824715 0.000000 0.259195
Si Si5 0.168051 0.308168 0.063128
O O1 0.500000 0.194806 0.963512
O O2 0.715153 0.335157 0.914185
O O3 0.708812 0.000000 0.933061
O O4 0.753534 0.209960 0.013922
O O5 0.500000 0.257946 0.679093
O O6 0.659604 0.500000 0.644627
O O7 0.758736 0.343750 0.724580
O O8 0.747979 0.209173 0.621471
O O9 0.500000 0.000000 0.370392
O O10 0.239940 0.000000 0.320800
O O11 0.000000 0.000000 0.257784
O O12 0.169438 0.500000 0.046678
O O13 0.000000 0.253488 0.070133
#
# Coordination Sequence:
#
# PCOD9358386 Si02
#       5
#     8   8   4   4   8
#     4  10  21  37  59  86 115 154 200 243 292 351
#     4   9  19  35  56  81 107 146 194 235 284 348
#     4  10  20  38  60  84 118 156 199 248 291 348
#     4  10  20  36  60  84 112 152 195 244 297 352
#     4  11  22  34  52  83 122 157 194 242 299 357
#
# _framework density 18.040136
#
# number of rings (size 3 to 8) (size 9 to 14) (size 15 to 20)
#    0.750    1.250    1.250    3.000    0.000    6.000 
#    0.000    1.250    0.000    4.500    0.000    0.000 
#    0.000    0.000    0.000    0.000    0.000    0.000 
#
# Total GULP energy -89156.211493 kJ/mol
# GULP energy per Si atom -5572.263218 kJ/mol
# Density = 1.799908 g / cm^3
# Si number density = 18.040136 Si / 1000 Ang^3
#
#
#
# Elastic Constant Matrix: (Units=GPa)
#
#
# Indices 1 2 3 4 5 6 
#
# 1 96.9100 40.6297 75.5825 0.0000 0.0000 0.0000
# 2 40.6297 90.6730 47.5713 0.0000 0.0000 0.0000
# 3 75.5825 47.5713 133.2082 0.0000 0.0000 0.0000
# 4 0.0000 0.0000 0.0000 24.6549 0.0000 0.0000
# 5 0.0000 0.0000 0.0000 0.0000 -96.9018 0.0000
# 6 0.0000 0.0000 0.0000 0.0000 0.0000 14.9715
#
#
#
# Elastic Compliance Matrix: (Units=1/GPa)
#
#
# Indices 1 2 3 4 5 6 
#
# 1 0.019417 -0.003594 -0.009734 0.000000 0.000000 0.000000
# 2 -0.003594 0.014237 -0.003045 0.000000 0.000000 0.000000
# 3 -0.009734 -0.003045 0.014118 0.000000 0.000000 0.000000
# 4 0.000000 0.000000 0.000000 0.040560 0.000000 0.000000
# 5 0.000000 0.000000 0.000000 0.000000 -0.010320 0.000000
# 6 0.000000 0.000000 0.000000 0.000000 0.000000 0.066793
#
#
# Mechanical properties :
#
#
# Convention : Reuss Voigt Hill
#
# Bulk Modulus (GPa) = 66.55223 72.03981 69.29602
# Shear Modulus (GPa) = 27.38835 -0.98787 13.20024
#
# Velocity S-wave (km/s) = 3.90062 -0.74080 2.70796
# Velocity P-wave (km/s) = 7.56689 6.26802 6.94787
#
# Compressibility (1/GPa) = 0.01502579
#
# Stress axis : x y z
#
# Youngs Moduli (GPa) = 51.50030 70.24174 70.83367
#
# Poissons Ratio (x) = 0.25244 0.68950
# Poissons Ratio (y) = 0.18508 0.21569
# Poissons Ratio (z) = 0.50131 0.21389
#
# Static dielectric constant tensor:
#      x y z
#    x 1.620100 0.000000 0.000000 
#    y 0.000000 1.642030 0.000000 
#    z 0.000000 0.000000 1.575030 
# 
# From -- ./inp_files/21606.got.cif
#   From: 2010.05.17/outbox.cif.g08.bks.cpg/sg38_11_cif.got.tgz:21606.got - 2010.06.03 18:07:57.
