data_PCOD9358585
_publ_section_title
;
Structure prediction by ZEFSAII (Michael W. Deem and Ramdas Pophale) SiO2 
 PCOD9358585
Probable space group: A M M 2
;
_chemical_formula_sum "Si O2"
_cell_formula_units_Z 48
_cell_length_a 7.839383
_cell_length_b 19.185818
_cell_length_c 15.105977
_cell_angle_alpha 90.000000
_cell_angle_beta 90.000000
_cell_angle_gamma 90.000000
_cell_volume 2272.014100
_symmetry_space_group_name_H-M "A M M 2"
_symmetry_group_IT_number 38
_symmetry_cell_setting 'orthorhombic'
loop_
_space_group_symop_operation_xyz
x,y,z
-x,-y,z
-x,y,z
x,-y,z
x,1/2+y,1/2+z
-x,1/2-y,1/2+z
-x,1/2+y,1/2+z
x,1/2-y,1/2+z
loop_
_atom_site_type_symbol
_atom_site_label
_atom_site_fract_x
_atom_site_fract_y
_atom_site_fract_z
Si Si1 0.305228 0.500000 0.358261
Si Si2 0.293158 0.425062 0.823814
Si Si3 0.701504 0.774910 0.264019
Si Si4 0.296226 0.114159 0.522319
Si Si5 0.196460 0.733036 0.562753
Si Si6 0.197006 0.500000 0.163404
Si Si7 0.701223 0.652512 0.392138
O O1 0.500000 0.500000 0.393616
O O2 0.305852 0.500000 0.251915
O O3 0.225259 0.425554 0.384795
O O4 0.500000 0.425155 0.812284
O O5 0.230280 0.500000 0.788877
O O6 0.227386 0.351949 0.785452
O O7 0.259658 0.421495 0.928654
O O8 0.500000 0.777912 0.286410
O O9 0.721633 0.763756 0.159736
O O10 0.772039 0.710810 0.323238
O O11 0.500000 0.123181 0.528662
O O12 0.212351 0.189450 0.524070
O O13 0.235896 0.066723 0.602897
O O14 0.279839 0.682266 0.490852
O O15 0.000000 0.713298 0.572949
O O16 0.000000 0.500000 0.189543
O O17 0.500000 0.645797 0.370430
#
# Coordination Sequence:
#
# PCOD9358585 Si02
#       7
#     4   8   8   8   8   4   8
#     4  10  22  40  64  91 118 159 214 261 303 359
#     4   9  17  33  60  91 115 145 195 251 298 343
#     4  10  20  38  64  89 118 158 207 255 301 363
#     4  11  20  37  63  88 119 159 206 252 298 361
#     4  12  25  39  59  90 126 163 202 251 316 378
#     4  12  24  36  56  95 134 161 194 247 321 381
#     4  10  21  41  66  90 117 157 210 261 305 359
#
# _framework density 21.126629999999999
#
# number of rings (size 3 to 8) (size 9 to 14) (size 15 to 20)
#    0.000    1.500    2.500    3.750    0.000    2.667 
#    1.500    0.000    0.000    0.000    0.000    0.000 
#    0.000    0.000    0.000    0.000    0.000    0.000 
#
# Total GULP energy -134016.909712 kJ/mol
# GULP energy per Si atom -5584.037905 kJ/mol
# Density = 2.107854 g / cm^3
# Si number density = 21.126630 Si / 1000 Ang^3
#
#
#
# Elastic Constant Matrix: (Units=GPa)
#
#
# Indices 1 2 3 4 5 6 
#
# 1 29.8341 6.0342 -5.9091 0.0000 0.0000 0.0000
# 2 6.0342 188.2826 42.9090 0.0000 0.0000 0.0000
# 3 -5.9091 42.9090 57.6632 0.0000 0.0000 0.0000
# 4 0.0000 0.0000 0.0000 -1.5794 0.0000 0.0000
# 5 0.0000 0.0000 0.0000 0.0000 -283.2904 0.0000
# 6 0.0000 0.0000 0.0000 0.0000 0.0000 9.9268
#
#
#
# Elastic Compliance Matrix: (Units=1/GPa)
#
#
# Indices 1 2 3 4 5 6 
#
# 1 0.035048 -0.002338 0.005331 0.000000 0.000000 0.000000
# 2 -0.002338 0.006552 -0.005115 0.000000 0.000000 0.000000
# 3 0.005331 -0.005115 0.021695 0.000000 0.000000 0.000000
# 4 0.000000 0.000000 0.000000 -0.633166 0.000000 0.000000
# 5 0.000000 0.000000 0.000000 0.000000 -0.003530 0.000000
# 6 0.000000 0.000000 0.000000 0.000000 0.000000 0.100737
#
#
# Mechanical properties :
#
#
# Convention : Reuss Voigt Hill
#
# Bulk Modulus (GPa) = 16.93465 40.20534 28.56999
# Shear Modulus (GPa) = -11.14235 -39.47221 -25.30728
#
# Velocity S-wave (km/s) = -2.29903 -4.32715 -3.46480
# Velocity P-wave (km/s) = 0.99288 2.42768 1.56650
#
# Compressibility (1/GPa) = 0.05905053
#
# Stress axis : x y z
#
# Youngs Moduli (GPa) = 28.53262 152.62984 46.09423
#
# Poissons Ratio (x) = 0.35689 -0.24575
# Poissons Ratio (y) = 0.06672 0.23577
# Poissons Ratio (z) = -0.15212 0.78070
#
# Static dielectric constant tensor:
#      x y z
#    x 1.787730 0.000000 0.000000 
#    y 0.000000 1.815350 0.000000 
#    z 0.000000 0.000000 1.709020 
# 
# From -- ./inp_files/12085.got.cif
#   From: 2010.05.17/outbox.cif.g08.bks.cpg/sg38_7_cif.got.tgz:12085.got - 2010.06.03 18:07:57.
