data_PCOD9358075
_publ_section_title
;
Structure prediction by ZEFSAII (Michael W. Deem and Ramdas Pophale) SiO2 
 PCOD9358075
Probable space group: A M M 2
;
_chemical_formula_sum "Si O2"
_cell_formula_units_Z 48
_cell_length_a 14.197329
_cell_length_b 18.020915
_cell_length_c 7.535070
_cell_angle_alpha 90.000000
_cell_angle_beta 90.000000
_cell_angle_gamma 90.000000
_cell_volume 1927.839063
_symmetry_space_group_name_H-M "A M M 2"
_symmetry_group_IT_number 38
_symmetry_cell_setting 'orthorhombic'
loop_
_space_group_symop_operation_xyz
x,y,z
-x,-y,z
-x,y,z
x,-y,z
x,1/2+y,1/2+z
-x,1/2-y,1/2+z
-x,1/2+y,1/2+z
x,1/2-y,1/2+z
loop_
_atom_site_type_symbol
_atom_site_label
_atom_site_fract_x
_atom_site_fract_y
_atom_site_fract_z
Si Si1 0.641606 0.360377 0.668300
Si Si2 0.107659 0.418005 0.256568
Si Si3 0.682139 0.199741 0.520044
Si Si4 0.896784 0.194902 0.431930
Si Si5 0.156809 0.415707 0.645274
Si Si6 0.392819 0.914924 0.785830
O O1 0.646296 0.278213 0.585938
O O2 0.737371 0.405187 0.710216
O O3 0.603016 0.404992 0.499655
O O4 0.616466 0.338152 0.869845
O O5 0.134862 0.500000 0.189213
O O6 0.161388 0.400242 0.436166
O O7 0.000000 0.422934 0.320702
O O8 0.106030 0.359011 0.101738
O O9 0.787764 0.221901 0.444330
O O10 0.676676 0.141701 0.683789
O O11 0.898935 0.145709 0.254092
O O12 0.000000 0.235621 0.438178
O O13 0.123249 0.500000 0.672048
O O14 0.500000 0.901568 0.723029
O O15 0.366023 0.000000 0.747608
#
# Coordination Sequence:
#
# PCOD9358075 Si02
#       6
#     8   8   8   8   8   8
#     4  11  23  43  68  97 138 183 230 279 346 421
#     4   9  17  29  48  77 114 158 211 271 332 389
#     4  11  24  44  69 100 144 189 235 285 347 418
#     4  10  21  36  57  88 129 180 233 286 338 396
#     4  10  20  34  58  87 122 167 221 285 343 398
#     4  11  26  48  76 110 143 176 224 290 357 424
#
# _framework density 24.898343000000001
#
# number of rings (size 3 to 8) (size 9 to 14) (size 15 to 20)
#    0.000    1.667    1.667    2.500    0.000    8.333 
#    0.000    5.833    0.000    0.000    0.000    0.000 
#    0.000    0.000    0.000    0.000    0.000    0.000 
#
# Total GULP energy -133795.937993 kJ/mol
# GULP energy per Si atom -5574.830750 kJ/mol
# Density = 2.484167 g / cm^3
# Si number density = 24.898343 Si / 1000 Ang^3
#
#
#
# Elastic Constant Matrix: (Units=GPa)
#
#
# Indices 1 2 3 4 5 6 
#
# 1 90.6859 8.2443 -5.1884 0.0000 0.0000 0.0000
# 2 8.2443 68.2889 10.2368 0.0000 0.0000 0.0000
# 3 -5.1884 10.2368 87.8013 0.0000 0.0000 0.0000
# 4 0.0000 0.0000 0.0000 37.9173 0.0000 0.0000
# 5 0.0000 0.0000 0.0000 0.0000 4.8362 0.0000
# 6 0.0000 0.0000 0.0000 0.0000 0.0000 -47.8278
#
#
#
# Elastic Compliance Matrix: (Units=1/GPa)
#
#
# Indices 1 2 3 4 5 6 
#
# 1 0.011209 -0.001478 0.000835 0.000000 0.000000 0.000000
# 2 -0.001478 0.015099 -0.001848 0.000000 0.000000 0.000000
# 3 0.000835 -0.001848 0.011654 0.000000 0.000000 0.000000
# 4 0.000000 0.000000 0.000000 0.026373 0.000000 0.000000
# 5 0.000000 0.000000 0.000000 0.000000 0.206772 0.000000
# 6 0.000000 0.000000 0.000000 0.000000 0.000000 -0.020908
#
#
# Mechanical properties :
#
#
# Convention : Reuss Voigt Hill
#
# Bulk Modulus (GPa) = 30.32174 30.37351 30.34762
# Shear Modulus (GPa) = 18.78462 14.55070 16.66766
#
# Velocity S-wave (km/s) = 2.74971 2.42007 2.59014
# Velocity P-wave (km/s) = 4.72079 4.47599 4.60002
#
# Compressibility (1/GPa) = 0.03297964
#
# Stress axis : x y z
#
# Youngs Moduli (GPa) = 89.21218 66.22889 85.80661
#
# Poissons Ratio (x) = 0.09791 -0.07163
# Poissons Ratio (y) = 0.13189 0.15855
# Poissons Ratio (z) = -0.07447 0.12238
#
# Static dielectric constant tensor:
#      x y z
#    x 2.172200 0.000000 0.000000 
#    y 0.000000 1.940950 0.000000 
#    z 0.000000 0.000000 1.956830 
# 
# From -- ./inp_files/5583.got.cif
#   From: 2010.05.17/outbox.cif.g08.bks.cpg/sg38_3_cif.got.tgz:5583.got - 2010.06.03 18:07:57.
