data_PCOD9358686
_publ_section_title
;
Structure prediction by ZEFSAII (Michael W. Deem and Ramdas Pophale) SiO2 
 PCOD9358686
Probable space group: A M M 2
;
_chemical_formula_sum "Si O2"
_cell_formula_units_Z 64
_cell_length_a 9.717768
_cell_length_b 16.251787
_cell_length_c 21.600700
_cell_angle_alpha 90.000000
_cell_angle_beta 90.000000
_cell_angle_gamma 90.000000
_cell_volume 3411.422218
_symmetry_space_group_name_H-M "A M M 2"
_symmetry_group_IT_number 38
_symmetry_cell_setting 'orthorhombic'
loop_
_space_group_symop_operation_xyz
x,y,z
-x,-y,z
-x,y,z
x,-y,z
x,1/2+y,1/2+z
-x,1/2-y,1/2+z
-x,1/2+y,1/2+z
x,1/2-y,1/2+z
loop_
_atom_site_type_symbol
_atom_site_label
_atom_site_fract_x
_atom_site_fract_y
_atom_site_fract_z
Si Si1 0.657091 0.848253 0.721320
Si Si2 0.341922 0.598949 0.085271
Si Si3 0.658078 0.598949 0.854628
Si Si4 0.342909 0.151748 0.218580
Si Si5 0.158113 0.900509 0.104109
Si Si6 0.841887 0.900509 0.835791
Si Si7 0.841881 0.399170 0.969950
Si Si8 0.832300 0.595664 0.469950
O O1 0.500000 0.879161 0.728660
O O2 0.706672 0.878069 0.654018
O O3 0.654329 0.750000 0.719950
O O4 0.749039 0.876051 0.778373
O O5 0.500000 0.629108 0.077548
O O6 0.346645 0.500000 0.081308
O O7 0.241494 0.627728 0.030880
O O8 0.500000 0.629108 0.862351
O O9 0.653355 0.500000 0.858591
O O10 0.706672 0.621931 0.785882
O O11 0.758506 0.627728 0.909019
O O12 0.500000 0.120840 0.211239
O O13 0.250961 0.123949 0.161526
O O14 0.000000 0.873397 0.113297
O O15 0.156139 0.000000 0.100246
O O16 0.208741 0.868730 0.036680
O O17 0.791259 0.868730 0.903220
O O18 0.000000 0.873396 0.826603
O O19 0.843861 0.000000 0.839654
O O20 0.843555 0.500000 0.969950
O O21 0.000000 0.371340 0.969950
O O22 0.787682 0.500000 0.469950
O O23 0.000000 0.595471 0.469950
#
# Coordination Sequence:
#
# PCOD9358686 Si02
#       8
#     8   8   8   8   8   8   8   8
#     4  10  21  35  49  69 100 135 168 202 241 286
#     4   9  17  31  51  71  93 126 163 196 238 292
#     4   9  17  31  51  71  93 126 163 196 238 292
#     4  10  21  35  49  69 100 135 168 202 241 286
#     4   9  17  31  53  77  99 127 163 201 242 290
#     4   9  17  31  53  77  99 127 163 201 242 290
#     4   9  17  29  48  75 100 118 148 201 250 285
#     4   7  12  26  48  73  98 122 152 193 242 293
#
# _framework density 18.760504000000001
#
# number of rings (size 3 to 8) (size 9 to 14) (size 15 to 20)
#    0.000    3.000    0.000    2.625    0.000    4.500 
#    0.000    4.375    0.000    6.750    0.000    0.000 
#    0.000    0.000    0.000    0.000    0.000    0.000 
#
# Total GULP energy -178303.026541 kJ/mol
# GULP energy per Si atom -5571.969579 kJ/mol
# Density = 1.871780 g / cm^3
# Si number density = 18.760504 Si / 1000 Ang^3
#
#
#
# Elastic Constant Matrix: (Units=GPa)
#
#
# Indices 1 2 3 4 5 6 
#
# 1 81.5721 8.5052 110.2895 0.0000 0.0000 0.0000
# 2 8.5052 6.1567 11.9960 0.0000 0.0000 0.0000
# 3 110.2895 11.9960 238.3381 0.0000 0.0000 0.0000
# 4 0.0000 0.0000 0.0000 -28.1670 0.0000 0.0000
# 5 0.0000 0.0000 0.0000 0.0000 32.1499 0.0000
# 6 0.0000 0.0000 0.0000 0.0000 0.0000 14.3199
#
#
#
# Elastic Compliance Matrix: (Units=1/GPa)
#
#
# Indices 1 2 3 4 5 6 
#
# 1 0.034525 -0.018367 -0.015052 0.000000 0.000000 0.000000
# 2 -0.018367 0.189857 -0.001057 0.000000 0.000000 0.000000
# 3 -0.015052 -0.001057 0.011214 0.000000 0.000000 0.000000
# 4 0.000000 0.000000 0.000000 -0.035503 0.000000 0.000000
# 5 0.000000 0.000000 0.000000 0.000000 0.031104 0.000000
# 6 0.000000 0.000000 0.000000 0.000000 0.000000 0.069833
#
#
# Mechanical properties :
#
#
# Convention : Reuss Voigt Hill
#
# Bulk Modulus (GPa) = 6.00077 65.29426 35.64751
# Shear Modulus (GPa) = 11.75005 16.67896 14.21450
#
# Velocity S-wave (km/s) = 2.50535 2.98492 2.75559
# Velocity P-wave (km/s) = 3.40215 6.83808 5.40065
#
# Compressibility (1/GPa) = 0.16664538
#
# Stress axis : x y z
#
# Youngs Moduli (GPa) = 28.96475 5.26711 89.17452
#
# Poissons Ratio (x) = 0.09674 1.34222
# Poissons Ratio (y) = 0.53200 0.09423
# Poissons Ratio (z) = 0.43597 0.00557
#
# Static dielectric constant tensor:
#      x y z
#    x 1.645640 0.000000 0.000000 
#    y 0.000000 1.644920 0.000000 
#    z 0.000000 0.000000 1.661300 
# 
# From -- ./inp_files/20062.got.cif
#   From: 2010.05.17/outbox.cif.g08.bks.cpg/sg38_11_cif.got.tgz:20062.got - 2010.06.03 18:07:57.
