data_PCOD9358477
_publ_section_title
;
Structure prediction by ZEFSAII (Michael W. Deem and Ramdas Pophale) SiO2 
 PCOD9358477
Probable space group: A M M 2
;
_chemical_formula_sum "Si O2"
_cell_formula_units_Z 64
_cell_length_a 15.991551
_cell_length_b 23.766799
_cell_length_c 9.214961
_cell_angle_alpha 90.000000
_cell_angle_beta 90.000000
_cell_angle_gamma 90.000000
_cell_volume 3502.311598
_symmetry_space_group_name_H-M "A M M 2"
_symmetry_group_IT_number 38
_symmetry_cell_setting 'orthorhombic'
loop_
_space_group_symop_operation_xyz
x,y,z
-x,-y,z
-x,y,z
x,-y,z
x,1/2+y,1/2+z
-x,1/2-y,1/2+z
-x,1/2+y,1/2+z
x,1/2-y,1/2+z
loop_
_atom_site_type_symbol
_atom_site_label
_atom_site_fract_x
_atom_site_fract_y
_atom_site_fract_z
Si Si1 0.904247 0.935182 0.477250
Si Si2 0.731409 0.259399 0.930846
Si Si3 0.856409 0.114624 0.775533
Si Si4 0.257746 0.062592 0.014958
Si Si5 0.908060 0.703142 0.509365
Si Si6 0.688051 0.672987 0.199403
Si Si7 0.813160 0.855344 0.252330
Si Si8 0.401097 0.063880 0.791635
O O1 0.901902 0.916368 0.645301
O O2 0.848154 0.894602 0.379338
O O3 0.000000 0.931683 0.425779
O O4 0.876402 0.000000 0.466342
O O5 0.824197 0.239490 0.983034
O O6 0.684733 0.208589 0.848818
O O7 0.753104 0.307779 0.815830
O O8 0.680218 0.285846 0.063249
O O9 0.906261 0.156824 0.880354
O O10 0.783403 0.150925 0.699740
O O11 0.807901 0.072507 0.883692
O O12 0.236975 0.108147 0.135006
O O13 0.248090 0.000000 0.074218
O O14 0.347981 0.068486 0.940098
O O15 0.889185 0.673062 0.662697
O O16 0.000000 0.730847 0.510583
O O17 0.631072 0.617306 0.199405
O O18 0.500000 0.067566 0.812926
O O19 0.382494 0.000000 0.734516
#
# Coordination Sequence:
#
# PCOD9358477 Si02
#       8
#     8   8   8   8   8   8   8   8
#     4  11  22  33  48  76 113 151 197 255 307 346
#     4  11  21  37  54  80 113 153 194 241 282 337
#     4   9  18  34  53  75 105 144 197 242 288 341
#     4   9  18  34  59  84 108 146 192 230 276 347
#     4  10  21  35  52  74 103 148 199 248 300 340
#     4  10  20  37  59  84 115 151 189 233 282 342
#     4  11  21  36  52  77 110 152 192 244 291 346
#     4   9  19  38  67  98 121 144 182 234 285 342
#
# _framework density 18.273645999999999
#
# number of rings (size 3 to 8) (size 9 to 14) (size 15 to 20)
#    0.000    2.000    2.500    2.250    0.000    1.500 
#    0.000    0.625    0.000    6.750    0.000    1.750 
#    0.000    0.000    0.000    0.000    0.000    0.000 
#
# Total GULP energy -178417.679063 kJ/mol
# GULP energy per Si atom -5575.552471 kJ/mol
# Density = 1.823205 g / cm^3
# Si number density = 18.273646 Si / 1000 Ang^3
#
#
#
# Elastic Constant Matrix: (Units=GPa)
#
#
# Indices 1 2 3 4 5 6 
#
# 1 58.4318 28.0413 19.6618 0.0000 0.0000 0.0000
# 2 28.0413 103.5680 39.1374 0.0000 0.0000 0.0000
# 3 19.6618 39.1374 79.3444 0.0000 0.0000 0.0000
# 4 0.0000 0.0000 0.0000 30.7367 0.0000 0.0000
# 5 0.0000 0.0000 0.0000 0.0000 4.9910 0.0000
# 6 0.0000 0.0000 0.0000 0.0000 0.0000 19.0366
#
#
#
# Elastic Compliance Matrix: (Units=1/GPa)
#
#
# Indices 1 2 3 4 5 6 
#
# 1 0.020175 -0.004392 -0.002833 0.000000 0.000000 0.000000
# 2 -0.004392 0.012824 -0.005237 0.000000 0.000000 0.000000
# 3 -0.002833 -0.005237 0.015889 0.000000 0.000000 0.000000
# 4 0.000000 0.000000 0.000000 0.032534 0.000000 0.000000
# 5 0.000000 0.000000 0.000000 0.000000 0.200360 0.000000
# 6 0.000000 0.000000 0.000000 0.000000 0.000000 0.052530
#
#
# Mechanical properties :
#
#
# Convention : Reuss Voigt Hill
#
# Bulk Modulus (GPa) = 41.73077 46.11393 43.92235
# Shear Modulus (GPa) = 13.61569 21.25311 17.43440
#
# Velocity S-wave (km/s) = 2.73261 3.41405 3.09216
# Velocity P-wave (km/s) = 5.73083 6.38991 6.06932
#
# Compressibility (1/GPa) = 0.02396313
#
# Stress axis : x y z
#
# Youngs Moduli (GPa) = 49.56649 77.98107 62.93831
#
# Poissons Ratio (x) = 0.34248 0.17831
# Poissons Ratio (y) = 0.21769 0.32961
# Poissons Ratio (z) = 0.14043 0.40839
#
# Static dielectric constant tensor:
#      x y z
#    x 1.608310 0.000000 0.000000 
#    y 0.000000 1.675150 0.000000 
#    z 0.000000 0.000000 1.635760 
# 
# From -- ./inp_files/5892.got.cif
#   From: 2010.05.17/outbox.cif.g08.bks.cpg/sg38_3_cif.got.tgz:5892.got - 2010.06.03 18:07:57.
