data_PCOD9358142
_publ_section_title
;
Structure prediction by ZEFSAII (Michael W. Deem and Ramdas Pophale) SiO2 
 PCOD9358142
Probable space group: A M M 2
;
_chemical_formula_sum "Si O2"
_cell_formula_units_Z 58
_cell_length_a 16.183746
_cell_length_b 13.216915
_cell_length_c 13.412970
_cell_angle_alpha 90.000000
_cell_angle_beta 90.000000
_cell_angle_gamma 90.000000
_cell_volume 2869.023489
_symmetry_space_group_name_H-M "A M M 2"
_symmetry_group_IT_number 38
_symmetry_cell_setting 'orthorhombic'
loop_
_space_group_symop_operation_xyz
x,y,z
-x,-y,z
-x,y,z
x,-y,z
x,1/2+y,1/2+z
-x,1/2-y,1/2+z
-x,1/2+y,1/2+z
x,1/2-y,1/2+z
loop_
_atom_site_type_symbol
_atom_site_label
_atom_site_fract_x
_atom_site_fract_y
_atom_site_fract_z
Si Si1 0.320226 0.314561 0.625000
Si Si2 0.401242 0.885500 0.695795
Si Si3 0.869599 0.317726 0.690324
Si Si4 0.627117 0.887711 0.336560
Si Si5 0.907105 0.385853 0.090098
Si Si6 0.818731 0.885776 0.392570
Si Si7 0.407339 0.172389 0.920232
Si Si8 0.000000 0.500000 0.653872
O O1 0.346989 0.197219 0.639231
O O2 0.223284 0.330656 0.646004
O O3 0.368922 0.368388 0.717045
O O4 0.349026 0.346137 0.514834
O O5 0.500000 0.863495 0.685013
O O6 0.382222 0.876648 0.814368
O O7 0.386270 0.000000 0.661783
O O8 0.901697 0.206897 0.663912
O O9 0.861491 0.319711 0.809511
O O10 0.927979 0.409485 0.656754
O O11 0.721937 0.884867 0.372879
O O12 0.588937 0.791966 0.392391
O O13 0.594370 0.000000 0.357120
O O14 0.890940 0.500000 0.128636
O O15 0.000000 0.387455 0.046828
O O16 0.842487 0.360584 0.003814
O O17 0.849700 0.000000 0.375672
O O18 0.500000 0.137834 0.945158
#
# Coordination Sequence:
#
# PCOD9358142 Si02
#       8
#     8   8   8   8   8   8   8   2
#     4  10  21  35  58  85 114 155 197 242 292 348
#     4   9  19  37  58  84 119 157 198 240 285 349
#     4  11  22  38  62  86 119 155 200 253 302 359
#     4   9  19  35  53  80 115 144 187 243 293 338
#     4  10  21  34  55  82 111 145 189 240 299 357
#     4   9  18  34  59  84 106 150 201 240 287 361
#     4  10  20  35  55  82 115 154 197 236 283 347
#     4  12  24  40  62  92 118 158 204 254 312 364
#
# _framework density 20.215937
#
# number of rings (size 3 to 8) (size 9 to 14) (size 15 to 20)
#    0.000    2.207    1.379    1.241    1.931    2.483 
#    0.000    0.000    1.517    0.000    0.000    0.000 
#    0.000    0.000    0.000    0.000    0.000    0.000 
#
# Total GULP energy -161546.429681 kJ/mol
# GULP energy per Si atom -5570.566541 kJ/mol
# Density = 2.016993 g / cm^3
# Si number density = 20.215937 Si / 1000 Ang^3
#
#
#
# Elastic Constant Matrix: (Units=GPa)
#
#
# Indices 1 2 3 4 5 6 
#
# 1 71.7911 27.1590 26.8210 0.0000 0.0000 0.0000
# 2 27.1590 112.3962 21.8036 0.0000 0.0000 0.0000
# 3 26.8210 21.8036 35.5952 0.0000 0.0000 0.0000
# 4 0.0000 0.0000 0.0000 16.2028 0.0000 0.0000
# 5 0.0000 0.0000 0.0000 0.0000 1.7097 0.0000
# 6 0.0000 0.0000 0.0000 0.0000 0.0000 26.3393
#
#
#
# Elastic Compliance Matrix: (Units=1/GPa)
#
#
# Indices 1 2 3 4 5 6 
#
# 1 0.019834 -0.002149 -0.013629 0.000000 0.000000 0.000000
# 2 -0.002149 0.010330 -0.004708 0.000000 0.000000 0.000000
# 3 -0.013629 -0.004708 0.041247 0.000000 0.000000 0.000000
# 4 0.000000 0.000000 0.000000 0.061718 0.000000 0.000000
# 5 0.000000 0.000000 0.000000 0.000000 0.584898 0.000000
# 6 0.000000 0.000000 0.000000 0.000000 0.000000 0.037966
#
#
# Mechanical properties :
#
#
# Convention : Reuss Voigt Hill
#
# Bulk Modulus (GPa) = 32.85253 41.26109 37.05681
# Shear Modulus (GPa) = 6.19494 18.45029 12.32262
#
# Velocity S-wave (km/s) = 1.75244 3.02430 2.47158
# Velocity P-wave (km/s) = 4.51451 5.71399 5.14930
#
# Compressibility (1/GPa) = 0.03043906
#
# Stress axis : x y z
#
# Youngs Moduli (GPa) = 50.41892 96.80857 24.24433
#
# Poissons Ratio (x) = 0.20802 0.33042
# Poissons Ratio (y) = 0.10834 0.11415
# Poissons Ratio (z) = 0.68714 0.45580
#
# Static dielectric constant tensor:
#      x y z
#    x 1.746320 0.000000 0.000000 
#    y 0.000000 1.740370 0.000000 
#    z 0.000000 0.000000 1.752440 
# 
# From -- ./inp_files/10570.got.cif
#   From: 2010.05.17/outbox.cif.g08.bks.cpg/sg38_6_cif.got.tgz:10570.got - 2010.06.03 18:07:57.
