data_PCOD9358491
_publ_section_title
;
Structure prediction by ZEFSAII (Michael W. Deem and Ramdas Pophale) SiO2 
 PCOD9358491
Probable space group: A M M 2
;
_chemical_formula_sum "Si O2"
_cell_formula_units_Z 64
_cell_length_a 19.279458
_cell_length_b 8.563960
_cell_length_c 20.417833
_cell_angle_alpha 90.000000
_cell_angle_beta 90.000000
_cell_angle_gamma 90.000000
_cell_volume 3371.157926
_symmetry_space_group_name_H-M "A M M 2"
_symmetry_group_IT_number 38
_symmetry_cell_setting 'orthorhombic'
loop_
_space_group_symop_operation_xyz
x,y,z
-x,-y,z
-x,y,z
x,-y,z
x,1/2+y,1/2+z
-x,1/2-y,1/2+z
-x,1/2+y,1/2+z
x,1/2-y,1/2+z
loop_
_atom_site_type_symbol
_atom_site_label
_atom_site_fract_x
_atom_site_fract_y
_atom_site_fract_z
Si Si1 0.835802 0.311265 0.274420
Si Si2 0.691992 0.312858 0.831898
Si Si3 0.165519 0.687453 0.523243
Si Si4 0.922341 0.810128 0.899271
Si Si5 0.919153 0.689096 0.145966
Si Si6 0.311634 0.813071 0.484556
Si Si7 0.419102 0.812856 0.730343
Si Si8 0.419024 0.686846 0.588125
O O1 0.829495 0.500000 0.273990
O O2 0.761987 0.243927 0.295954
O O3 0.890944 0.265671 0.329975
O O4 0.869611 0.262311 0.205997
O O5 0.691188 0.500000 0.832463
O O6 0.689664 0.258865 0.908222
O O7 0.627833 0.252199 0.788767
O O8 0.170084 0.500000 0.524509
O O9 0.128861 0.740107 0.456212
O O10 0.116508 0.744568 0.581337
O O11 0.242229 0.756892 0.521332
O O12 0.000000 0.752277 0.909361
O O13 0.924450 0.000000 0.901002
O O14 0.919014 0.500000 0.143868
O O15 0.000000 0.737426 0.153105
O O16 0.375364 0.750111 0.527250
O O17 0.313637 0.000000 0.483951
O O18 0.500000 0.765816 0.738105
O O19 0.395230 0.752691 0.658778
O O20 0.415445 0.000000 0.730505
O O21 0.500000 0.730796 0.581053
O O22 0.413799 0.500000 0.590087
#
# Coordination Sequence:
#
# PCOD9358491 Si02
#       8
#     8   8   8   8   8   8   8   8
#     4  10  20  37  60  84 114 155 201 247 297 356
#     4  11  24  40  60  88 124 162 202 249 299 354
#     4  11  22  37  59  86 118 156 199 250 302 356
#     4   9  17  32  57  85 110 144 195 248 297 351
#     4  10  22  39  59  85 118 155 196 247 307 369
#     4  11  24  41  61  87 123 164 205 248 299 359
#     4  10  22  41  66  94 124 160 201 243 292 354
#     4  10  22  41  66  95 125 157 197 246 299 355
#
# _framework density 18.984576000000001
#
# number of rings (size 3 to 8) (size 9 to 14) (size 15 to 20)
#    0.000    1.750    1.250    2.625    1.750    6.250 
#    0.000    2.500    0.000    1.875    0.000    0.000 
#    0.000    0.000    0.000    0.000    0.000    0.000 
#
# Total GULP energy -178712.385524 kJ/mol
# GULP energy per Si atom -5584.762048 kJ/mol
# Density = 1.894137 g / cm^3
# Si number density = 18.984576 Si / 1000 Ang^3
#
#
#
# Elastic Constant Matrix: (Units=GPa)
#
#
# Indices 1 2 3 4 5 6 
#
# 1 88.0072 20.1231 22.9833 0.0000 0.0000 0.0000
# 2 20.1231 28.3417 17.2299 0.0000 0.0000 0.0000
# 3 22.9833 17.2299 74.1156 0.0000 0.0000 0.0000
# 4 0.0000 0.0000 0.0000 28.3231 0.0000 0.0000
# 5 0.0000 0.0000 0.0000 0.0000 39.8673 0.0000
# 6 0.0000 0.0000 0.0000 0.0000 0.0000 20.9270
#
#
#
# Elastic Compliance Matrix: (Units=1/GPa)
#
#
# Indices 1 2 3 4 5 6 
#
# 1 0.013907 -0.008446 -0.002349 0.000000 0.000000 0.000000
# 2 -0.008446 0.046221 -0.008126 0.000000 0.000000 0.000000
# 3 -0.002349 -0.008126 0.016110 0.000000 0.000000 0.000000
# 4 0.000000 0.000000 0.000000 0.035307 0.000000 0.000000
# 5 0.000000 0.000000 0.000000 0.000000 0.025083 0.000000
# 6 0.000000 0.000000 0.000000 0.000000 0.000000 0.047785
#
#
# Mechanical properties :
#
#
# Convention : Reuss Voigt Hill
#
# Bulk Modulus (GPa) = 26.04482 34.57080 30.30781
# Shear Modulus (GPa) = 21.27163 26.49869 23.88516
#
# Velocity S-wave (km/s) = 3.35097 3.74009 3.55087
# Velocity P-wave (km/s) = 5.35917 6.07458 5.72806
#
# Compressibility (1/GPa) = 0.03839536
#
# Stress axis : x y z
#
# Youngs Moduli (GPa) = 71.90373 21.63528 62.07337
#
# Poissons Ratio (x) = 0.18274 0.14582
# Poissons Ratio (y) = 0.60733 0.50440
# Poissons Ratio (z) = 0.16891 0.17581
#
# Static dielectric constant tensor:
#      x y z
#    x 1.645820 0.000000 0.000000 
#    y 0.000000 1.644800 0.000000 
#    z 0.000000 0.000000 1.643800 
# 
# From -- ./inp_files/21422.got.cif
#   From: 2010.05.17/outbox.cif.g08.bks.cpg/sg38_11_cif.got.tgz:21422.got - 2010.06.03 18:07:57.
