data_PCOD9358440
_publ_section_title
;
Structure prediction by ZEFSAII (Michael W. Deem and Ramdas Pophale) SiO2 
 PCOD9358440
Probable space group: A M M 2
;
_chemical_formula_sum "Si O2"
_cell_formula_units_Z 34
_cell_length_a 10.965766
_cell_length_b 12.923647
_cell_length_c 13.817191
_cell_angle_alpha 90.000000
_cell_angle_beta 90.000000
_cell_angle_gamma 90.000000
_cell_volume 1958.140375
_symmetry_space_group_name_H-M "A M M 2"
_symmetry_group_IT_number 38
_symmetry_cell_setting 'orthorhombic'
loop_
_space_group_symop_operation_xyz
x,y,z
-x,-y,z
-x,y,z
x,-y,z
x,1/2+y,1/2+z
-x,1/2-y,1/2+z
-x,1/2+y,1/2+z
x,1/2-y,1/2+z
loop_
_atom_site_type_symbol
_atom_site_label
_atom_site_fract_x
_atom_site_fract_y
_atom_site_fract_z
Si Si1 0.000000 0.212811 0.637770
Si Si2 0.000000 0.000000 0.519586
Si Si3 0.199853 0.690442 0.303520
Si Si4 0.000000 0.375004 0.461827
Si Si5 0.638646 0.882868 0.351282
Si Si6 0.725393 0.000000 0.513999
Si Si7 0.646840 0.500000 0.233655
O O1 0.115263 0.206770 0.709433
O O2 0.000000 0.307585 0.561061
O O3 0.000000 0.105601 0.579561
O O4 0.864618 0.000000 0.473953
O O5 0.267467 0.797970 0.319550
O O6 0.298774 0.600975 0.285682
O O7 0.115195 0.657713 0.394424
O O8 0.000000 0.500000 0.476606
O O9 0.500000 0.853460 0.330283
O O10 0.658088 0.902264 0.466033
O O11 0.659478 0.000000 0.311658
O O12 0.708730 0.000000 0.627317
O O13 0.500000 0.500000 0.227835
#
# Coordination Sequence:
#
# PCOD9358440 Si02
#       7
#     4   2   8   4   8   4   4
#     4  11  23  37  63  89 122 159 198 256 298 356
#     4  12  18  36  60  92 118 138 204 262 294 352
#     4  11  22  39  62  91 118 161 205 245 303 358
#     4  11  24  43  59  85 131 160 193 256 306 356
#     4   9  20  39  60  87 123 153 194 250 297 353
#     4  10  20  36  62  88 118 151 197 252 311 341
#     4  12  22  36  62  90 118 158 204 253 300 365
#
# _framework density 17.363412
#
# number of rings (size 3 to 8) (size 9 to 14) (size 15 to 20)
#    0.706    0.706    3.529    2.824    1.647    1.882 
#    0.000    0.000    0.000    0.000    0.000    0.000 
#    0.000    0.000    0.000    0.000    0.000    0.000 
#
# Total GULP energy -94667.836711 kJ/mol
# GULP energy per Si atom -5568.696277 kJ/mol
# Density = 1.732389 g / cm^3
# Si number density = 17.363412 Si / 1000 Ang^3
#
#
#
# Elastic Constant Matrix: (Units=GPa)
#
#
# Indices 1 2 3 4 5 6 
#
# 1 114.9015 48.1313 16.1673 0.0000 0.0000 0.0000
# 2 48.1313 122.2961 30.8185 0.0000 0.0000 0.0000
# 3 16.1673 30.8185 48.1969 0.0000 0.0000 0.0000
# 4 0.0000 0.0000 0.0000 85.4111 0.0000 0.0000
# 5 0.0000 0.0000 0.0000 0.0000 51.2485 0.0000
# 6 0.0000 0.0000 0.0000 0.0000 0.0000 226.1908
#
#
#
# Elastic Compliance Matrix: (Units=1/GPa)
#
#
# Indices 1 2 3 4 5 6 
#
# 1 0.010465 -0.003855 -0.001045 0.000000 0.000000 0.000000
# 2 -0.003855 0.011168 -0.005848 0.000000 0.000000 0.000000
# 3 -0.001045 -0.005848 0.024838 0.000000 0.000000 0.000000
# 4 0.000000 0.000000 0.000000 0.011708 0.000000 0.000000
# 5 0.000000 0.000000 0.000000 0.000000 0.019513 0.000000
# 6 0.000000 0.000000 0.000000 0.000000 0.000000 0.004421
#
#
# Mechanical properties :
#
#
# Convention : Reuss Voigt Hill
#
# Bulk Modulus (GPa) = 40.04112 52.84764 46.44438
# Shear Modulus (GPa) = 44.66903 85.25523 64.96213
#
# Velocity S-wave (km/s) = 5.07758 7.01478 6.12327
# Velocity P-wave (km/s) = 7.58198 9.80366 8.76351
#
# Compressibility (1/GPa) = 0.02497433
#
# Stress axis : x y z
#
# Youngs Moduli (GPa) = 95.55543 89.54306 40.26078
#
# Poissons Ratio (x) = 0.34521 0.04208
# Poissons Ratio (y) = 0.36839 0.23544
# Poissons Ratio (z) = 0.09988 0.52363
#
# Static dielectric constant tensor:
#      x y z
#    x 1.177840 0.000000 0.000000 
#    y 0.000000 1.537610 0.000000 
#    z 0.000000 0.000000 1.591900 
# 
# From -- ./inp_files/13479.got.cif
#   From: 2010.05.17/outbox.cif.g08.bks.cpg/sg38_7_cif.got.tgz:13479.got - 2010.06.03 18:07:57.
