data_PCOD9358938
_publ_section_title
;
Structure prediction by ZEFSAII (Michael W. Deem and Ramdas Pophale) SiO2 
 PCOD9358938
Probable space group: A M M 2
;
_chemical_formula_sum "Si O2"
_cell_formula_units_Z 64
_cell_length_a 15.969933
_cell_length_b 7.894356
_cell_length_c 24.575957
_cell_angle_alpha 90.000000
_cell_angle_beta 90.000000
_cell_angle_gamma 90.000000
_cell_volume 3098.348318
_symmetry_space_group_name_H-M "A M M 2"
_symmetry_group_IT_number 38
_symmetry_cell_setting 'orthorhombic'
loop_
_space_group_symop_operation_xyz
x,y,z
-x,-y,z
-x,y,z
x,-y,z
x,1/2+y,1/2+z
-x,1/2-y,1/2+z
-x,1/2+y,1/2+z
x,1/2-y,1/2+z
loop_
_atom_site_type_symbol
_atom_site_label
_atom_site_fract_x
_atom_site_fract_y
_atom_site_fract_z
Si Si1 0.406169 0.795558 0.778940
Si Si2 0.326702 0.300587 0.165526
Si Si3 0.862498 0.195715 0.159976
Si Si4 0.907037 0.707247 0.780379
Si Si5 0.747359 0.794772 0.476451
Si Si6 0.908947 0.300581 0.041269
Si Si7 0.750694 0.796537 0.352425
Si Si8 0.593857 0.702148 0.552469
O O1 0.500000 0.733637 0.791180
O O2 0.377011 0.741054 0.718612
O O3 0.335040 0.743161 0.821226
O O4 0.408835 0.000000 0.778429
O O5 0.308093 0.500000 0.172233
O O6 0.238058 0.207978 0.160939
O O7 0.378226 0.276793 0.110395
O O8 0.894127 0.263231 0.217935
O O9 0.894629 0.284588 0.105800
O O10 0.888403 0.000000 0.155886
O O11 0.903568 0.500000 0.779537
O O12 0.830416 0.767017 0.817750
O O13 0.000000 0.755470 0.799419
O O14 0.828303 0.730231 0.509825
O O15 0.749324 0.733831 0.414331
O O16 0.663010 0.746877 0.507801
O O17 0.750381 0.000000 0.476236
O O18 0.911662 0.500000 0.028090
O O19 0.000000 0.226672 0.027155
O O20 0.758732 0.000000 0.354666
O O21 0.500000 0.759598 0.538163
O O22 0.593081 0.500000 0.558458
#
# Coordination Sequence:
#
# PCOD9358938 Si02
#       8
#     8   8   8   8   8   8   8   8
#     4  10  22  39  59  84 115 151 187 228 286 347
#     4  11  21  36  60  87 117 151 187 231 288 348
#     4  11  20  33  57  87 119 152 187 231 288 346
#     4   9  18  33  55  84 117 150 185 229 282 337
#     4  10  22  39  59  83 114 153 194 240 289 335
#     4  10  21  37  57  84 117 153 193 236 285 343
#     4  10  21  38  59  84 113 149 197 243 281 326
#     4  11  24  40  60  87 116 149 189 235 288 345
#
# _framework density 20.656165999999999
#
# number of rings (size 3 to 8) (size 9 to 14) (size 15 to 20)
#    0.000    1.750    2.500    1.875    0.000    4.500 
#    0.000    5.000    0.000    1.125    0.000    1.750 
#    0.000    0.000    0.000    0.000    0.000    0.000 
#
# Total GULP energy -178798.146988 kJ/mol
# GULP energy per Si atom -5587.442093 kJ/mol
# Density = 2.060915 g / cm^3
# Si number density = 20.656166 Si / 1000 Ang^3
#
#
#
# Elastic Constant Matrix: (Units=GPa)
#
#
# Indices 1 2 3 4 5 6 
#
# 1 191.1877 -3.0356 80.7812 0.0000 0.0000 0.0000
# 2 -3.0356 22.8504 -2.9593 0.0000 0.0000 0.0000
# 3 80.7812 -2.9593 144.9464 0.0000 0.0000 0.0000
# 4 0.0000 0.0000 0.0000 -2.1597 0.0000 0.0000
# 5 0.0000 0.0000 0.0000 0.0000 -1.5719 0.0000
# 6 0.0000 0.0000 0.0000 0.0000 0.0000 7.5174
#
#
#
# Elastic Compliance Matrix: (Units=1/GPa)
#
#
# Indices 1 2 3 4 5 6 
#
# 1 0.006845 0.000416 -0.003807 0.000000 0.000000 0.000000
# 2 0.000416 0.043904 0.000664 0.000000 0.000000 0.000000
# 3 -0.003807 0.000664 0.009034 0.000000 0.000000 0.000000
# 4 0.000000 0.000000 0.000000 -0.463035 0.000000 0.000000
# 5 0.000000 0.000000 0.000000 0.000000 -0.636166 0.000000
# 6 0.000000 0.000000 0.000000 0.000000 0.000000 0.133025
#
#
# Mechanical properties :
#
#
# Convention : Reuss Voigt Hill
#
# Bulk Modulus (GPa) = 18.40535 56.50636 37.45586
# Shear Modulus (GPa) = -5.66361 19.70370 7.02005
#
# Velocity S-wave (km/s) = -1.65765 3.09186 1.84551
# Velocity P-wave (km/s) = 2.29477 6.33729 4.76588
#
# Compressibility (1/GPa) = 0.05433204
#
# Stress axis : x y z
#
# Youngs Moduli (GPa) = 146.08253 22.77685 110.69112
#
# Poissons Ratio (x) = -0.00948 0.42136
# Poissons Ratio (y) = -0.06083 -0.07353
# Poissons Ratio (z) = 0.55608 -0.01513
#
# Static dielectric constant tensor:
#      x y z
#    x 1.736550 0.000000 0.000000 
#    y 0.000000 1.772260 0.000000 
#    z 0.000000 0.000000 1.703530 
# 
# From -- ./inp_files/22934.got.cif
#   From: 2010.05.17/outbox.cif.g08.bks.cpg/sg38_12_cif.got.tgz:22934.got - 2010.06.03 18:07:57.
