data_PCOD9358146
_publ_section_title
;
Structure prediction by ZEFSAII (Michael W. Deem and Ramdas Pophale) SiO2 
 PCOD9358146
Probable space group: A M M 2
;
_chemical_formula_sum "Si O2"
_cell_formula_units_Z 48
_cell_length_a 17.683818
_cell_length_b 9.122836
_cell_length_c 16.192202
_cell_angle_alpha 90.000000
_cell_angle_beta 90.000000
_cell_angle_gamma 90.000000
_cell_volume 2612.232433
_symmetry_space_group_name_H-M "A M M 2"
_symmetry_group_IT_number 38
_symmetry_cell_setting 'orthorhombic'
loop_
_space_group_symop_operation_xyz
x,y,z
-x,-y,z
-x,y,z
x,-y,z
x,1/2+y,1/2+z
-x,1/2-y,1/2+z
-x,1/2+y,1/2+z
x,1/2-y,1/2+z
loop_
_atom_site_type_symbol
_atom_site_label
_atom_site_fract_x
_atom_site_fract_y
_atom_site_fract_z
Si Si1 0.500000 0.838576 0.827540
Si Si2 0.087503 0.678651 0.396802
Si Si3 0.500000 0.332421 0.982059
Si Si4 0.649232 0.664587 0.217435
Si Si5 0.816799 0.677237 0.556700
Si Si6 0.820726 0.173070 0.735294
Si Si7 0.355043 0.671256 0.553540
O O1 0.500000 0.699231 0.885523
O O2 0.423458 0.834545 0.775038
O O3 0.500000 0.000000 0.871000
O O4 0.090569 0.500000 0.396181
O O5 0.128166 0.723556 0.482236
O O6 0.130075 0.727036 0.312971
O O7 0.000000 0.722983 0.395821
O O8 0.500000 0.500000 0.006565
O O9 0.423683 0.257127 0.013468
O O10 0.651672 0.500000 0.178223
O O11 0.731479 0.684600 0.258073
O O12 0.640564 0.789776 0.149958
O O13 0.820302 0.500000 0.565273
O O14 0.832053 0.747344 0.646909
O O15 0.730576 0.715100 0.530257
O O16 0.836995 0.000000 0.723290
O O17 0.363736 0.500000 0.537131
#
# Coordination Sequence:
#
# PCOD9358146 Si02
#       7
#     4   8   4   8   8   8   8
#     4  10  21  34  51  75 103 139 177 216 263 320
#     4   9  18  33  55  82 111 147 187 225 270 329
#     4  12  25  36  49  75 109 141 177 222 269 318
#     4   9  18  33  54  77 104 138 178 221 268 323
#     4   9  19  35  57  82 110 144 185 229 273 325
#     4   9  18  33  55  80 109 144 183 226 272 326
#     4  10  20  35  56  77 103 139 181 225 269 320
#
# _framework density 18.375086
#
# number of rings (size 3 to 8) (size 9 to 14) (size 15 to 20)
#    0.000    2.500    0.000    1.750    2.333    2.667 
#    0.000    0.833    0.000    1.000    0.000    0.000 
#    0.000    0.000    0.000    0.000    0.000    0.000 
#
# Total GULP energy -133724.561577 kJ/mol
# GULP energy per Si atom -5571.856732 kJ/mol
# Density = 1.833326 g / cm^3
# Si number density = 18.375086 Si / 1000 Ang^3
#
#
#
# Elastic Constant Matrix: (Units=GPa)
#
#
# Indices 1 2 3 4 5 6 
#
# 1 156.3944 43.9452 97.8882 0.0000 0.0000 0.0000
# 2 43.9452 29.7984 26.5208 0.0000 0.0000 0.0000
# 3 97.8882 26.5208 101.1217 0.0000 0.0000 0.0000
# 4 0.0000 0.0000 0.0000 23.1264 0.0000 0.0000
# 5 0.0000 0.0000 0.0000 0.0000 38.3984 0.0000
# 6 0.0000 0.0000 0.0000 0.0000 0.0000 17.9949
#
#
#
# Elastic Compliance Matrix: (Units=1/GPa)
#
#
# Indices 1 2 3 4 5 6 
#
# 1 0.021268 -0.017012 -0.016126 0.000000 0.000000 0.000000
# 2 -0.017012 0.057386 0.001418 0.000000 0.000000 0.000000
# 3 -0.016126 0.001418 0.025127 0.000000 0.000000 0.000000
# 4 0.000000 0.000000 0.000000 0.043241 0.000000 0.000000
# 5 0.000000 0.000000 0.000000 0.000000 0.026043 0.000000
# 6 0.000000 0.000000 0.000000 0.000000 0.000000 0.055571
#
#
# Mechanical properties :
#
#
# Convention : Reuss Voigt Hill
#
# Bulk Modulus (GPa) = 24.78896 69.33590 47.06243
# Shear Modulus (GPa) = 16.36539 23.83463 20.10001
#
# Velocity S-wave (km/s) = 2.98758 3.60546 3.31096
# Velocity P-wave (km/s) = 5.04189 7.42617 6.34699
#
# Compressibility (1/GPa) = 0.04034053
#
# Stress axis : x y z
#
# Youngs Moduli (GPa) = 47.01967 17.42587 39.79720
#
# Poissons Ratio (x) = 0.29646 0.64176
# Poissons Ratio (y) = 0.79992 -0.05643
# Poissons Ratio (z) = 0.75823 -0.02471
#
# Static dielectric constant tensor:
#      x y z
#    x 1.669350 0.000000 0.000000 
#    y 0.000000 1.641440 0.000000 
#    z 0.000000 0.000000 1.637840 
# 
# From -- ./inp_files/14982.got.cif
#   From: 2010.05.17/outbox.cif.g08.bks.cpg/sg38_8_cif.got.tgz:14982.got - 2010.06.03 18:07:57.
