data_PCOD9358084
_publ_section_title
;
Structure prediction by ZEFSAII (Michael W. Deem and Ramdas Pophale) SiO2 
 PCOD9358084
Probable space group: A M M 2
;
_chemical_formula_sum "Si O2"
_cell_formula_units_Z 64
_cell_length_a 8.341634
_cell_length_b 31.513586
_cell_length_c 14.839031
_cell_angle_alpha 90.000000
_cell_angle_beta 90.000000
_cell_angle_gamma 90.000000
_cell_volume 3900.807313
_symmetry_space_group_name_H-M "A M M 2"
_symmetry_group_IT_number 38
_symmetry_cell_setting 'orthorhombic'
loop_
_space_group_symop_operation_xyz
x,y,z
-x,-y,z
-x,y,z
x,-y,z
x,1/2+y,1/2+z
-x,1/2-y,1/2+z
-x,1/2+y,1/2+z
x,1/2-y,1/2+z
loop_
_atom_site_type_symbol
_atom_site_label
_atom_site_fract_x
_atom_site_fract_y
_atom_site_fract_z
Si Si1 0.810416 0.866823 0.697090
Si Si2 0.806491 0.788388 0.581923
Si Si3 0.184105 0.184768 0.881192
Si Si4 0.194378 0.547936 0.275106
Si Si5 0.693409 0.452662 0.480183
Si Si6 0.190529 0.202802 0.187479
Si Si7 0.315382 0.224278 0.381101
Si Si8 0.691075 0.635357 0.553046
O O1 0.744109 0.831616 0.628582
O O2 0.798940 0.845407 0.795446
O O3 0.745307 0.914398 0.710265
O O4 0.000000 0.871179 0.675574
O O5 0.751577 0.745789 0.635273
O O6 0.759892 0.786802 0.477655
O O7 0.000000 0.788386 0.590036
O O8 0.297685 0.224974 0.873029
O O9 0.222318 0.159739 0.971641
O O10 0.000000 0.200523 0.883016
O O11 0.244952 0.500000 0.250890
O O12 0.248745 0.555849 0.378059
O O13 0.000000 0.549165 0.274891
O O14 0.500000 0.453552 0.478382
O O15 0.750414 0.500000 0.505542
O O16 0.741374 0.413858 0.544578
O O17 0.230047 0.206069 0.292712
O O18 0.000000 0.200855 0.174812
O O19 0.266549 0.161395 0.142079
O O20 0.500000 0.211594 0.380249
O O21 0.500000 0.637462 0.538545
#
# Coordination Sequence:
#
# PCOD9358084 Si02
#       8
#     8   8   8   8   8   8   8   8
#     4   9  17  30  48  70  96 130 169 202 235 286
#     4  10  20  35  52  69  94 132 172 202 240 299
#     4  11  19  31  49  70 100 137 173 202 241 296
#     4   9  16  27  46  72  99 127 162 204 246 288
#     4   9  18  31  46  68 101 136 165 197 245 301
#     4  11  22  36  54  72  96 134 171 204 248 301
#     4  12  24  36  50  72 102 129 165 215 254 287
#     4  11  21  32  48  74 102 133 171 210 249 290
#
# _framework density 16.406860000000002
#
# number of rings (size 3 to 8) (size 9 to 14) (size 15 to 20)
#    0.000    1.750    3.750    2.250    0.000    1.000 
#    0.000    0.625    0.000    0.000    0.000    0.875 
#    0.000    3.000    0.000    0.000    0.000    0.000 
#
# Total GULP energy -178460.291042 kJ/mol
# GULP energy per Si atom -5576.884095 kJ/mol
# Density = 1.636952 g / cm^3
# Si number density = 16.406860 Si / 1000 Ang^3
#
#
#
# Elastic Constant Matrix: (Units=GPa)
#
#
# Indices 1 2 3 4 5 6 
#
# 1 12.1647 8.7243 3.0352 0.0000 0.0000 0.0000
# 2 8.7243 122.4840 36.0058 0.0000 0.0000 0.0000
# 3 3.0352 36.0058 69.4737 0.0000 0.0000 0.0000
# 4 0.0000 0.0000 0.0000 19.2568 0.0000 0.0000
# 5 0.0000 0.0000 0.0000 0.0000 -1.5649 0.0000
# 6 0.0000 0.0000 0.0000 0.0000 0.0000 10.0994
#
#
#
# Elastic Compliance Matrix: (Units=1/GPa)
#
#
# Indices 1 2 3 4 5 6 
#
# 1 0.086659 -0.005969 -0.000692 0.000000 0.000000 0.000000
# 2 -0.005969 0.010043 -0.004944 0.000000 0.000000 0.000000
# 3 -0.000692 -0.004944 0.016987 0.000000 0.000000 0.000000
# 4 0.000000 0.000000 0.000000 0.051930 0.000000 0.000000
# 5 0.000000 0.000000 0.000000 0.000000 -0.639024 0.000000
# 6 0.000000 0.000000 0.000000 0.000000 0.000000 0.099016
#
#
# Mechanical properties :
#
#
# Convention : Reuss Voigt Hill
#
# Bulk Modulus (GPa) = 11.05252 33.29478 22.17365
# Shear Modulus (GPa) = -15.57536 15.98207 0.20335
#
# Velocity S-wave (km/s) = -3.08445 3.12446 0.35244
# Velocity P-wave (km/s) = 2.43597 5.77526 3.70268
#
# Compressibility (1/GPa) = 0.09047708
#
# Stress axis : x y z
#
# Youngs Moduli (GPa) = 11.53953 99.57311 58.87013
#
# Poissons Ratio (x) = 0.59435 0.04076
# Poissons Ratio (y) = 0.06888 0.29106
# Poissons Ratio (z) = 0.00799 0.49230
#
# Static dielectric constant tensor:
#      x y z
#    x 1.563530 0.000000 0.000000 
#    y 0.000000 1.586980 0.000000 
#    z 0.000000 0.000000 1.527250 
# 
# From -- ./inp_files/13060.got.cif
#   From: 2010.05.17/outbox.cif.g08.bks.cpg/sg38_7_cif.got.tgz:13060.got - 2010.06.03 18:07:57.
