data_PCOD9358881
_publ_section_title
;
Structure prediction by ZEFSAII (Michael W. Deem and Ramdas Pophale) SiO2 
 PCOD9358881
Probable space group: A M M 2
;
_chemical_formula_sum "Si O2"
_cell_formula_units_Z 64
_cell_length_a 14.452954
_cell_length_b 8.382023
_cell_length_c 26.976879
_cell_angle_alpha 90.000000
_cell_angle_beta 90.000000
_cell_angle_gamma 90.000000
_cell_volume 3268.113813
_symmetry_space_group_name_H-M "A M M 2"
_symmetry_group_IT_number 38
_symmetry_cell_setting 'orthorhombic'
loop_
_space_group_symop_operation_xyz
x,y,z
-x,-y,z
-x,y,z
x,-y,z
x,1/2+y,1/2+z
-x,1/2-y,1/2+z
-x,1/2+y,1/2+z
x,1/2-y,1/2+z
loop_
_atom_site_type_symbol
_atom_site_label
_atom_site_fract_x
_atom_site_fract_y
_atom_site_fract_z
Si Si1 0.108004 0.194311 0.045710
Si Si2 0.387456 0.682639 0.095889
Si Si3 0.217457 0.188999 0.750412
Si Si4 0.893076 0.195384 0.846990
Si Si5 0.211380 0.195337 0.946398
Si Si6 0.605094 0.689673 0.702922
Si Si7 0.603975 0.190824 0.989450
Si Si8 0.888731 0.189849 0.154779
O O1 0.142051 0.247810 0.100029
O O2 0.000000 0.237129 0.041384
O O3 0.112226 0.000000 0.046647
O O4 0.161028 0.248331 0.996888
O O5 0.500000 0.686608 0.096520
O O6 0.357284 0.500000 0.093131
O O7 0.360398 0.756865 0.148383
O O8 0.362297 0.772433 0.045433
O O9 0.162857 0.250072 0.798572
O O10 0.320287 0.255376 0.742732
O O11 0.159811 0.229143 0.701033
O O12 0.224673 0.000000 0.755078
O O13 0.842019 0.246763 0.897300
O O14 0.000000 0.246178 0.845771
O O15 0.893457 0.000000 0.846722
O O16 0.317972 0.247283 0.951418
O O17 0.209907 0.000000 0.946353
O O18 0.500000 0.751843 0.710403
O O19 0.601043 0.500000 0.702703
O O20 0.500000 0.256545 0.982875
O O21 0.598389 0.000000 0.985228
O O22 0.000000 0.211124 0.157169
O O23 0.870261 0.000000 0.157868
#
# Coordination Sequence:
#
# PCOD9358881 Si02
#       8
#     8   8   8   8   8   8   8   8
#     4   8  14  25  43  69  98 126 163 216 270 313
#     4   9  17  30  49  74 106 142 176 212 258 313
#     4  11  22  34  52  79 109 142 179 221 278 336
#     4   9  18  33  52  75 104 138 180 228 276 326
#     4   9  16  27  47  72  98 135 181 225 268 312
#     4  10  21  37  56  77 104 140 182 225 267 316
#     4   9  17  28  44  72 108 141 176 218 264 315
#     4   9  18  32  50  75 107 141 178 223 274 329
#
# _framework density 19.583162000000002
#
# number of rings (size 3 to 8) (size 9 to 14) (size 15 to 20)
#    0.000    2.750    0.000    2.625    1.750    4.500 
#    0.000    0.625    0.000    3.750    0.000    1.750 
#    0.000    5.000    0.000    0.000    0.000    0.000 
#
# Total GULP energy -178515.687971 kJ/mol
# GULP energy per Si atom -5578.615249 kJ/mol
# Density = 1.953859 g / cm^3
# Si number density = 19.583162 Si / 1000 Ang^3
#
#
#
# Elastic Constant Matrix: (Units=GPa)
#
#
# Indices 1 2 3 4 5 6 
#
# 1 121.3424 9.1552 86.8087 0.0000 0.0000 0.0000
# 2 9.1552 6.7152 2.6768 0.0000 0.0000 0.0000
# 3 86.8087 2.6768 138.5910 0.0000 0.0000 0.0000
# 4 0.0000 0.0000 0.0000 17.3058 0.0000 0.0000
# 5 0.0000 0.0000 0.0000 0.0000 37.6523 0.0000
# 6 0.0000 0.0000 0.0000 0.0000 0.0000 16.9066
#
#
#
# Elastic Compliance Matrix: (Units=1/GPa)
#
#
# Indices 1 2 3 4 5 6 
#
# 1 0.017072 -0.019160 -0.010323 0.000000 0.000000 0.000000
# 2 -0.019160 0.171575 0.008688 0.000000 0.000000 0.000000
# 3 -0.010323 0.008688 0.013514 0.000000 0.000000 0.000000
# 4 0.000000 0.000000 0.000000 0.057784 0.000000 0.000000
# 5 0.000000 0.000000 0.000000 0.000000 0.026559 0.000000
# 6 0.000000 0.000000 0.000000 0.000000 0.000000 0.059149
#
#
# Mechanical properties :
#
#
# Convention : Reuss Voigt Hill
#
# Bulk Modulus (GPa) = 6.22784 51.54776 28.88780
# Shear Modulus (GPa) = 11.34383 25.57346 18.45864
#
# Velocity S-wave (km/s) = 2.40940 3.61763 3.07347
# Velocity P-wave (km/s) = 3.30566 6.62037 5.23243
#
# Compressibility (1/GPa) = 0.16056925
#
# Stress axis : x y z
#
# Youngs Moduli (GPa) = 58.57509 5.82834 73.99813
#
# Poissons Ratio (x) = 0.11167 0.76391
# Poissons Ratio (y) = 1.12232 -0.64286
# Poissons Ratio (z) = 0.60469 -0.05063
#
# Static dielectric constant tensor:
#      x y z
#    x 1.730360 0.000000 0.000000 
#    y 0.000000 1.686210 0.000000 
#    z 0.000000 0.000000 1.670030 
# 
# From -- ./inp_files/22973.got.cif
#   From: 2010.05.17/outbox.cif.g08.bks.cpg/sg38_12_cif.got.tgz:22973.got - 2010.06.03 18:07:57.
