data_PCOD9358961
_publ_section_title
;
Structure prediction by ZEFSAII (Michael W. Deem and Ramdas Pophale) SiO2 
 PCOD9358961
Probable space group: A M M 2
;
_chemical_formula_sum "Si O2"
_cell_formula_units_Z 56
_cell_length_a 21.073128
_cell_length_b 7.890499
_cell_length_c 15.903346
_cell_angle_alpha 90.000000
_cell_angle_beta 90.000000
_cell_angle_gamma 90.000000
_cell_volume 2644.368542
_symmetry_space_group_name_H-M "A M M 2"
_symmetry_group_IT_number 38
_symmetry_cell_setting 'orthorhombic'
loop_
_space_group_symop_operation_xyz
x,y,z
-x,-y,z
-x,y,z
x,-y,z
x,1/2+y,1/2+z
-x,1/2-y,1/2+z
-x,1/2+y,1/2+z
x,1/2-y,1/2+z
loop_
_atom_site_type_symbol
_atom_site_label
_atom_site_fract_x
_atom_site_fract_y
_atom_site_fract_z
Si Si1 0.296035 0.807590 0.762800
Si Si2 0.568152 0.205152 0.016610
Si Si3 0.568037 0.795958 0.712400
Si Si4 0.156515 0.698286 0.959772
Si Si5 0.928312 0.797623 0.116006
Si Si6 0.295562 0.692609 0.463820
Si Si7 0.157175 0.200811 0.267883
O O1 0.364106 0.727278 0.741991
O O2 0.294220 0.815255 0.863307
O O3 0.229976 0.723480 0.737854
O O4 0.295289 0.000000 0.728697
O O5 0.500000 0.262296 0.979120
O O6 0.566108 0.254808 0.114005
O O7 0.569444 0.000000 0.006785
O O8 0.636041 0.270506 0.985214
O O9 0.500000 0.734888 0.748415
O O10 0.569250 0.000000 0.726453
O O11 0.143198 0.500000 0.954935
O O12 0.229773 0.721040 0.988426
O O13 0.150235 0.769596 0.863859
O O14 0.110138 0.770999 0.029929
O O15 0.889686 0.728506 0.196785
O O16 0.000000 0.730197 0.111139
O O17 0.932164 0.000000 0.127728
O O18 0.293699 0.500000 0.497830
O O19 0.146188 0.000000 0.274374
#
# Coordination Sequence:
#
# PCOD9358961 Si02
#       7
#     8   8   8   8   8   8   8
#     4   9  18  32  51  75 101 133 175 221 266 313
#     4   9  18  31  47  69  97 133 177 221 263 311
#     4   9  18  31  46  68 100 136 172 215 268 317
#     4  10  21  37  58  85 115 145 181 226 271 319
#     4  10  22  40  61  85 112 145 182 216 263 327
#     4   9  18  33  52  74 102 137 177 221 268 318
#     4   9  20  38  58  81 111 147 182 220 267 321
#
# _framework density 21.177078000000002
#
# number of rings (size 3 to 8) (size 9 to 14) (size 15 to 20)
#    0.000    2.714    0.000    0.429    2.000    3.714 
#    0.000    4.286    0.000    0.000    0.000    8.000 
#    0.000    0.000    0.000    0.000    0.000    0.000 
#
# Total GULP energy -155963.968774 kJ/mol
# GULP energy per Si atom -5570.141742 kJ/mol
# Density = 2.112888 g / cm^3
# Si number density = 21.177078 Si / 1000 Ang^3
#
#
#
# Elastic Constant Matrix: (Units=GPa)
#
#
# Indices 1 2 3 4 5 6 
#
# 1 217.9923 9.5021 84.3207 0.0000 0.0000 0.0000
# 2 9.5021 20.6616 4.1890 0.0000 0.0000 0.0000
# 3 84.3207 4.1890 70.8689 0.0000 0.0000 0.0000
# 4 0.0000 0.0000 0.0000 15.2285 0.0000 0.0000
# 5 0.0000 0.0000 0.0000 0.0000 66.0021 0.0000
# 6 0.0000 0.0000 0.0000 0.0000 0.0000 14.3074
#
#
#
# Elastic Compliance Matrix: (Units=1/GPa)
#
#
# Indices 1 2 3 4 5 6 
#
# 1 0.008571 -0.001897 -0.010086 0.000000 0.000000 0.000000
# 2 -0.001897 0.049406 -0.000663 0.000000 0.000000 0.000000
# 3 -0.010086 -0.000663 0.026151 0.000000 0.000000 0.000000
# 4 0.000000 0.000000 0.000000 0.065666 0.000000 0.000000
# 5 0.000000 0.000000 0.000000 0.000000 0.015151 0.000000
# 6 0.000000 0.000000 0.000000 0.000000 0.000000 0.069894
#
#
# Mechanical properties :
#
#
# Convention : Reuss Voigt Hill
#
# Bulk Modulus (GPa) = 16.99680 56.17185 36.58433
# Shear Modulus (GPa) = 17.87352 33.20833 25.54092
#
# Velocity S-wave (km/s) = 2.90832 3.96425 3.47661
# Velocity P-wave (km/s) = 4.39560 6.89465 5.78176
#
# Compressibility (1/GPa) = 0.05883461
#
# Stress axis : x y z
#
# Youngs Moduli (GPa) = 116.66648 20.24056 38.24010
#
# Poissons Ratio (x) = 0.03840 0.38570
# Poissons Ratio (y) = 0.22132 0.02536
# Poissons Ratio (z) = 1.17673 0.01343
#
# Static dielectric constant tensor:
#      x y z
#    x 1.809240 0.000000 0.000000 
#    y 0.000000 1.847090 0.000000 
#    z 0.000000 0.000000 1.769910 
# 
# From -- ./inp_files/15440.got.cif
#   From: 2010.05.17/outbox.cif.g08.bks.cpg/sg38_8_cif.got.tgz:15440.got - 2010.06.03 18:07:57.
