data_PCOD9358518
_publ_section_title
;
Structure prediction by ZEFSAII (Michael W. Deem and Ramdas Pophale) SiO2 
 PCOD9358518
Probable space group: A M M 2
;
_chemical_formula_sum "Si O2"
_cell_formula_units_Z 64
_cell_length_a 24.308833
_cell_length_b 8.750375
_cell_length_c 15.830949
_cell_angle_alpha 90.000000
_cell_angle_beta 90.000000
_cell_angle_gamma 90.000000
_cell_volume 3367.423397
_symmetry_space_group_name_H-M "A M M 2"
_symmetry_group_IT_number 38
_symmetry_cell_setting 'orthorhombic'
loop_
_space_group_symop_operation_xyz
x,y,z
-x,-y,z
-x,y,z
x,-y,z
x,1/2+y,1/2+z
-x,1/2-y,1/2+z
-x,1/2+y,1/2+z
x,1/2-y,1/2+z
loop_
_atom_site_type_symbol
_atom_site_label
_atom_site_fract_x
_atom_site_fract_y
_atom_site_fract_z
Si Si1 0.248802 0.183075 0.366490
Si Si2 0.435111 0.317347 0.266454
Si Si3 0.865311 0.317331 0.427092
Si Si4 0.629404 0.816465 0.106948
Si Si5 0.629411 0.183534 0.425957
Si Si6 0.134696 0.817330 0.605821
Si Si7 0.063163 0.813594 0.766452
Si Si8 0.248810 0.183075 0.166419
O O1 0.196755 0.264336 0.407648
O O2 0.306980 0.226986 0.407345
O O3 0.250580 0.217888 0.266454
O O4 0.242314 0.000000 0.375600
O O5 0.500000 0.283933 0.266464
O O6 0.427567 0.500000 0.266455
O O7 0.406773 0.247739 0.183442
O O8 0.406761 0.247732 0.349456
O O9 0.866869 0.500000 0.430680
O O10 0.883244 0.249991 0.516456
O O11 0.903795 0.264729 0.349793
O O12 0.693011 0.773008 0.125570
O O13 0.626114 0.000000 0.106413
O O14 0.612654 0.750003 0.016450
O O15 0.626120 0.000000 0.426494
O O16 0.096213 0.764723 0.683121
O O17 0.196762 0.764323 0.625254
O O18 0.133143 0.000000 0.602244
O O19 0.000000 0.762911 0.766446
O O20 0.063190 0.000000 0.766450
O O21 0.242326 0.000000 0.157309
#
# Coordination Sequence:
#
# PCOD9358518 Si02
#       8
#     8   8   8   8   8   8   8   8
#     4  10  20  37  61  90 123 155 191 239 294 352
#     4  11  25  44  65  90 120 159 206 253 300 351
#     4  11  22  37  59  88 117 154 196 238 294 351
#     4  11  23  41  64  93 124 160 200 244 300 357
#     4  11  23  41  64  93 124 160 200 244 300 357
#     4  11  22  37  59  88 117 154 196 238 294 351
#     4   9  20  39  59  80 112 153 198 245 292 347
#     4  10  20  37  61  90 123 155 191 239 294 352
#
# _framework density 19.005628999999999
#
# number of rings (size 3 to 8) (size 9 to 14) (size 15 to 20)
#    0.000    1.500    2.500    2.625    0.000    6.000 
#    0.000    0.000    0.000    5.250    0.000    0.000 
#    0.000    0.000    0.000    0.000    0.000    0.000 
#
# Total GULP energy -178907.091364 kJ/mol
# GULP energy per Si atom -5590.846605 kJ/mol
# Density = 1.896237 g / cm^3
# Si number density = 19.005629 Si / 1000 Ang^3
#
#
#
# Elastic Constant Matrix: (Units=GPa)
#
#
# Indices 1 2 3 4 5 6 
#
# 1 145.7814 51.4472 93.5787 0.0000 0.0000 0.0000
# 2 51.4472 40.3009 56.4135 0.0000 0.0000 0.0000
# 3 93.5787 56.4135 204.7217 0.0000 0.0000 0.0000
# 4 0.0000 0.0000 0.0000 30.6878 0.0000 0.0000
# 5 0.0000 0.0000 0.0000 0.0000 -3.4403 0.0000
# 6 0.0000 0.0000 0.0000 0.0000 0.0000 -22.9031
#
#
#
# Elastic Compliance Matrix: (Units=1/GPa)
#
#
# Indices 1 2 3 4 5 6 
#
# 1 0.013088 -0.013566 -0.002244 0.000000 0.000000 0.000000
# 2 -0.013566 0.054457 -0.008805 0.000000 0.000000 0.000000
# 3 -0.002244 -0.008805 0.008337 0.000000 0.000000 0.000000
# 4 0.000000 0.000000 0.000000 0.032586 0.000000 0.000000
# 5 0.000000 0.000000 0.000000 0.000000 -0.290675 0.000000
# 6 0.000000 0.000000 0.000000 0.000000 0.000000 -0.043662
#
#
# Mechanical properties :
#
#
# Convention : Reuss Voigt Hill
#
# Bulk Modulus (GPa) = 37.52236 88.18698 62.85467
# Shear Modulus (GPa) = -29.80545 13.49318 -8.15613
#
# Velocity S-wave (km/s) = -3.96440 2.66739 -2.07382
# Velocity P-wave (km/s) = 1.08152 7.48250 5.23537
#
# Compressibility (1/GPa) = 0.02665078
#
# Stress axis : x y z
#
# Youngs Moduli (GPa) = 76.40776 18.36307 119.94950
#
# Poissons Ratio (x) = 0.24912 0.26918
# Poissons Ratio (y) = 1.03656 1.05618
# Poissons Ratio (z) = 0.17147 0.16169
#
# Static dielectric constant tensor:
#      x y z
#    x 1.633940 0.000000 0.000000 
#    y 0.000000 1.638160 0.000000 
#    z 0.000000 0.000000 1.645910 
# 
# From -- ./inp_files/15850.got.cif
#   From: 2010.05.17/outbox.cif.g08.bks.cpg/sg38_8_cif.got.tgz:15850.got - 2010.06.03 18:07:57.
