data_PCOD9358330
_publ_section_title
;
Structure prediction by ZEFSAII (Michael W. Deem and Ramdas Pophale) SiO2 
 PCOD9358330
Probable space group: A M M 2
;
_chemical_formula_sum "Si O2"
_cell_formula_units_Z 64
_cell_length_a 15.974994
_cell_length_b 7.872426
_cell_length_c 24.586086
_cell_angle_alpha 90.000000
_cell_angle_beta 90.000000
_cell_angle_gamma 90.000000
_cell_volume 3091.994318
_symmetry_space_group_name_H-M "A M M 2"
_symmetry_group_IT_number 38
_symmetry_cell_setting 'orthorhombic'
loop_
_space_group_symop_operation_xyz
x,y,z
-x,-y,z
-x,y,z
x,-y,z
x,1/2+y,1/2+z
-x,1/2-y,1/2+z
-x,1/2+y,1/2+z
x,1/2-y,1/2+z
loop_
_atom_site_type_symbol
_atom_site_label
_atom_site_fract_x
_atom_site_fract_y
_atom_site_fract_z
Si Si1 0.407316 0.207668 0.641510
Si Si2 0.752379 0.205577 0.445853
Si Si3 0.094044 0.797444 0.869974
Si Si4 0.906295 0.705096 0.143987
Si Si5 0.591657 0.300112 0.880136
Si Si6 0.751371 0.291950 0.070718
Si Si7 0.825642 0.804127 0.257181
Si Si8 0.638658 0.805103 0.761330
O O1 0.500000 0.257248 0.622683
O O2 0.331145 0.263783 0.603514
O O3 0.393456 0.264321 0.703762
O O4 0.404168 0.000000 0.642506
O O5 0.837041 0.254326 0.414956
O O6 0.671441 0.270783 0.412558
O O7 0.750877 0.262927 0.508231
O O8 0.749219 0.000000 0.445659
O O9 0.123505 0.721795 0.812533
O O10 0.000000 0.739491 0.883788
O O11 0.092723 0.000000 0.863325
O O12 0.907259 0.500000 0.141371
O O13 0.834378 0.764509 0.102746
O O14 0.879364 0.754159 0.204826
O O15 0.000000 0.766803 0.131820
O O16 0.500000 0.226359 0.892924
O O17 0.588463 0.500000 0.893435
O O18 0.608442 0.284672 0.815840
O O19 0.751233 0.500000 0.071123
O O20 0.739395 0.700776 0.259243
O O21 0.800690 0.000000 0.252707
O O22 0.610499 0.000000 0.765607
#
# Coordination Sequence:
#
# PCOD9358330 Si02
#       8
#     8   8   8   8   8   8   8   8
#     4   9  17  30  53  85 115 143 183 233 279 328
#     4  10  21  37  59  85 115 154 196 239 284 332
#     4  11  24  41  61  85 114 150 189 234 289 345
#     4  10  20  36  58  83 113 150 189 231 280 335
#     4  10  21  36  54  83 122 157 190 234 289 343
#     4   9  18  34  55  82 114 149 192 236 278 326
#     4  12  23  36  58  87 117 148 183 230 291 349
#     4  11  20  34  58  85 115 150 190 235 286 344
#
# _framework density 20.698613999999999
#
# number of rings (size 3 to 8) (size 9 to 14) (size 15 to 20)
#    0.000    1.750    2.500    2.625    0.000    4.500 
#    0.000    4.375    0.000    0.000    0.000    0.000 
#    0.000    0.000    0.000    0.000    0.000    0.000 
#
# Total GULP energy -178812.605740 kJ/mol
# GULP energy per Si atom -5587.893929 kJ/mol
# Density = 2.065150 g / cm^3
# Si number density = 20.698614 Si / 1000 Ang^3
#
#
#
# Elastic Constant Matrix: (Units=GPa)
#
#
# Indices 1 2 3 4 5 6 
#
# 1 194.0641 2.6380 88.6614 0.0000 0.0000 0.0000
# 2 2.6380 28.6284 -3.6774 0.0000 0.0000 0.0000
# 3 88.6614 -3.6774 143.0473 0.0000 0.0000 0.0000
# 4 0.0000 0.0000 0.0000 18.5368 0.0000 0.0000
# 5 0.0000 0.0000 0.0000 0.0000 -1.0388 0.0000
# 6 0.0000 0.0000 0.0000 0.0000 0.0000 7.2701
#
#
#
# Elastic Compliance Matrix: (Units=1/GPa)
#
#
# Indices 1 2 3 4 5 6 
#
# 1 0.007233 -0.001246 -0.004515 0.000000 0.000000 0.000000
# 2 -0.001246 0.035261 0.001679 0.000000 0.000000 0.000000
# 3 -0.004515 0.001679 0.009832 0.000000 0.000000 0.000000
# 4 0.000000 0.000000 0.000000 0.053947 0.000000 0.000000
# 5 0.000000 0.000000 0.000000 0.000000 -0.962620 0.000000
# 6 0.000000 0.000000 0.000000 0.000000 0.000000 0.137550
#
#
# Mechanical properties :
#
#
# Convention : Reuss Voigt Hill
#
# Bulk Modulus (GPa) = 22.64431 60.10929 41.37680
# Shear Modulus (GPa) = -7.18481 23.49480 8.15499
#
# Velocity S-wave (km/s) = -1.86513 3.37277 1.98707
# Velocity P-wave (km/s) = 2.51506 6.65362 5.02972
#
# Compressibility (1/GPa) = 0.04416121
#
# Stress axis : x y z
#
# Youngs Moduli (GPa) = 138.26401 28.36001 101.70713
#
# Poissons Ratio (x) = 0.03535 0.45919
# Poissons Ratio (y) = 0.17233 -0.17077
# Poissons Ratio (z) = 0.62423 -0.04762
#
# Static dielectric constant tensor:
#      x y z
#    x 1.743230 0.000000 0.000000 
#    y 0.000000 1.764830 0.000000 
#    z 0.000000 0.000000 1.691760 
# 
# From -- ./inp_files/22933.got.cif
#   From: 2010.05.17/outbox.cif.g08.bks.cpg/sg38_12_cif.got.tgz:22933.got - 2010.06.03 18:07:57.
