data_PCOD9358679
_publ_section_title
;
Structure prediction by ZEFSAII (Michael W. Deem and Ramdas Pophale) SiO2 
 PCOD9358679
Probable space group: A M M 2
;
_chemical_formula_sum "Si O2"
_cell_formula_units_Z 48
_cell_length_a 7.520355
_cell_length_b 9.750432
_cell_length_c 32.414488
_cell_angle_alpha 90.000000
_cell_angle_beta 90.000000
_cell_angle_gamma 90.000000
_cell_volume 2376.847763
_symmetry_space_group_name_H-M "A M M 2"
_symmetry_group_IT_number 38
_symmetry_cell_setting 'orthorhombic'
loop_
_space_group_symop_operation_xyz
x,y,z
-x,-y,z
-x,y,z
x,-y,z
x,1/2+y,1/2+z
-x,1/2-y,1/2+z
-x,1/2+y,1/2+z
x,1/2-y,1/2+z
loop_
_atom_site_type_symbol
_atom_site_label
_atom_site_fract_x
_atom_site_fract_y
_atom_site_fract_z
Si Si1 0.781811 0.158683 0.364600
Si Si2 0.712366 0.344911 0.622540
Si Si3 0.214515 0.156792 0.544336
Si Si4 0.712528 0.843620 0.696363
Si Si5 0.786453 0.656122 0.289100
Si Si6 0.205934 0.166874 0.454418
O O1 0.721561 0.249748 0.326336
O O2 0.719320 0.208268 0.409896
O O3 0.000000 0.160756 0.365661
O O4 0.730301 0.000000 0.359198
O O5 0.500000 0.354902 0.628098
O O6 0.782712 0.500000 0.620382
O O7 0.741606 0.259226 0.580929
O O8 0.783165 0.256984 0.661181
O O9 0.282788 0.203369 0.499138
O O10 0.000000 0.150437 0.541201
O O11 0.275754 0.000000 0.552704
O O12 0.500000 0.851867 0.691094
O O13 0.745584 0.793956 0.742936
O O14 0.782581 0.000000 0.692679
O O15 0.718994 0.500000 0.292301
O O16 0.000000 0.651538 0.292514
O O17 0.000000 0.212295 0.454553
O O18 0.206287 0.000000 0.453918
#
# Coordination Sequence:
#
# PCOD9358679 Si02
#       6
#     8   8   8   8   8   8
#     4   8  13  23  41  64  90 119 147 175 213 262
#     4  10  21  35  49  67  93 123 154 190 234 282
#     4   9  17  30  50  74  96 120 154 194 232 270
#     4   9  18  33  50  64  82 115 155 187 221 272
#     4   9  17  28  43  66  92 113 140 183 226 260
#     4   7  11  22  41  65  91 117 146 180 216 257
#
# _framework density 20.194814999999998
#
# number of rings (size 3 to 8) (size 9 to 14) (size 15 to 20)
#    0.000    3.333    0.000    2.500    0.000    2.667 
#    0.000    2.500    0.000    4.000    0.000    4.667 
#    0.000    0.000    0.000    0.000    0.000    0.000 
#
# Total GULP energy -133745.205631 kJ/mol
# GULP energy per Si atom -5572.716901 kJ/mol
# Density = 2.014885 g / cm^3
# Si number density = 20.194815 Si / 1000 Ang^3
#
#
#
# Elastic Constant Matrix: (Units=GPa)
#
#
# Indices 1 2 3 4 5 6 
#
# 1 52.2501 5.2213 1.2701 0.0000 0.0000 0.0000
# 2 5.2213 97.8776 118.6589 0.0000 0.0000 0.0000
# 3 1.2701 118.6589 245.5805 0.0000 0.0000 0.0000
# 4 0.0000 0.0000 0.0000 29.2147 0.0000 0.0000
# 5 0.0000 0.0000 0.0000 0.0000 32.1967 0.0000
# 6 0.0000 0.0000 0.0000 0.0000 0.0000 8.6234
#
#
#
# Elastic Compliance Matrix: (Units=1/GPa)
#
#
# Indices 1 2 3 4 5 6 
#
# 1 0.019335 -0.002197 0.000962 0.000000 0.000000 0.000000
# 2 -0.002197 0.024914 -0.012027 0.000000 0.000000 0.000000
# 3 0.000962 -0.012027 0.009878 0.000000 0.000000 0.000000
# 4 0.000000 0.000000 0.000000 0.034229 0.000000 0.000000
# 5 0.000000 0.000000 0.000000 0.000000 0.031059 0.000000
# 6 0.000000 0.000000 0.000000 0.000000 0.000000 0.115963
#
#
# Mechanical properties :
#
#
# Convention : Reuss Voigt Hill
#
# Bulk Modulus (GPa) = 36.22844 71.77877 54.00361
# Shear Modulus (GPa) = 18.44314 32.04416 25.24365
#
# Velocity S-wave (km/s) = 3.02530 3.98773 3.53938
# Velocity P-wave (km/s) = 5.49378 7.53810 6.59563
#
# Compressibility (1/GPa) = 0.02760262
#
# Stress axis : x y z
#
# Youngs Moduli (GPa) = 51.71993 40.13800 101.23551
#
# Poissons Ratio (x) = 0.08819 -0.09736
# Poissons Ratio (y) = 0.11364 1.21751
# Poissons Ratio (z) = -0.04974 0.48272
#
# Static dielectric constant tensor:
#      x y z
#    x 1.772410 0.000000 0.000000 
#    y 0.000000 1.692730 0.000000 
#    z 0.000000 0.000000 1.730870 
# 
# From -- ./inp_files/23676.got.cif
#   From: 2010.05.17/outbox.cif.g08.bks.cpg/sg38_12_cif.got.tgz:23676.got - 2010.06.03 18:07:57.
