data_PCOD9358608
_publ_section_title
;
Structure prediction by ZEFSAII (Michael W. Deem and Ramdas Pophale) SiO2 
 PCOD9358608
Probable space group: A M M 2
;
_chemical_formula_sum "Si O2"
_cell_formula_units_Z 48
_cell_length_a 10.356710
_cell_length_b 8.524766
_cell_length_c 28.135434
_cell_angle_alpha 90.000000
_cell_angle_beta 90.000000
_cell_angle_gamma 90.000000
_cell_volume 2484.036089
_symmetry_space_group_name_H-M "A M M 2"
_symmetry_group_IT_number 38
_symmetry_cell_setting 'orthorhombic'
loop_
_space_group_symop_operation_xyz
x,y,z
-x,-y,z
-x,y,z
x,-y,z
x,1/2+y,1/2+z
-x,1/2-y,1/2+z
-x,1/2+y,1/2+z
x,1/2-y,1/2+z
loop_
_atom_site_type_symbol
_atom_site_label
_atom_site_fract_x
_atom_site_fract_y
_atom_site_fract_z
Si Si1 0.500000 0.808832 0.022260
Si Si2 0.269595 0.689564 0.453595
Si Si3 0.229984 0.811680 0.669384
Si Si4 0.146712 0.312055 0.772281
Si Si5 0.500000 0.188282 0.131831
Si Si6 0.000000 0.809091 0.600267
Si Si7 0.000000 0.687979 0.990959
Si Si8 0.646643 0.689653 0.347506
O O1 0.500000 0.757147 0.076776
O O2 0.500000 0.000000 0.022216
O O3 0.626699 0.758242 0.993187
O O4 0.266676 0.500000 0.454419
O O5 0.317278 0.737206 0.401261
O O6 0.128736 0.752554 0.465507
O O7 0.183014 0.752810 0.720492
O O8 0.371180 0.748916 0.657022
O O9 0.126797 0.759080 0.629400
O O10 0.232117 0.000000 0.669720
O O11 0.150042 0.500000 0.770700
O O12 0.249460 0.253101 0.810598
O O13 0.000000 0.262244 0.784266
O O14 0.500000 0.000000 0.132365
O O15 0.000000 0.755603 0.545868
O O16 0.000000 0.000000 0.599839
O O17 0.000000 0.500000 0.991097
O O18 0.500000 0.740179 0.336420
O O19 0.649082 0.500000 0.345885
#
# Coordination Sequence:
#
# PCOD9358608 Si02
#       8
#     4   8   8   8   4   4   4   8
#     4   9  18  37  64  89 120 157 202 251 296 347
#     4  10  20  39  63  89 119 158 204 249 293 349
#     4  11  22  41  65  88 118 161 206 249 296 356
#     4  11  25  43  63  90 123 156 194 247 308 363
#     4  11  23  37  58  93 128 161 198 247 302 355
#     4   9  20  39  62  87 118 157 204 251 296 349
#     4  11  23  37  56  89 128 161 196 245 298 355
#     4  10  22  41  66  91 117 154 202 249 295 354
#
# _framework density 19.323388999999999
#
# number of rings (size 3 to 8) (size 9 to 14) (size 15 to 20)
#    0.000    1.667    1.667    2.500    2.333    2.000 
#    0.000    3.750    0.000    0.000    0.000    0.000 
#    0.000    0.000    0.000    0.000    0.000    0.000 
#
# Total GULP energy -134154.006981 kJ/mol
# GULP energy per Si atom -5589.750291 kJ/mol
# Density = 1.927941 g / cm^3
# Si number density = 19.323389 Si / 1000 Ang^3
#
#
#
# Elastic Constant Matrix: (Units=GPa)
#
#
# Indices 1 2 3 4 5 6 
#
# 1 209.0774 36.8638 78.3402 0.0000 0.0000 0.0000
# 2 36.8638 27.4775 29.6987 0.0000 0.0000 0.0000
# 3 78.3402 29.6987 107.9767 0.0000 0.0000 0.0000
# 4 0.0000 0.0000 0.0000 17.4571 0.0000 0.0000
# 5 0.0000 0.0000 0.0000 0.0000 44.7457 0.0000
# 6 0.0000 0.0000 0.0000 0.0000 0.0000 14.7262
#
#
#
# Elastic Compliance Matrix: (Units=1/GPa)
#
#
# Indices 1 2 3 4 5 6 
#
# 1 0.007138 -0.005662 -0.003622 0.000000 0.000000 0.000000
# 2 -0.005662 0.056281 -0.011372 0.000000 0.000000 0.000000
# 3 -0.003622 -0.011372 0.015017 0.000000 0.000000 0.000000
# 4 0.000000 0.000000 0.000000 0.057283 0.000000 0.000000
# 5 0.000000 0.000000 0.000000 0.000000 0.022349 0.000000
# 6 0.000000 0.000000 0.000000 0.000000 0.000000 0.067906
#
#
# Mechanical properties :
#
#
# Convention : Reuss Voigt Hill
#
# Bulk Modulus (GPa) = 26.93641 70.48188 48.70915
# Shear Modulus (GPa) = 17.87885 28.69439 23.28662
#
# Velocity S-wave (km/s) = 3.04508 3.85769 3.47522
# Velocity P-wave (km/s) = 5.13161 7.50976 6.43156
#
# Compressibility (1/GPa) = 0.03712447
#
# Stress axis : x y z
#
# Youngs Moduli (GPa) = 140.08971 17.76802 66.59297
#
# Poissons Ratio (x) = 0.10061 0.24117
# Poissons Ratio (y) = 0.79323 0.75728
# Poissons Ratio (z) = 0.50735 0.20205
#
# Static dielectric constant tensor:
#      x y z
#    x 1.641560 0.000000 0.000000 
#    y 0.000000 1.656630 0.000000 
#    z 0.000000 0.000000 1.647030 
# 
# From -- ./inp_files/24485.got.cif
#   From: 2010.05.17/outbox.cif.g08.bks.cpg/sg38_13_cif.got.tgz:24485.got - 2010.06.03 18:07:57.
