data_PCOD9358825
_publ_section_title
;
Structure prediction by ZEFSAII (Michael W. Deem and Ramdas Pophale) SiO2 
 PCOD9358825
Probable space group: A M M 2
;
_chemical_formula_sum "Si O2"
_cell_formula_units_Z 64
_cell_length_a 14.217832
_cell_length_b 8.842868
_cell_length_c 26.619676
_cell_angle_alpha 90.000000
_cell_angle_beta 90.000000
_cell_angle_gamma 90.000000
_cell_volume 3346.796342
_symmetry_space_group_name_H-M "A M M 2"
_symmetry_group_IT_number 38
_symmetry_cell_setting 'orthorhombic'
loop_
_space_group_symop_operation_xyz
x,y,z
-x,-y,z
-x,y,z
x,-y,z
x,1/2+y,1/2+z
-x,1/2-y,1/2+z
-x,1/2+y,1/2+z
x,1/2-y,1/2+z
loop_
_atom_site_type_symbol
_atom_site_label
_atom_site_fract_x
_atom_site_fract_y
_atom_site_fract_z
Si Si1 0.885845 0.172375 0.895610
Si Si2 0.390646 0.681510 0.347190
Si Si3 0.285056 0.681116 0.245274
Si Si4 0.285590 0.318484 0.053478
Si Si5 0.890509 0.682809 0.508096
Si Si6 0.610562 0.818823 0.450969
Si Si7 0.889893 0.179436 0.290396
Si Si8 0.610311 0.181414 0.149524
O O1 0.862546 0.270019 0.847017
O O2 0.000000 0.164265 0.897016
O O3 0.850675 0.000000 0.888641
O O4 0.861113 0.229807 0.951196
O O5 0.500000 0.729031 0.342979
O O6 0.388002 0.500000 0.349928
O O7 0.336822 0.728053 0.297031
O O8 0.352339 0.746295 0.399507
O O9 0.289091 0.500000 0.241209
O O10 0.178340 0.736276 0.251996
O O11 0.337583 0.754659 0.198465
O O12 0.286596 0.500000 0.056927
O O13 0.179891 0.257398 0.047256
O O14 0.339337 0.248672 0.100556
O O15 0.338158 0.271992 0.001906
O O16 0.883678 0.500000 0.509505
O O17 0.000000 0.722581 0.515785
O O18 0.500000 0.778487 0.455153
O O19 0.617473 0.000000 0.446711
O O20 0.000000 0.218234 0.283467
O O21 0.879363 0.000000 0.285506
O O22 0.500000 0.224135 0.150246
O O23 0.616525 0.000000 0.148806
#
# Coordination Sequence:
#
# PCOD9358825 Si02
#       8
#     8   8   8   8   8   8   8   8
#     4   8  15  30  52  78 112 156 201 243 290 345
#     4   9  19  35  55  82 115 150 188 232 288 352
#     4  11  23  39  62  89 118 155 199 247 300 358
#     4  11  23  38  60  89 120 156 199 247 300 357
#     4   9  19  36  57  83 119 161 204 250 297 349
#     4   9  19  35  54  80 116 154 189 231 289 351
#     4  10  21  36  55  83 121 161 202 249 297 349
#     4  11  25  45  68  92 117 151 197 248 300 357
#
# _framework density 19.122765000000001
#
# number of rings (size 3 to 8) (size 9 to 14) (size 15 to 20)
#    0.000    2.250    0.000    3.000    1.750    5.500 
#    0.000    4.375    0.000    3.750    0.000    0.000 
#    0.000    0.000    0.000    0.000    0.000    0.000 
#
# Total GULP energy -178743.455320 kJ/mol
# GULP energy per Si atom -5585.732979 kJ/mol
# Density = 1.907924 g / cm^3
# Si number density = 19.122765 Si / 1000 Ang^3
#
#
#
# Elastic Constant Matrix: (Units=GPa)
#
#
# Indices 1 2 3 4 5 6 
#
# 1 122.6508 47.8269 86.5642 0.0000 0.0000 0.0000
# 2 47.8269 41.4875 52.4113 0.0000 0.0000 0.0000
# 3 86.5642 52.4113 153.8337 0.0000 0.0000 0.0000
# 4 0.0000 0.0000 0.0000 34.5452 0.0000 0.0000
# 5 0.0000 0.0000 0.0000 0.0000 37.2069 0.0000
# 6 0.0000 0.0000 0.0000 0.0000 0.0000 21.5732
#
#
#
# Elastic Compliance Matrix: (Units=1/GPa)
#
#
# Indices 1 2 3 4 5 6 
#
# 1 0.016746 -0.012993 -0.004997 0.000000 0.000000 0.000000
# 2 -0.012993 0.052398 -0.010541 0.000000 0.000000 0.000000
# 3 -0.004997 -0.010541 0.012903 0.000000 0.000000 0.000000
# 4 0.000000 0.000000 0.000000 0.028948 0.000000 0.000000
# 5 0.000000 0.000000 0.000000 0.000000 0.026877 0.000000
# 6 0.000000 0.000000 0.000000 0.000000 0.000000 0.046354
#
#
# Mechanical properties :
#
#
# Convention : Reuss Voigt Hill
#
# Bulk Modulus (GPa) = 40.02058 76.84186 58.43122
# Shear Modulus (GPa) = 20.03081 27.40969 23.72025
#
# Velocity S-wave (km/s) = 3.24000 3.79007 3.52578
# Velocity P-wave (km/s) = 5.91358 7.70867 6.87001
#
# Compressibility (1/GPa) = 0.02498714
#
# Stress axis : x y z
#
# Youngs Moduli (GPa) = 59.71509 19.08469 77.49844
#
# Poissons Ratio (x) = 0.24796 0.38723
# Poissons Ratio (y) = 0.77586 0.81690
# Poissons Ratio (z) = 0.29837 0.20117
#
# Static dielectric constant tensor:
#      x y z
#    x 1.697840 0.000000 0.000000 
#    y 0.000000 1.640980 0.000000 
#    z 0.000000 0.000000 1.638450 
# 
# From -- ./inp_files/22993.got.cif
#   From: 2010.05.17/outbox.cif.g08.bks.cpg/sg38_12_cif.got.tgz:22993.got - 2010.06.03 18:07:57.
