data_PCOD9358811
_publ_section_title
;
Structure prediction by ZEFSAII (Michael W. Deem and Ramdas Pophale) SiO2 
 PCOD9358811
Probable space group: A M M 2
;
_chemical_formula_sum "Si O2"
_cell_formula_units_Z 40
_cell_length_a 9.353954
_cell_length_b 8.988451
_cell_length_c 26.202264
_cell_angle_alpha 90.000000
_cell_angle_beta 90.000000
_cell_angle_gamma 90.000000
_cell_volume 2203.022350
_symmetry_space_group_name_H-M "A M M 2"
_symmetry_group_IT_number 38
_symmetry_cell_setting 'orthorhombic'
loop_
_space_group_symop_operation_xyz
x,y,z
-x,-y,z
-x,y,z
x,-y,z
x,1/2+y,1/2+z
-x,1/2-y,1/2+z
-x,1/2+y,1/2+z
x,1/2-y,1/2+z
loop_
_atom_site_type_symbol
_atom_site_label
_atom_site_fract_x
_atom_site_fract_y
_atom_site_fract_z
Si Si1 0.333838 0.679000 0.145560
Si Si2 0.667266 0.320486 0.450580
Si Si3 0.165504 0.820779 0.053077
Si Si4 0.832942 0.178025 0.355848
Si Si5 0.331391 0.178359 0.762740
O O1 0.500000 0.720539 0.136572
O O2 0.324731 0.500000 0.141999
O O3 0.234162 0.752687 0.103689
O O4 0.297771 0.719332 0.204085
O O5 0.500000 0.280564 0.451333
O O6 0.677133 0.500000 0.446123
O O7 0.744046 0.275923 0.503272
O O8 0.746972 0.247832 0.402961
O O9 0.000000 0.776889 0.047363
O O10 0.171687 0.000000 0.056420
O O11 0.764257 0.238933 0.303808
O O12 0.000000 0.219394 0.359081
O O13 0.821796 0.000000 0.357373
O O14 0.500000 0.209630 0.771411
O O15 0.313180 0.000000 0.767856
#
# Coordination Sequence:
#
# PCOD9358811 Si02
#       5
#     8   8   8   8   8
#     4   9  19  36  57  81 109 142 181 223 266 314
#     4  10  21  38  60  82 104 137 182 225 266 318
#     4  10  21  36  55  81 112 144 178 218 266 319
#     4  11  24  38  53  79 113 144 176 218 269 322
#     4   9  19  37  59  81 106 140 183 225 265 315
#
# _framework density 18.156873999999998
#
# number of rings (size 3 to 8) (size 9 to 14) (size 15 to 20)
#    0.000    2.200    0.000    3.600    0.000    9.600 
#    0.000    6.000    0.000    0.000    0.000    0.000 
#    0.000    0.000    0.000    0.000    0.000    0.000 
#
# Total GULP energy -111702.515570 kJ/mol
# GULP energy per Si atom -5585.125779 kJ/mol
# Density = 1.811555 g / cm^3
# Si number density = 18.156874 Si / 1000 Ang^3
#
#
#
# Elastic Constant Matrix: (Units=GPa)
#
#
# Indices 1 2 3 4 5 6 
#
# 1 174.2239 57.4805 132.6209 0.0000 0.0000 0.0000
# 2 57.4805 21.7250 50.5262 0.0000 0.0000 0.0000
# 3 132.6209 50.5262 167.3053 0.0000 0.0000 0.0000
# 4 0.0000 0.0000 0.0000 36.4542 0.0000 0.0000
# 5 0.0000 0.0000 0.0000 0.0000 -89.1897 0.0000
# 6 0.0000 0.0000 0.0000 0.0000 0.0000 31.9213
#
#
#
# Elastic Compliance Matrix: (Units=1/GPa)
#
#
# Indices 1 2 3 4 5 6 
#
# 1 0.045213 -0.121869 0.000965 0.000000 0.000000 0.000000
# 2 -0.121869 0.483148 -0.049306 0.000000 0.000000 0.000000
# 3 0.000965 -0.049306 0.020103 0.000000 0.000000 0.000000
# 4 0.000000 0.000000 0.000000 0.027432 0.000000 0.000000
# 5 0.000000 0.000000 0.000000 0.000000 -0.011212 0.000000
# 6 0.000000 0.000000 0.000000 0.000000 0.000000 0.031327
#
#
# Mechanical properties :
#
#
# Convention : Reuss Voigt Hill
#
# Bulk Modulus (GPa) = 4.80673 93.83439 49.32056
# Shear Modulus (GPa) = 4.97127 4.01226 4.49177
#
# Velocity S-wave (km/s) = 1.65647 1.48814 1.57456
# Velocity P-wave (km/s) = 2.51229 7.39897 5.52523
#
# Compressibility (1/GPa) = 0.20804172
#
# Stress axis : x y z
#
# Youngs Moduli (GPa) = 22.11768 2.06976 49.74441
#
# Poissons Ratio (x) = 0.25224 -0.04800
# Poissons Ratio (y) = 2.69546 2.45272
# Poissons Ratio (z) = -0.02134 0.10205
#
# Static dielectric constant tensor:
#      x y z
#    x 1.606520 0.000000 0.000000 
#    y 0.000000 1.607290 0.000000 
#    z 0.000000 0.000000 1.593010 
# 
# From -- ./inp_files/21660.got.cif
#   From: 2010.05.17/outbox.cif.g08.bks.cpg/sg38_11_cif.got.tgz:21660.got - 2010.06.03 18:07:57.
