data_PCOD9358457
_publ_section_title
;
Structure prediction by ZEFSAII (Michael W. Deem and Ramdas Pophale) SiO2 
 PCOD9358457
Probable space group: A M M 2
;
_chemical_formula_sum "Si O2"
_cell_formula_units_Z 48
_cell_length_a 7.494928
_cell_length_b 10.303740
_cell_length_c 28.912499
_cell_angle_alpha 90.000000
_cell_angle_beta 90.000000
_cell_angle_gamma 90.000000
_cell_volume 2232.790560
_symmetry_space_group_name_H-M "A M M 2"
_symmetry_group_IT_number 38
_symmetry_cell_setting 'orthorhombic'
loop_
_space_group_symop_operation_xyz
x,y,z
-x,-y,z
-x,y,z
x,-y,z
x,1/2+y,1/2+z
-x,1/2-y,1/2+z
-x,1/2+y,1/2+z
x,1/2-y,1/2+z
loop_
_atom_site_type_symbol
_atom_site_label
_atom_site_fract_x
_atom_site_fract_y
_atom_site_fract_z
Si Si1 0.218994 0.652018 0.626290
Si Si2 0.215455 0.000000 0.468227
Si Si3 0.788873 0.148942 0.705041
Si Si4 0.715654 0.241150 0.808476
Si Si5 0.713391 0.000000 0.358262
Si Si6 0.793661 0.740959 0.028578
Si Si7 0.284615 0.000000 0.974421
Si Si8 0.282349 0.500000 0.368913
O O1 0.274418 0.500000 0.629083
O O2 0.278583 0.745019 0.668177
O O3 0.280802 0.720607 0.578749
O O4 0.000000 0.648630 0.625811
O O5 0.281583 0.125770 0.496744
O O6 0.258059 0.000000 0.413596
O O7 0.000000 0.000000 0.469186
O O8 0.765533 0.207192 0.756194
O O9 0.000000 0.138561 0.696210
O O10 0.717410 0.000000 0.702483
O O11 0.500000 0.243364 0.809544
O O12 0.781598 0.373797 0.831286
O O13 0.777430 0.125435 0.841313
O O14 0.500000 0.000000 0.352851
O O15 0.000000 0.705159 0.037101
O O16 0.783365 0.872364 0.999527
O O17 0.225654 0.000000 0.921565
O O18 0.500000 0.000000 0.976347
O O19 0.500000 0.500000 0.369009
#
# Coordination Sequence:
#
# PCOD9358457 Si02
#       8
#     8   4   8   8   4   8   4   4
#     4   9  18  34  57  81 108 146 183 218 273 338
#     4  10  22  36  57  88 118 149 189 236 281 326
#     4  10  21  35  55  85 112 138 180 232 279 326
#     4  10  20  37  57  77 106 147 186 222 271 334
#     4  10  22  38  57  80 111 151 192 228 273 334
#     4  10  20  37  58  83 115 151 188 228 278 340
#     4  11  21  35  58  85 110 145 189 237 282 329
#     4   9  18  33  54  75 101 141 182 215 266 335
#
# _framework density 21.497762000000002
#
# number of rings (size 3 to 8) (size 9 to 14) (size 15 to 20)
#    0.000    2.167    1.667    1.250    2.333    2.667 
#    0.000    2.500    0.000    0.000    0.000    0.000 
#    0.000    0.000    0.000    0.000    0.000    0.000 
#
# Total GULP energy -134005.327999 kJ/mol
# GULP energy per Si atom -5583.555333 kJ/mol
# Density = 2.144883 g / cm^3
# Si number density = 21.497762 Si / 1000 Ang^3
#
#
#
# Elastic Constant Matrix: (Units=GPa)
#
#
# Indices 1 2 3 4 5 6 
#
# 1 58.9099 -4.3750 -12.1861 0.0000 0.0000 0.0000
# 2 -4.3750 207.3869 106.6461 0.0000 0.0000 0.0000
# 3 -12.1861 106.6461 206.4464 0.0000 0.0000 0.0000
# 4 0.0000 0.0000 0.0000 33.5177 0.0000 0.0000
# 5 0.0000 0.0000 0.0000 0.0000 20.3525 0.0000
# 6 0.0000 0.0000 0.0000 0.0000 0.0000 3.9149
#
#
#
# Elastic Compliance Matrix: (Units=1/GPa)
#
#
# Indices 1 2 3 4 5 6 
#
# 1 0.017192 -0.000217 0.001127 0.000000 0.000000 0.000000
# 2 -0.000217 0.006569 -0.003406 0.000000 0.000000 0.000000
# 3 0.001127 -0.003406 0.006670 0.000000 0.000000 0.000000
# 4 0.000000 0.000000 0.000000 0.029835 0.000000 0.000000
# 5 0.000000 0.000000 0.000000 0.000000 0.049134 0.000000
# 6 0.000000 0.000000 0.000000 0.000000 0.000000 0.255435
#
#
# Mechanical properties :
#
#
# Convention : Reuss Voigt Hill
#
# Bulk Modulus (GPa) = 39.31028 72.54591 55.92809
# Shear Modulus (GPa) = 13.21681 37.06757 25.14219
#
# Velocity S-wave (km/s) = 2.48220 4.15692 3.42354
# Velocity P-wave (km/s) = 5.15175 7.54049 6.45754
#
# Compressibility (1/GPa) = 0.02543864
#
# Stress axis : x y z
#
# Youngs Moduli (GPa) = 58.16639 152.23227 149.92640
#
# Poissons Ratio (x) = 0.03300 -0.16893
# Poissons Ratio (y) = 0.01261 0.51067
# Poissons Ratio (z) = -0.06554 0.51853
#
# Static dielectric constant tensor:
#      x y z
#    x 1.823440 0.000000 0.000000 
#    y 0.000000 1.755770 0.000000 
#    z 0.000000 0.000000 1.736230 
# 
# From -- ./inp_files/24502.got.cif
#   From: 2010.05.17/outbox.cif.g08.bks.cpg/sg38_13_cif.got.tgz:24502.got - 2010.06.03 18:07:57.
