data_PCOD9358272
_publ_section_title
;
Structure prediction by ZEFSAII (Michael W. Deem and Ramdas Pophale) SiO2 
 PCOD9358272
Probable space group: A M M 2
;
_chemical_formula_sum "Si O2"
_cell_formula_units_Z 56
_cell_length_a 14.621300
_cell_length_b 14.015587
_cell_length_c 12.275555
_cell_angle_alpha 90.000000
_cell_angle_beta 90.000000
_cell_angle_gamma 90.000000
_cell_volume 2515.581639
_symmetry_space_group_name_H-M "A M M 2"
_symmetry_group_IT_number 38
_symmetry_cell_setting 'orthorhombic'
loop_
_space_group_symop_operation_xyz
x,y,z
-x,-y,z
-x,y,z
x,-y,z
x,1/2+y,1/2+z
-x,1/2-y,1/2+z
-x,1/2+y,1/2+z
x,1/2-y,1/2+z
loop_
_atom_site_type_symbol
_atom_site_label
_atom_site_fract_x
_atom_site_fract_y
_atom_site_fract_z
Si Si1 0.900156 0.110146 0.843210
Si Si2 0.832356 0.101525 0.433242
Si Si3 0.605091 0.666433 0.532150
Si Si4 0.357274 0.106074 0.564647
Si Si5 0.257818 0.657624 0.713661
Si Si6 0.899967 0.716461 0.553828
Si Si7 0.691781 0.343540 0.301796
O O1 0.801775 0.145158 0.803653
O O2 0.000000 0.151242 0.809120
O O3 0.902480 0.000000 0.814007
O O4 0.895983 0.126397 0.973054
O O5 0.741735 0.104696 0.507700
O O6 0.798428 0.105104 0.308043
O O7 0.887510 0.193542 0.472673
O O8 0.879625 0.000000 0.452700
O O9 0.500000 0.638814 0.543794
O O10 0.608266 0.784840 0.538717
O O11 0.670141 0.620627 0.624814
O O12 0.646289 0.633975 0.416280
O O13 0.347943 0.106348 0.695607
O O14 0.397532 0.000000 0.534178
O O15 0.181654 0.708645 0.638313
O O16 0.319672 0.731336 0.781468
O O17 0.000000 0.720162 0.604941
#
# Coordination Sequence:
#
# PCOD9358272 Si02
#       7
#     8   8   8   8   8   8   8
#     4  10  20  35  60  92 123 161 209 257 310 371
#     4  11  22  41  66  94 131 174 218 263 323 392
#     4  11  23  40  66  94 122 163 216 270 334 393
#     4  10  21  39  62  91 125 163 211 266 324 386
#     4  11  20  41  62  92 122 173 209 261 327 383
#     4  11  22  39  62  92 130 169 215 264 315 379
#     4  11  19  39  64  90 123 165 208 264 318 380
#
# _framework density 22.261253
#
# number of rings (size 3 to 8) (size 9 to 14) (size 15 to 20)
#    0.000    1.286    7.143    0.429    0.000    4.571 
#    0.000    0.000    0.000    3.429    0.000    0.000 
#    0.000    0.000    0.000    0.000    0.000    0.000 
#
# Total GULP energy -155949.531979 kJ/mol
# GULP energy per Si atom -5569.626142 kJ/mol
# Density = 2.221059 g / cm^3
# Si number density = 22.261253 Si / 1000 Ang^3
#
#
#
# Elastic Constant Matrix: (Units=GPa)
#
#
# Indices 1 2 3 4 5 6 
#
# 1 120.9862 -3.3366 31.2832 0.0000 0.0000 0.0000
# 2 -3.3366 47.4053 0.2137 0.0000 0.0000 0.0000
# 3 31.2832 0.2137 96.2092 0.0000 0.0000 0.0000
# 4 0.0000 0.0000 0.0000 3.3143 0.0000 0.0000
# 5 0.0000 0.0000 0.0000 0.0000 -28.7516 0.0000
# 6 0.0000 0.0000 0.0000 0.0000 0.0000 3.7894
#
#
#
# Elastic Compliance Matrix: (Units=1/GPa)
#
#
# Indices 1 2 3 4 5 6 
#
# 1 0.009044 0.000650 -0.002942 0.000000 0.000000 0.000000
# 2 0.000650 0.021142 -0.000258 0.000000 0.000000 0.000000
# 3 -0.002942 -0.000258 0.011351 0.000000 0.000000 0.000000
# 4 0.000000 0.000000 0.000000 0.301719 0.000000 0.000000
# 5 0.000000 0.000000 0.000000 0.000000 -0.034781 0.000000
# 6 0.000000 0.000000 0.000000 0.000000 0.000000 0.263893
#
#
# Mechanical properties :
#
#
# Convention : Reuss Voigt Hill
#
# Bulk Modulus (GPa) = 27.44562 35.65793 31.55178
# Shear Modulus (GPa) = 8.48011 11.43311 9.95661
#
# Velocity S-wave (km/s) = 1.95387 2.26871 2.11715
# Velocity P-wave (km/s) = 4.17682 4.78700 4.49228
#
# Compressibility (1/GPa) = 0.03643569
#
# Stress axis : x y z
#
# Youngs Moduli (GPa) = 110.56947 47.30010 88.09587
#
# Poissons Ratio (x) = -0.03074 0.25920
# Poissons Ratio (y) = -0.07185 0.02275
# Poissons Ratio (z) = 0.32532 0.01222
#
# Static dielectric constant tensor:
#      x y z
#    x 1.818970 0.000000 0.000000 
#    y 0.000000 1.883830 0.000000 
#    z 0.000000 0.000000 1.812660 
# 
# From -- ./inp_files/10127.got.cif
#   From: 2010.05.17/outbox.cif.g08.bks.cpg/sg38_6_cif.got.tgz:10127.got - 2010.06.03 18:07:57.
