data_PCOD9358127
_publ_section_title
;
Structure prediction by ZEFSAII (Michael W. Deem and Ramdas Pophale) SiO2 
 PCOD9358127
Probable space group: A M M 2
;
_chemical_formula_sum "Si O2"
_cell_formula_units_Z 58
_cell_length_a 21.807802
_cell_length_b 8.954721
_cell_length_c 16.381962
_cell_angle_alpha 90.000000
_cell_angle_beta 90.000000
_cell_angle_gamma 90.000000
_cell_volume 3199.115123
_symmetry_space_group_name_H-M "A M M 2"
_symmetry_group_IT_number 38
_symmetry_cell_setting 'orthorhombic'
loop_
_space_group_symop_operation_xyz
x,y,z
-x,-y,z
-x,y,z
x,-y,z
x,1/2+y,1/2+z
-x,1/2-y,1/2+z
-x,1/2+y,1/2+z
x,1/2-y,1/2+z
loop_
_atom_site_type_symbol
_atom_site_label
_atom_site_fract_x
_atom_site_fract_y
_atom_site_fract_z
Si Si1 0.184593 0.674602 0.272360
Si Si2 0.808917 0.826020 0.962320
Si Si3 0.373158 0.665721 0.370606
Si Si4 0.312579 0.178808 0.523238
Si Si5 0.500000 0.500000 0.368979
Si Si6 0.068904 0.321619 0.023302
Si Si7 0.686877 0.681591 0.203535
Si Si8 0.068256 0.323409 0.701713
O O1 0.171633 0.500000 0.255003
O O2 0.204842 0.686137 0.366134
O O3 0.242138 0.723391 0.217615
O O4 0.123842 0.768454 0.256745
O O5 0.808603 0.000000 0.985668
O O6 0.756482 0.737587 0.010068
O O7 0.875872 0.757947 0.977213
O O8 0.342406 0.500000 0.379692
O O9 0.352706 0.759006 0.448726
O O10 0.445009 0.627689 0.368738
O O11 0.351086 0.729713 0.283406
O O12 0.334154 0.229720 0.613579
O O13 0.312633 0.000000 0.521120
O O14 0.076198 0.500000 0.020030
O O15 0.072304 0.265307 0.116634
O O16 0.000000 0.284495 0.993199
O O17 0.684017 0.500000 0.203661
O O18 0.073564 0.500000 0.685653
O O19 0.000000 0.296248 0.736720
#
# Coordination Sequence:
#
# PCOD9358127 Si02
#       8
#     8   8   8   8   2   8   8   8
#     4  10  20  35  55  79 107 152 197 247 297 361
#     4  11  22  36  56  83 112 157 203 250 302 368
#     4   9  18  40  63  88 116 162 203 229 287 355
#     4  11  21  34  60  95 125 155 195 256 305 350
#     4   8  20  36  78  84 116 170 208 232 284 352
#     4  10  21  37  55  75 107 150 197 254 317 373
#     4   9  18  35  59  85 118 154 197 243 287 352
#     4  10  21  36  53  75 107 145 193 252 311 375
#
# _framework density 18.130013000000002
#
# number of rings (size 3 to 8) (size 9 to 14) (size 15 to 20)
#    0.414    1.655    1.379    2.483    0.000    4.414 
#    0.000    5.862    0.000    0.000    0.000    0.000 
#    0.000    0.000    0.000    0.000    0.000    0.000 
#
# Total GULP energy -161440.732999 kJ/mol
# GULP energy per Si atom -5566.921828 kJ/mol
# Density = 1.808875 g / cm^3
# Si number density = 18.130013 Si / 1000 Ang^3
#
#
#
# Elastic Constant Matrix: (Units=GPa)
#
#
# Indices 1 2 3 4 5 6 
#
# 1 110.2484 30.0859 55.7608 0.0000 0.0000 0.0000
# 2 30.0859 52.9188 36.3882 0.0000 0.0000 0.0000
# 3 55.7608 36.3882 112.5106 0.0000 0.0000 0.0000
# 4 0.0000 0.0000 0.0000 24.8760 0.0000 0.0000
# 5 0.0000 0.0000 0.0000 0.0000 4.1768 0.0000
# 6 0.0000 0.0000 0.0000 0.0000 0.0000 24.6186
#
#
#
# Elastic Compliance Matrix: (Units=1/GPa)
#
#
# Indices 1 2 3 4 5 6 
#
# 1 0.012645 -0.003703 -0.005069 0.000000 0.000000 0.000000
# 2 -0.003703 0.025386 -0.006375 0.000000 0.000000 0.000000
# 3 -0.005069 -0.006375 0.013462 0.000000 0.000000 0.000000
# 4 0.000000 0.000000 0.000000 0.040199 0.000000 0.000000
# 5 0.000000 0.000000 0.000000 0.000000 0.239418 0.000000
# 6 0.000000 0.000000 0.000000 0.000000 0.000000 0.040620
#
#
# Mechanical properties :
#
#
# Convention : Reuss Voigt Hill
#
# Bulk Modulus (GPa) = 47.17400 57.79415 52.48407
# Shear Modulus (GPa) = 12.22222 20.96381 16.59302
#
# Velocity S-wave (km/s) = 2.59924 3.40414 3.02855
# Velocity P-wave (km/s) = 5.92321 6.88460 6.42192
#
# Compressibility (1/GPa) = 0.02119812
#
# Stress axis : x y z
#
# Youngs Moduli (GPa) = 79.08348 39.39199 74.28258
#
# Poissons Ratio (x) = 0.14588 0.37655
# Poissons Ratio (y) = 0.29287 0.47354
# Poissons Ratio (z) = 0.40088 0.25112
#
# Static dielectric constant tensor:
#      x y z
#    x 1.609680 0.000000 0.000000 
#    y 0.000000 1.614710 0.000000 
#    z 0.000000 0.000000 1.648620 
# 
# From -- ./inp_files/15725.got.cif
#   From: 2010.05.17/outbox.cif.g08.bks.cpg/sg38_8_cif.got.tgz:15725.got - 2010.06.03 18:07:57.
