data_PCOD9358488
_publ_section_title
;
Structure prediction by ZEFSAII (Michael W. Deem and Ramdas Pophale) SiO2 
 PCOD9358488
Probable space group: A M M 2
;
_chemical_formula_sum "Si O2"
_cell_formula_units_Z 48
_cell_length_a 17.269803
_cell_length_b 8.636630
_cell_length_c 16.294089
_cell_angle_alpha 90.000000
_cell_angle_beta 90.000000
_cell_angle_gamma 90.000000
_cell_volume 2430.310606
_symmetry_space_group_name_H-M "A M M 2"
_symmetry_group_IT_number 38
_symmetry_cell_setting 'orthorhombic'
loop_
_space_group_symop_operation_xyz
x,y,z
-x,-y,z
-x,y,z
x,-y,z
x,1/2+y,1/2+z
-x,1/2-y,1/2+z
-x,1/2+y,1/2+z
x,1/2-y,1/2+z
loop_
_atom_site_type_symbol
_atom_site_label
_atom_site_fract_x
_atom_site_fract_y
_atom_site_fract_z
Si Si1 0.163781 0.184081 0.564810
Si Si2 0.833316 0.186171 0.374043
Si Si3 0.681732 0.184805 0.131976
Si Si4 0.000000 0.684462 0.619992
Si Si5 0.410540 0.688911 0.469732
Si Si6 0.321698 0.315245 0.305466
Si Si7 0.000000 0.186268 0.313952
O O1 0.181941 0.217802 0.469612
O O2 0.229447 0.263620 0.619280
O O3 0.077969 0.244057 0.583394
O O4 0.166459 0.000000 0.577152
O O5 0.766641 0.263516 0.320825
O O6 0.919591 0.243063 0.352169
O O7 0.830549 0.000000 0.361266
O O8 0.651519 0.249409 0.218231
O O9 0.678117 0.000000 0.134233
O O10 0.634582 0.240303 0.051659
O O11 0.000000 0.715441 0.717282
O O12 0.000000 0.500000 0.607417
O O13 0.500000 0.736176 0.472040
O O14 0.408138 0.500000 0.469744
O O15 0.369749 0.740029 0.385227
O O16 0.326064 0.500000 0.302682
O O17 0.000000 0.000000 0.326814
#
# Coordination Sequence:
#
# PCOD9358488 Si02
#       7
#     8   8   8   4   8   8   4
#     4  11  22  37  59  86 119 159 208 259 306 355
#     4  10  20  37  60  83 115 157 203 250 304 357
#     4  11  22  39  63  90 123 163 206 250 305 370
#     4  11  22  35  55  83 120 163 210 252 300 363
#     4   9  20  40  64  89 122 161 199 248 310 373
#     4  11  22  38  62  92 123 157 203 252 306 367
#     4   9  19  35  53  77 108 151 198 242 288 345
#
# _framework density 19.750561000000001
#
# number of rings (size 3 to 8) (size 9 to 14) (size 15 to 20)
#    0.000    1.667    1.667    3.250    0.000    4.000 
#    0.000    1.250    0.000    7.000    0.000    0.000 
#    0.000    0.000    0.000    0.000    0.000    0.000 
#
# Total GULP energy -134111.072084 kJ/mol
# GULP energy per Si atom -5587.961337 kJ/mol
# Density = 1.970561 g / cm^3
# Si number density = 19.750561 Si / 1000 Ang^3
#
#
#
# Elastic Constant Matrix: (Units=GPa)
#
#
# Indices 1 2 3 4 5 6 
#
# 1 109.6476 -0.3155 75.5743 0.0000 0.0000 0.0000
# 2 -0.3155 19.5821 53.3284 0.0000 0.0000 0.0000
# 3 75.5743 53.3284 144.7388 0.0000 0.0000 0.0000
# 4 0.0000 0.0000 0.0000 29.0863 0.0000 0.0000
# 5 0.0000 0.0000 0.0000 0.0000 8.8800 0.0000
# 6 0.0000 0.0000 0.0000 0.0000 0.0000 12.3262
#
#
#
# Elastic Compliance Matrix: (Units=1/GPa)
#
#
# Indices 1 2 3 4 5 6 
#
# 1 0.000083 -0.035303 0.012964 0.000000 0.000000 0.000000
# 2 -0.035303 -0.087988 0.050852 0.000000 0.000000 0.000000
# 3 0.012964 0.050852 -0.018596 0.000000 0.000000 0.000000
# 4 0.000000 0.000000 0.000000 0.034380 0.000000 0.000000
# 5 0.000000 0.000000 0.000000 0.000000 0.112612 0.000000
# 6 0.000000 0.000000 0.000000 0.000000 0.000000 0.081128
#
#
# Mechanical properties :
#
#
# Convention : Reuss Voigt Hill
#
# Bulk Modulus (GPa) = -20.21218 59.01588 19.40185
# Shear Modulus (GPa) = 103.94489 19.75061 61.84775
#
# Velocity S-wave (km/s) = 7.26244 3.16571 5.60200
# Velocity P-wave (km/s) = 7.75037 6.58087 7.18944
#
# Compressibility (1/GPa) = -0.04947513
#
# Stress axis : x y z
#
# Youngs Moduli (GPa) = 11994.68575 -11.36519 -53.77480
#
# Poissons Ratio (x) = -0.40122 0.69712
# Poissons Ratio (y) = 423.44598 2.73455
# Poissons Ratio (z) = -155.49485 0.57794
#
# Static dielectric constant tensor:
#      x y z
#    x 1.677660 0.000000 0.000000 
#    y 0.000000 1.669860 0.000000 
#    z 0.000000 0.000000 1.701180 
# 
# From -- ./inp_files/14994.got.cif
#   From: 2010.05.17/outbox.cif.g08.bks.cpg/sg38_8_cif.got.tgz:14994.got - 2010.06.03 18:07:57.
