data_PCOD9358982
_publ_section_title
;
Structure prediction by ZEFSAII (Michael W. Deem and Ramdas Pophale) SiO2 
 PCOD9358982
Probable space group: A M M 2
;
_chemical_formula_sum "Si O2"
_cell_formula_units_Z 64
_cell_length_a 7.856209
_cell_length_b 31.733652
_cell_length_c 12.320847
_cell_angle_alpha 90.000000
_cell_angle_beta 90.000000
_cell_angle_gamma 90.000000
_cell_volume 3071.663576
_symmetry_space_group_name_H-M "A M M 2"
_symmetry_group_IT_number 38
_symmetry_cell_setting 'orthorhombic'
loop_
_space_group_symop_operation_xyz
x,y,z
-x,-y,z
-x,y,z
x,-y,z
x,1/2+y,1/2+z
-x,1/2-y,1/2+z
-x,1/2+y,1/2+z
x,1/2-y,1/2+z
loop_
_atom_site_type_symbol
_atom_site_label
_atom_site_fract_x
_atom_site_fract_y
_atom_site_fract_z
Si Si1 0.698286 0.953889 0.437570
Si Si2 0.792028 0.546720 0.458542
Si Si3 0.200967 0.371228 0.065410
Si Si4 0.206194 0.798588 0.964423
Si Si5 0.208531 0.625047 0.311372
Si Si6 0.696581 0.338918 0.692029
Si Si7 0.793482 0.204080 0.413293
Si Si8 0.194959 0.432721 0.699703
O O1 0.500000 0.953338 0.466340
O O2 0.779043 0.914065 0.497385
O O3 0.714221 0.948136 0.308024
O O4 0.770080 0.000000 0.466887
O O5 0.743583 0.500000 0.420566
O O6 0.734631 0.584683 0.381574
O O7 0.734969 0.553028 0.583106
O O8 0.000000 0.548633 0.461280
O O9 0.269411 0.375693 0.187354
O O10 0.000000 0.363164 0.077261
O O11 0.270187 0.331683 0.996914
O O12 0.259144 0.832191 0.872953
O O13 0.264362 0.751093 0.941890
O O14 0.000000 0.798401 0.966106
O O15 0.266960 0.815436 0.080074
O O16 0.000000 0.623816 0.311020
O O17 0.500000 0.351545 0.697337
O O18 0.739104 0.309585 0.793570
O O19 0.801455 0.382025 0.699025
O O20 0.000000 0.203945 0.415786
O O21 0.000000 0.447388 0.707416
#
# Coordination Sequence:
#
# PCOD9358982 Si02
#       8
#     8   8   8   8   8   8   8   8
#     4  11  24  40  58  84 120 159 195 238 299 363
#     4   9  17  30  53  86 118 146 183 239 299 345
#     4  10  21  37  59  87 115 151 200 249 294 347
#     4  10  21  39  64  90 118 154 198 247 296 348
#     4   9  18  34  56  86 119 149 190 245 296 342
#     4  12  24  38  60  89 125 160 194 239 299 361
#     4  10  22  38  62  90 117 154 203 251 292 345
#     4  11  20  36  61  88 117 152 201 249 294 344
#
# _framework density 20.835615000000001
#
# number of rings (size 3 to 8) (size 9 to 14) (size 15 to 20)
#    0.000    1.750    2.500    2.250    1.750    2.500 
#    0.000    1.875    0.000    0.000    0.000    0.000 
#    0.000    0.000    0.000    0.000    0.000    0.000 
#
# Total GULP energy -178823.513751 kJ/mol
# GULP energy per Si atom -5588.234805 kJ/mol
# Density = 2.078819 g / cm^3
# Si number density = 20.835615 Si / 1000 Ang^3
#
#
#
# Elastic Constant Matrix: (Units=GPa)
#
#
# Indices 1 2 3 4 5 6 
#
# 1 28.6273 3.2599 1.1811 0.0000 0.0000 0.0000
# 2 3.2599 167.6794 72.9034 0.0000 0.0000 0.0000
# 3 1.1811 72.9034 149.4314 0.0000 0.0000 0.0000
# 4 0.0000 0.0000 0.0000 31.6346 0.0000 0.0000
# 5 0.0000 0.0000 0.0000 0.0000 50.6947 0.0000
# 6 0.0000 0.0000 0.0000 0.0000 0.0000 -52.7887
#
#
#
# Elastic Compliance Matrix: (Units=1/GPa)
#
#
# Indices 1 2 3 4 5 6 
#
# 1 0.035010 -0.000711 0.000070 0.000000 0.000000 0.000000
# 2 -0.000711 0.007584 -0.003694 0.000000 0.000000 0.000000
# 3 0.000070 -0.003694 0.008494 0.000000 0.000000 0.000000
# 4 0.000000 0.000000 0.000000 0.031611 0.000000 0.000000
# 5 0.000000 0.000000 0.000000 0.000000 0.019726 0.000000
# 6 0.000000 0.000000 0.000000 0.000000 0.000000 -0.018943
#
#
# Mechanical properties :
#
#
# Convention : Reuss Voigt Hill
#
# Bulk Modulus (GPa) = 23.57546 55.60298 39.58922
# Shear Modulus (GPa) = 47.04096 23.80103 35.42100
#
# Velocity S-wave (km/s) = 4.75670 3.38350 4.12760
# Velocity P-wave (km/s) = 6.44266 6.48140 6.46206
#
# Compressibility (1/GPa) = 0.04241699
#
# Stress axis : x y z
#
# Youngs Moduli (GPa) = 28.56340 131.86022 117.73266
#
# Poissons Ratio (x) = 0.09378 -0.00827
# Poissons Ratio (y) = 0.02031 0.43494
# Poissons Ratio (z) = -0.00201 0.48713
#
# Static dielectric constant tensor:
#      x y z
#    x 1.746870 0.000000 0.000000 
#    y 0.000000 1.732530 0.000000 
#    z 0.000000 0.000000 1.706470 
# 
# From -- ./inp_files/8533.got.cif
#   From: 2010.05.17/outbox.cif.g08.bks.cpg/sg38_5_cif.got.tgz:8533.got - 2010.06.03 18:07:57.
