data_PCOD9358418
_publ_section_title
;
Structure prediction by ZEFSAII (Michael W. Deem and Ramdas Pophale) SiO2 
 PCOD9358418
Probable space group: A M M 2
;
_chemical_formula_sum "Si O2"
_cell_formula_units_Z 48
_cell_length_a 8.858297
_cell_length_b 10.263386
_cell_length_c 28.293804
_cell_angle_alpha 90.000000
_cell_angle_beta 90.000000
_cell_angle_gamma 90.000000
_cell_volume 2572.362920
_symmetry_space_group_name_H-M "A M M 2"
_symmetry_group_IT_number 38
_symmetry_cell_setting 'orthorhombic'
loop_
_space_group_symop_operation_xyz
x,y,z
-x,-y,z
-x,y,z
x,-y,z
x,1/2+y,1/2+z
-x,1/2-y,1/2+z
-x,1/2+y,1/2+z
x,1/2-y,1/2+z
loop_
_atom_site_type_symbol
_atom_site_label
_atom_site_fract_x
_atom_site_fract_y
_atom_site_fract_z
Si Si1 0.182573 0.652598 0.629540
Si Si2 0.184075 0.000000 0.472767
Si Si3 0.680742 0.152545 0.706919
Si Si4 0.176110 0.247536 0.803861
Si Si5 0.815825 0.000000 0.362943
Si Si6 0.182028 0.764697 0.023570
Si Si7 0.324570 0.000000 0.967430
Si Si8 0.168613 0.500000 0.371970
O O1 0.227422 0.500000 0.635710
O O2 0.250230 0.751853 0.667569
O O3 0.226879 0.702666 0.577273
O O4 0.000000 0.656407 0.632672
O O5 0.231317 0.126902 0.502078
O O6 0.234550 0.000000 0.417815
O O7 0.000000 0.000000 0.471422
O O8 0.500000 0.154369 0.703602
O O9 0.732503 0.209201 0.757428
O O10 0.730186 0.000000 0.702497
O O11 0.230064 0.373061 0.833160
O O12 0.000000 0.269597 0.790286
O O13 0.180189 0.126010 0.839300
O O14 0.000000 0.000000 0.364643
O O15 0.000000 0.768687 0.022366
O O16 0.246552 0.875140 0.990057
O O17 0.292756 0.000000 0.911992
O O18 0.500000 0.000000 0.978287
O O19 0.000000 0.500000 0.394286
#
# Coordination Sequence:
#
# PCOD9358418 Si02
#       8
#     8   4   8   8   4   8   4   4
#     4  10  22  40  64  92 119 151 198 256 303 351
#     4   9  18  34  62  93 120 152 193 246 298 347
#     4  11  25  42  60  86 122 161 197 243 302 366
#     4  10  20  37  61  87 116 153 199 250 297 346
#     4   9  18  32  54  89 122 147 185 239 296 345
#     4  10  20  39  64  90 119 153 200 252 300 349
#     4  12  24  36  57  88 123 164 199 238 299 364
#     4  10  20  36  61  86 113 155 203 251 297 344
#
# _framework density 18.659887000000001
#
# number of rings (size 3 to 8) (size 9 to 14) (size 15 to 20)
#    0.000    1.833    1.667    2.250    2.333    5.333 
#    0.000    0.417    0.000    1.000    0.000    0.000 
#    0.000    0.000    0.000    0.000    0.000    0.000 
#
# Total GULP energy -133992.922462 kJ/mol
# GULP energy per Si atom -5583.038436 kJ/mol
# Density = 1.861742 g / cm^3
# Si number density = 18.659887 Si / 1000 Ang^3
#
#
#
# Elastic Constant Matrix: (Units=GPa)
#
#
# Indices 1 2 3 4 5 6 
#
# 1 12.6488 32.4844 31.0550 0.0000 0.0000 0.0000
# 2 32.4844 194.4221 82.1895 0.0000 0.0000 0.0000
# 3 31.0550 82.1895 125.1282 0.0000 0.0000 0.0000
# 4 0.0000 0.0000 0.0000 37.2799 0.0000 0.0000
# 5 0.0000 0.0000 0.0000 0.0000 -40.9384 0.0000
# 6 0.0000 0.0000 0.0000 0.0000 0.0000 24.9999
#
#
#
# Elastic Compliance Matrix: (Units=1/GPa)
#
#
# Indices 1 2 3 4 5 6 
#
# 1 0.256325 -0.022060 -0.049126 0.000000 0.000000 0.000000
# 2 -0.022060 0.009019 -0.000449 0.000000 0.000000 0.000000
# 3 -0.049126 -0.000449 0.020479 0.000000 0.000000 0.000000
# 4 0.000000 0.000000 0.000000 0.026824 0.000000 0.000000
# 5 0.000000 0.000000 0.000000 0.000000 -0.024427 0.000000
# 6 0.000000 0.000000 0.000000 0.000000 0.000000 0.040000
#
#
# Mechanical properties :
#
#
# Convention : Reuss Voigt Hill
#
# Bulk Modulus (GPa) = 7.01494 69.29523 38.15508
# Shear Modulus (GPa) = 9.63373 16.69962 13.16667
#
# Velocity S-wave (km/s) = 2.27464 2.99481 2.65922
# Velocity P-wave (km/s) = 3.26592 7.01250 5.46998
#
# Compressibility (1/GPa) = 0.14255299
#
# Stress axis : x y z
#
# Youngs Moduli (GPa) = 3.90129 110.87526 48.82963
#
# Poissons Ratio (x) = 2.44588 2.39883
# Poissons Ratio (y) = 0.08606 0.02194
# Poissons Ratio (z) = 0.19166 0.04981
#
# Static dielectric constant tensor:
#      x y z
#    x 1.636510 0.000000 0.000000 
#    y 0.000000 1.638060 0.000000 
#    z 0.000000 0.000000 1.621910 
# 
# From -- ./inp_files/24497.got.cif
#   From: 2010.05.17/outbox.cif.g08.bks.cpg/sg38_13_cif.got.tgz:24497.got - 2010.06.03 18:07:57.
