data_PCOD9358430
_publ_section_title
;
Structure prediction by ZEFSAII (Michael W. Deem and Ramdas Pophale) SiO2 
 PCOD9358430
Probable space group: A M M 2
;
_chemical_formula_sum "Si O2"
_cell_formula_units_Z 48
_cell_length_a 13.767589
_cell_length_b 20.884454
_cell_length_c 8.887953
_cell_angle_alpha 90.000000
_cell_angle_beta 90.000000
_cell_angle_gamma 90.000000
_cell_volume 2555.540498
_symmetry_space_group_name_H-M "A M M 2"
_symmetry_group_IT_number 38
_symmetry_cell_setting 'orthorhombic'
loop_
_space_group_symop_operation_xyz
x,y,z
-x,-y,z
-x,y,z
x,-y,z
x,1/2+y,1/2+z
-x,1/2-y,1/2+z
-x,1/2+y,1/2+z
x,1/2-y,1/2+z
loop_
_atom_site_type_symbol
_atom_site_label
_atom_site_fract_x
_atom_site_fract_y
_atom_site_fract_z
Si Si1 0.113489 0.928379 0.441420
Si Si2 0.389332 0.157389 0.767406
Si Si3 0.886365 0.189584 0.940271
Si Si4 0.797931 0.074202 0.770087
Si Si5 0.196698 0.311344 0.764625
Si Si6 0.388518 0.286836 0.933478
O O1 0.173802 0.921121 0.594550
O O2 0.140768 0.872926 0.327482
O O3 0.000000 0.923573 0.480834
O O4 0.130998 0.000000 0.380365
O O5 0.500000 0.133418 0.762896
O O6 0.309624 0.103108 0.788717
O O7 0.382527 0.211218 0.896951
O O8 0.370769 0.193428 0.606845
O O9 0.868280 0.121887 0.859807
O O10 0.850239 0.247041 0.834046
O O11 0.000000 0.198074 0.977218
O O12 0.820361 0.192267 0.088193
O O13 0.805346 0.000000 0.815018
O O14 0.306392 0.316429 0.826291
O O15 0.500000 0.305784 0.896871
#
# Coordination Sequence:
#
# PCOD9358430 Si02
#       6
#     8   8   8   8   8   8
#     4  10  21  38  60  84 116 157 198 242 296 360
#     4  10  20  37  61  91 120 153 195 245 300 360
#     4  12  25  38  59  89 119 158 203 253 301 354
#     4  11  23  40  59  84 119 161 202 247 300 353
#     4  12  22  40  62  89 121 155 198 250 303 356
#     4  10  20  36  61  92 120 149 191 242 301 353
#
# _framework density 18.782720999999999
#
# number of rings (size 3 to 8) (size 9 to 14) (size 15 to 20)
#    0.000    1.167    3.333    4.000    0.000    2.000 
#    0.000    0.000    0.000    0.500    0.000    0.000 
#    0.000    0.000    0.000    0.000    0.000    0.000 
#
# Total GULP energy -134091.128835 kJ/mol
# GULP energy per Si atom -5587.130368 kJ/mol
# Density = 1.873997 g / cm^3
# Si number density = 18.782721 Si / 1000 Ang^3
#
#
#
# Elastic Constant Matrix: (Units=GPa)
#
#
# Indices 1 2 3 4 5 6 
#
# 1 88.6085 15.6320 0.1452 0.0000 0.0000 0.0000
# 2 15.6320 103.2400 28.8420 0.0000 0.0000 0.0000
# 3 0.1452 28.8420 53.6763 0.0000 0.0000 0.0000
# 4 0.0000 0.0000 0.0000 25.7726 0.0000 0.0000
# 5 0.0000 0.0000 0.0000 0.0000 26.4090 0.0000
# 6 0.0000 0.0000 0.0000 0.0000 0.0000 30.4342
#
#
#
# Elastic Compliance Matrix: (Units=1/GPa)
#
#
# Indices 1 2 3 4 5 6 
#
# 1 0.011648 -0.002065 0.001078 0.000000 0.000000 0.000000
# 2 -0.002065 0.011763 -0.006315 0.000000 0.000000 0.000000
# 3 0.001078 -0.006315 0.022021 0.000000 0.000000 0.000000
# 4 0.000000 0.000000 0.000000 0.038801 0.000000 0.000000
# 5 0.000000 0.000000 0.000000 0.000000 0.037866 0.000000
# 6 0.000000 0.000000 0.000000 0.000000 0.000000 0.032858
#
#
# Mechanical properties :
#
#
# Convention : Reuss Voigt Hill
#
# Bulk Modulus (GPa) = 32.43818 37.19591 34.81705
# Shear Modulus (GPa) = 27.80310 29.91687 28.85998
#
# Velocity S-wave (km/s) = 3.85157 3.99530 3.92410
# Velocity P-wave (km/s) = 6.08993 6.41323 6.25367
#
# Compressibility (1/GPa) = 0.03082787
#
# Stress axis : x y z
#
# Youngs Moduli (GPa) = 85.85083 85.01198 45.41211
#
# Poissons Ratio (x) = 0.17554 -0.04895
# Poissons Ratio (y) = 0.17727 0.28678
# Poissons Ratio (z) = -0.09255 0.53686
#
# Static dielectric constant tensor:
#      x y z
#    x 1.674550 0.000000 0.000000 
#    y 0.000000 1.625910 0.000000 
#    z 0.000000 0.000000 1.636470 
# 
# From -- ./inp_files/5446.got.cif
#   From: 2010.05.17/outbox.cif.g08.bks.cpg/sg38_3_cif.got.tgz:5446.got - 2010.06.03 18:07:57.
