data_PCOD9358529
_publ_section_title
;
Structure prediction by ZEFSAII (Michael W. Deem and Ramdas Pophale) SiO2 
 PCOD9358529
Probable space group: A M M 2
;
_chemical_formula_sum "Si O2"
_cell_formula_units_Z 40
_cell_length_a 15.648723
_cell_length_b 8.388196
_cell_length_c 14.510084
_cell_angle_alpha 90.000000
_cell_angle_beta 90.000000
_cell_angle_gamma 90.000000
_cell_volume 1904.659729
_symmetry_space_group_name_H-M "A M M 2"
_symmetry_group_IT_number 38
_symmetry_cell_setting 'orthorhombic'
loop_
_space_group_symop_operation_xyz
x,y,z
-x,-y,z
-x,y,z
x,-y,z
x,1/2+y,1/2+z
-x,1/2-y,1/2+z
-x,1/2+y,1/2+z
x,1/2-y,1/2+z
loop_
_atom_site_type_symbol
_atom_site_label
_atom_site_fract_x
_atom_site_fract_y
_atom_site_fract_z
Si Si1 0.408714 0.811558 0.710800
Si Si2 0.098556 0.811040 0.354326
Si Si3 0.592986 0.187149 0.487093
Si Si4 0.777322 0.688870 0.206310
Si Si5 0.228275 0.815556 0.003327
O O1 0.500000 0.740742 0.741423
O O2 0.408470 0.803626 0.599016
O O3 0.316131 0.746321 0.738288
O O4 0.409196 0.000000 0.734164
O O5 0.146253 0.773209 0.258980
O O6 0.153909 0.724759 0.432333
O O7 0.000000 0.759522 0.353003
O O8 0.101312 0.000000 0.371446
O O9 0.500000 0.248713 0.455650
O O10 0.678985 0.276222 0.459469
O O11 0.599429 0.000000 0.463308
O O12 0.780222 0.500000 0.225787
O O13 0.782168 0.714871 0.096751
O O14 0.226932 0.000000 0.029108
#
# Coordination Sequence:
#
# PCOD9358529 Si02
#       5
#     8   8   8   8   8
#     4   7  11  23  47  79 112 146 182 218 262 321
#     4  11  25  44  63  83 110 147 195 250 302 352
#     4   8  14  28  52  81 115 155 195 234 278 331
#     4  10  20  37  62  89 118 153 191 234 287 345
#     4  11  22  37  60  89 121 156 194 237 287 347
#
# _framework density 21.001127
#
# number of rings (size 3 to 8) (size 9 to 14) (size 15 to 20)
#    0.000    2.600    0.000    5.400    0.000    2.800 
#    0.000    1.000    0.000    5.400    0.000    0.000 
#    0.000    0.000    0.000    0.000    0.000    0.000 
#
# Total GULP energy -111610.608223 kJ/mol
# GULP energy per Si atom -5580.530411 kJ/mol
# Density = 2.095333 g / cm^3
# Si number density = 21.001127 Si / 1000 Ang^3
#
#
#
# Elastic Constant Matrix: (Units=GPa)
#
#
# Indices 1 2 3 4 5 6 
#
# 1 199.5583 23.1408 26.9727 0.0000 0.0000 0.0000
# 2 23.1408 31.7509 -13.3422 0.0000 0.0000 0.0000
# 3 26.9727 -13.3422 58.6840 0.0000 0.0000 0.0000
# 4 0.0000 0.0000 0.0000 21.1622 0.0000 0.0000
# 5 0.0000 0.0000 0.0000 0.0000 38.5141 0.0000
# 6 0.0000 0.0000 0.0000 0.0000 0.0000 22.4462
#
#
#
# Elastic Compliance Matrix: (Units=1/GPa)
#
#
# Indices 1 2 3 4 5 6 
#
# 1 0.006356 -0.006479 -0.004395 0.000000 0.000000 0.000000
# 2 -0.006479 0.041427 0.012397 0.000000 0.000000 0.000000
# 3 -0.004395 0.012397 0.021879 0.000000 0.000000 0.000000
# 4 0.000000 0.000000 0.000000 0.047254 0.000000 0.000000
# 5 0.000000 0.000000 0.000000 0.000000 0.025964 0.000000
# 6 0.000000 0.000000 0.000000 0.000000 0.000000 0.044551
#
#
# Mechanical properties :
#
#
# Convention : Reuss Voigt Hill
#
# Bulk Modulus (GPa) = 13.75373 40.39286 27.07330
# Shear Modulus (GPa) = 23.96674 33.30596 28.63635
#
# Velocity S-wave (km/s) = 3.38185 3.98667 3.69665
# Velocity P-wave (km/s) = 4.67038 6.36135 5.58029
#
# Compressibility (1/GPa) = 0.07270756
#
# Stress axis : x y z
#
# Youngs Moduli (GPa) = 157.32108 24.13888 45.70618
#
# Poissons Ratio (x) = 0.15641 0.20087
# Poissons Ratio (y) = 1.01936 -0.56661
# Poissons Ratio (z) = 0.69138 -0.29925
#
# Static dielectric constant tensor:
#      x y z
#    x 1.778880 0.000000 0.000000 
#    y 0.000000 1.715680 0.000000 
#    z 0.000000 0.000000 1.775690 
# 
# From -- ./inp_files/14271.got.cif
#   From: 2010.05.17/outbox.cif.g08.bks.cpg/sg38_8_cif.got.tgz:14271.got - 2010.06.03 18:07:57.
