data_PCOD9358798
_publ_section_title
;
Structure prediction by ZEFSAII (Michael W. Deem and Ramdas Pophale) SiO2 
 PCOD9358798
Probable space group: A M M 2
;
_chemical_formula_sum "Si O2"
_cell_formula_units_Z 56
_cell_length_a 9.392667
_cell_length_b 14.023906
_cell_length_c 19.766183
_cell_angle_alpha 90.000000
_cell_angle_beta 90.000000
_cell_angle_gamma 90.000000
_cell_volume 2603.638767
_symmetry_space_group_name_H-M "A M M 2"
_symmetry_group_IT_number 38
_symmetry_cell_setting 'orthorhombic'
loop_
_space_group_symop_operation_xyz
x,y,z
-x,-y,z
-x,y,z
x,-y,z
x,1/2+y,1/2+z
-x,1/2-y,1/2+z
-x,1/2+y,1/2+z
x,1/2-y,1/2+z
loop_
_atom_site_type_symbol
_atom_site_label
_atom_site_fract_x
_atom_site_fract_y
_atom_site_fract_z
Si Si1 0.328045 0.608743 0.926230
Si Si2 0.648452 0.610823 0.297438
Si Si3 0.339190 0.107617 0.636253
Si Si4 0.847771 0.113106 0.901561
Si Si5 0.330364 0.614104 0.769045
Si Si6 0.830829 0.707972 0.642311
Si Si7 0.668483 0.296005 0.510808
O O1 0.500000 0.605576 0.926255
O O2 0.278150 0.500000 0.940623
O O3 0.289512 0.633386 0.847876
O O4 0.290995 0.689718 0.981446
O O5 0.500000 0.658452 0.319893
O O6 0.641916 0.500000 0.318348
O O7 0.649588 0.607982 0.217381
O O8 0.793766 0.648104 0.328534
O O9 0.500000 0.135126 0.611818
O O10 0.214395 0.182564 0.627060
O O11 0.312558 0.000000 0.612751
O O12 0.719626 0.138386 0.949997
O O13 0.000000 0.155952 0.921344
O O14 0.864508 0.000000 0.901161
O O15 0.500000 0.634185 0.760771
O O16 0.311186 0.500000 0.759243
O O17 0.242913 0.670425 0.711411
O O18 0.752371 0.665196 0.576384
O O19 0.000000 0.693919 0.643661
O O20 0.500000 0.300643 0.521153
#
# Coordination Sequence:
#
# PCOD9358798 Si02
#       7
#     8   8   8   8   8   8   8
#     4   8  17  37  66  96 119 145 194 259 315 360
#     4   8  15  30  53  80 107 139 184 231 273 327
#     4   9  19  37  60  84 113 153 200 245 287 341
#     4  10  21  36  54  80 118 157 189 231 291 354
#     4   9  19  40  69  95 119 153 203 262 317 371
#     4  12  26  40  56  86 127 166 201 247 310 376
#     4  11  23  39  61  88 117 157 205 252 302 363
#
# _framework density 21.50836
#
# number of rings (size 3 to 8) (size 9 to 14) (size 15 to 20)
#    0.000    2.429    0.000    3.857    2.000    3.143 
#    0.000    3.571    0.000    3.000    0.000    0.000 
#    0.000    0.000    0.000    0.000    0.000    0.000 
#
# Total GULP energy -155968.991711 kJ/mol
# GULP energy per Si atom -5570.321133 kJ/mol
# Density = 2.145941 g / cm^3
# Si number density = 21.508360 Si / 1000 Ang^3
#
#
#
# Elastic Constant Matrix: (Units=GPa)
#
#
# Indices 1 2 3 4 5 6 
#
# 1 90.3542 31.2478 39.9419 0.0000 0.0000 0.0000
# 2 31.2478 71.2314 13.5838 0.0000 0.0000 0.0000
# 3 39.9419 13.5838 105.7153 0.0000 0.0000 0.0000
# 4 0.0000 0.0000 0.0000 -5.9007 0.0000 0.0000
# 5 0.0000 0.0000 0.0000 0.0000 56.1928 0.0000
# 6 0.0000 0.0000 0.0000 0.0000 0.0000 20.2460
#
#
#
# Elastic Compliance Matrix: (Units=1/GPa)
#
#
# Indices 1 2 3 4 5 6 
#
# 1 0.015279 -0.005743 -0.005035 0.000000 0.000000 0.000000
# 2 -0.005743 0.016550 0.000043 0.000000 0.000000 0.000000
# 3 -0.005035 0.000043 0.011356 0.000000 0.000000 0.000000
# 4 0.000000 0.000000 0.000000 -0.169472 0.000000 0.000000
# 5 0.000000 0.000000 0.000000 0.000000 0.017796 0.000000
# 6 0.000000 0.000000 0.000000 0.000000 0.000000 0.049392
#
#
# Mechanical properties :
#
#
# Convention : Reuss Voigt Hill
#
# Bulk Modulus (GPa) = 46.04838 48.53868 47.29353
# Shear Modulus (GPa) = -164.52206 26.27612 -69.12297
#
# Velocity S-wave (km/s) = -8.75547 3.49903 -5.67516
# Velocity P-wave (km/s) = 8.98637 6.24024 4.57243
#
# Compressibility (1/GPa) = 0.02171629
#
# Stress axis : x y z
#
# Youngs Moduli (GPa) = 65.44794 60.42415 88.05774
#
# Poissons Ratio (x) = 0.34699 0.44337
# Poissons Ratio (y) = 0.37584 -0.00380
# Poissons Ratio (z) = 0.32953 -0.00261
#
# Static dielectric constant tensor:
#      x y z
#    x 1.732550 0.000000 0.000000 
#    y 0.000000 1.915650 0.000000 
#    z 0.000000 0.000000 1.869260 
# 
# From -- ./inp_files/19780.got.cif
#   From: 2010.05.17/outbox.cif.g08.bks.cpg/sg38_10_cif.got.tgz:19780.got - 2010.06.03 18:07:57.
