data_PCOD9358751
_publ_section_title
;
Structure prediction by ZEFSAII (Michael W. Deem and Ramdas Pophale) SiO2 
 PCOD9358751
Probable space group: A M M 2
;
_chemical_formula_sum "Si O2"
_cell_formula_units_Z 64
_cell_length_a 19.964436
_cell_length_b 8.169604
_cell_length_c 21.267677
_cell_angle_alpha 90.000000
_cell_angle_beta 90.000000
_cell_angle_gamma 90.000000
_cell_volume 3468.790790
_symmetry_space_group_name_H-M "A M M 2"
_symmetry_group_IT_number 38
_symmetry_cell_setting 'orthorhombic'
loop_
_space_group_symop_operation_xyz
x,y,z
-x,-y,z
-x,y,z
x,-y,z
x,1/2+y,1/2+z
-x,1/2-y,1/2+z
-x,1/2+y,1/2+z
x,1/2-y,1/2+z
loop_
_atom_site_type_symbol
_atom_site_label
_atom_site_fract_x
_atom_site_fract_y
_atom_site_fract_z
Si Si1 0.575494 0.197352 0.086210
Si Si2 0.074754 0.696779 0.357615
Si Si3 0.212805 0.700157 0.159388
Si Si4 0.710963 0.806027 0.785283
Si Si5 0.287398 0.197568 0.533661
Si Si6 0.576197 0.302317 0.731206
Si Si7 0.213293 0.693650 0.909392
Si Si8 0.925371 0.699581 0.212249
O O1 0.500000 0.251540 0.069329
O O2 0.588693 0.250813 0.158650
O O3 0.575369 0.000000 0.086659
O O4 0.635138 0.255716 0.042110
O O5 0.073076 0.500000 0.356471
O O6 0.137446 0.746641 0.399479
O O7 0.086419 0.749730 0.284950
O O8 0.000000 0.754242 0.376408
O O9 0.214211 0.500000 0.158732
O O10 0.252948 0.754192 0.221469
O O11 0.135999 0.752434 0.168989
O O12 0.247982 0.756854 0.095773
O O13 0.632933 0.767385 0.776172
O O14 0.744589 0.732844 0.846904
O O15 0.721485 0.000000 0.788513
O O16 0.251628 0.260476 0.470697
O O17 0.284220 0.000000 0.533369
O O18 0.500000 0.255048 0.747229
O O19 0.579757 0.500000 0.732444
O O20 0.209820 0.500000 0.916448
O O21 0.925362 0.500000 0.212213
O O22 0.000000 0.753165 0.193718
#
# Coordination Sequence:
#
# PCOD9358751 Si02
#       8
#     8   8   8   8   8   8   8   8
#     4   9  18  33  54  80 107 135 171 217 267 322
#     4   9  17  32  55  80 104 135 180 225 265 317
#     4   9  16  29  50  76 102 128 169 221 263 303
#     4  11  20  33  56  80 104 136 180 228 263 308
#     4  10  21  36  52  76 109 144 179 217 262 318
#     4   9  18  33  53  80 113 141 168 212 274 333
#     4  11  23  36  51  76 114 149 178 218 270 323
#     4   8  13  24  47  77 102 125 162 215 265 302
#
# _framework density 18.450233000000001
#
# number of rings (size 3 to 8) (size 9 to 14) (size 15 to 20)
#    0.000    2.500    2.500    2.250    0.000    1.750 
#    0.000    2.500    0.000    3.000    0.000    0.000 
#    0.000    0.000    0.000    0.000    0.000    0.000 
#
# Total GULP energy -178447.176043 kJ/mol
# GULP energy per Si atom -5576.474251 kJ/mol
# Density = 1.840824 g / cm^3
# Si number density = 18.450233 Si / 1000 Ang^3
#
#
#
# Elastic Constant Matrix: (Units=GPa)
#
#
# Indices 1 2 3 4 5 6 
#
# 1 168.4048 7.9237 79.1035 0.0000 0.0000 0.0000
# 2 7.9237 8.7688 8.5692 0.0000 0.0000 0.0000
# 3 79.1035 8.5692 107.1912 0.0000 0.0000 0.0000
# 4 0.0000 0.0000 0.0000 15.9155 0.0000 0.0000
# 5 0.0000 0.0000 0.0000 0.0000 28.2889 0.0000
# 6 0.0000 0.0000 0.0000 0.0000 0.0000 23.7902
#
#
#
# Elastic Compliance Matrix: (Units=1/GPa)
#
#
# Indices 1 2 3 4 5 6 
#
# 1 0.009115 -0.001804 -0.006582 0.000000 0.000000 0.000000
# 2 -0.001804 0.124063 -0.008587 0.000000 0.000000 0.000000
# 3 -0.006582 -0.008587 0.014873 0.000000 0.000000 0.000000
# 4 0.000000 0.000000 0.000000 0.062832 0.000000 0.000000
# 5 0.000000 0.000000 0.000000 0.000000 0.035349 0.000000
# 6 0.000000 0.000000 0.000000 0.000000 0.000000 0.042034
#
#
# Mechanical properties :
#
#
# Convention : Reuss Voigt Hill
#
# Bulk Modulus (GPa) = 8.76387 52.83974 30.80181
# Shear Modulus (GPa) = 13.87938 26.18347 20.03143
#
# Velocity S-wave (km/s) = 2.74571 3.77124 3.29857
# Velocity P-wave (km/s) = 3.84867 6.90393 5.58912
#
# Compressibility (1/GPa) = 0.11410482
#
# Stress axis : x y z
#
# Youngs Moduli (GPa) = 109.71238 8.06043 67.23598
#
# Poissons Ratio (x) = 0.01454 0.44256
# Poissons Ratio (y) = 0.19792 0.57734
# Poissons Ratio (z) = 0.72214 0.06921
#
# Static dielectric constant tensor:
#      x y z
#    x 1.654600 0.000000 0.000000 
#    y 0.000000 1.656150 0.000000 
#    z 0.000000 0.000000 1.619660 
# 
# From -- ./inp_files/18998.got.cif
#   From: 2010.05.17/outbox.cif.g08.bks.cpg/sg38_10_cif.got.tgz:18998.got - 2010.06.03 18:07:57.
