data_PCOD9358731
_publ_section_title
;
Structure prediction by ZEFSAII (Michael W. Deem and Ramdas Pophale) SiO2 
 PCOD9358731
Probable space group: A M M 2
;
_chemical_formula_sum "Si O2"
_cell_formula_units_Z 64
_cell_length_a 8.788097
_cell_length_b 25.634681
_cell_length_c 15.371974
_cell_angle_alpha 90.000000
_cell_angle_beta 90.000000
_cell_angle_gamma 90.000000
_cell_volume 3462.999274
_symmetry_space_group_name_H-M "A M M 2"
_symmetry_group_IT_number 38
_symmetry_cell_setting 'orthorhombic'
loop_
_space_group_symop_operation_xyz
x,y,z
-x,-y,z
-x,y,z
x,-y,z
x,1/2+y,1/2+z
-x,1/2-y,1/2+z
-x,1/2+y,1/2+z
x,1/2-y,1/2+z
loop_
_atom_site_type_symbol
_atom_site_label
_atom_site_fract_x
_atom_site_fract_y
_atom_site_fract_z
Si Si1 0.678377 0.774813 0.351590
Si Si2 0.184127 0.560940 0.999801
Si Si3 0.818713 0.335221 0.337556
Si Si4 0.817731 0.559838 0.649237
Si Si5 0.182683 0.138007 0.651337
Si Si6 0.682716 0.147443 0.025994
Si Si7 0.678193 0.736433 0.059305
Si Si8 0.317173 0.392337 0.822504
O O1 0.500000 0.765185 0.331161
O O2 0.776053 0.725503 0.322523
O O3 0.690561 0.777297 0.456704
O O4 0.723490 0.830990 0.314827
O O5 0.223283 0.500000 0.006402
O O6 0.255910 0.585743 0.913574
O O7 0.000000 0.564916 0.993363
O O8 0.235279 0.593624 0.084297
O O9 0.767062 0.366000 0.251424
O O10 0.737659 0.352177 0.426289
O O11 0.000000 0.340280 0.348295
O O12 0.776078 0.500000 0.629590
O O13 0.750911 0.599969 0.579528
O O14 0.752804 0.575809 0.743115
O O15 0.000000 0.563757 0.650710
O O16 0.232951 0.193749 0.613629
O O17 0.000000 0.136239 0.652515
O O18 0.500000 0.146131 0.028260
O O19 0.730043 0.203556 0.066744
O O20 0.500000 0.733892 0.082980
O O21 0.500000 0.395652 0.821106
#
# Coordination Sequence:
#
# PCOD9358731 Si02
#       8
#     8   8   8   8   8   8   8   8
#     4   9  19  35  53  80 116 154 191 230 285 347
#     4  10  21  38  58  81 115 157 198 242 290 344
#     4  10  21  36  56  85 119 154 194 242 292 348
#     4  11  25  43  62  86 116 152 197 246 295 350
#     4  10  21  35  54  84 117 152 196 239 288 343
#     4  10  22  41  62  86 115 152 195 243 297 351
#     4   9  18  34  55  81 113 148 186 231 286 343
#     4  11  22  37  58  86 119 155 194 239 292 351
#
# _framework density 18.481089000000001
#
# number of rings (size 3 to 8) (size 9 to 14) (size 15 to 20)
#    0.000    2.000    1.250    2.625    1.750    7.250 
#    0.000    0.625    0.000    2.250    0.000    0.000 
#    0.000    0.000    0.000    0.000    0.000    0.000 
#
# Total GULP energy -178716.306250 kJ/mol
# GULP energy per Si atom -5584.884570 kJ/mol
# Density = 1.843902 g / cm^3
# Si number density = 18.481089 Si / 1000 Ang^3
#
#
#
# Elastic Constant Matrix: (Units=GPa)
#
#
# Indices 1 2 3 4 5 6 
#
# 1 27.1178 32.9763 22.8173 0.0000 0.0000 0.0000
# 2 32.9763 120.5401 60.5014 0.0000 0.0000 0.0000
# 3 22.8173 60.5014 91.4888 0.0000 0.0000 0.0000
# 4 0.0000 0.0000 0.0000 28.8729 0.0000 0.0000
# 5 0.0000 0.0000 0.0000 0.0000 -20.4732 0.0000
# 6 0.0000 0.0000 0.0000 0.0000 0.0000 18.6768
#
#
#
# Elastic Compliance Matrix: (Units=1/GPa)
#
#
# Indices 1 2 3 4 5 6 
#
# 1 0.057293 -0.012726 -0.005873 0.000000 0.000000 0.000000
# 2 -0.012726 0.015244 -0.006907 0.000000 0.000000 0.000000
# 3 -0.005873 -0.006907 0.016963 0.000000 0.000000 0.000000
# 4 0.000000 0.000000 0.000000 0.034634 0.000000 0.000000
# 5 0.000000 0.000000 0.000000 0.000000 -0.048844 0.000000
# 6 0.000000 0.000000 0.000000 0.000000 0.000000 0.053542
#
#
# Mechanical properties :
#
#
# Convention : Reuss Voigt Hill
#
# Bulk Modulus (GPa) = 25.98245 52.41519 39.19882
# Shear Modulus (GPa) = 25.95051 13.60542 19.77797
#
# Velocity S-wave (km/s) = 3.75128 2.71621 3.27490
# Velocity P-wave (km/s) = 5.73169 6.18548 5.96290
#
# Compressibility (1/GPa) = 0.03848752
#
# Stress axis : x y z
#
# Youngs Moduli (GPa) = 17.45413 65.59853 58.95248
#
# Poissons Ratio (x) = 0.83479 0.34625
# Poissons Ratio (y) = 0.22212 0.40720
# Poissons Ratio (z) = 0.10251 0.45310
#
# Static dielectric constant tensor:
#      x y z
#    x 1.618570 0.000000 0.000000 
#    y 0.000000 1.623010 0.000000 
#    z 0.000000 0.000000 1.638530 
# 
# From -- ./inp_files/12731.got.cif
#   From: 2010.05.17/outbox.cif.g08.bks.cpg/sg38_7_cif.got.tgz:12731.got - 2010.06.03 18:07:57.
