data_PCOD9358612
_publ_section_title
;
Structure prediction by ZEFSAII (Michael W. Deem and Ramdas Pophale) SiO2 
 PCOD9358612
Probable space group: A M M 2
;
_chemical_formula_sum "Si O2"
_cell_formula_units_Z 56
_cell_length_a 15.935012
_cell_length_b 14.853762
_cell_length_c 11.466042
_cell_angle_alpha 90.000000
_cell_angle_beta 90.000000
_cell_angle_gamma 90.000000
_cell_volume 2713.953386
_symmetry_space_group_name_H-M "A M M 2"
_symmetry_group_IT_number 38
_symmetry_cell_setting 'orthorhombic'
loop_
_space_group_symop_operation_xyz
x,y,z
-x,-y,z
-x,y,z
x,-y,z
x,1/2+y,1/2+z
-x,1/2-y,1/2+z
-x,1/2+y,1/2+z
x,1/2-y,1/2+z
loop_
_atom_site_type_symbol
_atom_site_label
_atom_site_fract_x
_atom_site_fract_y
_atom_site_fract_z
Si Si1 0.324174 0.104568 0.007760
Si Si2 0.730832 0.208135 0.625811
Si Si3 0.089441 0.215125 0.754943
Si Si4 0.140106 0.097425 0.242480
Si Si5 0.595203 0.284230 0.316959
Si Si6 0.309975 0.395152 0.890386
Si Si7 0.138959 0.903548 0.961683
O O1 0.299056 0.189853 0.090179
O O2 0.238052 0.097054 0.934913
O O3 0.339664 0.000000 0.050990
O O4 0.395232 0.147188 0.925955
O O5 0.825087 0.203458 0.678928
O O6 0.661642 0.182404 0.721333
O O7 0.724535 0.144187 0.512963
O O8 0.089617 0.319410 0.786605
O O9 0.000000 0.190400 0.698288
O O10 0.098000 0.167193 0.878573
O O11 0.233320 0.104270 0.297520
O O12 0.135361 0.104562 0.101400
O O13 0.107422 0.000000 0.274763
O O14 0.500000 0.282898 0.274477
O O15 0.623715 0.182332 0.352618
O O16 0.338750 0.500000 0.899555
O O17 0.102603 0.000000 0.931309
#
# Coordination Sequence:
#
# PCOD9358612 Si02
#       7
#     8   8   8   8   8   8   8
#     4  10  20  39  66  90 122 168 217 265 317 374
#     4  11  22  41  63  96 133 172 211 261 329 390
#     4  12  24  38  63  96 131 170 216 268 324 385
#     4  10  21  41  65  91 121 164 218 266 313 376
#     4  11  23  40  64  94 131 170 216 268 318 384
#     4  10  22  42  68  92 126 171 214 263 327 387
#     4  10  20  39  65  89 120 165 214 265 316 376
#
# _framework density 20.634105000000002
#
# number of rings (size 3 to 8) (size 9 to 14) (size 15 to 20)
#    0.000    1.429    4.286    0.857    0.000    5.714 
#    0.000    1.429    0.000    0.857    0.000    0.000 
#    0.000    0.000    0.000    0.000    0.000    0.000 
#
# Total GULP energy -155911.247496 kJ/mol
# GULP energy per Si atom -5568.258839 kJ/mol
# Density = 2.058714 g / cm^3
# Si number density = 20.634105 Si / 1000 Ang^3
#
#
#
# Elastic Constant Matrix: (Units=GPa)
#
#
# Indices 1 2 3 4 5 6 
#
# 1 121.1564 21.2633 35.6117 0.0000 0.0000 0.0000
# 2 21.2633 130.7335 59.1151 0.0000 0.0000 0.0000
# 3 35.6117 59.1151 88.1016 0.0000 0.0000 0.0000
# 4 0.0000 0.0000 0.0000 25.5126 0.0000 0.0000
# 5 0.0000 0.0000 0.0000 0.0000 -4.0389 0.0000
# 6 0.0000 0.0000 0.0000 0.0000 0.0000 18.3503
#
#
#
# Elastic Compliance Matrix: (Units=1/GPa)
#
#
# Indices 1 2 3 4 5 6 
#
# 1 0.009373 0.000271 -0.003971 0.000000 0.000000 0.000000
# 2 0.000271 0.010989 -0.007483 0.000000 0.000000 0.000000
# 3 -0.003971 -0.007483 0.017976 0.000000 0.000000 0.000000
# 4 0.000000 0.000000 0.000000 0.039196 0.000000 0.000000
# 5 0.000000 0.000000 0.000000 0.000000 -0.247595 0.000000
# 6 0.000000 0.000000 0.000000 0.000000 0.000000 0.054495
#
#
# Mechanical properties :
#
#
# Convention : Reuss Voigt Hill
#
# Bulk Modulus (GPa) = 62.60400 63.55243 63.07821
# Shear Modulus (GPa) = -56.89829 22.89823 -17.00003
#
# Velocity S-wave (km/s) = -5.25688 3.33487 -2.87345
# Velocity P-wave (km/s) = 2.53779 6.75981 4.43027
#
# Compressibility (1/GPa) = 0.01597342
#
# Stress axis : x y z
#
# Youngs Moduli (GPa) = 106.68568 91.00306 55.62881
#
# Poissons Ratio (x) = -0.02465 0.22088
# Poissons Ratio (y) = -0.02890 0.41626
# Poissons Ratio (z) = 0.42360 0.68095
#
# Static dielectric constant tensor:
#      x y z
#    x 1.738430 0.000000 0.000000 
#    y 0.000000 1.792830 0.000000 
#    z 0.000000 0.000000 1.778370 
# 
# From -- ./inp_files/10111.got.cif
#   From: 2010.05.17/outbox.cif.g08.bks.cpg/sg38_6_cif.got.tgz:10111.got - 2010.06.03 18:07:57.
