data_PCOD9358177
_publ_section_title
;
Structure prediction by ZEFSAII (Michael W. Deem and Ramdas Pophale) SiO2 
 PCOD9358177
Probable space group: A M M 2
;
_chemical_formula_sum "Si O2"
_cell_formula_units_Z 40
_cell_length_a 10.563433
_cell_length_b 7.465152
_cell_length_c 27.048842
_cell_angle_alpha 90.000000
_cell_angle_beta 90.000000
_cell_angle_gamma 90.000000
_cell_volume 2133.007655
_symmetry_space_group_name_H-M "A M M 2"
_symmetry_group_IT_number 38
_symmetry_cell_setting 'orthorhombic'
loop_
_space_group_symop_operation_xyz
x,y,z
-x,-y,z
-x,y,z
x,-y,z
x,1/2+y,1/2+z
-x,1/2-y,1/2+z
-x,1/2+y,1/2+z
x,1/2-y,1/2+z
loop_
_atom_site_type_symbol
_atom_site_label
_atom_site_fract_x
_atom_site_fract_y
_atom_site_fract_z
Si Si1 0.500000 0.282142 0.798070
Si Si2 0.000000 0.000000 0.887278
Si Si3 0.348751 0.213263 0.526250
Si Si4 0.751439 0.787679 0.240739
Si Si5 0.357414 0.214045 0.638026
Si Si6 0.500000 0.500000 0.383453
Si Si7 0.253321 0.500000 0.452181
Si Si8 0.000000 0.781037 0.300006
O O1 0.500000 0.500000 0.803725
O O2 0.624123 0.224056 0.767676
O O3 0.500000 0.176605 0.849249
O O4 0.124931 0.000000 0.921128
O O5 0.000000 0.826294 0.851296
O O6 0.500000 0.243425 0.518491
O O7 0.321818 0.272617 0.582804
O O8 0.270010 0.327612 0.487478
O O9 0.326792 0.000000 0.521714
O O10 0.736905 0.753848 0.182538
O O11 0.876856 0.725079 0.268355
O O12 0.751966 0.000000 0.246801
O O13 0.500000 0.282745 0.649798
O O14 0.366811 0.000000 0.634864
O O15 0.373852 0.500000 0.415933
O O16 0.000000 0.000000 0.306466
#
# Coordination Sequence:
#
# PCOD9358177 Si02
#       8
#     4   2   8   8   8   2   4   4
#     4  10  22  36  53  85 117 141 196 258 296 353
#     4  12  28  44  66  86 118 174 216 256 320 354
#     4   9  19  38  62  92 128 155 195 258 313 367
#     4  10  20  35  56  85 117 159 195 239 303 360
#     4   9  18  31  56  93 124 157 192 236 307 369
#     4  12  24  36  62  86 110 154 208 260 308 342
#     4  12  24  42  62  94 114 164 216 256 314 358
#     4  10  24  44  59  81 123 163 206 254 304 367
#
# _framework density 18.752860999999999
#
# number of rings (size 3 to 8) (size 9 to 14) (size 15 to 20)
#    0.000    2.000    2.000    2.400    4.200    1.600 
#    0.000    1.000    0.000    2.400    0.000    0.000 
#    0.000    0.000    0.000    0.000    0.000    0.000 
#
# Total GULP energy -111627.213313 kJ/mol
# GULP energy per Si atom -5581.360666 kJ/mol
# Density = 1.871018 g / cm^3
# Si number density = 18.752861 Si / 1000 Ang^3
#
#
#
# Elastic Constant Matrix: (Units=GPa)
#
#
# Indices 1 2 3 4 5 6 
#
# 1 149.5673 41.3169 102.5255 0.0000 0.0000 0.0000
# 2 41.3169 78.7274 47.0679 0.0000 0.0000 0.0000
# 3 102.5255 47.0679 163.9026 0.0000 0.0000 0.0000
# 4 0.0000 0.0000 0.0000 42.2911 0.0000 0.0000
# 5 0.0000 0.0000 0.0000 0.0000 36.6615 0.0000
# 6 0.0000 0.0000 0.0000 0.0000 0.0000 4.1595
#
#
#
# Elastic Compliance Matrix: (Units=1/GPa)
#
#
# Indices 1 2 3 4 5 6 
#
# 1 0.012009 -0.002187 -0.006884 0.000000 0.000000 0.000000
# 2 -0.002187 0.015733 -0.003150 0.000000 0.000000 0.000000
# 3 -0.006884 -0.003150 0.011312 0.000000 0.000000 0.000000
# 4 0.000000 0.000000 0.000000 0.023646 0.000000 0.000000
# 5 0.000000 0.000000 0.000000 0.000000 0.027277 0.000000
# 6 0.000000 0.000000 0.000000 0.000000 0.000000 0.240414
#
#
# Mechanical properties :
#
#
# Convention : Reuss Voigt Hill
#
# Bulk Modulus (GPa) = 68.43636 86.00198 77.21917
# Shear Modulus (GPa) = 13.90039 30.04157 21.97098
#
# Velocity S-wave (km/s) = 2.72553 4.00681 3.42659
# Velocity P-wave (km/s) = 6.81746 8.20770 7.54467
#
# Compressibility (1/GPa) = 0.01461212
#
# Stress axis : x y z
#
# Youngs Moduli (GPa) = 83.27250 63.56048 88.40289
#
# Poissons Ratio (x) = 0.13899 0.60855
# Poissons Ratio (y) = 0.18210 0.27849
# Poissons Ratio (z) = 0.57323 0.20023
#
# Static dielectric constant tensor:
#      x y z
#    x 1.642660 0.000000 0.000000 
#    y 0.000000 1.668920 0.000000 
#    z 0.000000 0.000000 1.653120 
# 
# From -- ./inp_files/23319.got.cif
#   From: 2010.05.17/outbox.cif.g08.bks.cpg/sg38_12_cif.got.tgz:23319.got - 2010.06.03 18:07:57.
