data_PCOD9358555
_publ_section_title
;
Structure prediction by ZEFSAII (Michael W. Deem and Ramdas Pophale) SiO2 
 PCOD9358555
Probable space group: A M M 2
;
_chemical_formula_sum "Si O2"
_cell_formula_units_Z 48
_cell_length_a 7.761737
_cell_length_b 9.005133
_cell_length_c 35.483880
_cell_angle_alpha 90.000000
_cell_angle_beta 90.000000
_cell_angle_gamma 90.000000
_cell_volume 2480.162612
_symmetry_space_group_name_H-M "A M M 2"
_symmetry_group_IT_number 38
_symmetry_cell_setting 'orthorhombic'
loop_
_space_group_symop_operation_xyz
x,y,z
-x,-y,z
-x,y,z
x,-y,z
x,1/2+y,1/2+z
-x,1/2-y,1/2+z
-x,1/2+y,1/2+z
x,1/2-y,1/2+z
loop_
_atom_site_type_symbol
_atom_site_label
_atom_site_fract_x
_atom_site_fract_y
_atom_site_fract_z
Si Si1 0.706860 0.666834 0.250000
Si Si2 0.500000 0.322042 0.954203
Si Si3 0.291236 0.672473 0.674569
Si Si4 0.191263 0.680554 0.591409
Si Si5 0.793241 0.167579 0.326633
Si Si6 0.500000 0.680608 0.536548
Si Si7 0.794968 0.177099 0.904037
O O1 0.500000 0.659864 0.246636
O O2 0.773679 0.500000 0.255149
O O3 0.770265 0.738542 0.211053
O O4 0.744460 0.764090 0.286607
O O5 0.500000 0.500000 0.953665
O O6 0.669359 0.259640 0.932907
O O7 0.500000 0.258041 0.996382
O O8 0.500000 0.675507 0.673474
O O9 0.239071 0.500000 0.678519
O O10 0.228175 0.730418 0.634175
O O11 0.198700 0.500000 0.593074
O O12 0.334967 0.724496 0.561573
O O13 0.000000 0.725102 0.579873
O O14 0.743171 0.268464 0.362140
O O15 0.000000 0.160973 0.327512
O O16 0.725407 0.000000 0.330803
O O17 0.500000 0.500000 0.532022
O O18 0.000000 0.210046 0.909599
O O19 0.773316 0.000000 0.907225
#
# Coordination Sequence:
#
# PCOD9358555 Si02
#       7
#     8   4   8   8   8   4   8
#     4  10  21  34  50  77 113 155 198 240 285 339
#     4  12  26  42  64  93 124 163 198 238 299 364
#     4   9  16  30  51  75 107 147 190 241 293 340
#     4   9  17  31  56  86 112 144 188 238 293 350
#     4  10  21  37  57  82 114 152 193 241 295 349
#     4  10  20  38  60  85 116 147 188 242 291 348
#     4  10  22  42  67  93 122 157 200 251 301 355
#
# _framework density 19.353569
#
# number of rings (size 3 to 8) (size 9 to 14) (size 15 to 20)
#    0.000    2.167    0.833    2.250    1.167    4.333 
#    0.000    4.167    0.000    1.000    0.000    0.000 
#    0.000    0.000    0.000    0.000    0.000    0.000 
#
# Total GULP energy -134003.273467 kJ/mol
# GULP energy per Si atom -5583.469728 kJ/mol
# Density = 1.930952 g / cm^3
# Si number density = 19.353569 Si / 1000 Ang^3
#
#
#
# Elastic Constant Matrix: (Units=GPa)
#
#
# Indices 1 2 3 4 5 6 
#
# 1 88.5952 44.3030 71.5987 0.0000 0.0000 0.0000
# 2 44.3030 96.0102 64.0588 0.0000 0.0000 0.0000
# 3 71.5987 64.0588 180.5792 0.0000 0.0000 0.0000
# 4 0.0000 0.0000 0.0000 34.1609 0.0000 0.0000
# 5 0.0000 0.0000 0.0000 0.0000 -129.8809 0.0000
# 6 0.0000 0.0000 0.0000 0.0000 0.0000 14.8228
#
#
#
# Elastic Compliance Matrix: (Units=1/GPa)
#
#
# Indices 1 2 3 4 5 6 
#
# 1 0.018073 -0.004662 -0.005512 0.000000 0.000000 0.000000
# 2 -0.004662 0.014848 -0.003419 0.000000 0.000000 0.000000
# 3 -0.005512 -0.003419 0.008936 0.000000 0.000000 0.000000
# 4 0.000000 0.000000 0.000000 0.029273 0.000000 0.000000
# 5 0.000000 0.000000 0.000000 0.000000 -0.007699 0.000000
# 6 0.000000 0.000000 0.000000 0.000000 0.000000 0.067464
#
#
# Mechanical properties :
#
#
# Convention : Reuss Voigt Hill
#
# Bulk Modulus (GPa) = 68.15965 80.56730 74.36348
# Shear Modulus (GPa) = 30.68042 -3.83115 13.42463
#
# Velocity S-wave (km/s) = 3.98585 -1.40849 2.63658
# Velocity P-wave (km/s) = 7.51514 6.25095 6.91201
#
# Compressibility (1/GPa) = 0.01467144
#
# Stress axis : x y z
#
# Youngs Moduli (GPa) = 55.33042 67.35029 111.90672
#
# Poissons Ratio (x) = 0.31399 0.61685
# Poissons Ratio (y) = 0.25795 0.38257
# Poissons Ratio (z) = 0.30499 0.23025
#
# Static dielectric constant tensor:
#      x y z
#    x 1.701150 0.000000 0.000000 
#    y 0.000000 1.669900 0.000000 
#    z 0.000000 0.000000 1.639700 
# 
# From -- ./inp_files/24323.got.cif
#   From: 2010.05.17/outbox.cif.g08.bks.cpg/sg38_13_cif.got.tgz:24323.got - 2010.06.03 18:07:57.
