data_PCOD9358714
_publ_section_title
;
Structure prediction by ZEFSAII (Michael W. Deem and Ramdas Pophale) SiO2 
 PCOD9358714
Probable space group: A M M 2
;
_chemical_formula_sum "Si O2"
_cell_formula_units_Z 64
_cell_length_a 24.761723
_cell_length_b 7.544334
_cell_length_c 15.782290
_cell_angle_alpha 90.000000
_cell_angle_beta 90.000000
_cell_angle_gamma 90.000000
_cell_volume 2948.300780
_symmetry_space_group_name_H-M "A M M 2"
_symmetry_group_IT_number 38
_symmetry_cell_setting 'orthorhombic'
loop_
_space_group_symop_operation_xyz
x,y,z
-x,-y,z
-x,y,z
x,-y,z
x,1/2+y,1/2+z
-x,1/2-y,1/2+z
-x,1/2+y,1/2+z
x,1/2-y,1/2+z
loop_
_atom_site_type_symbol
_atom_site_label
_atom_site_fract_x
_atom_site_fract_y
_atom_site_fract_z
Si Si1 0.060721 0.787540 0.430060
Si Si2 0.143150 0.712369 0.581344
Si Si3 0.131771 0.782906 0.275036
Si Si4 0.618866 0.797643 0.536089
Si Si5 0.736854 0.213328 0.091403
Si Si6 0.748328 0.286195 0.790588
Si Si7 0.635935 0.218541 0.354787
Si Si8 0.439709 0.293846 0.705200
O O1 0.100033 0.752614 0.509158
O O2 0.087255 0.722523 0.342167
O O3 0.000000 0.719321 0.443252
O O4 0.057562 0.000000 0.422637
O O5 0.147468 0.500000 0.587763
O O6 0.127094 0.773825 0.676559
O O7 0.204150 0.775186 0.560020
O O8 0.190962 0.724919 0.307996
O O9 0.131079 0.000000 0.274285
O O10 0.683402 0.791920 0.550789
O O11 0.610261 0.722127 0.442816
O O12 0.588479 0.711294 0.614081
O O13 0.600429 0.000000 0.536273
O O14 0.736308 0.252338 0.191961
O O15 0.733197 0.000000 0.081906
O O16 0.749605 0.500000 0.797921
O O17 0.697991 0.221566 0.844983
O O18 0.601099 0.280949 0.275060
O O19 0.637507 0.000000 0.355577
O O20 0.500000 0.216836 0.704003
O O21 0.444883 0.500000 0.728174
#
# Coordination Sequence:
#
# PCOD9358714 Si02
#       8
#     8   8   8   8   8   8   8   8
#     4  10  21  35  52  77 108 141 178 222 273 328
#     4   9  19  35  56  81 105 139 183 227 269 311
#     4   8  16  31  52  76 102 137 179 219 261 313
#     4  11  22  33  54  88 116 139 173 224 278 316
#     4   9  17  33  56  79 110 145 179 217 264 326
#     4   8  13  27  53  77  99 133 176 217 253 305
#     4   9  18  32  53  81 107 138 180 217 258 317
#     4  10  21  40  62  77 100 146 191 221 260 322
#
# _framework density 21.707419999999999
#
# number of rings (size 3 to 8) (size 9 to 14) (size 15 to 20)
#    0.000    2.750    1.250    1.875    1.750    2.000 
#    0.000    4.375    0.000    0.750    0.000    0.000 
#    0.000    0.000    0.000    0.000    0.000    0.000 
#
# Total GULP energy -178589.022989 kJ/mol
# GULP energy per Si atom -5580.906968 kJ/mol
# Density = 2.165801 g / cm^3
# Si number density = 21.707420 Si / 1000 Ang^3
#
#
#
# Elastic Constant Matrix: (Units=GPa)
#
#
# Indices 1 2 3 4 5 6 
#
# 1 94.9888 -5.9743 24.9226 0.0000 0.0000 0.0000
# 2 -5.9743 48.5420 -5.0663 0.0000 0.0000 0.0000
# 3 24.9226 -5.0663 52.8300 0.0000 0.0000 0.0000
# 4 0.0000 0.0000 0.0000 13.4211 0.0000 0.0000
# 5 0.0000 0.0000 0.0000 0.0000 -15.4700 0.0000
# 6 0.0000 0.0000 0.0000 0.0000 0.0000 -1.3331
#
#
#
# Elastic Compliance Matrix: (Units=1/GPa)
#
#
# Indices 1 2 3 4 5 6 
#
# 1 0.012053 0.000899 -0.005600 0.000000 0.000000 0.000000
# 2 0.000899 0.020876 0.001578 0.000000 0.000000 0.000000
# 3 -0.005600 0.001578 0.021722 0.000000 0.000000 0.000000
# 4 0.000000 0.000000 0.000000 0.074510 0.000000 0.000000
# 5 0.000000 0.000000 0.000000 0.000000 -0.064641 0.000000
# 6 0.000000 0.000000 0.000000 0.000000 0.000000 -0.750129
#
#
# Mechanical properties :
#
#
# Convention : Reuss Voigt Hill
#
# Bulk Modulus (GPa) = 20.65904 24.90277 22.78091
# Shear Modulus (GPa) = -7.53889 11.48885 1.97498
#
# Velocity S-wave (km/s) = -1.86561 2.30306 0.95488
# Velocity P-wave (km/s) = 2.21293 4.30918 3.42535
#
# Compressibility (1/GPa) = 0.04840495
#
# Stress axis : x y z
#
# Youngs Moduli (GPa) = 82.96421 47.90184 46.03677
#
# Poissons Ratio (x) = -0.04306 0.25781
# Poissons Ratio (y) = -0.07458 -0.07264
# Poissons Ratio (z) = 0.46460 -0.07558
#
# Static dielectric constant tensor:
#      x y z
#    x 1.787200 0.000000 0.000000 
#    y 0.000000 1.856510 0.000000 
#    z 0.000000 0.000000 1.769730 
# 
# From -- ./inp_files/15775.got.cif
#   From: 2010.05.17/outbox.cif.g08.bks.cpg/sg38_8_cif.got.tgz:15775.got - 2010.06.03 18:07:57.
