data_PCOD9358468
_publ_section_title
;
Structure prediction by ZEFSAII (Michael W. Deem and Ramdas Pophale) SiO2 
 PCOD9358468
Probable space group: A M M 2
;
_chemical_formula_sum "Si O2"
_cell_formula_units_Z 40
_cell_length_a 8.752707
_cell_length_b 26.475149
_cell_length_c 9.590658
_cell_angle_alpha 90.000000
_cell_angle_beta 90.000000
_cell_angle_gamma 90.000000
_cell_volume 2222.435717
_symmetry_space_group_name_H-M "A M M 2"
_symmetry_group_IT_number 38
_symmetry_cell_setting 'orthorhombic'
loop_
_space_group_symop_operation_xyz
x,y,z
-x,-y,z
-x,y,z
x,-y,z
x,1/2+y,1/2+z
-x,1/2-y,1/2+z
-x,1/2+y,1/2+z
x,1/2-y,1/2+z
loop_
_atom_site_type_symbol
_atom_site_label
_atom_site_fract_x
_atom_site_fract_y
_atom_site_fract_z
Si Si1 0.682131 0.500000 0.582051
Si Si2 0.682925 0.297393 0.082527
Si Si3 0.816237 0.594857 0.083651
Si Si4 0.816873 0.408333 0.759244
Si Si5 0.683810 0.699908 0.755386
Si Si6 0.185399 0.000000 0.771612
O O1 0.500000 0.500000 0.579280
O O2 0.742494 0.451078 0.664711
O O3 0.746865 0.500000 0.425560
O O4 0.500000 0.301018 0.098202
O O5 0.754173 0.350556 0.127954
O O6 0.734562 0.248357 0.167343
O O7 0.716886 0.291108 0.918621
O O8 0.767435 0.549563 0.184197
O O9 0.000000 0.596516 0.084545
O O10 0.769910 0.585425 0.922279
O O11 0.763223 0.352500 0.714958
O O12 0.000000 0.412361 0.751812
O O13 0.500000 0.694287 0.739889
O O14 0.000000 0.000000 0.780225
#
# Coordination Sequence:
#
# PCOD9358468 Si02
#       6
#     4   8   8   8   8   4
#     4  12  25  38  54  80 110 140 175 218 266 320
#     4   9  18  32  51  75 107 142 177 217 261 308
#     4   9  19  36  58  80 105 139 181 222 264 316
#     4  10  20  37  59  81 106 140 179 220 264 315
#     4   9  18  33  51  75 106 141 178 217 260 309
#     4  10  21  38  56  78 108 140 175 222 272 316
#
# _framework density 17.998270999999999
#
# number of rings (size 3 to 8) (size 9 to 14) (size 15 to 20)
#    0.000    2.400    0.000    2.100    0.000    5.600 
#    0.000    3.000    0.000    0.000    0.000    0.000 
#    0.000    0.000    0.000    0.000    0.000    0.000 
#
# Total GULP energy -111629.630500 kJ/mol
# GULP energy per Si atom -5581.481525 kJ/mol
# Density = 1.795731 g / cm^3
# Si number density = 17.998271 Si / 1000 Ang^3
#
#
#
# Elastic Constant Matrix: (Units=GPa)
#
#
# Indices 1 2 3 4 5 6 
#
# 1 33.7775 55.6441 39.6029 0.0000 0.0000 0.0000
# 2 55.6441 208.6812 115.1663 0.0000 0.0000 0.0000
# 3 39.6029 115.1663 98.1887 0.0000 0.0000 0.0000
# 4 0.0000 0.0000 0.0000 39.6850 0.0000 0.0000
# 5 0.0000 0.0000 0.0000 0.0000 20.5408 0.0000
# 6 0.0000 0.0000 0.0000 0.0000 0.0000 31.7361
#
#
#
# Elastic Compliance Matrix: (Units=1/GPa)
#
#
# Indices 1 2 3 4 5 6 
#
# 1 0.060039 -0.007499 -0.015420 0.000000 0.000000 0.000000
# 2 -0.007499 0.014523 -0.014010 0.000000 0.000000 0.000000
# 3 -0.015420 -0.014010 0.032836 0.000000 0.000000 0.000000
# 4 0.000000 0.000000 0.000000 0.025198 0.000000 0.000000
# 5 0.000000 0.000000 0.000000 0.000000 0.048684 0.000000
# 6 0.000000 0.000000 0.000000 0.000000 0.000000 0.031510
#
#
# Mechanical properties :
#
#
# Convention : Reuss Voigt Hill
#
# Bulk Modulus (GPa) = 29.81478 84.60823 57.21150
# Shear Modulus (GPa) = 16.78824 27.07466 21.93145
#
# Velocity S-wave (km/s) = 3.05744 3.88273 3.49453
# Velocity P-wave (km/s) = 5.39122 8.19829 6.93820
#
# Compressibility (1/GPa) = 0.03354042
#
# Stress axis : x y z
#
# Youngs Moduli (GPa) = 16.65593 68.85455 30.45449
#
# Poissons Ratio (x) = 0.51637 0.46959
# Poissons Ratio (y) = 0.12491 0.42666
# Poissons Ratio (z) = 0.25683 0.96464
#
# Static dielectric constant tensor:
#      x y z
#    x 1.605500 0.000000 0.000000 
#    y 0.000000 1.593670 0.000000 
#    z 0.000000 0.000000 1.602970 
# 
# From -- ./inp_files/3504.got.cif
#   From: 2010.05.17/outbox.cif.g08.bks.cpg/sg38_2_cif.got.tgz:3504.got - 2010.06.03 18:07:57.
