data_PCOD9358180
_publ_section_title
;
Structure prediction by ZEFSAII (Michael W. Deem and Ramdas Pophale) SiO2 
 PCOD9358180
Probable space group: A M M 2
;
_chemical_formula_sum "Si O2"
_cell_formula_units_Z 48
_cell_length_a 12.942424
_cell_length_b 23.326882
_cell_length_c 7.645191
_cell_angle_alpha 90.000000
_cell_angle_beta 90.000000
_cell_angle_gamma 90.000000
_cell_volume 2308.132073
_symmetry_space_group_name_H-M "A M M 2"
_symmetry_group_IT_number 38
_symmetry_cell_setting 'orthorhombic'
loop_
_space_group_symop_operation_xyz
x,y,z
-x,-y,z
-x,y,z
x,-y,z
x,1/2+y,1/2+z
-x,1/2-y,1/2+z
-x,1/2+y,1/2+z
x,1/2-y,1/2+z
loop_
_atom_site_type_symbol
_atom_site_label
_atom_site_fract_x
_atom_site_fract_y
_atom_site_fract_z
Si Si1 0.885663 0.186933 0.616800
Si Si2 0.116407 0.431873 0.574739
Si Si3 0.254532 0.732052 0.411623
Si Si4 0.616742 0.679756 0.712865
Si Si5 0.167773 0.065275 0.671379
Si Si6 0.296573 0.066105 0.346219
O O1 0.839561 0.225631 0.463383
O O2 0.794939 0.195310 0.758165
O O3 0.891787 0.118988 0.589805
O O4 0.000000 0.206936 0.668033
O O5 0.103998 0.500000 0.591732
O O6 0.165290 0.424520 0.380551
O O7 0.193713 0.417739 0.732578
O O8 0.000000 0.405802 0.579649
O O9 0.298899 0.691522 0.561883
O O10 0.348084 0.773152 0.354679
O O11 0.500000 0.689468 0.652844
O O12 0.626485 0.616207 0.791743
O O13 0.271369 0.066992 0.553525
O O14 0.126893 0.000000 0.645421
O O15 0.324212 0.000000 0.300809
#
# Coordination Sequence:
#
# PCOD9358180 Si02
#       6
#     8   8   8   8   8   8
#     4  11  21  37  60  87 123 162 195 239 302 366
#     4   9  18  32  52  81 120 162 197 232 284 353
#     4  10  23  40  59  88 119 151 205 255 298 357
#     4  11  22  41  64  85 112 156 205 258 311 354
#     4  10  20  35  56  85 121 159 197 240 292 354
#     4  10  21  38  59  89 123 154 197 255 306 365
#
# _framework density 20.796036000000001
#
# number of rings (size 3 to 8) (size 9 to 14) (size 15 to 20)
#    0.000    1.833    1.667    2.500    0.000    2.667 
#    0.000    5.833    0.000    0.000    0.000    4.667 
#    0.000    0.000    0.000    0.000    0.000    0.000 
#
# Total GULP energy -133627.718186 kJ/mol
# GULP energy per Si atom -5567.821591 kJ/mol
# Density = 2.074870 g / cm^3
# Si number density = 20.796036 Si / 1000 Ang^3
#
#
#
# Elastic Constant Matrix: (Units=GPa)
#
#
# Indices 1 2 3 4 5 6 
#
# 1 64.7491 27.4034 8.5741 0.0000 0.0000 0.0000
# 2 27.4034 99.0885 6.7600 0.0000 0.0000 0.0000
# 3 8.5741 6.7600 51.4294 0.0000 0.0000 0.0000
# 4 0.0000 0.0000 0.0000 19.2934 0.0000 0.0000
# 5 0.0000 0.0000 0.0000 0.0000 15.5730 0.0000
# 6 0.0000 0.0000 0.0000 0.0000 0.0000 7.3570
#
#
#
# Elastic Compliance Matrix: (Units=1/GPa)
#
#
# Indices 1 2 3 4 5 6 
#
# 1 0.017766 -0.004754 -0.002337 0.000000 0.000000 0.000000
# 2 -0.004754 0.011455 -0.000713 0.000000 0.000000 0.000000
# 3 -0.002337 -0.000713 0.019927 0.000000 0.000000 0.000000
# 4 0.000000 0.000000 0.000000 0.051831 0.000000 0.000000
# 5 0.000000 0.000000 0.000000 0.000000 0.064214 0.000000
# 6 0.000000 0.000000 0.000000 0.000000 0.000000 0.135926
#
#
# Mechanical properties :
#
#
# Convention : Reuss Voigt Hill
#
# Bulk Modulus (GPa) = 29.81462 33.41580 31.61521
# Shear Modulus (GPa) = 15.24825 19.94666 17.59745
#
# Velocity S-wave (km/s) = 2.71076 3.10039 2.91209
# Velocity P-wave (km/s) = 4.91583 5.37771 5.15195
#
# Compressibility (1/GPa) = 0.03354060
#
# Stress axis : x y z
#
# Youngs Moduli (GPa) = 56.28864 87.29580 50.18200
#
# Poissons Ratio (x) = 0.41498 0.11727
# Poissons Ratio (y) = 0.26758 0.03579
# Poissons Ratio (z) = 0.13154 0.06226
#
# Static dielectric constant tensor:
#      x y z
#    x 1.721830 0.000000 0.000000 
#    y 0.000000 1.769880 0.000000 
#    z 0.000000 0.000000 1.775710 
# 
# From -- ./inp_files/4649.got.cif
#   From: 2010.05.17/outbox.cif.g08.bks.cpg/sg38_3_cif.got.tgz:4649.got - 2010.06.03 18:07:57.
