data_PCOD9358967
_publ_section_title
;
Structure prediction by ZEFSAII (Michael W. Deem and Ramdas Pophale) SiO2 
 PCOD9358967
Probable space group: A M M 2
;
_chemical_formula_sum "Si O2"
_cell_formula_units_Z 40
_cell_length_a 9.386771
_cell_length_b 16.142598
_cell_length_c 12.886418
_cell_angle_alpha 90.000000
_cell_angle_beta 90.000000
_cell_angle_gamma 90.000000
_cell_volume 1952.638595
_symmetry_space_group_name_H-M "A M M 2"
_symmetry_group_IT_number 38
_symmetry_cell_setting 'orthorhombic'
loop_
_space_group_symop_operation_xyz
x,y,z
-x,-y,z
-x,y,z
x,-y,z
x,1/2+y,1/2+z
-x,1/2-y,1/2+z
-x,1/2+y,1/2+z
x,1/2-y,1/2+z
loop_
_atom_site_type_symbol
_atom_site_label
_atom_site_fract_x
_atom_site_fract_y
_atom_site_fract_z
Si Si1 0.829973 0.400027 0.863480
Si Si2 0.157255 0.402837 0.471374
Si Si3 0.340963 0.597410 0.286708
Si Si4 0.332997 0.656547 0.659269
Si Si5 0.667031 0.658443 0.066684
O O1 0.806252 0.500000 0.860496
O O2 0.749758 0.358201 0.766246
O O3 0.000000 0.386095 0.857829
O O4 0.763743 0.363286 0.969105
O O5 0.139552 0.500000 0.449439
O O6 0.235771 0.364633 0.371435
O O7 0.256629 0.396901 0.571013
O O8 0.000000 0.366790 0.489776
O O9 0.500000 0.635098 0.295238
O O10 0.353962 0.500000 0.309532
O O11 0.293744 0.605380 0.168315
O O12 0.500000 0.637059 0.671808
O O13 0.321245 0.748597 0.611031
O O14 0.500000 0.642975 0.040798
#
# Coordination Sequence:
#
# PCOD9358967 Si02
#       5
#     8   8   8   8   8
#     4  11  25  44  66  94 129 169 213 260 314 379
#     4  10  21  37  58  86 120 157 200 250 304 364
#     4   9  18  35  60  87 116 153 197 246 301 362
#     4  11  24  40  62  91 125 163 208 258 308 366
#     4  10  23  41  63  91 124 161 206 258 309 365
#
# _framework density 20.485099999999999
#
# number of rings (size 3 to 8) (size 9 to 14) (size 15 to 20)
#    0.000    1.800    0.000    3.000    2.800    8.400 
#    0.000    2.000    0.000    0.000    0.000    0.000 
#    0.000    0.000    0.000    0.000    0.000    0.000 
#
# Total GULP energy -111652.376080 kJ/mol
# GULP energy per Si atom -5582.618804 kJ/mol
# Density = 2.043848 g / cm^3
# Si number density = 20.485100 Si / 1000 Ang^3
#
#
#
# Elastic Constant Matrix: (Units=GPa)
#
#
# Indices 1 2 3 4 5 6 
#
# 1 163.3476 39.3845 123.2899 0.0000 0.0000 0.0000
# 2 39.3845 28.1834 27.7158 0.0000 0.0000 0.0000
# 3 123.2899 27.7158 181.5871 0.0000 0.0000 0.0000
# 4 0.0000 0.0000 0.0000 9.2098 0.0000 0.0000
# 5 0.0000 0.0000 0.0000 0.0000 530.1401 0.0000
# 6 0.0000 0.0000 0.0000 0.0000 0.0000 13.4061
#
#
#
# Elastic Compliance Matrix: (Units=1/GPa)
#
#
# Indices 1 2 3 4 5 6 
#
# 1 0.016134 -0.013853 -0.008840 0.000000 0.000000 0.000000
# 2 -0.013853 0.053643 0.001218 0.000000 0.000000 0.000000
# 3 -0.008840 0.001218 0.011323 0.000000 0.000000 0.000000
# 4 0.000000 0.000000 0.000000 0.108580 0.000000 0.000000
# 5 0.000000 0.000000 0.000000 0.000000 0.001886 0.000000
# 6 0.000000 0.000000 0.000000 0.000000 0.000000 0.074593
#
#
# Mechanical properties :
#
#
# Convention : Reuss Voigt Hill
#
# Bulk Modulus (GPa) = 26.21231 83.76649 54.98940
# Shear Modulus (GPa) = 15.53635 122.73306 69.13471
#
# Velocity S-wave (km/s) = 2.75693 7.74877 5.81567
# Velocity P-wave (km/s) = 4.79143 11.00173 8.48516
#
# Compressibility (1/GPa) = 0.03815002
#
# Stress axis : x y z
#
# Youngs Moduli (GPa) = 61.98008 18.64185 88.31528
#
# Poissons Ratio (x) = 0.25825 0.78071
# Poissons Ratio (y) = 0.85862 -0.10758
# Poissons Ratio (z) = 0.54791 -0.02271
#
# Static dielectric constant tensor:
#      x y z
#    x 1.713620 0.000000 0.000000 
#    y 0.000000 1.856580 0.000000 
#    z 0.000000 0.000000 1.698510 
# 
# From -- ./inp_files/7766.got.cif
#   From: 2010.05.17/outbox.cif.g08.bks.cpg/sg38_4_cif.got.tgz:7766.got - 2010.06.03 18:07:57.
