data_PCOD9358148
_publ_section_title
;
Structure prediction by ZEFSAII (Michael W. Deem and Ramdas Pophale) SiO2 
 PCOD9358148
Probable space group: A M M 2
;
_chemical_formula_sum "Si O2"
_cell_formula_units_Z 48
_cell_length_a 7.823282
_cell_length_b 19.357874
_cell_length_c 15.137063
_cell_angle_alpha 90.000000
_cell_angle_beta 90.000000
_cell_angle_gamma 90.000000
_cell_volume 2292.388718
_symmetry_space_group_name_H-M "A M M 2"
_symmetry_group_IT_number 38
_symmetry_cell_setting 'orthorhombic'
loop_
_space_group_symop_operation_xyz
x,y,z
-x,-y,z
-x,y,z
x,-y,z
x,1/2+y,1/2+z
-x,1/2-y,1/2+z
-x,1/2+y,1/2+z
x,1/2-y,1/2+z
loop_
_atom_site_type_symbol
_atom_site_label
_atom_site_fract_x
_atom_site_fract_y
_atom_site_fract_z
Si Si1 0.705858 0.301018 0.852990
Si Si2 0.204163 0.144703 0.650790
Si Si3 0.205858 0.301018 0.650341
Si Si4 0.704163 0.355297 0.352540
Si Si5 0.797526 0.924139 0.028731
Si Si6 0.702474 0.075861 0.474599
O O1 0.500000 0.298390 0.861058
O O2 0.750000 0.317268 0.751665
O O3 0.769227 0.223062 0.871245
O O4 0.773757 0.360247 0.917725
O O5 0.269227 0.223062 0.632085
O O6 0.250000 0.127706 0.751665
O O7 0.275081 0.093752 0.577297
O O8 0.000000 0.144698 0.643265
O O9 0.273757 0.360247 0.585606
O O10 0.000000 0.298390 0.642273
O O11 0.500000 0.355302 0.360066
O O12 0.775081 0.406248 0.426033
O O13 0.000000 0.926590 0.047490
O O14 0.725318 0.000000 0.049077
O O15 0.500000 0.073410 0.455841
O O16 0.774682 0.000000 0.454254
#
# Coordination Sequence:
#
# PCOD9358148 Si02
#       6
#     8   8   8   8   8   8
#     4   9  19  35  55  79 105 135 172 214 258 303
#     4  10  20  35  56  79 103 134 174 217 258 304
#     4   9  19  35  55  79 105 135 172 214 258 303
#     4  10  20  35  56  79 103 134 174 217 258 304
#     4  10  21  36  53  76 108 141 171 209 258 308
#     4  10  21  36  53  76 108 141 171 209 258 308
#
# _framework density 20.938856999999999
#
# number of rings (size 3 to 8) (size 9 to 14) (size 15 to 20)
#    0.000    2.333    0.000    2.000    0.000    4.667 
#    0.000    0.000    0.000    0.000    0.000    0.000 
#    0.000    0.000    0.000    0.000    0.000    0.000 
#
# Total GULP energy -134015.210801 kJ/mol
# GULP energy per Si atom -5583.967117 kJ/mol
# Density = 2.089120 g / cm^3
# Si number density = 20.938857 Si / 1000 Ang^3
#
#
#
# Elastic Constant Matrix: (Units=GPa)
#
#
# Indices 1 2 3 4 5 6 
#
# 1 26.0108 -1.8404 -16.9148 0.0000 0.0000 0.0000
# 2 -1.8404 33.6054 15.2345 0.0000 0.0000 0.0000
# 3 -16.9148 15.2345 28.3436 0.0000 0.0000 0.0000
# 4 0.0000 0.0000 0.0000 -608.7138 0.0000 0.0000
# 5 0.0000 0.0000 0.0000 0.0000 25.1197 0.0000
# 6 0.0000 0.0000 0.0000 0.0000 0.0000 2.6937
#
#
#
# Elastic Compliance Matrix: (Units=1/GPa)
#
#
# Indices 1 2 3 4 5 6 
#
# 1 0.072214 -0.020602 0.054169 0.000000 0.000000 0.000000
# 2 -0.020602 0.045221 -0.036601 0.000000 0.000000 0.000000
# 3 0.054169 -0.036601 0.087281 0.000000 0.000000 0.000000
# 4 0.000000 0.000000 0.000000 -0.001643 0.000000 0.000000
# 5 0.000000 0.000000 0.000000 0.000000 0.039809 0.000000
# 6 0.000000 0.000000 0.000000 0.000000 0.000000 0.371235
#
#
# Mechanical properties :
#
#
# Convention : Reuss Voigt Hill
#
# Bulk Modulus (GPa) = 5.03400 8.99092 7.01246
# Shear Modulus (GPa) = 7.28436 -110.08136 -51.39850
#
# Velocity S-wave (km/s) = 1.86720 -7.25857 -4.95986
# Velocity P-wave (km/s) = 2.65668 8.12071 5.42624
#
# Compressibility (1/GPa) = 0.19864935
#
# Stress axis : x y z
#
# Youngs Moduli (GPa) = 13.84770 22.11347 11.45723
#
# Poissons Ratio (x) = 0.45558 -0.62063
# Poissons Ratio (y) = 0.28529 0.41935
# Poissons Ratio (z) = -0.75012 0.80937
#
# Static dielectric constant tensor:
#      x y z
#    x 1.746770 0.000000 0.000000 
#    y 0.000000 1.788100 0.000000 
#    z 0.000000 0.000000 1.709980 
# 
# From -- ./inp_files/12007.got.cif
#   From: 2010.05.17/outbox.cif.g08.bks.cpg/sg38_7_cif.got.tgz:12007.got - 2010.06.03 18:07:57.
