data_PCOD9358869
_publ_section_title
;
Structure prediction by ZEFSAII (Michael W. Deem and Ramdas Pophale) SiO2 
 PCOD9358869
Probable space group: A M M 2
;
_chemical_formula_sum "Si O2"
_cell_formula_units_Z 40
_cell_length_a 13.221436
_cell_length_b 8.732048
_cell_length_c 20.077984
_cell_angle_alpha 90.000000
_cell_angle_beta 90.000000
_cell_angle_gamma 90.000000
_cell_volume 2318.007545
_symmetry_space_group_name_H-M "A M M 2"
_symmetry_group_IT_number 38
_symmetry_cell_setting 'orthorhombic'
loop_
_space_group_symop_operation_xyz
x,y,z
-x,-y,z
-x,y,z
x,-y,z
x,1/2+y,1/2+z
-x,1/2-y,1/2+z
-x,1/2+y,1/2+z
x,1/2-y,1/2+z
loop_
_atom_site_type_symbol
_atom_site_label
_atom_site_fract_x
_atom_site_fract_y
_atom_site_fract_z
Si Si1 0.500000 0.324486 0.657730
Si Si2 0.883561 0.683688 0.757435
Si Si3 0.500000 0.324035 0.495789
Si Si4 0.117147 0.316952 0.402947
Si Si5 0.281304 0.686513 0.648424
Si Si6 0.714800 0.817635 0.500324
O O1 0.500000 0.500000 0.681883
O O2 0.500000 0.325530 0.576884
O O3 0.609116 0.257694 0.675504
O O4 0.874726 0.500000 0.767112
O O5 0.861769 0.764898 0.827334
O O6 0.807186 0.728354 0.699037
O O7 0.000000 0.717000 0.739156
O O8 0.500000 0.500000 0.473412
O O9 0.395338 0.242951 0.476643
O O10 0.124879 0.500000 0.408357
O O11 0.196653 0.240152 0.452305
O O12 0.000000 0.273216 0.417555
O O13 0.285442 0.500000 0.643221
O O14 0.267173 0.751621 0.574539
O O15 0.712599 0.000000 0.502841
#
# Coordination Sequence:
#
# PCOD9358869 Si02
#       6
#     4   8   4   8   8   8
#     4   7  12  25  46  69  94 127 163 197 237 289
#     4   9  18  33  52  73  99 132 170 213 260 309
#     4   9  17  33  54  75 104 139 173 209 255 311
#     4  10  21  37  55  73  99 139 181 218 262 315
#     4   9  17  31  51  74 101 135 171 207 252 306
#     4  11  21  33  53  81 109 136 172 217 261 306
#
# _framework density 17.256198999999999
#
# number of rings (size 3 to 8) (size 9 to 14) (size 15 to 20)
#    0.000    2.600    0.000    3.900    0.000    2.800 
#    0.000    3.000    0.000    2.400    0.000    0.000 
#    0.000    0.000    0.000    0.000    0.000    0.000 
#
# Total GULP energy -111478.412168 kJ/mol
# GULP energy per Si atom -5573.920608 kJ/mol
# Density = 1.721692 g / cm^3
# Si number density = 17.256199 Si / 1000 Ang^3
#
#
#
# Elastic Constant Matrix: (Units=GPa)
#
#
# Indices 1 2 3 4 5 6 
#
# 1 167.3722 63.0604 99.4942 0.0000 0.0000 0.0000
# 2 63.0604 65.3703 43.0538 0.0000 0.0000 0.0000
# 3 99.4942 43.0538 82.8876 0.0000 0.0000 0.0000
# 4 0.0000 0.0000 0.0000 26.5780 0.0000 0.0000
# 5 0.0000 0.0000 0.0000 0.0000 -26.4213 0.0000
# 6 0.0000 0.0000 0.0000 0.0000 0.0000 21.1219
#
#
#
# Elastic Compliance Matrix: (Units=1/GPa)
#
#
# Indices 1 2 3 4 5 6 
#
# 1 0.022256 -0.005889 -0.023655 0.000000 0.000000 0.000000
# 2 -0.005889 0.024810 -0.005818 0.000000 0.000000 0.000000
# 3 -0.023655 -0.005818 0.043481 0.000000 0.000000 0.000000
# 4 0.000000 0.000000 0.000000 0.037625 0.000000 0.000000
# 5 0.000000 0.000000 0.000000 0.000000 -0.037848 0.000000
# 6 0.000000 0.000000 0.000000 0.000000 0.000000 0.047344
#
#
# Mechanical properties :
#
#
# Convention : Reuss Voigt Hill
#
# Bulk Modulus (GPa) = 50.44885 80.76078 65.60482
# Shear Modulus (GPa) = 23.25569 11.59050 17.42310
#
# Velocity S-wave (km/s) = 3.67505 2.59447 3.18098
# Velocity P-wave (km/s) = 6.87798 7.47514 7.18277
#
# Compressibility (1/GPa) = 0.01982206
#
# Stress axis : x y z
#
# Youngs Moduli (GPa) = 44.93249 40.30560 22.99838
#
# Poissons Ratio (x) = 0.23738 0.54404
# Poissons Ratio (y) = 0.26462 0.13380
# Poissons Ratio (z) = 1.06290 0.23449
#
# Static dielectric constant tensor:
#      x y z
#    x 1.609510 0.000000 0.000000 
#    y 0.000000 1.583900 0.000000 
#    z 0.000000 0.000000 1.542510 
# 
# From -- ./inp_files/20501.got.cif
#   From: 2010.05.17/outbox.cif.g08.bks.cpg/sg38_11_cif.got.tgz:20501.got - 2010.06.03 18:07:57.
