data_PCOD9358260
_publ_section_title
;
Structure prediction by ZEFSAII (Michael W. Deem and Ramdas Pophale) SiO2 
 PCOD9358260
Probable space group: A M M 2
;
_chemical_formula_sum "Si O2"
_cell_formula_units_Z 64
_cell_length_a 24.564866
_cell_length_b 8.394399
_cell_length_c 15.701381
_cell_angle_alpha 90.000000
_cell_angle_beta 90.000000
_cell_angle_gamma 90.000000
_cell_volume 3237.739172
_symmetry_space_group_name_H-M "A M M 2"
_symmetry_group_IT_number 38
_symmetry_cell_setting 'orthorhombic'
loop_
_space_group_symop_operation_xyz
x,y,z
-x,-y,z
-x,y,z
x,-y,z
x,1/2+y,1/2+z
-x,1/2-y,1/2+z
-x,1/2+y,1/2+z
x,1/2-y,1/2+z
loop_
_atom_site_type_symbol
_atom_site_label
_atom_site_fract_x
_atom_site_fract_y
_atom_site_fract_z
Si Si1 0.137234 0.307762 0.843910
Si Si2 0.062097 0.194136 0.189712
Si Si3 0.324841 0.183978 0.991657
Si Si4 0.261887 0.311803 0.831658
Si Si5 0.439485 0.191930 0.750105
Si Si6 0.560908 0.189262 0.443279
Si Si7 0.673213 0.811728 0.670552
Si Si8 0.062298 0.192297 0.995596
O O1 0.137419 0.500000 0.842186
O O2 0.104256 0.250330 0.760714
O O3 0.199815 0.255208 0.842429
O O4 0.104696 0.255046 0.927320
O O5 0.000000 0.242929 0.210039
O O6 0.062620 0.000000 0.190217
O O7 0.074560 0.243289 0.092773
O O8 0.388868 0.224967 0.987240
O O9 0.305676 0.224924 0.086500
O O10 0.316357 0.000000 0.971785
O O11 0.294643 0.282936 0.918684
O O12 0.261813 0.500000 0.812603
O O13 0.291584 0.224606 0.753950
O O14 0.500000 0.226574 0.715630
O O15 0.388673 0.239863 0.692613
O O16 0.435796 0.000000 0.762649
O O17 0.434773 0.272963 0.842477
O O18 0.500000 0.239511 0.470110
O O19 0.565660 0.000000 0.457103
O O20 0.672483 0.000000 0.653356
O O21 0.000000 0.242663 0.975569
O O22 0.063141 0.000000 0.994141
#
# Coordination Sequence:
#
# PCOD9358260 Si02
#       8
#     8   8   8   8   8   8   8   8
#     4  10  21  36  58  85 112 149 195 241 289 341
#     4   8  15  31  55  82 114 150 185 223 275 341
#     4  12  25  41  62  86 115 158 203 246 297 354
#     4  11  24  42  60  84 119 155 201 256 301 351
#     4   9  18  34  58  87 118 150 185 229 288 360
#     4  10  20  35  59  89 120 152 188 238 297 354
#     4  11  23  40  63  89 117 154 195 243 303 361
#     4   9  18  33  55  85 120 155 190 231 280 338
#
# _framework density 19.766878999999999
#
# number of rings (size 3 to 8) (size 9 to 14) (size 15 to 20)
#    0.000    2.000    1.250    3.375    0.000    4.500 
#    0.000    3.125    0.000    0.750    0.000    0.000 
#    0.000    0.000    0.000    0.000    0.000    0.000 
#
# Total GULP energy -178741.957642 kJ/mol
# GULP energy per Si atom -5585.686176 kJ/mol
# Density = 1.972189 g / cm^3
# Si number density = 19.766879 Si / 1000 Ang^3
#
#
#
# Elastic Constant Matrix: (Units=GPa)
#
#
# Indices 1 2 3 4 5 6 
#
# 1 115.1430 5.0219 54.4356 0.0000 0.0000 0.0000
# 2 5.0219 13.4445 -6.3118 0.0000 0.0000 0.0000
# 3 54.4356 -6.3118 87.3161 0.0000 0.0000 0.0000
# 4 0.0000 0.0000 0.0000 26.7617 0.0000 0.0000
# 5 0.0000 0.0000 0.0000 0.0000 -6.4917 0.0000
# 6 0.0000 0.0000 0.0000 0.0000 0.0000 18.3344
#
#
#
# Elastic Compliance Matrix: (Units=1/GPa)
#
#
# Indices 1 2 3 4 5 6 
#
# 1 0.013328 -0.009191 -0.008974 0.000000 0.000000 0.000000
# 2 -0.009191 0.083331 0.011754 0.000000 0.000000 0.000000
# 3 -0.008974 0.011754 0.017897 0.000000 0.000000 0.000000
# 4 0.000000 0.000000 0.000000 0.037367 0.000000 0.000000
# 5 0.000000 0.000000 0.000000 0.000000 -0.154042 0.000000
# 6 0.000000 0.000000 0.000000 0.000000 0.000000 0.054542
#
#
# Mechanical properties :
#
#
# Convention : Reuss Voigt Hill
#
# Bulk Modulus (GPa) = 9.82957 35.79946 22.81451
# Shear Modulus (GPa) = 50.42554 18.57139 34.49847
#
# Velocity S-wave (km/s) = 5.05623 3.06849 4.18217
# Velocity P-wave (km/s) = 6.25067 5.54114 5.90657
#
# Compressibility (1/GPa) = 0.10173389
#
# Stress axis : x y z
#
# Youngs Moduli (GPa) = 75.02928 12.00032 55.87624
#
# Poissons Ratio (x) = 0.11030 0.50141
# Poissons Ratio (y) = 0.68962 -0.65676
# Poissons Ratio (z) = 0.67328 -0.14105
#
# Static dielectric constant tensor:
#      x y z
#    x 1.693530 0.000000 0.000000 
#    y 0.000000 1.679090 0.000000 
#    z 0.000000 0.000000 1.680520 
# 
# From -- ./inp_files/15855.got.cif
#   From: 2010.05.17/outbox.cif.g08.bks.cpg/sg38_8_cif.got.tgz:15855.got - 2010.06.03 18:07:57.
