data_PCOD9358027
_publ_section_title
;
Structure prediction by ZEFSAII (Michael W. Deem and Ramdas Pophale) SiO2 
 PCOD9358027
Probable space group: A M M 2
;
_chemical_formula_sum "Si O2"
_cell_formula_units_Z 48
_cell_length_a 7.797827
_cell_length_b 9.604171
_cell_length_c 35.649205
_cell_angle_alpha 90.000000
_cell_angle_beta 90.000000
_cell_angle_gamma 90.000000
_cell_volume 2669.828280
_symmetry_space_group_name_H-M "A M M 2"
_symmetry_group_IT_number 38
_symmetry_cell_setting 'orthorhombic'
loop_
_space_group_symop_operation_xyz
x,y,z
-x,-y,z
-x,y,z
x,-y,z
x,1/2+y,1/2+z
-x,1/2-y,1/2+z
-x,1/2+y,1/2+z
x,1/2-y,1/2+z
loop_
_atom_site_type_symbol
_atom_site_label
_atom_site_fract_x
_atom_site_fract_y
_atom_site_fract_z
Si Si1 0.705446 0.341328 0.297830
Si Si2 0.294872 0.656988 0.644652
Si Si3 0.000000 0.831491 0.006069
Si Si4 0.000000 0.333533 0.928714
Si Si5 0.796313 0.342570 0.215425
Si Si6 0.697355 0.330633 0.562386
Si Si7 0.298353 0.334282 0.869990
O O1 0.500000 0.348002 0.299960
O O2 0.773493 0.500000 0.300400
O O3 0.748414 0.285524 0.256478
O O4 0.759739 0.247877 0.332798
O O5 0.500000 0.647040 0.641080
O O6 0.226328 0.500000 0.650065
O O7 0.257943 0.750902 0.680323
O O8 0.239047 0.713465 0.603902
O O9 0.000000 0.754266 0.966579
O O10 0.168304 0.792404 0.030338
O O11 0.000000 0.000000 0.001461
O O12 0.830919 0.301931 0.903828
O O13 0.000000 0.500000 0.936303
O O14 0.723795 0.500000 0.212889
O O15 0.000000 0.351556 0.214348
O O16 0.500000 0.284873 0.555881
O O17 0.694207 0.500000 0.564036
O O18 0.500000 0.301482 0.877839
O O19 0.288260 0.500000 0.863051
#
# Coordination Sequence:
#
# PCOD9358027 Si02
#       7
#     8   8   4   4   8   8   8
#     4   9  18  33  52  73  99 133 171 212 255 296
#     4   9  18  33  53  75  99 133 177 220 258 299
#     4  10  20  34  56  81 102 133 169 204 255 310
#     4  10  22  38  54  77 108 135 161 204 259 308
#     4  10  21  33  46  72 108 142 173 210 257 306
#     4   8  16  32  53  78 106 133 168 215 259 300
#     4   9  19  36  56  76 101 135 171 207 252 306
#
# _framework density 17.978684000000001
#
# number of rings (size 3 to 8) (size 9 to 14) (size 15 to 20)
#    0.000    2.833    0.000    1.500    2.333    3.333 
#    0.000    2.500    0.000    1.000    0.000    0.000 
#    0.000    0.000    0.000    0.000    0.000    0.000 
#
# Total GULP energy -133743.121627 kJ/mol
# GULP energy per Si atom -5572.630068 kJ/mol
# Density = 1.793776 g / cm^3
# Si number density = 17.978684 Si / 1000 Ang^3
#
#
#
# Elastic Constant Matrix: (Units=GPa)
#
#
# Indices 1 2 3 4 5 6 
#
# 1 72.2052 29.2402 68.9941 0.0000 0.0000 0.0000
# 2 29.2402 39.7988 74.2501 0.0000 0.0000 0.0000
# 3 68.9941 74.2501 206.4045 0.0000 0.0000 0.0000
# 4 0.0000 0.0000 0.0000 36.9599 0.0000 0.0000
# 5 0.0000 0.0000 0.0000 0.0000 34.3766 0.0000
# 6 0.0000 0.0000 0.0000 0.0000 0.0000 13.0473
#
#
#
# Elastic Compliance Matrix: (Units=1/GPa)
#
#
# Indices 1 2 3 4 5 6 
#
# 1 0.020987 -0.007088 -0.004465 0.000000 0.000000 0.000000
# 2 -0.007088 0.078796 -0.025976 0.000000 0.000000 0.000000
# 3 -0.004465 -0.025976 0.015682 0.000000 0.000000 0.000000
# 4 0.000000 0.000000 0.000000 0.027056 0.000000 0.000000
# 5 0.000000 0.000000 0.000000 0.000000 0.029090 0.000000
# 6 0.000000 0.000000 0.000000 0.000000 0.000000 0.076644
#
#
# Mechanical properties :
#
#
# Convention : Reuss Voigt Hill
#
# Bulk Modulus (GPa) = 24.74934 73.70858 49.22896
# Shear Modulus (GPa) = 14.84643 26.60503 20.72573
#
# Velocity S-wave (km/s) = 2.87676 3.85100 3.39897
# Velocity P-wave (km/s) = 4.98298 7.80131 6.54563
#
# Compressibility (1/GPa) = 0.04040512
#
# Stress axis : x y z
#
# Youngs Moduli (GPa) = 47.64962 12.69105 63.76847
#
# Poissons Ratio (x) = 0.08996 0.28474
# Poissons Ratio (y) = 0.33776 1.65644
# Poissons Ratio (z) = 0.21276 0.32966
#
# Static dielectric constant tensor:
#      x y z
#    x 1.636180 0.000000 0.000000 
#    y 0.000000 1.584010 0.000000 
#    z 0.000000 0.000000 1.608820 
# 
# From -- ./inp_files/24347.got.cif
#   From: 2010.05.17/outbox.cif.g08.bks.cpg/sg38_13_cif.got.tgz:24347.got - 2010.06.03 18:07:57.
