data_PCOD9358905
_publ_section_title
;
Structure prediction by ZEFSAII (Michael W. Deem and Ramdas Pophale) SiO2 
 PCOD9358905
Probable space group: A M M 2
;
_chemical_formula_sum "Si O2"
_cell_formula_units_Z 64
_cell_length_a 20.856060
_cell_length_b 8.522204
_cell_length_c 19.180531
_cell_angle_alpha 90.000000
_cell_angle_beta 90.000000
_cell_angle_gamma 90.000000
_cell_volume 3409.139869
_symmetry_space_group_name_H-M "A M M 2"
_symmetry_group_IT_number 38
_symmetry_cell_setting 'orthorhombic'
loop_
_space_group_symop_operation_xyz
x,y,z
-x,-y,z
-x,y,z
x,-y,z
x,1/2+y,1/2+z
-x,1/2-y,1/2+z
-x,1/2+y,1/2+z
x,1/2-y,1/2+z
loop_
_atom_site_type_symbol
_atom_site_label
_atom_site_fract_x
_atom_site_fract_y
_atom_site_fract_z
Si Si1 0.927548 0.808807 0.022030
Si Si2 0.808494 0.191764 0.114289
Si Si3 0.426081 0.187837 0.617935
Si Si4 0.926224 0.189373 0.861249
Si Si5 0.426079 0.187967 0.271467
Si Si6 0.807969 0.812364 0.274373
Si Si7 0.311356 0.187835 0.863256
Si Si8 0.313904 0.189748 0.023387
O O1 0.873092 0.755609 0.075153
O O2 0.000000 0.757649 0.039282
O O3 0.927728 0.000000 0.023019
O O4 0.913233 0.764354 0.941858
O O5 0.804902 0.243715 0.194276
O O6 0.746855 0.241046 0.069579
O O7 0.809110 0.000000 0.114432
O O8 0.500000 0.234433 0.604340
O O9 0.408060 0.255579 0.693775
O O10 0.378134 0.249930 0.559762
O O11 0.423095 0.000000 0.621085
O O12 0.874231 0.261729 0.810240
O O13 0.000000 0.232620 0.845180
O O14 0.921710 0.000000 0.858002
O O15 0.500000 0.237577 0.284049
O O16 0.376431 0.255451 0.326740
O O17 0.423508 0.000000 0.273195
O O18 0.748945 0.747583 0.319095
O O19 0.803731 0.000000 0.273781
O O20 0.309952 0.000000 0.863255
O O21 0.307822 0.242280 0.943441
O O22 0.314782 0.000000 0.023784
#
# Coordination Sequence:
#
# PCOD9358905 Si02
#       8
#     8   8   8   8   8   8   8   8
#     4   8  14  28  52  77 100 132 175 218 259 310
#     4   9  18  32  50  75 105 135 173 221 269 319
#     4  10  21  37  58  84 113 144 180 224 273 328
#     4   9  18  34  56  79 105 141 182 223 271 330
#     4  10  21  38  60  84 113 149 185 224 273 328
#     4  11  22  34  53  81 111 143 179 225 282 338
#     4  11  23  38  58  82 109 145 189 234 279 332
#     4  10  21  37  57  79 106 143 185 230 278 329
#
# _framework density 18.773064000000002
#
# number of rings (size 3 to 8) (size 9 to 14) (size 15 to 20)
#    0.000    2.250    0.000    3.750    0.000    6.750 
#    0.000    4.375    0.000    1.500    0.000    0.000 
#    0.000    0.000    0.000    0.000    0.000    0.000 
#
# Total GULP energy -178693.087111 kJ/mol
# GULP energy per Si atom -5584.158972 kJ/mol
# Density = 1.873034 g / cm^3
# Si number density = 18.773064 Si / 1000 Ang^3
#
#
#
# Elastic Constant Matrix: (Units=GPa)
#
#
# Indices 1 2 3 4 5 6 
#
# 1 129.2665 27.3181 123.7800 0.0000 0.0000 0.0000
# 2 27.3181 21.4288 34.1039 0.0000 0.0000 0.0000
# 3 123.7800 34.1039 193.7640 0.0000 0.0000 0.0000
# 4 0.0000 0.0000 0.0000 25.6301 0.0000 0.0000
# 5 0.0000 0.0000 0.0000 0.0000 42.5505 0.0000
# 6 0.0000 0.0000 0.0000 0.0000 0.0000 21.4107
#
#
#
# Elastic Compliance Matrix: (Units=1/GPa)
#
#
# Indices 1 2 3 4 5 6 
#
# 1 0.020743 -0.007438 -0.011942 0.000000 0.000000 0.000000
# 2 -0.007438 0.067492 -0.007127 0.000000 0.000000 0.000000
# 3 -0.011942 -0.007127 0.014044 0.000000 0.000000 0.000000
# 4 0.000000 0.000000 0.000000 0.039017 0.000000 0.000000
# 5 0.000000 0.000000 0.000000 0.000000 0.023501 0.000000
# 6 0.000000 0.000000 0.000000 0.000000 0.000000 0.046706
#
#
# Mechanical properties :
#
#
# Convention : Reuss Voigt Hill
#
# Bulk Modulus (GPa) = 20.29883 79.42926 49.86404
# Shear Modulus (GPa) = 17.79751 28.53541 23.16646
#
# Velocity S-wave (km/s) = 3.08236 3.90297 3.51668
# Velocity P-wave (km/s) = 4.84810 7.91915 6.56571
#
# Compressibility (1/GPa) = 0.04926392
#
# Stress axis : x y z
#
# Youngs Moduli (GPa) = 48.20986 14.81658 71.20556
#
# Poissons Ratio (x) = 0.11021 0.85031
# Poissons Ratio (y) = 0.35861 0.50750
# Poissons Ratio (z) = 0.57570 0.10560
#
# Static dielectric constant tensor:
#      x y z
#    x 1.634060 0.000000 0.000000 
#    y 0.000000 1.646290 0.000000 
#    z 0.000000 0.000000 1.627990 
# 
# From -- ./inp_files/18975.got.cif
#   From: 2010.05.17/outbox.cif.g08.bks.cpg/sg38_10_cif.got.tgz:18975.got - 2010.06.03 18:07:57.
