data_PCOD9358786
_publ_section_title
;
Structure prediction by ZEFSAII (Michael W. Deem and Ramdas Pophale) SiO2 
 PCOD9358786
Probable space group: A M M 2
;
_chemical_formula_sum "Si O2"
_cell_formula_units_Z 64
_cell_length_a 8.907602
_cell_length_b 19.882116
_cell_length_c 20.745493
_cell_angle_alpha 90.000000
_cell_angle_beta 90.000000
_cell_angle_gamma 90.000000
_cell_volume 3674.067808
_symmetry_space_group_name_H-M "A M M 2"
_symmetry_group_IT_number 38
_symmetry_cell_setting 'orthorhombic'
loop_
_space_group_symop_operation_xyz
x,y,z
-x,-y,z
-x,y,z
x,-y,z
x,1/2+y,1/2+z
-x,1/2-y,1/2+z
-x,1/2+y,1/2+z
x,1/2-y,1/2+z
loop_
_atom_site_type_symbol
_atom_site_label
_atom_site_fract_x
_atom_site_fract_y
_atom_site_fract_z
Si Si1 0.178707 0.670206 0.121610
Si Si2 0.679170 0.824209 0.268328
Si Si3 0.179420 0.921237 0.011119
Si Si4 0.820202 0.322842 0.269823
Si Si5 0.179041 0.079392 0.374898
Si Si6 0.678464 0.921265 0.512792
Si Si7 0.819922 0.327345 0.630498
Si Si8 0.678727 0.920707 0.874182
O O1 0.215703 0.655241 0.196357
O O2 0.265401 0.624617 0.071074
O O3 0.211098 0.749581 0.112913
O O4 0.000000 0.660451 0.112820
O O5 0.500000 0.822466 0.270151
O O6 0.745338 0.749758 0.280904
O O7 0.742657 0.875538 0.321026
O O8 0.736802 0.843610 0.196958
O O9 0.222054 0.875837 0.071894
O O10 0.000000 0.913745 0.000949
O O11 0.209300 0.000000 0.024271
O O12 0.263681 0.902293 0.945549
O O13 0.760251 0.375962 0.321041
O O14 0.000000 0.315579 0.274025
O O15 0.239957 0.097031 0.445956
O O16 0.000000 0.088859 0.372485
O O17 0.211175 0.000000 0.364619
O O18 0.500000 0.914594 0.504335
O O19 0.712135 0.000000 0.526040
O O20 0.000000 0.332716 0.641434
O O21 0.500000 0.911749 0.869947
O O22 0.712902 0.000000 0.864970
#
# Coordination Sequence:
#
# PCOD9358786 Si02
#       8
#     8   8   8   8   8   8   8   8
#     4   9  19  35  54  76 104 139 177 219 266 317
#     4  11  22  36  56  82 112 142 175 221 274 324
#     4   9  18  34  56  79 105 141 183 223 263 313
#     4  10  21  38  58  79 107 143 184 226 265 316
#     4  10  21  38  59  80 106 143 184 223 263 314
#     4  10  21  36  54  78 108 139 174 221 272 319
#     4   9  19  36  55  78 108 141 180 222 262 311
#     4  10  21  36  54  79 112 145 179 224 275 323
#
# _framework density 17.419384999999998
#
# number of rings (size 3 to 8) (size 9 to 14) (size 15 to 20)
#    0.000    2.250    0.000    3.375    0.000    7.250 
#    0.000    7.500    0.000    0.000    0.000    0.000 
#    0.000    0.000    0.000    0.000    0.000    0.000 
#
# Total GULP energy -178656.555664 kJ/mol
# GULP energy per Si atom -5583.017364 kJ/mol
# Density = 1.737974 g / cm^3
# Si number density = 17.419385 Si / 1000 Ang^3
#
#
#
# Elastic Constant Matrix: (Units=GPa)
#
#
# Indices 1 2 3 4 5 6 
#
# 1 84.1250 65.3180 88.7517 0.0000 0.0000 0.0000
# 2 65.3180 83.3906 108.3389 0.0000 0.0000 0.0000
# 3 88.7517 108.3389 169.8776 0.0000 0.0000 0.0000
# 4 0.0000 0.0000 0.0000 42.5780 0.0000 0.0000
# 5 0.0000 0.0000 0.0000 0.0000 -0.5863 0.0000
# 6 0.0000 0.0000 0.0000 0.0000 0.0000 26.6905
#
#
#
# Elastic Compliance Matrix: (Units=1/GPa)
#
#
# Indices 1 2 3 4 5 6 
#
# 1 0.030823 -0.018792 -0.004119 0.000000 0.000000 0.000000
# 2 -0.018792 0.081398 -0.042093 0.000000 0.000000 0.000000
# 3 -0.004119 -0.042093 0.034883 0.000000 0.000000 0.000000
# 4 0.000000 0.000000 0.000000 0.023486 0.000000 0.000000
# 5 0.000000 0.000000 0.000000 0.000000 -1.705712 0.000000
# 6 0.000000 0.000000 0.000000 0.000000 0.000000 0.037467
#
#
# Mechanical properties :
#
#
# Convention : Reuss Voigt Hill
#
# Bulk Modulus (GPa) = 58.49357 95.80114 77.14736
# Shear Modulus (GPa) = -3.67121 18.73541 7.53210
#
# Velocity S-wave (km/s) = -1.45331 3.28312 2.08167
# Velocity P-wave (km/s) = 5.55305 8.33595 7.08253
#
# Compressibility (1/GPa) = 0.01709590
#
# Stress axis : x y z
#
# Youngs Moduli (GPa) = 32.44279 12.28537 28.66688
#
# Poissons Ratio (x) = 0.23087 0.11808
# Poissons Ratio (y) = 0.60966 1.20668
# Poissons Ratio (z) = 0.13363 0.51713
#
# Static dielectric constant tensor:
#      x y z
#    x 1.581360 0.000000 0.000000 
#    y 0.000000 1.573230 0.000000 
#    z 0.000000 0.000000 1.561490 
# 
# From -- ./inp_files/17230.got.cif
#   From: 2010.05.17/outbox.cif.g08.bks.cpg/sg38_9_cif.got.tgz:17230.got - 2010.06.03 18:07:57.
