data_PCOD9358824
_publ_section_title
;
Structure prediction by ZEFSAII (Michael W. Deem and Ramdas Pophale) SiO2 
 PCOD9358824
Probable space group: A M M 2
;
_chemical_formula_sum "Si O2"
_cell_formula_units_Z 40
_cell_length_a 7.754722
_cell_length_b 9.076648
_cell_length_c 29.465590
_cell_angle_alpha 90.000000
_cell_angle_beta 90.000000
_cell_angle_gamma 90.000000
_cell_volume 2073.991004
_symmetry_space_group_name_H-M "A M M 2"
_symmetry_group_IT_number 38
_symmetry_cell_setting 'orthorhombic'
loop_
_space_group_symop_operation_xyz
x,y,z
-x,-y,z
-x,y,z
x,-y,z
x,1/2+y,1/2+z
-x,1/2-y,1/2+z
-x,1/2+y,1/2+z
x,1/2-y,1/2+z
loop_
_atom_site_type_symbol
_atom_site_label
_atom_site_fract_x
_atom_site_fract_y
_atom_site_fract_z
Si Si1 0.796770 0.831215 0.998050
Si Si2 0.701529 0.824123 0.183976
Si Si3 0.291625 0.168948 0.590116
Si Si4 0.000000 0.176423 0.255087
Si Si5 0.304260 0.326409 0.908379
Si Si6 0.000000 0.675693 0.352771
O O1 0.707557 0.733439 0.959699
O O2 0.000000 0.831436 0.987360
O O3 0.734526 0.000000 0.996827
O O4 0.772159 0.763119 0.047665
O O5 0.500000 0.789341 0.193772
O O6 0.755985 0.740229 0.138268
O O7 0.831146 0.789812 0.224824
O O8 0.712238 0.000000 0.175612
O O9 0.500000 0.170005 0.588320
O O10 0.232620 0.000000 0.586819
O O11 0.000000 0.264437 0.301640
O O12 0.000000 0.000000 0.264312
O O13 0.500000 0.306689 0.891816
O O14 0.263157 0.500000 0.907724
O O15 0.167214 0.238760 0.878547
O O16 0.000000 0.500000 0.354466
#
# Coordination Sequence:
#
# PCOD9358824 Si02
#       6
#     8   8   8   4   8   4
#     4  11  23  37  57  88 125 164 205 250 302 360
#     4   9  19  37  60  86 118 156 199 249 302 355
#     4  10  21  36  55  83 120 161 204 248 297 356
#     4  10  22  40  63  88 117 154 200 251 303 367
#     4  11  24  43  68  94 123 162 206 254 309 366
#     4  12  26  44  65  94 127 160 202 253 311 373
#
# _framework density 19.286487000000001
#
# number of rings (size 3 to 8) (size 9 to 14) (size 15 to 20)
#    0.000    1.600    1.000    3.300    1.400    8.000 
#    0.000    2.000    0.000    0.000    0.000    0.000 
#    0.000    0.000    0.000    0.000    0.000    0.000 
#
# Total GULP energy -111815.122078 kJ/mol
# GULP energy per Si atom -5590.756104 kJ/mol
# Density = 1.924259 g / cm^3
# Si number density = 19.286487 Si / 1000 Ang^3
#
#
#
# Elastic Constant Matrix: (Units=GPa)
#
#
# Indices 1 2 3 4 5 6 
#
# 1 89.9696 66.0961 61.1746 0.0000 0.0000 0.0000
# 2 66.0961 130.9808 82.6696 0.0000 0.0000 0.0000
# 3 61.1746 82.6696 133.5910 0.0000 0.0000 0.0000
# 4 0.0000 0.0000 0.0000 40.7058 0.0000 0.0000
# 5 0.0000 0.0000 0.0000 0.0000 -29.5693 0.0000
# 6 0.0000 0.0000 0.0000 0.0000 0.0000 1030.8480
#
#
#
# Elastic Compliance Matrix: (Units=1/GPa)
#
#
# Indices 1 2 3 4 5 6 
#
# 1 0.019243 -0.006808 -0.004599 0.000000 0.000000 0.000000
# 2 -0.006808 0.014936 -0.006125 0.000000 0.000000 0.000000
# 3 -0.004599 -0.006125 0.013382 0.000000 0.000000 0.000000
# 4 0.000000 0.000000 0.000000 0.024567 0.000000 0.000000
# 5 0.000000 0.000000 0.000000 0.000000 -0.033819 0.000000
# 6 0.000000 0.000000 0.000000 0.000000 0.000000 0.000970
#
#
# Mechanical properties :
#
#
# Convention : Reuss Voigt Hill
#
# Bulk Modulus (GPa) = 80.01976 86.04688 83.03332
# Shear Modulus (GPa) = 63.68584 218.03697 140.86141
#
# Velocity S-wave (km/s) = 5.75262 10.64411 8.55540
# Velocity P-wave (km/s) = 9.25763 13.99195 11.86336
#
# Compressibility (1/GPa) = 0.01249691
#
# Stress axis : x y z
#
# Youngs Moduli (GPa) = 51.96560 66.95101 74.72629
#
# Poissons Ratio (x) = 0.45580 0.34368
# Poissons Ratio (y) = 0.35378 0.45773
# Poissons Ratio (z) = 0.23900 0.41010
#
# Static dielectric constant tensor:
#      x y z
#    x 1.689920 0.000000 0.000000 
#    y 0.000000 1.650260 0.000000 
#    z 0.000000 0.000000 1.627750 
# 
# From -- ./inp_files/23280.got.cif
#   From: 2010.05.17/outbox.cif.g08.bks.cpg/sg38_12_cif.got.tgz:23280.got - 2010.06.03 18:07:57.
