data_PCOD9358972
_publ_section_title
;
Structure prediction by ZEFSAII (Michael W. Deem and Ramdas Pophale) SiO2 
 PCOD9358972
Probable space group: A M M 2
;
_chemical_formula_sum "Si O2"
_cell_formula_units_Z 64
_cell_length_a 18.453137
_cell_length_b 13.957681
_cell_length_c 12.502908
_cell_angle_alpha 90.000000
_cell_angle_beta 90.000000
_cell_angle_gamma 90.000000
_cell_volume 3220.286489
_symmetry_space_group_name_H-M "A M M 2"
_symmetry_group_IT_number 38
_symmetry_cell_setting 'orthorhombic'
loop_
_space_group_symop_operation_xyz
x,y,z
-x,-y,z
-x,y,z
x,-y,z
x,1/2+y,1/2+z
-x,1/2-y,1/2+z
-x,1/2+y,1/2+z
x,1/2-y,1/2+z
loop_
_atom_site_type_symbol
_atom_site_label
_atom_site_fract_x
_atom_site_fract_y
_atom_site_fract_z
Si Si1 0.109949 0.392330 0.367560
Si Si2 0.583877 0.895256 0.534836
Si Si3 0.081430 0.114676 0.206278
Si Si4 0.176084 0.386203 0.143017
Si Si5 0.686569 0.251641 0.151011
Si Si6 0.212799 0.391643 0.549563
Si Si7 0.919075 0.185034 0.445051
Si Si8 0.584321 0.388464 0.778578
O O1 0.080154 0.500000 0.389168
O O2 0.119482 0.378575 0.241570
O O3 0.187241 0.392953 0.427566
O O4 0.076087 0.298821 0.421217
O O5 0.500000 0.891873 0.565536
O O6 0.627341 0.814900 0.593590
O O7 0.587102 0.885967 0.407079
O O8 0.613737 0.000000 0.563163
O O9 0.145085 0.141759 0.124630
O O10 0.099745 0.142023 0.328126
O O11 0.000000 0.153283 0.182056
O O12 0.076967 0.000000 0.198849
O O13 0.192480 0.500000 0.130619
O O14 0.246292 0.323416 0.176437
O O15 0.138622 0.346525 0.034507
O O16 0.721416 0.177074 0.068754
O O17 0.644469 0.185725 0.236596
O O18 0.229419 0.500000 0.582908
O O19 0.000000 0.150355 0.474668
O O20 0.500000 0.366196 0.747252
O O21 0.598405 0.500000 0.746413
#
# Coordination Sequence:
#
# PCOD9358972 Si02
#       8
#     8   8   8   8   8   8   8   8
#     4  10  23  43  59  80 119 160 197 243 299 359
#     4   9  20  39  61  88 122 158 196 238 286 346
#     4   9  19  37  61  87 116 152 200 257 307 351
#     4  11  25  42  60  88 125 162 201 248 303 362
#     4  12  21  34  62  92 120 154 199 240 294 346
#     4  10  21  37  58  87 121 156 198 247 300 355
#     4  11  23  40  64  88 114 155 206 256 305 361
#     4   9  20  39  62  89 121 156 196 241 291 349
#
# _framework density 19.874009000000001
#
# number of rings (size 3 to 8) (size 9 to 14) (size 15 to 20)
#    0.000    1.875    1.250    3.000    1.750    3.000 
#    0.000    3.750    0.000    0.000    0.000    5.250 
#    0.000    0.000    0.000    0.000    0.000    0.000 
#
# Total GULP energy -178464.568330 kJ/mol
# GULP energy per Si atom -5577.017760 kJ/mol
# Density = 1.982877 g / cm^3
# Si number density = 19.874009 Si / 1000 Ang^3
#
#
#
# Elastic Constant Matrix: (Units=GPa)
#
#
# Indices 1 2 3 4 5 6 
#
# 1 42.2439 40.9894 16.2728 0.0000 0.0000 0.0000
# 2 40.9894 105.1657 25.2662 0.0000 0.0000 0.0000
# 3 16.2728 25.2662 62.7790 0.0000 0.0000 0.0000
# 4 0.0000 0.0000 0.0000 20.0604 0.0000 0.0000
# 5 0.0000 0.0000 0.0000 0.0000 62.4276 0.0000
# 6 0.0000 0.0000 0.0000 0.0000 0.0000 20.3992
#
#
#
# Elastic Compliance Matrix: (Units=1/GPa)
#
#
# Indices 1 2 3 4 5 6 
#
# 1 0.039154 -0.014195 -0.004436 0.000000 0.000000 0.000000
# 2 -0.014195 0.015673 -0.002628 0.000000 0.000000 0.000000
# 3 -0.004436 -0.002628 0.018137 0.000000 0.000000 0.000000
# 4 0.000000 0.000000 0.000000 0.049849 0.000000 0.000000
# 5 0.000000 0.000000 0.000000 0.000000 0.016019 0.000000
# 6 0.000000 0.000000 0.000000 0.000000 0.000000 0.049021
#
#
# Mechanical properties :
#
#
# Convention : Reuss Voigt Hill
#
# Bulk Modulus (GPa) = 32.84623 41.69397 37.27010
# Shear Modulus (GPa) = 20.78824 29.08812 24.93818
#
# Velocity S-wave (km/s) = 3.23770 3.82989 3.54618
# Velocity P-wave (km/s) = 5.52631 6.37041 5.96331
#
# Compressibility (1/GPa) = 0.03044490
#
# Stress axis : x y z
#
# Youngs Moduli (GPa) = 25.53990 63.80429 55.13722
#
# Poissons Ratio (x) = 0.90571 0.24460
# Poissons Ratio (y) = 0.36254 0.14492
# Poissons Ratio (z) = 0.11330 0.16770
#
# Static dielectric constant tensor:
#      x y z
#    x 1.704310 0.000000 0.000000 
#    y 0.000000 1.753030 0.000000 
#    z 0.000000 0.000000 1.674490 
# 
# From -- ./inp_files/10601.got.cif
#   From: 2010.05.17/outbox.cif.g08.bks.cpg/sg38_6_cif.got.tgz:10601.got - 2010.06.03 18:07:57.
