data_PCOD9358501
_publ_section_title
;
Structure prediction by ZEFSAII (Michael W. Deem and Ramdas Pophale) SiO2 
 PCOD9358501
Probable space group: A M M 2
;
_chemical_formula_sum "Si O2"
_cell_formula_units_Z 64
_cell_length_a 9.095389
_cell_length_b 25.474522
_cell_length_c 15.208401
_cell_angle_alpha 90.000000
_cell_angle_beta 90.000000
_cell_angle_gamma 90.000000
_cell_volume 3523.796963
_symmetry_space_group_name_H-M "A M M 2"
_symmetry_group_IT_number 38
_symmetry_cell_setting 'orthorhombic'
loop_
_space_group_symop_operation_xyz
x,y,z
-x,-y,z
-x,y,z
x,-y,z
x,1/2+y,1/2+z
-x,1/2-y,1/2+z
-x,1/2+y,1/2+z
x,1/2-y,1/2+z
loop_
_atom_site_type_symbol
_atom_site_label
_atom_site_fract_x
_atom_site_fract_y
_atom_site_fract_z
Si Si1 0.823319 0.105223 0.312280
Si Si2 0.829592 0.264480 0.055171
Si Si3 0.176536 0.061301 0.504929
Si Si4 0.176523 0.853534 0.017721
Si Si5 0.674992 0.332197 0.332742
Si Si6 0.674770 0.861299 0.641544
Si Si7 0.829405 0.775534 0.344827
Si Si8 0.675211 0.560903 0.640857
O O1 0.783657 0.084309 0.409129
O O2 0.791551 0.167436 0.307596
O O3 0.738995 0.074596 0.236694
O O4 0.000000 0.098755 0.301577
O O5 0.788453 0.203248 0.061411
O O6 0.730446 0.304879 0.107371
O O7 0.000000 0.270593 0.082352
O O8 0.821860 0.278346 0.951235
O O9 0.249872 0.095035 0.581392
O O10 0.000000 0.066176 0.512499
O O11 0.215450 0.000000 0.509569
O O12 0.246507 0.900212 0.072857
O O13 0.000000 0.857335 0.014791
O O14 0.240929 0.851459 0.919365
O O15 0.500000 0.333512 0.347438
O O16 0.710747 0.364592 0.244927
O O17 0.727170 0.272277 0.316775
O O18 0.500000 0.864451 0.631984
O O19 0.000000 0.763647 0.322572
O O20 0.500000 0.569034 0.639220
O O21 0.705180 0.500000 0.620410
#
# Coordination Sequence:
#
# PCOD9358501 Si02
#       8
#     8   8   8   8   8   8   8   8
#     4  10  20  37  60  87 118 155 198 242 289 345
#     4   9  18  35  57  83 115 149 189 236 287 341
#     4  10  21  39  62  85 114 155 200 245 290 338
#     4  10  22  41  64  88 112 150 200 249 297 346
#     4  10  22  38  56  84 122 159 193 239 297 353
#     4  11  23  36  55  86 121 157 195 235 290 350
#     4   9  18  34  56  84 116 154 195 236 284 339
#     4  11  25  42  60  86 120 156 195 243 300 358
#
# _framework density 18.162227999999999
#
# number of rings (size 3 to 8) (size 9 to 14) (size 15 to 20)
#    0.000    2.000    1.250    2.625    1.750    7.250 
#    0.000    0.625    0.000    0.750    0.000    0.000 
#    0.000    0.000    0.000    0.000    0.000    0.000 
#
# Total GULP energy -178753.559632 kJ/mol
# GULP energy per Si atom -5586.048738 kJ/mol
# Density = 1.812089 g / cm^3
# Si number density = 18.162228 Si / 1000 Ang^3
#
#
#
# Elastic Constant Matrix: (Units=GPa)
#
#
# Indices 1 2 3 4 5 6 
#
# 1 48.9338 58.4570 48.7537 0.0000 0.0000 0.0000
# 2 58.4570 121.4537 72.2104 0.0000 0.0000 0.0000
# 3 48.7537 72.2104 97.4727 0.0000 0.0000 0.0000
# 4 0.0000 0.0000 0.0000 28.1479 0.0000 0.0000
# 5 0.0000 0.0000 0.0000 0.0000 30.7180 0.0000
# 6 0.0000 0.0000 0.0000 0.0000 0.0000 24.8664
#
#
#
# Elastic Compliance Matrix: (Units=1/GPa)
#
#
# Indices 1 2 3 4 5 6 
#
# 1 0.058122 -0.019106 -0.014918 0.000000 0.000000 0.000000
# 2 -0.019106 0.020995 -0.005998 0.000000 0.000000 0.000000
# 3 -0.014918 -0.005998 0.022164 0.000000 0.000000 0.000000
# 4 0.000000 0.000000 0.000000 0.035527 0.000000 0.000000
# 5 0.000000 0.000000 0.000000 0.000000 0.032554 0.000000
# 6 0.000000 0.000000 0.000000 0.000000 0.000000 0.040215
#
#
# Mechanical properties :
#
#
# Convention : Reuss Voigt Hill
#
# Bulk Modulus (GPa) = 47.08129 69.63360 58.35745
# Shear Modulus (GPa) = 16.85209 22.64239 19.74724
#
# Velocity S-wave (km/s) = 3.04939 3.53466 3.30095
# Velocity P-wave (km/s) = 6.19494 7.42169 6.83589
#
# Compressibility (1/GPa) = 0.02123986
#
# Stress axis : x y z
#
# Youngs Moduli (GPa) = 17.20506 47.62983 45.11846
#
# Poissons Ratio (x) = 0.91000 0.67306
# Poissons Ratio (y) = 0.32872 0.27060
# Poissons Ratio (z) = 0.25666 0.28566
#
# Static dielectric constant tensor:
#      x y z
#    x 1.599670 0.000000 0.000000 
#    y 0.000000 1.606830 0.000000 
#    z 0.000000 0.000000 1.624300 
# 
# From -- ./inp_files/12835.got.cif
#   From: 2010.05.17/outbox.cif.g08.bks.cpg/sg38_7_cif.got.tgz:12835.got - 2010.06.03 18:07:57.
