data_PCOD9358015
_publ_section_title
;
Structure prediction by ZEFSAII (Michael W. Deem and Ramdas Pophale) SiO2 
 PCOD9358015
Probable space group: A M M 2
;
_chemical_formula_sum "Si O2"
_cell_formula_units_Z 40
_cell_length_a 7.872950
_cell_length_b 8.947656
_cell_length_c 29.981232
_cell_angle_alpha 90.000000
_cell_angle_beta 90.000000
_cell_angle_gamma 90.000000
_cell_volume 2112.011348
_symmetry_space_group_name_H-M "A M M 2"
_symmetry_group_IT_number 38
_symmetry_cell_setting 'orthorhombic'
loop_
_space_group_symop_operation_xyz
x,y,z
-x,-y,z
-x,y,z
x,-y,z
x,1/2+y,1/2+z
-x,1/2-y,1/2+z
-x,1/2+y,1/2+z
x,1/2-y,1/2+z
loop_
_atom_site_type_symbol
_atom_site_label
_atom_site_fract_x
_atom_site_fract_y
_atom_site_fract_z
Si Si1 0.000000 0.682072 0.897730
Si Si2 0.690769 0.177602 0.741145
Si Si3 0.799615 0.825953 0.152084
Si Si4 0.000000 0.820536 0.294627
Si Si5 0.295405 0.827660 0.054155
Si Si6 0.304041 0.180042 0.461331
O O1 0.000000 0.727753 0.846295
O O2 0.831212 0.730523 0.924366
O O3 0.000000 0.500000 0.898163
O O4 0.500000 0.211988 0.756974
O O5 0.708643 0.232586 0.690193
O O6 0.833960 0.259167 0.769793
O O7 0.717120 0.000000 0.743033
O O8 0.770648 0.770813 0.101684
O O9 0.000000 0.822942 0.161713
O O10 0.742613 0.000000 0.153568
O O11 0.000000 0.000000 0.292317
O O12 0.500000 0.826079 0.056687
O O13 0.238563 0.000000 0.049434
O O14 0.248276 0.737588 0.010007
O O15 0.500000 0.229334 0.453363
O O16 0.304545 0.000000 0.461804
#
# Coordination Sequence:
#
# PCOD9358015 Si02
#       6
#     4   8   8   4   8   8
#     4   9  20  37  58  83 108 137 180 233 286 335
#     4  11  24  41  61  86 119 155 190 235 293 351
#     4  10  20  34  55  84 116 152 195 237 278 332
#     4  11  23  41  64  89 114 145 194 247 292 347
#     4   9  18  32  50  77 114 150 185 226 270 323
#     4   9  18  34  55  79 109 144 183 226 272 327
#
# _framework density 18.939291000000001
#
# number of rings (size 3 to 8) (size 9 to 14) (size 15 to 20)
#    0.000    2.200    1.000    1.500    1.400    4.000 
#    0.000    6.000    0.000    2.400    0.000    0.000 
#    0.000    0.000    0.000    0.000    0.000    0.000 
#
# Total GULP energy -111644.034347 kJ/mol
# GULP energy per Si atom -5582.201717 kJ/mol
# Density = 1.889618 g / cm^3
# Si number density = 18.939291 Si / 1000 Ang^3
#
#
#
# Elastic Constant Matrix: (Units=GPa)
#
#
# Indices 1 2 3 4 5 6 
#
# 1 112.7212 46.0958 81.7840 0.0000 0.0000 0.0000
# 2 46.0958 37.0836 40.6444 0.0000 0.0000 0.0000
# 3 81.7840 40.6444 151.9356 0.0000 0.0000 0.0000
# 4 0.0000 0.0000 0.0000 26.6917 0.0000 0.0000
# 5 0.0000 0.0000 0.0000 0.0000 -3.4953 0.0000
# 6 0.0000 0.0000 0.0000 0.0000 0.0000 -3.4849
#
#
#
# Elastic Compliance Matrix: (Units=1/GPa)
#
#
# Indices 1 2 3 4 5 6 
#
# 1 0.021588 -0.019946 -0.006284 0.000000 0.000000 0.000000
# 2 -0.019946 0.056582 -0.004400 0.000000 0.000000 0.000000
# 3 -0.006284 -0.004400 0.011141 0.000000 0.000000 0.000000
# 4 0.000000 0.000000 0.000000 0.037465 0.000000 0.000000
# 5 0.000000 0.000000 0.000000 0.000000 -0.286096 0.000000
# 6 0.000000 0.000000 0.000000 0.000000 0.000000 -0.286950
#
#
# Mechanical properties :
#
#
# Convention : Reuss Voigt Hill
#
# Bulk Modulus (GPa) = 35.65000 70.97655 53.31327
# Shear Modulus (GPa) = -13.30993 12.82337 -0.24328
#
# Velocity S-wave (km/s) = -2.65385 2.60489 -0.35879
# Velocity P-wave (km/s) = 3.07792 6.82675 5.29519
#
# Compressibility (1/GPa) = 0.02805049
#
# Stress axis : x y z
#
# Youngs Moduli (GPa) = 46.32229 17.67351 89.75478
#
# Poissons Ratio (x) = 0.35252 0.56406
# Poissons Ratio (y) = 0.92396 0.39488
# Poissons Ratio (z) = 0.29111 0.07776
#
# Static dielectric constant tensor:
#      x y z
#    x 1.671210 0.000000 0.000000 
#    y 0.000000 1.642640 0.000000 
#    z 0.000000 0.000000 1.637960 
# 
# From -- ./inp_files/23228.got.cif
#   From: 2010.05.17/outbox.cif.g08.bks.cpg/sg38_12_cif.got.tgz:23228.got - 2010.06.03 18:07:57.
