data_PCOD9358613
_publ_section_title
;
Structure prediction by ZEFSAII (Michael W. Deem and Ramdas Pophale) SiO2 
 PCOD9358613
Probable space group: A M M 2
;
_chemical_formula_sum "Si O2"
_cell_formula_units_Z 64
_cell_length_a 17.617325
_cell_length_b 30.861845
_cell_length_c 5.291023
_cell_angle_alpha 90.000000
_cell_angle_beta 90.000000
_cell_angle_gamma 90.000000
_cell_volume 2876.745890
_symmetry_space_group_name_H-M "A M M 2"
_symmetry_group_IT_number 38
_symmetry_cell_setting 'orthorhombic'
loop_
_space_group_symop_operation_xyz
x,y,z
-x,-y,z
-x,y,z
x,-y,z
x,1/2+y,1/2+z
-x,1/2-y,1/2+z
-x,1/2+y,1/2+z
x,1/2-y,1/2+z
loop_
_atom_site_type_symbol
_atom_site_label
_atom_site_fract_x
_atom_site_fract_y
_atom_site_fract_z
Si Si1 0.589447 0.594223 0.465010
Si Si2 0.869582 0.549794 0.102040
Si Si3 0.122024 0.776260 0.576671
Si Si4 0.344943 0.137325 0.469599
Si Si5 0.084936 0.860989 0.866518
Si Si6 0.305153 0.228949 0.575555
Si Si7 0.726679 0.545031 0.418232
Si Si8 0.192194 0.887290 0.249281
O O1 0.500000 0.588565 0.453876
O O2 0.619611 0.623777 0.235497
O O3 0.637274 0.550630 0.404427
O O4 0.612720 0.613453 0.739160
O O5 0.900171 0.500000 0.107870
O O6 0.903841 0.588562 0.276585
O O7 0.780291 0.544843 0.174071
O O8 0.867025 0.575938 0.840910
O O9 0.097182 0.754038 0.314092
O O10 0.096800 0.825507 0.645061
O O11 0.213862 0.776552 0.566347
O O12 0.347957 0.188538 0.454685
O O13 0.253299 0.128366 0.454276
O O14 0.000000 0.856285 0.963493
O O15 0.146836 0.852515 0.085195
O O16 0.323172 0.266329 0.371770
O O17 0.745611 0.500000 0.555186
O O18 0.754145 0.587080 0.559773
#
# Coordination Sequence:
#
# PCOD9358613 Si02
#       8
#     8   8   8   8   8   8   8   8
#     4  11  23  39  61  94 130 172 211 256 324 394
#     4  10  20  39  65  93 125 168 228 284 333 396
#     4  10  24  42  67  97 133 171 217 278 341 407
#     4  11  22  39  66  90 129 170 214 269 318 390
#     4  11  26  42  61  92 135 178 223 282 348 418
#     4  10  21  36  63  97 122 153 210 273 322 373
#     4   9  19  36  59  90 123 161 210 264 319 381
#     4  10  21  37  64  91 122 173 224 271 328 392
#
# _framework density 22.24736
#
# number of rings (size 3 to 8) (size 9 to 14) (size 15 to 20)
#    0.000    1.750    1.250    2.250   10.500    2.000 
#    0.000    0.000    0.000    9.000    0.000    0.000 
#    0.000    0.000    0.000    0.000    0.000    0.000 
#
# Total GULP energy -178238.670007 kJ/mol
# GULP energy per Si atom -5569.958438 kJ/mol
# Density = 2.219672 g / cm^3
# Si number density = 22.247360 Si / 1000 Ang^3
#
#
#
# Elastic Constant Matrix: (Units=GPa)
#
#
# Indices 1 2 3 4 5 6 
#
# 1 74.8222 14.0362 10.7991 0.0000 0.0000 0.0000
# 2 14.0362 85.7949 13.0587 0.0000 0.0000 0.0000
# 3 10.7991 13.0587 70.7065 0.0000 0.0000 0.0000
# 4 0.0000 0.0000 0.0000 22.4100 0.0000 0.0000
# 5 0.0000 0.0000 0.0000 0.0000 11.5803 0.0000
# 6 0.0000 0.0000 0.0000 0.0000 0.0000 2.7744
#
#
#
# Elastic Compliance Matrix: (Units=1/GPa)
#
#
# Indices 1 2 3 4 5 6 
#
# 1 0.013999 -0.002022 -0.001765 0.000000 0.000000 0.000000
# 2 -0.002022 0.012285 -0.001960 0.000000 0.000000 0.000000
# 3 -0.001765 -0.001960 0.014775 0.000000 0.000000 0.000000
# 4 0.000000 0.000000 0.000000 0.044623 0.000000 0.000000
# 5 0.000000 0.000000 0.000000 0.000000 0.086353 0.000000
# 6 0.000000 0.000000 0.000000 0.000000 0.000000 0.360433
#
#
# Mechanical properties :
#
#
# Convention : Reuss Voigt Hill
#
# Bulk Modulus (GPa) = 33.82337 34.12352 33.97344
# Shear Modulus (GPa) = 9.02827 20.24825 14.63826
#
# Velocity S-wave (km/s) = 2.01667 3.02013 2.56789
# Velocity P-wave (km/s) = 4.54521 5.24720 4.90877
#
# Compressibility (1/GPa) = 0.02956536
#
# Stress axis : x y z
#
# Youngs Moduli (GPa) = 71.43381 81.40142 67.68416
#
# Poissons Ratio (x) = 0.16457 0.11944
# Poissons Ratio (y) = 0.14441 0.13267
# Poissons Ratio (z) = 0.12606 0.15955
#
# Static dielectric constant tensor:
#      x y z
#    x 1.836060 0.000000 0.000000 
#    y 0.000000 1.912800 0.000000 
#    z 0.000000 0.000000 1.871480 
# 
# From -- ./inp_files/1756.got.cif
#   From: 2010.05.17/outbox.cif.g08.bks.cpg/sg38_1_cif.got.tgz:1756.got - 2010.06.03 18:07:57.
