data_PCOD9358688
_publ_section_title
;
Structure prediction by ZEFSAII (Michael W. Deem and Ramdas Pophale) SiO2 
 PCOD9358688
Probable space group: A M M 2
;
_chemical_formula_sum "Si O2"
_cell_formula_units_Z 40
_cell_length_a 7.729714
_cell_length_b 9.866477
_cell_length_c 26.490087
_cell_angle_alpha 90.000000
_cell_angle_beta 90.000000
_cell_angle_gamma 90.000000
_cell_volume 2020.267688
_symmetry_space_group_name_H-M "A M M 2"
_symmetry_group_IT_number 38
_symmetry_cell_setting 'orthorhombic'
loop_
_space_group_symop_operation_xyz
x,y,z
-x,-y,z
-x,y,z
x,-y,z
x,1/2+y,1/2+z
-x,1/2-y,1/2+z
-x,1/2+y,1/2+z
x,1/2-y,1/2+z
loop_
_atom_site_type_symbol
_atom_site_label
_atom_site_fract_x
_atom_site_fract_y
_atom_site_fract_z
Si Si1 0.212278 0.156061 0.318100
Si Si2 0.794868 0.345772 0.227754
Si Si3 0.791967 0.653149 0.523797
Si Si4 0.211021 0.843849 0.910289
Si Si5 0.294712 0.847300 0.615750
O O1 0.271885 0.241076 0.269267
O O2 0.267656 0.238898 0.367776
O O3 0.000000 0.154420 0.317917
O O4 0.268610 0.000000 0.317808
O O5 0.723724 0.500000 0.231983
O O6 0.770574 0.298230 0.170223
O O7 0.000000 0.355952 0.236754
O O8 0.729808 0.500000 0.534014
O O9 0.732717 0.691859 0.467287
O O10 0.745636 0.753415 0.568506
O O11 0.000000 0.648549 0.521565
O O12 0.000000 0.843220 0.909750
O O13 0.262686 0.000000 0.899678
O O14 0.500000 0.855240 0.620077
O O15 0.224737 0.000000 0.608090
#
# Coordination Sequence:
#
# PCOD9358688 Si02
#       5
#     8   8   8   8   8
#     4   9  16  25  41  69  99 122 149 190 237 281
#     4   9  17  30  48  68  92 125 161 195 235 284
#     4   9  18  32  51  75 100 127 162 202 241 284
#     4   8  14  26  44  67  96 126 153 185 230 283
#     4  10  21  35  50  70  97 129 165 204 245 289
#
# _framework density 19.799356
#
# number of rings (size 3 to 8) (size 9 to 14) (size 15 to 20)
#    0.000    3.000    0.000    2.400    0.000    5.600 
#    0.000    4.000    0.000    1.200    0.000    2.800 
#    0.000    0.000    0.000    0.000    0.000    0.000 
#
# Total GULP energy -111535.425699 kJ/mol
# GULP energy per Si atom -5576.771285 kJ/mol
# Density = 1.975429 g / cm^3
# Si number density = 19.799356 Si / 1000 Ang^3
#
#
#
# Elastic Constant Matrix: (Units=GPa)
#
#
# Indices 1 2 3 4 5 6 
#
# 1 27.5173 5.7694 1.1060 0.0000 0.0000 0.0000
# 2 5.7694 140.1400 141.9174 0.0000 0.0000 0.0000
# 3 1.1060 141.9174 202.0371 0.0000 0.0000 0.0000
# 4 0.0000 0.0000 0.0000 25.5734 0.0000 0.0000
# 5 0.0000 0.0000 0.0000 0.0000 -39.4985 0.0000
# 6 0.0000 0.0000 0.0000 0.0000 0.0000 4.2693
#
#
#
# Elastic Compliance Matrix: (Units=1/GPa)
#
#
# Indices 1 2 3 4 5 6 
#
# 1 0.037182 -0.004589 0.003020 0.000000 0.000000 0.000000
# 2 -0.004589 0.025287 -0.017737 0.000000 0.000000 0.000000
# 3 0.003020 -0.017737 0.017392 0.000000 0.000000 0.000000
# 4 0.000000 0.000000 0.000000 0.039103 0.000000 0.000000
# 5 0.000000 0.000000 0.000000 0.000000 -0.025317 0.000000
# 6 0.000000 0.000000 0.000000 0.000000 0.000000 0.234230
#
#
# Mechanical properties :
#
#
# Convention : Reuss Voigt Hill
#
# Bulk Modulus (GPa) = 24.24349 74.14221 49.19285
# Shear Modulus (GPa) = 13.14969 12.79561 12.97265
#
# Velocity S-wave (km/s) = 2.57990 2.54493 2.56248
# Velocity P-wave (km/s) = 4.59844 6.79438 5.80126
#
# Compressibility (1/GPa) = 0.04124819
#
# Stress axis : x y z
#
# Youngs Moduli (GPa) = 26.89507 39.54661 57.49734
#
# Poissons Ratio (x) = 0.18147 -0.17363
# Poissons Ratio (y) = 0.12342 1.01983
# Poissons Ratio (z) = -0.08122 0.70144
#
# Static dielectric constant tensor:
#      x y z
#    x 1.719470 0.000000 0.000000 
#    y 0.000000 1.697580 0.000000 
#    z 0.000000 0.000000 1.681240 
# 
# From -- ./inp_files/19460.got.cif
#   From: 2010.05.17/outbox.cif.g08.bks.cpg/sg38_10_cif.got.tgz:19460.got - 2010.06.03 18:07:57.
