data_PCOD9358020
_publ_section_title
;
Structure prediction by ZEFSAII (Michael W. Deem and Ramdas Pophale) SiO2 
 PCOD9358020
Probable space group: A M M 2
;
_chemical_formula_sum "Si O2"
_cell_formula_units_Z 56
_cell_length_a 17.190800
_cell_length_b 8.447926
_cell_length_c 20.957541
_cell_angle_alpha 90.000000
_cell_angle_beta 90.000000
_cell_angle_gamma 90.000000
_cell_volume 3043.592555
_symmetry_space_group_name_H-M "A M M 2"
_symmetry_group_IT_number 38
_symmetry_cell_setting 'orthorhombic'
loop_
_space_group_symop_operation_xyz
x,y,z
-x,-y,z
-x,y,z
x,-y,z
x,1/2+y,1/2+z
-x,1/2-y,1/2+z
-x,1/2+y,1/2+z
x,1/2-y,1/2+z
loop_
_atom_site_type_symbol
_atom_site_label
_atom_site_fract_x
_atom_site_fract_y
_atom_site_fract_z
Si Si1 0.500000 0.690015 0.504801
Si Si2 0.912844 0.691479 0.140384
Si Si3 0.760456 0.692675 0.074579
Si Si4 0.336693 0.191143 0.698540
Si Si5 0.088578 0.189472 0.284458
Si Si6 0.336173 0.809647 0.452693
Si Si7 0.750081 0.310241 0.327387
Si Si8 0.500000 0.810849 0.153739
O O1 0.500000 0.500000 0.505033
O O2 0.422375 0.749369 0.469560
O O3 0.500000 0.745365 0.579323
O O4 0.909727 0.500000 0.144541
O O5 0.847899 0.743821 0.090342
O O6 0.897299 0.754916 0.211503
O O7 0.000000 0.738874 0.122286
O O8 0.760076 0.500000 0.072956
O O9 0.709582 0.742411 0.135388
O O10 0.720573 0.746796 0.009829
O O11 0.292249 0.244596 0.762082
O O12 0.423774 0.251148 0.689993
O O13 0.337284 0.000000 0.699300
O O14 0.160442 0.252991 0.325798
O O15 0.000000 0.242256 0.301492
O O16 0.089569 0.000000 0.286658
O O17 0.299741 0.750771 0.386802
O O18 0.337961 0.000000 0.452535
O O19 0.750371 0.500000 0.327606
O O20 0.500000 0.000000 0.152216
#
# Coordination Sequence:
#
# PCOD9358020 Si02
#       8
#     4   8   8   8   8   8   8   4
#     4  11  23  40  59  84 115 147 191 236 287 350
#     4   9  16  30  55  85 115 148 190 237 283 337
#     4   9  17  33  56  84 111 145 192 233 279 340
#     4  10  20  37  60  82 110 148 190 234 282 340
#     4  10  20  34  55  85 118 151 190 237 288 341
#     4  11  23  39  61  84 115 155 193 237 289 345
#     4  11  23  40  60  85 118 154 193 237 287 346
#     4  11  23  36  57  90 119 143 185 244 293 334
#
# _framework density 18.399308999999999
#
# number of rings (size 3 to 8) (size 9 to 14) (size 15 to 20)
#    0.000    1.857    2.857    1.714    0.000    3.143 
#    0.000    2.857    0.000    2.571    0.000    0.000 
#    0.000    0.000    0.000    0.000    0.000    0.000 
#
# Total GULP energy -156286.625552 kJ/mol
# GULP energy per Si atom -5581.665198 kJ/mol
# Density = 1.835743 g / cm^3
# Si number density = 18.399309 Si / 1000 Ang^3
#
#
#
# Elastic Constant Matrix: (Units=GPa)
#
#
# Indices 1 2 3 4 5 6 
#
# 1 157.4542 25.9435 60.0600 0.0000 0.0000 0.0000
# 2 25.9435 28.7114 21.5834 0.0000 0.0000 0.0000
# 3 60.0600 21.5834 104.8741 0.0000 0.0000 0.0000
# 4 0.0000 0.0000 0.0000 22.6720 0.0000 0.0000
# 5 0.0000 0.0000 0.0000 0.0000 24.5778 0.0000
# 6 0.0000 0.0000 0.0000 0.0000 0.0000 21.5342
#
#
#
# Elastic Compliance Matrix: (Units=1/GPa)
#
#
# Indices 1 2 3 4 5 6 
#
# 1 0.008661 -0.004847 -0.003963 0.000000 0.000000 0.000000
# 2 -0.004847 0.043917 -0.006262 0.000000 0.000000 0.000000
# 3 -0.003963 -0.006262 0.013093 0.000000 0.000000 0.000000
# 4 0.000000 0.000000 0.000000 0.044107 0.000000 0.000000
# 5 0.000000 0.000000 0.000000 0.000000 0.040687 0.000000
# 6 0.000000 0.000000 0.000000 0.000000 0.000000 0.046438
#
#
# Mechanical properties :
#
#
# Convention : Reuss Voigt Hill
#
# Bulk Modulus (GPa) = 28.14748 56.24593 42.19671
# Shear Modulus (GPa) = 20.93009 25.98698 23.45854
#
# Velocity S-wave (km/s) = 3.37641 3.76225 3.57454
# Velocity P-wave (km/s) = 5.52554 7.03624 6.32615
#
# Compressibility (1/GPa) = 0.03552716
#
# Stress axis : x y z
#
# Youngs Moduli (GPa) = 115.45657 22.77027 76.37481
#
# Poissons Ratio (x) = 0.11038 0.30264
# Poissons Ratio (y) = 0.55967 0.47827
# Poissons Ratio (z) = 0.45751 0.14259
#
# Static dielectric constant tensor:
#      x y z
#    x 1.646400 0.000000 0.000000 
#    y 0.000000 1.628890 0.000000 
#    z 0.000000 0.000000 1.607540 
# 
# From -- ./inp_files/21156.got.cif
#   From: 2010.05.17/outbox.cif.g08.bks.cpg/sg38_11_cif.got.tgz:21156.got - 2010.06.03 18:07:57.
