data_PCOD9358653
_publ_section_title
;
Structure prediction by ZEFSAII (Michael W. Deem and Ramdas Pophale) SiO2 
 PCOD9358653
Probable space group: A M M 2
;
_chemical_formula_sum "Si O2"
_cell_formula_units_Z 44
_cell_length_a 14.274809
_cell_length_b 30.348778
_cell_length_c 5.364123
_cell_angle_alpha 90.000000
_cell_angle_beta 90.000000
_cell_angle_gamma 90.000000
_cell_volume 2323.861508
_symmetry_space_group_name_H-M "A M M 2"
_symmetry_group_IT_number 38
_symmetry_cell_setting 'orthorhombic'
loop_
_space_group_symop_operation_xyz
x,y,z
-x,-y,z
-x,y,z
x,-y,z
x,1/2+y,1/2+z
-x,1/2-y,1/2+z
-x,1/2+y,1/2+z
x,1/2-y,1/2+z
loop_
_atom_site_type_symbol
_atom_site_label
_atom_site_fract_x
_atom_site_fract_y
_atom_site_fract_z
Si Si1 0.394655 0.420450 0.672810
Si Si2 0.891625 0.721169 0.743970
Si Si3 0.399096 0.000000 0.553808
Si Si4 0.291821 0.000000 0.942388
Si Si5 0.892583 0.904311 0.690544
Si Si6 0.901752 0.000000 0.914265
Si Si7 0.793456 0.870017 0.195029
O O1 0.500000 0.405372 0.610194
O O2 0.350929 0.455907 0.481708
O O3 0.316168 0.383170 0.703425
O O4 0.402613 0.454410 0.902404
O O5 0.880287 0.751898 0.500726
O O6 0.819753 0.680926 0.731010
O O7 0.000000 0.704527 0.738450
O O8 0.500000 0.000000 0.696696
O O9 0.291567 0.000000 0.646698
O O10 0.193326 0.000000 0.072173
O O11 0.843981 0.894505 0.427070
O O12 0.000000 0.887133 0.687623
O O13 0.897777 0.956035 0.751627
O O14 0.836531 0.884210 0.927036
O O15 0.000000 0.000000 0.057921
#
# Coordination Sequence:
#
# PCOD9358653 Si02
#       7
#     8   8   4   4   8   4   8
#     4  10  22  35  55  86 117 158 209 256 293 340
#     4  10  21  39  64  90 116 147 189 243 308 378
#     4   9  18  33  55  79 111 155 207 256 294 327
#     4  11  17  37  55  77 114 161 206 250 297 335
#     4  11  23  38  58  87 123 165 205 240 291 356
#     4  10  21  34  50  80 125 170 205 242 289 352
#     4  12  23  40  62  90 121 157 198 254 304 356
#
# _framework density 18.934000999999999
#
# number of rings (size 3 to 8) (size 9 to 14) (size 15 to 20)
#    0.000    1.455    1.818    5.182    0.000    2.909 
#    0.000    2.727    0.000    1.091    0.000    0.000 
#    0.000    0.000    0.000    0.000    0.000    0.000 
#
# Total GULP energy -122509.160501 kJ/mol
# GULP energy per Si atom -5568.598205 kJ/mol
# Density = 1.889091 g / cm^3
# Si number density = 18.934001 Si / 1000 Ang^3
#
#
#
# Elastic Constant Matrix: (Units=GPa)
#
#
# Indices 1 2 3 4 5 6 
#
# 1 181.6220 45.9772 30.8178 0.0000 0.0000 0.0000
# 2 45.9772 86.0743 0.9451 0.0000 0.0000 0.0000
# 3 30.8178 0.9451 60.4248 0.0000 0.0000 0.0000
# 4 0.0000 0.0000 0.0000 15.9338 0.0000 0.0000
# 5 0.0000 0.0000 0.0000 0.0000 19.2591 0.0000
# 6 0.0000 0.0000 0.0000 0.0000 0.0000 33.1913
#
#
#
# Elastic Compliance Matrix: (Units=1/GPa)
#
#
# Indices 1 2 3 4 5 6 
#
# 1 0.007050 -0.003727 -0.003537 0.000000 0.000000 0.000000
# 2 -0.003727 0.013590 0.001688 0.000000 0.000000 0.000000
# 3 -0.003537 0.001688 0.018327 0.000000 0.000000 0.000000
# 4 0.000000 0.000000 0.000000 0.062760 0.000000 0.000000
# 5 0.000000 0.000000 0.000000 0.000000 0.051924 0.000000
# 6 0.000000 0.000000 0.000000 0.000000 0.000000 0.030128
#
#
# Mechanical properties :
#
#
# Convention : Reuss Voigt Hill
#
# Bulk Modulus (GPa) = 35.95151 53.73347 44.84249
# Shear Modulus (GPa) = 24.48562 30.36889 27.42725
#
# Velocity S-wave (km/s) = 3.60002 4.00926 3.81014
# Velocity P-wave (km/s) = 6.02572 7.06209 6.56439
#
# Compressibility (1/GPa) = 0.02781524
#
# Stress axis : x y z
#
# Youngs Moduli (GPa) = 141.85336 73.58356 54.56400
#
# Poissons Ratio (x) = 0.27423 0.19300
# Poissons Ratio (y) = 0.52865 -0.09211
# Poissons Ratio (z) = 0.50175 -0.12422
#
# Static dielectric constant tensor:
#      x y z
#    x 1.755780 0.000000 0.000000 
#    y 0.000000 1.637460 0.000000 
#    z 0.000000 0.000000 1.745680 
# 
# From -- ./inp_files/1369.got.cif
#   From: 2010.05.17/outbox.cif.g08.bks.cpg/sg38_1_cif.got.tgz:1369.got - 2010.06.03 18:07:57.
