data_PCOD9358327
_publ_section_title
;
Structure prediction by ZEFSAII (Michael W. Deem and Ramdas Pophale) SiO2 
 PCOD9358327
Probable space group: A M M 2
;
_chemical_formula_sum "Si O2"
_cell_formula_units_Z 64
_cell_length_a 14.925350
_cell_length_b 8.859704
_cell_length_c 25.500892
_cell_angle_alpha 90.000000
_cell_angle_beta 90.000000
_cell_angle_gamma 90.000000
_cell_volume 3372.089622
_symmetry_space_group_name_H-M "A M M 2"
_symmetry_group_IT_number 38
_symmetry_cell_setting 'orthorhombic'
loop_
_space_group_symop_operation_xyz
x,y,z
-x,-y,z
-x,y,z
x,-y,z
x,1/2+y,1/2+z
-x,1/2-y,1/2+z
-x,1/2+y,1/2+z
x,1/2-y,1/2+z
loop_
_atom_site_type_symbol
_atom_site_label
_atom_site_fract_x
_atom_site_fract_y
_atom_site_fract_z
Si Si1 0.397962 0.318526 0.390200
Si Si2 0.205687 0.681310 0.631692
Si Si3 0.362732 0.325890 0.270411
Si Si4 0.895446 0.817120 0.025994
Si Si5 0.099304 0.819955 0.848501
Si Si6 0.155480 0.172703 0.737968
Si Si7 0.776712 0.821358 0.433261
Si Si8 0.403054 0.181418 0.161046
O O1 0.500000 0.284735 0.405702
O O2 0.385194 0.500000 0.391449
O O3 0.385178 0.272549 0.328980
O O4 0.323186 0.243146 0.426303
O O5 0.208549 0.500000 0.630918
O O6 0.150523 0.730396 0.580806
O O7 0.157653 0.733421 0.684986
O O8 0.309764 0.736430 0.634919
O O9 0.393662 0.500000 0.265841
O O10 0.256211 0.326432 0.261326
O O11 0.399358 0.230155 0.221967
O O12 0.000000 0.770902 0.022656
O O13 0.893683 0.000000 0.023116
O O14 0.834143 0.752517 0.979778
O O15 0.098797 0.774855 0.787577
O O16 0.171199 0.727480 0.880610
O O17 0.000000 0.800360 0.871341
O O18 0.120838 0.000000 0.850512
O O19 0.130872 0.000000 0.725428
O O20 0.774766 0.000000 0.439147
O O21 0.500000 0.233502 0.139479
O O22 0.401567 0.000000 0.157972
#
# Coordination Sequence:
#
# PCOD9358327 Si02
#       8
#     8   8   8   8   8   8   8   8
#     4  10  20  36  59  84 113 153 197 234 274 335
#     4   9  19  35  55  80 109 142 186 236 286 340
#     4   9  16  29  50  76 109 148 189 227 261 315
#     4  10  22  42  65  83 104 144 196 246 295 350
#     4  10  20  36  58  82 112 152 193 232 282 349
#     4   9  17  31  52  80 115 150 182 225 280 336
#     4  12  25  39  58  84 117 148 184 242 298 343
#     4   9  17  29  47  75 112 148 180 220 273 332
#
# _framework density 18.979327999999999
#
# number of rings (size 3 to 8) (size 9 to 14) (size 15 to 20)
#    0.000    2.250    1.250    1.875    0.000    5.000 
#    0.000    0.625    0.000    2.250    0.000    0.000 
#    0.000    0.000    0.000    0.000    0.000    0.000 
#
# Total GULP energy -178484.027123 kJ/mol
# GULP energy per Si atom -5577.625848 kJ/mol
# Density = 1.893613 g / cm^3
# Si number density = 18.979328 Si / 1000 Ang^3
#
#
#
# Elastic Constant Matrix: (Units=GPa)
#
#
# Indices 1 2 3 4 5 6 
#
# 1 136.9201 37.1773 69.9104 0.0000 0.0000 0.0000
# 2 37.1773 20.3653 25.9566 0.0000 0.0000 0.0000
# 3 69.9104 25.9566 102.5445 0.0000 0.0000 0.0000
# 4 0.0000 0.0000 0.0000 26.3539 0.0000 0.0000
# 5 0.0000 0.0000 0.0000 0.0000 16.3773 0.0000
# 6 0.0000 0.0000 0.0000 0.0000 0.0000 10.3797
#
#
#
# Elastic Compliance Matrix: (Units=1/GPa)
#
#
# Indices 1 2 3 4 5 6 
#
# 1 0.016195 -0.022871 -0.005252 0.000000 0.000000 0.000000
# 2 -0.022871 0.104787 -0.010932 0.000000 0.000000 0.000000
# 3 -0.005252 -0.010932 0.016100 0.000000 0.000000 0.000000
# 4 0.000000 0.000000 0.000000 0.037945 0.000000 0.000000
# 5 0.000000 0.000000 0.000000 0.000000 0.061060 0.000000
# 6 0.000000 0.000000 0.000000 0.000000 0.000000 0.096342
#
#
# Mechanical properties :
#
#
# Convention : Reuss Voigt Hill
#
# Bulk Modulus (GPa) = 16.95700 58.43538 37.69619
# Shear Modulus (GPa) = 11.62261 19.07456 15.34858
#
# Velocity S-wave (km/s) = 2.47732 3.17364 2.84685
# Velocity P-wave (km/s) = 4.13965 6.65471 5.54174
#
# Compressibility (1/GPa) = 0.05897269
#
# Stress axis : x y z
#
# Youngs Moduli (GPa) = 61.74699 9.54313 62.11305
#
# Poissons Ratio (x) = 0.21826 0.32622
# Poissons Ratio (y) = 1.41219 0.67903
# Poissons Ratio (z) = 0.32430 0.10433
#
# Static dielectric constant tensor:
#      x y z
#    x 1.712290 0.000000 0.000000 
#    y 0.000000 1.641420 0.000000 
#    z 0.000000 0.000000 1.642450 
# 
# From -- ./inp_files/22890.got.cif
#   From: 2010.05.17/outbox.cif.g08.bks.cpg/sg38_12_cif.got.tgz:22890.got - 2010.06.03 18:07:57.
