data_PCOD9358401
_publ_section_title
;
Structure prediction by ZEFSAII (Michael W. Deem and Ramdas Pophale) SiO2 
 PCOD9358401
Probable space group: A M M 2
;
_chemical_formula_sum "Si O2"
_cell_formula_units_Z 48
_cell_length_a 8.555500
_cell_length_b 17.405862
_cell_length_c 17.282578
_cell_angle_alpha 90.000000
_cell_angle_beta 90.000000
_cell_angle_gamma 90.000000
_cell_volume 2573.649834
_symmetry_space_group_name_H-M "A M M 2"
_symmetry_group_IT_number 38
_symmetry_cell_setting 'orthorhombic'
loop_
_space_group_symop_operation_xyz
x,y,z
-x,-y,z
-x,y,z
x,-y,z
x,1/2+y,1/2+z
-x,1/2-y,1/2+z
-x,1/2+y,1/2+z
x,1/2-y,1/2+z
loop_
_atom_site_type_symbol
_atom_site_label
_atom_site_fract_x
_atom_site_fract_y
_atom_site_fract_z
Si Si1 0.688804 0.500000 0.267601
Si Si2 0.187783 0.683716 0.707937
Si Si3 0.312211 0.650205 0.171742
Si Si4 0.810561 0.500000 0.441482
Si Si5 0.812190 0.177733 0.502087
Si Si6 0.687404 0.411134 0.853142
Si Si7 0.189850 0.350082 0.534026
O O1 0.500000 0.500000 0.271545
O O2 0.736983 0.423781 0.220999
O O3 0.755209 0.500000 0.353617
O O4 0.249395 0.770961 0.708811
O O5 0.250670 0.634192 0.778588
O O6 0.236634 0.649561 0.624246
O O7 0.000000 0.685302 0.710368
O O8 0.500000 0.652809 0.169044
O O9 0.247928 0.646654 0.084383
O O10 0.755553 0.576492 0.486201
O O11 0.000000 0.500000 0.442808
O O12 0.747551 0.130194 0.430444
O O13 0.762622 0.267631 0.499164
O O14 0.000000 0.175380 0.501628
O O15 0.500000 0.409410 0.852854
O O16 0.739047 0.500000 0.851316
O O17 0.000000 0.351284 0.533134
#
# Coordination Sequence:
#
# PCOD9358401 Si02
#       7
#     4   8   8   4   8   8   8
#     4  10  24  40  56  85 120 155 198 243 288 349
#     4  10  21  39  63  89 118 153 200 249 298 356
#     4  10  21  40  62  85 120 161 198 242 302 358
#     4  10  20  36  60  87 116 151 192 239 294 349
#     4  10  21  39  61  89 119 152 201 249 298 357
#     4  11  25  41  59  87 122 158 199 245 302 366
#     4   8  18  36  59  87 116 148 187 239 294 346
#
# _framework density 18.650556999999999
#
# number of rings (size 3 to 8) (size 9 to 14) (size 15 to 20)
#    0.000    2.167    0.000    3.000    4.667    2.667 
#    0.000    4.167    0.000    0.000    0.000    0.000 
#    0.000    0.000    0.000    0.000    0.000    0.000 
#
# Total GULP energy -134040.614365 kJ/mol
# GULP energy per Si atom -5585.025599 kJ/mol
# Density = 1.860811 g / cm^3
# Si number density = 18.650557 Si / 1000 Ang^3
#
#
#
# Elastic Constant Matrix: (Units=GPa)
#
#
# Indices 1 2 3 4 5 6 
#
# 1 45.5140 46.1318 41.2496 0.0000 0.0000 0.0000
# 2 46.1318 193.7225 158.3412 0.0000 0.0000 0.0000
# 3 41.2496 158.3412 165.3133 0.0000 0.0000 0.0000
# 4 0.0000 0.0000 0.0000 30.3752 0.0000 0.0000
# 5 0.0000 0.0000 0.0000 0.0000 2.2818 0.0000
# 6 0.0000 0.0000 0.0000 0.0000 0.0000 24.4799
#
#
#
# Elastic Compliance Matrix: (Units=1/GPa)
#
#
# Indices 1 2 3 4 5 6 
#
# 1 0.029258 -0.004606 -0.002888 0.000000 0.000000 0.000000
# 2 -0.004606 0.024501 -0.022318 0.000000 0.000000 0.000000
# 3 -0.002888 -0.022318 0.028147 0.000000 0.000000 0.000000
# 4 0.000000 0.000000 0.000000 0.032922 0.000000 0.000000
# 5 0.000000 0.000000 0.000000 0.000000 0.438245 0.000000
# 6 0.000000 0.000000 0.000000 0.000000 0.000000 0.040850
#
#
# Mechanical properties :
#
#
# Convention : Reuss Voigt Hill
#
# Bulk Modulus (GPa) = 44.88405 99.55500 72.21953
# Shear Modulus (GPa) = 7.56458 22.01586 14.79022
#
# Velocity S-wave (km/s) = 2.01612 3.43948 2.81911
# Velocity P-wave (km/s) = 5.43486 8.32276 7.02873
#
# Compressibility (1/GPa) = 0.02227963
#
# Stress axis : x y z
#
# Youngs Moduli (GPa) = 34.17870 40.81443 35.52784
#
# Poissons Ratio (x) = 0.18801 0.10262
# Poissons Ratio (y) = 0.15744 0.79292
# Poissons Ratio (z) = 0.09872 0.91091
#
# Static dielectric constant tensor:
#      x y z
#    x 1.639390 0.000000 0.000000 
#    y 0.000000 1.635690 0.000000 
#    z 0.000000 0.000000 1.606170 
# 
# From -- ./inp_files/12056.got.cif
#   From: 2010.05.17/outbox.cif.g08.bks.cpg/sg38_7_cif.got.tgz:12056.got - 2010.06.03 18:07:57.
