data_PCOD9358687
_publ_section_title
;
Structure prediction by ZEFSAII (Michael W. Deem and Ramdas Pophale) SiO2 
 PCOD9358687
Probable space group: A M M 2
;
_chemical_formula_sum "Si O2"
_cell_formula_units_Z 64
_cell_length_a 13.161680
_cell_length_b 7.403515
_cell_length_c 25.877908
_cell_angle_alpha 90.000000
_cell_angle_beta 90.000000
_cell_angle_gamma 90.000000
_cell_volume 2521.613104
_symmetry_space_group_name_H-M "A M M 2"
_symmetry_group_IT_number 38
_symmetry_cell_setting 'orthorhombic'
loop_
_space_group_symop_operation_xyz
x,y,z
-x,-y,z
-x,y,z
x,-y,z
x,1/2+y,1/2+z
-x,1/2-y,1/2+z
-x,1/2+y,1/2+z
x,1/2-y,1/2+z
loop_
_atom_site_type_symbol
_atom_site_label
_atom_site_fract_x
_atom_site_fract_y
_atom_site_fract_z
Si Si1 0.661393 0.707110 0.284900
Si Si2 0.834134 0.219788 0.532558
Si Si3 0.609667 0.220343 0.672018
Si Si4 0.110639 0.708415 0.759987
Si Si5 0.668769 0.279060 0.395905
Si Si6 0.892955 0.209042 0.918448
Si Si7 0.608493 0.290862 0.010030
Si Si8 0.833544 0.218512 0.644169
O O1 0.627169 0.500000 0.284934
O O2 0.620956 0.784830 0.231386
O O3 0.784841 0.706927 0.280506
O O4 0.630064 0.782727 0.340215
O O5 0.887677 0.284262 0.480793
O O6 0.716638 0.282979 0.528098
O O7 0.875835 0.273572 0.588496
O O8 0.835305 0.000000 0.530360
O O9 0.500000 0.276558 0.651231
O O10 0.714392 0.272531 0.645108
O O11 0.610828 0.000000 0.672005
O O12 0.113574 0.500000 0.775890
O O13 0.118417 0.715538 0.697390
O O14 0.000000 0.785026 0.774802
O O15 0.666878 0.500000 0.397094
O O16 0.785918 0.215170 0.400098
O O17 0.614611 0.215937 0.447665
O O18 0.000000 0.291271 0.901542
O O19 0.892922 0.000000 0.902388
O O20 0.500000 0.210948 0.025753
O O21 0.608067 0.500000 0.027114
O O22 0.838929 0.000000 0.646828
#
# Coordination Sequence:
#
# PCOD9358687 Si02
#       8
#     8   8   8   8   8   8   8   8
#     4   9  18  32  51  74  97 124 159 198 238 278
#     4   9  18  32  49  70  95 123 160 202 239 280
#     4   8  14  26  45  69  94 117 146 187 231 273
#     4  10  21  35  50  70  97 128 160 195 239 291
#     4   9  18  32  50  72  97 126 161 200 239 280
#     4   9  18  32  48  67  93 124 157 193 237 289
#     4   9  18  32  49  71 101 134 164 196 238 286
#     4   9  18  32  50  71  94 124 161 199 239 281
#
# _framework density 25.380579999999998
#
# number of rings (size 3 to 8) (size 9 to 14) (size 15 to 20)
#    0.000    3.000    0.000    1.125    0.000    4.500 
#    0.000    7.500    0.000    6.000    0.000    5.250 
#    0.000    0.000    0.000    0.000    0.000    0.000 
#
# Total GULP energy -178745.224890 kJ/mol
# GULP energy per Si atom -5585.788278 kJ/mol
# Density = 2.532281 g / cm^3
# Si number density = 25.380580 Si / 1000 Ang^3
#
#
#
# Elastic Constant Matrix: (Units=GPa)
#
#
# Indices 1 2 3 4 5 6 
#
# 1 140.0400 -0.9417 -6.0071 0.0000 0.0000 0.0000
# 2 -0.9417 90.4384 -12.4127 0.0000 0.0000 0.0000
# 3 -6.0071 -12.4127 124.3142 0.0000 0.0000 0.0000
# 4 0.0000 0.0000 0.0000 12.0515 0.0000 0.0000
# 5 0.0000 0.0000 0.0000 0.0000 -21.5485 0.0000
# 6 0.0000 0.0000 0.0000 0.0000 0.0000 5.9851
#
#
#
# Elastic Compliance Matrix: (Units=1/GPa)
#
#
# Indices 1 2 3 4 5 6 
#
# 1 0.007157 0.000124 0.000358 0.000000 0.000000 0.000000
# 2 0.000124 0.011213 0.001126 0.000000 0.000000 0.000000
# 3 0.000358 0.001126 0.008174 0.000000 0.000000 0.000000
# 4 0.000000 0.000000 0.000000 0.082977 0.000000 0.000000
# 5 0.000000 0.000000 0.000000 0.000000 -0.046407 0.000000
# 6 0.000000 0.000000 0.000000 0.000000 0.000000 0.167080
#
#
# Mechanical properties :
#
#
# Convention : Reuss Voigt Hill
#
# Bulk Modulus (GPa) = 33.60351 35.11885 34.36118
# Shear Modulus (GPa) = 21.10602 24.24122 22.67362
#
# Velocity S-wave (km/s) = 2.88684 3.09384 2.99213
# Velocity P-wave (km/s) = 4.93765 5.16037 5.05024
#
# Compressibility (1/GPa) = 0.02975879
#
# Stress axis : x y z
#
# Youngs Moduli (GPa) = 139.72304 89.18200 122.34170
#
# Poissons Ratio (x) = -0.01103 -0.04382
# Poissons Ratio (y) = -0.01728 -0.13771
# Poissons Ratio (z) = -0.05005 -0.10038
#
# Static dielectric constant tensor:
#      x y z
#    x 2.002810 0.000000 0.000000 
#    y 0.000000 1.992360 0.000000 
#    z 0.000000 0.000000 1.975440 
# 
# From -- ./inp_files/25075.got.cif
#   From: 2010.05.17/outbox.cif.g08.bks.cpg/sg38_13_cif.got.tgz:25075.got - 2010.06.03 18:07:57.
