data_PCOD9358111
_publ_section_title
;
Structure prediction by ZEFSAII (Michael W. Deem and Ramdas Pophale) SiO2 
 PCOD9358111
Probable space group: A M M 2
;
_chemical_formula_sum "Si O2"
_cell_formula_units_Z 58
_cell_length_a 13.429267
_cell_length_b 7.438786
_cell_length_c 26.687074
_cell_angle_alpha 90.000000
_cell_angle_beta 90.000000
_cell_angle_gamma 90.000000
_cell_volume 2665.970463
_symmetry_space_group_name_H-M "A M M 2"
_symmetry_group_IT_number 38
_symmetry_cell_setting 'orthorhombic'
loop_
_space_group_symop_operation_xyz
x,y,z
-x,-y,z
-x,y,z
x,-y,z
x,1/2+y,1/2+z
-x,1/2-y,1/2+z
-x,1/2+y,1/2+z
x,1/2-y,1/2+z
loop_
_atom_site_type_symbol
_atom_site_label
_atom_site_fract_x
_atom_site_fract_y
_atom_site_fract_z
Si Si1 0.891369 0.282540 0.901390
Si Si2 0.109309 0.285481 0.183051
Si Si3 0.607966 0.207981 0.317873
Si Si4 0.178066 0.221423 0.576441
Si Si5 0.329764 0.208808 0.929108
Si Si6 0.818319 0.712908 0.793708
Si Si7 0.000000 0.500000 0.551160
Si Si8 0.391627 0.205705 0.537338
O O1 0.892831 0.500000 0.902960
O O2 0.790712 0.226814 0.929476
O O3 0.876570 0.222247 0.843160
O O4 0.000000 0.219331 0.919715
O O5 0.104883 0.500000 0.183182
O O6 0.177481 0.238160 0.136243
O O7 0.135035 0.234772 0.239515
O O8 0.000000 0.212040 0.170551
O O9 0.500000 0.289695 0.308223
O O10 0.631177 0.211011 0.377141
O O11 0.706721 0.290452 0.293820
O O12 0.603127 0.000000 0.301789
O O13 0.286268 0.278673 0.556340
O O14 0.088658 0.339785 0.553572
O O15 0.164633 0.000000 0.569242
O O16 0.355294 0.000000 0.928681
O O17 0.379138 0.293513 0.977408
O O18 0.810031 0.500000 0.802651
O O19 0.500000 0.286649 0.549961
O O20 0.393712 0.000000 0.555363
#
# Coordination Sequence:
#
# PCOD9358111 Si02
#       8
#     8   8   8   8   8   8   2   8
#     4   9  18  35  53  75 109 152 193 233 280 344
#     4  10  20  35  54  80 113 148 184 233 285 342
#     4   9  18  35  55  74 103 146 190 233 281 340
#     4  10  23  42  63  94 127 156 205 256 300 369
#     4  11  22  34  53  83 114 142 186 241 291 349
#     4   9  18  30  51  79 106 138 186 232 276 341
#     4  12  22  40  70  94 120 168 194 250 324 358
#     4  10  22  43  67  86 113 157 200 246 304 363
#
# _framework density 21.755679000000001
#
# number of rings (size 3 to 8) (size 9 to 14) (size 15 to 20)
#    0.000    2.207    0.690    3.103    1.931    5.517 
#    1.241    0.690    0.000    0.828    0.000    0.000 
#    0.000    0.000    0.000    0.000    0.000    0.000 
#
# Total GULP energy -161495.664191 kJ/mol
# GULP energy per Si atom -5568.816007 kJ/mol
# Density = 2.170616 g / cm^3
# Si number density = 21.755679 Si / 1000 Ang^3
#
#
#
# Elastic Constant Matrix: (Units=GPa)
#
#
# Indices 1 2 3 4 5 6 
#
# 1 169.2604 16.1865 24.0247 0.0000 0.0000 0.0000
# 2 16.1865 96.3407 -9.8413 0.0000 0.0000 0.0000
# 3 24.0247 -9.8413 40.4444 0.0000 0.0000 0.0000
# 4 0.0000 0.0000 0.0000 25.4416 0.0000 0.0000
# 5 0.0000 0.0000 0.0000 0.0000 1.3458 0.0000
# 6 0.0000 0.0000 0.0000 0.0000 0.0000 -1.2817
#
#
#
# Elastic Compliance Matrix: (Units=1/GPa)
#
#
# Indices 1 2 3 4 5 6 
#
# 1 0.006675 -0.001565 -0.004346 0.000000 0.000000 0.000000
# 2 -0.001565 0.011012 0.003609 0.000000 0.000000 0.000000
# 3 -0.004346 0.003609 0.028185 0.000000 0.000000 0.000000
# 4 0.000000 0.000000 0.000000 0.039306 0.000000 0.000000
# 5 0.000000 0.000000 0.000000 0.000000 0.743043 0.000000
# 6 0.000000 0.000000 0.000000 0.000000 0.000000 -0.780212
#
#
# Mechanical properties :
#
#
# Convention : Reuss Voigt Hill
#
# Bulk Modulus (GPa) = 24.23212 40.75392 32.49302
# Shear Modulus (GPa) = 75.33858 23.47952 49.40905
#
# Velocity S-wave (km/s) = 5.89106 3.28874 4.77076
# Velocity P-wave (km/s) = 7.57860 5.76145 6.73162
#
# Compressibility (1/GPa) = 0.04126754
#
# Stress axis : x y z
#
# Youngs Moduli (GPa) = 149.82220 90.81395 35.47986
#
# Poissons Ratio (x) = 0.14215 0.15419
# Poissons Ratio (y) = 0.23452 -0.12806
# Poissons Ratio (z) = 0.65109 -0.32777
#
# Static dielectric constant tensor:
#      x y z
#    x 1.850030 0.000000 0.000000 
#    y 0.000000 1.816770 0.000000 
#    z 0.000000 0.000000 1.773440 
# 
# From -- ./inp_files/23817.got.cif
#   From: 2010.05.17/outbox.cif.g08.bks.cpg/sg38_12_cif.got.tgz:23817.got - 2010.06.03 18:07:57.
