data_PCOD9358647
_publ_section_title
;
Structure prediction by ZEFSAII (Michael W. Deem and Ramdas Pophale) SiO2 
 PCOD9358647
Probable space group: A M M 2
;
_chemical_formula_sum "Si O2"
_cell_formula_units_Z 48
_cell_length_a 7.788298
_cell_length_b 9.344124
_cell_length_c 35.880001
_cell_angle_alpha 90.000000
_cell_angle_beta 90.000000
_cell_angle_gamma 90.000000
_cell_volume 2611.160695
_symmetry_space_group_name_H-M "A M M 2"
_symmetry_group_IT_number 38
_symmetry_cell_setting 'orthorhombic'
loop_
_space_group_symop_operation_xyz
x,y,z
-x,-y,z
-x,y,z
x,-y,z
x,1/2+y,1/2+z
-x,1/2-y,1/2+z
-x,1/2+y,1/2+z
x,1/2-y,1/2+z
loop_
_atom_site_type_symbol
_atom_site_label
_atom_site_fract_x
_atom_site_fract_y
_atom_site_fract_z
Si Si1 0.704867 0.339084 0.291010
Si Si2 0.000000 0.325772 0.575862
Si Si3 0.796278 0.662465 0.863739
Si Si4 0.702193 0.328233 0.717257
Si Si5 0.293893 0.336665 0.945915
Si Si6 0.000000 0.326078 0.660912
Si Si7 0.700940 0.672005 0.519988
O O1 0.500000 0.348431 0.287063
O O2 0.776148 0.500000 0.291130
O O3 0.737503 0.259078 0.329696
O O4 0.762253 0.247899 0.255271
O O5 0.169966 0.283635 0.552821
O O6 0.000000 0.500000 0.576871
O O7 0.000000 0.274359 0.618396
O O8 0.724066 0.500000 0.860909
O O9 0.753163 0.719169 0.904949
O O10 0.000000 0.652889 0.861231
O O11 0.500000 0.295620 0.710153
O O12 0.714374 0.500000 0.722135
O O13 0.829534 0.285104 0.683943
O O14 0.500000 0.341824 0.947259
O O15 0.227589 0.500000 0.948728
O O16 0.240380 0.243285 0.981214
O O17 0.000000 0.500000 0.659682
O O18 0.500000 0.709373 0.526967
O O19 0.709209 0.500000 0.516374
#
# Coordination Sequence:
#
# PCOD9358647 Si02
#       7
#     8   4   8   8   8   4   8
#     4  10  21  36  53  74 102 137 174 213 258 308
#     4   9  18  32  51  78 107 132 163 210 261 305
#     4  10  21  34  50  75 104 135 173 216 258 302
#     4   9  18  33  54  78 103 134 172 214 258 305
#     4   9  18  33  52  73  99 133 171 211 253 296
#     4   9  18  32  53  80 105 130 167 212 257 309
#     4   9  18  32  51  75 103 136 171 207 252 306
#
# _framework density 18.382629000000001
#
# number of rings (size 3 to 8) (size 9 to 14) (size 15 to 20)
#    0.000    2.667    0.000    1.000    2.333    3.333 
#    0.000    5.000    0.000    2.000    0.000    4.667 
#    0.000    0.000    0.000    0.000    0.000    0.000 
#
# Total GULP energy -133796.401470 kJ/mol
# GULP energy per Si atom -5574.850061 kJ/mol
# Density = 1.834079 g / cm^3
# Si number density = 18.382629 Si / 1000 Ang^3
#
#
#
# Elastic Constant Matrix: (Units=GPa)
#
#
# Indices 1 2 3 4 5 6 
#
# 1 70.7135 30.4951 67.9395 0.0000 0.0000 0.0000
# 2 30.4951 37.2783 59.6998 0.0000 0.0000 0.0000
# 3 67.9395 59.6998 203.9745 0.0000 0.0000 0.0000
# 4 0.0000 0.0000 0.0000 48.7613 0.0000 0.0000
# 5 0.0000 0.0000 0.0000 0.0000 35.0927 0.0000
# 6 0.0000 0.0000 0.0000 0.0000 0.0000 10.4495
#
#
#
# Elastic Compliance Matrix: (Units=1/GPa)
#
#
# Indices 1 2 3 4 5 6 
#
# 1 0.023585 -0.012635 -0.004158 0.000000 0.000000 0.000000
# 2 -0.012635 0.057261 -0.012551 0.000000 0.000000 0.000000
# 3 -0.004158 -0.012551 0.009961 0.000000 0.000000 0.000000
# 4 0.000000 0.000000 0.000000 0.020508 0.000000 0.000000
# 5 0.000000 0.000000 0.000000 0.000000 0.028496 0.000000
# 6 0.000000 0.000000 0.000000 0.000000 0.000000 0.095698
#
#
# Mechanical properties :
#
#
# Convention : Reuss Voigt Hill
#
# Bulk Modulus (GPa) = 31.13369 69.80389 50.46879
# Shear Modulus (GPa) = 16.39869 29.11617 22.75743
#
# Velocity S-wave (km/s) = 2.99000 3.98414 3.52232
# Velocity P-wave (km/s) = 5.37526 7.69543 6.63751
#
# Compressibility (1/GPa) = 0.03211955
#
# Stress axis : x y z
#
# Youngs Moduli (GPa) = 42.39994 17.46390 100.39424
#
# Poissons Ratio (x) = 0.22066 0.41739
# Poissons Ratio (y) = 0.53574 1.26002
# Poissons Ratio (z) = 0.17628 0.21918
#
# Static dielectric constant tensor:
#      x y z
#    x 1.650810 0.000000 0.000000 
#    y 0.000000 1.479650 0.000000 
#    z 0.000000 0.000000 1.615390 
# 
# From -- ./inp_files/24316.got.cif
#   From: 2010.05.17/outbox.cif.g08.bks.cpg/sg38_13_cif.got.tgz:24316.got - 2010.06.03 18:07:57.
