data_PCOD9358748
_publ_section_title
;
Structure prediction by ZEFSAII (Michael W. Deem and Ramdas Pophale) SiO2 
 PCOD9358748
Probable space group: A M M 2
;
_chemical_formula_sum "Si O2"
_cell_formula_units_Z 64
_cell_length_a 21.769159
_cell_length_b 7.898569
_cell_length_c 19.022857
_cell_angle_alpha 90.000000
_cell_angle_beta 90.000000
_cell_angle_gamma 90.000000
_cell_volume 3270.889036
_symmetry_space_group_name_H-M "A M M 2"
_symmetry_group_IT_number 38
_symmetry_cell_setting 'orthorhombic'
loop_
_space_group_symop_operation_xyz
x,y,z
-x,-y,z
-x,y,z
x,-y,z
x,1/2+y,1/2+z
-x,1/2-y,1/2+z
-x,1/2+y,1/2+z
x,1/2-y,1/2+z
loop_
_atom_site_type_symbol
_atom_site_label
_atom_site_fract_x
_atom_site_fract_y
_atom_site_fract_z
Si Si1 0.933782 0.701220 0.605590
Si Si2 0.199622 0.792101 0.453767
Si Si3 0.315254 0.298460 0.201324
Si Si4 0.568767 0.703217 0.115919
Si Si5 0.066298 0.697994 0.943911
Si Si6 0.685039 0.700608 0.862303
Si Si7 0.197895 0.296137 0.116720
Si Si8 0.569477 0.797103 0.954985
O O1 0.933331 0.500000 0.593364
O O2 0.932426 0.789102 0.529063
O O3 0.870140 0.746676 0.642474
O O4 0.000000 0.745189 0.638915
O O5 0.133406 0.733292 0.423715
O O6 0.257596 0.734557 0.408553
O O7 0.205174 0.738852 0.535449
O O8 0.198741 0.000000 0.454047
O O9 0.315475 0.500000 0.187938
O O10 0.377093 0.229213 0.165101
O O11 0.315184 0.272102 0.284158
O O12 0.253658 0.231094 0.164121
O O13 0.500000 0.770500 0.130380
O O14 0.566077 0.500000 0.124737
O O15 0.583240 0.738502 0.034387
O O16 0.065378 0.500000 0.924381
O O17 0.000000 0.772987 0.921778
O O18 0.692654 0.500000 0.856475
O O19 0.621598 0.736032 0.902363
O O20 0.199764 0.500000 0.115741
O O21 0.500000 0.738105 0.937652
O O22 0.569263 0.000000 0.954148
#
# Coordination Sequence:
#
# PCOD9358748 Si02
#       8
#     8   8   8   8   8   8   8   8
#     4   9  16  25  40  67 100 125 151 199 257 303
#     4   8  15  29  49  73  97 124 163 206 246 290
#     4  10  21  36  52  74 105 138 173 212 253 298
#     4   9  18  35  59  81 101 129 164 203 250 303
#     4   8  13  24  44  67  91 122 161 201 242 295
#     4  11  22  35  52  74 104 140 174 210 251 299
#     4   9  17  31  51  70  93 130 171 208 246 297
#     4  10  21  37  57  80 105 131 163 207 253 299
#
# _framework density 19.566547
#
# number of rings (size 3 to 8) (size 9 to 14) (size 15 to 20)
#    0.000    2.750    0.000    2.625    0.000    5.000 
#    0.000    8.750    0.000    0.750    0.000    1.750 
#    0.000    0.000    0.000    0.000    0.000    0.000 
#
# Total GULP energy -178332.787254 kJ/mol
# GULP energy per Si atom -5572.899602 kJ/mol
# Density = 1.952201 g / cm^3
# Si number density = 19.566547 Si / 1000 Ang^3
#
#
#
# Elastic Constant Matrix: (Units=GPa)
#
#
# Indices 1 2 3 4 5 6 
#
# 1 200.6828 2.4890 91.4797 0.0000 0.0000 0.0000
# 2 2.4890 20.1485 -6.9340 0.0000 0.0000 0.0000
# 3 91.4797 -6.9340 67.4876 0.0000 0.0000 0.0000
# 4 0.0000 0.0000 0.0000 13.5152 0.0000 0.0000
# 5 0.0000 0.0000 0.0000 0.0000 -3.8798 0.0000
# 6 0.0000 0.0000 0.0000 0.0000 0.0000 12.1061
#
#
#
# Elastic Compliance Matrix: (Units=1/GPa)
#
#
# Indices 1 2 3 4 5 6 
#
# 1 0.014407 -0.008812 -0.020434 0.000000 0.000000 0.000000
# 2 -0.008812 0.056841 0.017785 0.000000 0.000000 0.000000
# 3 -0.020434 0.017785 0.044343 0.000000 0.000000 0.000000
# 4 0.000000 0.000000 0.000000 0.073991 0.000000 0.000000
# 5 0.000000 0.000000 0.000000 0.000000 -0.257746 0.000000
# 6 0.000000 0.000000 0.000000 0.000000 0.000000 0.082603
#
#
# Mechanical properties :
#
#
# Convention : Reuss Voigt Hill
#
# Bulk Modulus (GPa) = 10.79116 51.37647 31.08382
# Shear Modulus (GPa) = 73.25900 17.76725 45.51312
#
# Velocity S-wave (km/s) = 6.12554 3.01664 4.82817
# Velocity P-wave (km/s) = 7.45364 6.20063 6.85582
#
# Compressibility (1/GPa) = 0.09266841
#
# Stress axis : x y z
#
# Youngs Moduli (GPa) = 69.41046 17.59302 22.55124
#
# Poissons Ratio (x) = 0.15503 0.46082
# Poissons Ratio (y) = 0.61165 -0.40107
# Poissons Ratio (z) = 1.41835 -0.31289
#
# Static dielectric constant tensor:
#      x y z
#    x 1.751330 0.000000 0.000000 
#    y 0.000000 1.720400 0.000000 
#    z 0.000000 0.000000 1.633370 
# 
# From -- ./inp_files/18861.got.cif
#   From: 2010.05.17/outbox.cif.g08.bks.cpg/sg38_10_cif.got.tgz:18861.got - 2010.06.03 18:07:57.
