data_PCOD9358355
_publ_section_title
;
Structure prediction by ZEFSAII (Michael W. Deem and Ramdas Pophale) SiO2 
 PCOD9358355
Probable space group: A M M 2
;
_chemical_formula_sum "Si O2"
_cell_formula_units_Z 48
_cell_length_a 18.198523
_cell_length_b 7.846030
_cell_length_c 15.805332
_cell_angle_alpha 90.000000
_cell_angle_beta 90.000000
_cell_angle_gamma 90.000000
_cell_volume 2256.782623
_symmetry_space_group_name_H-M "A M M 2"
_symmetry_group_IT_number 38
_symmetry_cell_setting 'orthorhombic'
loop_
_space_group_symop_operation_xyz
x,y,z
-x,-y,z
-x,y,z
x,-y,z
x,1/2+y,1/2+z
-x,1/2-y,1/2+z
-x,1/2+y,1/2+z
x,1/2-y,1/2+z
loop_
_atom_site_type_symbol
_atom_site_label
_atom_site_fract_x
_atom_site_fract_y
_atom_site_fract_z
Si Si1 0.500000 0.186582 0.250000
Si Si2 0.500000 0.310660 0.425036
Si Si3 0.190035 0.705568 0.172045
Si Si4 0.348963 0.194533 0.680553
Si Si5 0.083773 0.205665 0.324277
Si Si6 0.813705 0.294908 0.976482
Si Si7 0.345091 0.205204 0.990524
O O1 0.500000 0.319161 0.324969
O O2 0.575673 0.209437 0.200141
O O3 0.500000 0.000000 0.289640
O O4 0.500000 0.500000 0.463808
O O5 0.578572 0.234948 0.449656
O O6 0.196259 0.500000 0.167776
O O7 0.269627 0.767482 0.207441
O O8 0.127249 0.749769 0.238622
O O9 0.177374 0.766027 0.074629
O O10 0.341194 0.200607 0.579758
O O11 0.356640 0.000000 0.711429
O O12 0.127626 0.267788 0.407631
O O13 0.000000 0.268140 0.322457
O O14 0.081998 0.000000 0.329409
O O15 0.818719 0.500000 0.979374
O O16 0.731645 0.246831 0.945873
O O17 0.346919 0.000000 0.001763
#
# Coordination Sequence:
#
# PCOD9358355 Si02
#       7
#     4   4   8   8   8   8   8
#     4  12  25  36  53  83 115 151 197 242 283 334
#     4  10  23  38  51  77 117 155 187 234 287 336
#     4   9  20  38  61  87 115 152 195 239 290 352
#     4  10  21  39  60  81 113 153 191 236 293 348
#     4  10  22  39  60  87 119 153 191 241 298 355
#     4   9  20  39  60  84 116 156 197 237 293 357
#     4  10  20  36  59  84 112 148 194 241 286 338
#
# _framework density 21.269216
#
# number of rings (size 3 to 8) (size 9 to 14) (size 15 to 20)
#    0.000    2.167    0.000    3.250    2.333    7.000 
#    0.000    1.667    0.000    0.000    0.000    0.000 
#    0.000    0.000    0.000    0.000    0.000    0.000 
#
# Total GULP energy -133834.140878 kJ/mol
# GULP energy per Si atom -5576.422537 kJ/mol
# Density = 2.122081 g / cm^3
# Si number density = 21.269216 Si / 1000 Ang^3
#
#
#
# Elastic Constant Matrix: (Units=GPa)
#
#
# Indices 1 2 3 4 5 6 
#
# 1 231.2777 11.7252 88.6308 0.0000 0.0000 0.0000
# 2 11.7252 41.7869 2.6328 0.0000 0.0000 0.0000
# 3 88.6308 2.6328 84.2801 0.0000 0.0000 0.0000
# 4 0.0000 0.0000 0.0000 22.4170 0.0000 0.0000
# 5 0.0000 0.0000 0.0000 0.0000 44.7195 0.0000
# 6 0.0000 0.0000 0.0000 0.0000 0.0000 28.4710
#
#
#
# Elastic Compliance Matrix: (Units=1/GPa)
#
#
# Indices 1 2 3 4 5 6 
#
# 1 0.007345 -0.001577 -0.007675 0.000000 0.000000 0.000000
# 2 -0.001577 0.024317 0.000899 0.000000 0.000000 0.000000
# 3 -0.007675 0.000899 0.019908 0.000000 0.000000 0.000000
# 4 0.000000 0.000000 0.000000 0.044609 0.000000 0.000000
# 5 0.000000 0.000000 0.000000 0.000000 0.022362 0.000000
# 6 0.000000 0.000000 0.000000 0.000000 0.000000 0.035123
#
#
# Mechanical properties :
#
#
# Convention : Reuss Voigt Hill
#
# Bulk Modulus (GPa) = 28.68295 62.59136 45.63716
# Shear Modulus (GPa) = 27.47382 36.07856 31.77619
#
# Velocity S-wave (km/s) = 3.59795 4.12306 3.86942
# Velocity P-wave (km/s) = 5.54754 7.22206 6.43947
#
# Compressibility (1/GPa) = 0.03486391
#
# Stress axis : x y z
#
# Youngs Moduli (GPa) = 136.14803 41.12364 50.23071
#
# Poissons Ratio (x) = 0.06487 0.38551
# Poissons Ratio (y) = 0.21476 -0.04517
# Poissons Ratio (z) = 1.04491 -0.03698
#
# Static dielectric constant tensor:
#      x y z
#    x 1.856650 0.000000 0.000000 
#    y 0.000000 1.777450 0.000000 
#    z 0.000000 0.000000 1.741970 
# 
# From -- ./inp_files/15020.got.cif
#   From: 2010.05.17/outbox.cif.g08.bks.cpg/sg38_8_cif.got.tgz:15020.got - 2010.06.03 18:07:57.
