data_PCOD9358566
_publ_section_title
;
Structure prediction by ZEFSAII (Michael W. Deem and Ramdas Pophale) SiO2 
 PCOD9358566
Probable space group: A M M 2
;
_chemical_formula_sum "Si O2"
_cell_formula_units_Z 56
_cell_length_a 22.393216
_cell_length_b 8.583994
_cell_length_c 15.046664
_cell_angle_alpha 90.000000
_cell_angle_beta 90.000000
_cell_angle_gamma 90.000000
_cell_volume 2892.318382
_symmetry_space_group_name_H-M "A M M 2"
_symmetry_group_IT_number 38
_symmetry_cell_setting 'orthorhombic'
loop_
_space_group_symop_operation_xyz
x,y,z
-x,-y,z
-x,y,z
x,-y,z
x,1/2+y,1/2+z
-x,1/2-y,1/2+z
-x,1/2+y,1/2+z
x,1/2-y,1/2+z
loop_
_atom_site_type_symbol
_atom_site_label
_atom_site_fract_x
_atom_site_fract_y
_atom_site_fract_z
Si Si1 0.785139 0.183786 0.673380
Si Si2 0.000000 0.315873 0.846686
Si Si3 0.870289 0.812520 0.024683
Si Si4 0.431581 0.185766 0.844885
Si Si5 0.347531 0.184233 0.191737
Si Si6 0.132261 0.815585 0.324788
Si Si7 0.000000 0.818446 0.040488
Si Si8 0.568964 0.685218 0.041727
O O1 0.817860 0.266131 0.590782
O O2 0.718038 0.243633 0.684813
O O3 0.823316 0.225567 0.760779
O O4 0.785150 0.000000 0.658506
O O5 0.062633 0.290034 0.798088
O O6 0.000000 0.500000 0.874801
O O7 0.000000 0.206922 0.933478
O O8 0.934459 0.755923 0.064906
O O9 0.873255 0.000000 0.015469
O O10 0.862520 0.738206 0.927215
O O11 0.500000 0.219507 0.815673
O O12 0.384579 0.243817 0.773226
O O13 0.426643 0.000000 0.856378
O O14 0.422316 0.268426 0.939322
O O15 0.385334 0.225460 0.104109
O O16 0.342856 0.000000 0.202932
O O17 0.144153 0.000000 0.318161
O O18 0.000000 0.000000 0.065560
O O19 0.500000 0.723930 0.064659
O O20 0.576662 0.500000 0.053485
#
# Coordination Sequence:
#
# PCOD9358566 Si02
#       8
#     8   4   8   8   8   8   4   8
#     4  12  26  42  58  82 115 156 202 243 288 346
#     4   8  16  31  56  85 114 146 184 233 290 347
#     4  10  20  38  61  87 117 151 191 239 293 348
#     4  10  21  39  64  94 125 156 192 236 286 340
#     4  12  25  41  61  86 118 157 199 243 290 343
#     4  10  20  38  61  87 117 151 191 239 293 348
#     4   8  16  31  56  85 114 146 184 233 290 347
#     4  10  21  39  64  94 125 156 192 236 286 340
#
# _framework density 19.361632
#
# number of rings (size 3 to 8) (size 9 to 14) (size 15 to 20)
#    0.000    1.714    0.000    4.714    0.000    6.286 
#    0.000    8.571    0.000    0.000    0.000    0.000 
#    0.000    0.000    0.000    0.000    0.000    0.000 
#
# Total GULP energy -156439.080461 kJ/mol
# GULP energy per Si atom -5587.110016 kJ/mol
# Density = 1.931756 g / cm^3
# Si number density = 19.361632 Si / 1000 Ang^3
#
#
#
# Elastic Constant Matrix: (Units=GPa)
#
#
# Indices 1 2 3 4 5 6 
#
# 1 109.7612 9.2907 33.9863 0.0000 0.0000 0.0000
# 2 9.2907 44.3270 -9.9170 0.0000 0.0000 0.0000
# 3 33.9863 -9.9170 52.5840 0.0000 0.0000 0.0000
# 4 0.0000 0.0000 0.0000 35.6504 0.0000 0.0000
# 5 0.0000 0.0000 0.0000 0.0000 97.6522 0.0000
# 6 0.0000 0.0000 0.0000 0.0000 0.0000 29.4008
#
#
#
# Elastic Compliance Matrix: (Units=1/GPa)
#
#
# Indices 1 2 3 4 5 6 
#
# 1 0.012197 -0.004510 -0.008734 0.000000 0.000000 0.000000
# 2 -0.004510 0.025221 0.007672 0.000000 0.000000 0.000000
# 3 -0.008734 0.007672 0.026109 0.000000 0.000000 0.000000
# 4 0.000000 0.000000 0.000000 0.028050 0.000000 0.000000
# 5 0.000000 0.000000 0.000000 0.000000 0.010240 0.000000
# 6 0.000000 0.000000 0.000000 0.000000 0.000000 0.034013
#
#
# Mechanical properties :
#
#
# Convention : Reuss Voigt Hill
#
# Bulk Modulus (GPa) = 19.09044 30.37694 24.73369
# Shear Modulus (GPa) = 30.40707 44.09481 37.25094
#
# Velocity S-wave (km/s) = 3.96723 4.77742 4.39105
# Velocity P-wave (km/s) = 5.55577 6.79375 6.20570
#
# Compressibility (1/GPa) = 0.05238223
#
# Stress axis : x y z
#
# Youngs Moduli (GPa) = 81.98912 39.64901 38.30130
#
# Poissons Ratio (x) = 0.17883 0.33451
# Poissons Ratio (y) = 0.36980 -0.29383
# Poissons Ratio (z) = 0.71607 -0.30417
#
# Static dielectric constant tensor:
#      x y z
#    x 1.673140 0.000000 0.000000 
#    y 0.000000 1.652150 0.000000 
#    z 0.000000 0.000000 1.650210 
# 
# From -- ./inp_files/15539.got.cif
#   From: 2010.05.17/outbox.cif.g08.bks.cpg/sg38_8_cif.got.tgz:15539.got - 2010.06.03 18:07:57.
