data_PCOD9358507
_publ_section_title
;
Structure prediction by ZEFSAII (Michael W. Deem and Ramdas Pophale) SiO2 
 PCOD9358507
Probable space group: A M M 2
;
_chemical_formula_sum "Si O2"
_cell_formula_units_Z 40
_cell_length_a 8.920707
_cell_length_b 20.714665
_cell_length_c 12.139122
_cell_angle_alpha 90.000000
_cell_angle_beta 90.000000
_cell_angle_gamma 90.000000
_cell_volume 2243.181764
_symmetry_space_group_name_H-M "A M M 2"
_symmetry_group_IT_number 38
_symmetry_cell_setting 'orthorhombic'
loop_
_space_group_symop_operation_xyz
x,y,z
-x,-y,z
-x,y,z
x,-y,z
x,1/2+y,1/2+z
-x,1/2-y,1/2+z
-x,1/2+y,1/2+z
x,1/2-y,1/2+z
loop_
_atom_site_type_symbol
_atom_site_label
_atom_site_fract_x
_atom_site_fract_y
_atom_site_fract_z
Si Si1 0.179624 0.000000 0.964320
Si Si2 0.818932 0.370467 0.843108
Si Si3 0.820785 0.143187 0.597310
Si Si4 0.323567 0.243311 0.741157
Si Si5 0.675994 0.605321 0.311219
Si Si6 0.182463 0.000000 0.218266
O O1 0.241212 0.937754 0.899992
O O2 0.000000 0.000000 0.961224
O O3 0.229835 0.000000 0.091175
O O4 0.747991 0.307878 0.786639
O O5 0.769887 0.435419 0.781355
O O6 0.000000 0.365726 0.836098
O O7 0.779748 0.372406 0.972407
O O8 0.759121 0.213583 0.634155
O O9 0.746284 0.096724 0.688992
O O10 0.000000 0.141299 0.608809
O O11 0.500000 0.251055 0.719632
O O12 0.306544 0.182844 0.826371
O O13 0.500000 0.590272 0.310119
O O14 0.000000 0.000000 0.219322
#
# Coordination Sequence:
#
# PCOD9358507 Si02
#       6
#     4   8   8   8   8   4
#     4  11  21  36  61  84 114 153 194 241 284 347
#     4  10  20  37  61  85 118 152 191 243 287 343
#     4   9  18  34  58  88 113 146 193 235 285 342
#     4   9  20  36  56  84 117 152 189 233 286 341
#     4   9  20  37  56  83 117 151 187 234 289 340
#     4   9  22  40  55  84 116 151 192 237 296 339
#
# _framework density 17.831814999999999
#
# number of rings (size 3 to 8) (size 9 to 14) (size 15 to 20)
#    1.200    1.400    0.000    1.500    0.000    4.000 
#    0.000   10.500    0.000    0.000    0.000    0.000 
#    0.000    0.000    0.000    0.000    0.000    0.000 
#
# Total GULP energy -111356.891088 kJ/mol
# GULP energy per Si atom -5567.844554 kJ/mol
# Density = 1.779123 g / cm^3
# Si number density = 17.831815 Si / 1000 Ang^3
#
#
#
# Elastic Constant Matrix: (Units=GPa)
#
#
# Indices 1 2 3 4 5 6 
#
# 1 65.3537 50.2027 59.1398 0.0000 0.0000 0.0000
# 2 50.2027 125.8644 91.5242 0.0000 0.0000 0.0000
# 3 59.1398 91.5242 166.3735 0.0000 0.0000 0.0000
# 4 0.0000 0.0000 0.0000 31.0424 0.0000 0.0000
# 5 0.0000 0.0000 0.0000 0.0000 -8.6906 0.0000
# 6 0.0000 0.0000 0.0000 0.0000 0.0000 21.9671
#
#
#
# Elastic Compliance Matrix: (Units=1/GPa)
#
#
# Indices 1 2 3 4 5 6 
#
# 1 0.024877 -0.005821 -0.005641 0.000000 0.000000 0.000000
# 2 -0.005821 0.014604 -0.005965 0.000000 0.000000 0.000000
# 3 -0.005641 -0.005965 0.011297 0.000000 0.000000 0.000000
# 4 0.000000 0.000000 0.000000 0.032214 0.000000 0.000000
# 5 0.000000 0.000000 0.000000 0.000000 -0.115067 0.000000
# 6 0.000000 0.000000 0.000000 0.000000 0.000000 0.045523
#
#
# Mechanical properties :
#
#
# Convention : Reuss Voigt Hill
#
# Bulk Modulus (GPa) = 62.79269 84.36944 73.58106
# Shear Modulus (GPa) = 93.26737 19.31211 56.28974
#
# Velocity S-wave (km/s) = 7.23999 3.29449 5.62455
# Velocity P-wave (km/s) = 10.25574 7.86691 9.13971
#
# Compressibility (1/GPa) = 0.01592542
#
# Stress axis : x y z
#
# Youngs Moduli (GPa) = 40.19746 68.47338 88.51858
#
# Poissons Ratio (x) = 0.39857 0.49932
# Poissons Ratio (y) = 0.23398 0.52800
# Poissons Ratio (z) = 0.22675 0.40844
#
# Static dielectric constant tensor:
#      x y z
#    x 1.592850 0.000000 0.000000 
#    y 0.000000 1.605560 0.000000 
#    z 0.000000 0.000000 1.596900 
# 
# From -- ./inp_files/3342.got.cif
#   From: 2010.05.17/outbox.cif.g08.bks.cpg/sg38_2_cif.got.tgz:3342.got - 2010.06.03 18:07:57.
