data_PCOD9358217
_publ_section_title
;
Structure prediction by ZEFSAII (Michael W. Deem and Ramdas Pophale) SiO2 
 PCOD9358217
Probable space group: A M M 2
;
_chemical_formula_sum "Si O2"
_cell_formula_units_Z 38
_cell_length_a 8.251274
_cell_length_b 9.840421
_cell_length_c 22.631749
_cell_angle_alpha 90.000000
_cell_angle_beta 90.000000
_cell_angle_gamma 90.000000
_cell_volume 1837.607717
_symmetry_space_group_name_H-M "A M M 2"
_symmetry_group_IT_number 38
_symmetry_cell_setting 'orthorhombic'
loop_
_space_group_symop_operation_xyz
x,y,z
-x,-y,z
-x,y,z
x,-y,z
x,1/2+y,1/2+z
-x,1/2-y,1/2+z
-x,1/2+y,1/2+z
x,1/2-y,1/2+z
loop_
_atom_site_type_symbol
_atom_site_label
_atom_site_fract_x
_atom_site_fract_y
_atom_site_fract_z
Si Si1 0.000000 0.000000 0.673540
Si Si2 0.000000 0.235026 0.259019
Si Si3 0.677535 0.299696 0.703813
Si Si4 0.808755 0.844811 0.073633
Si Si5 0.000000 0.163141 0.388661
Si Si6 0.334133 0.500000 0.162493
Si Si7 0.684958 0.161392 0.469219
O O1 0.159095 0.000000 0.633175
O O2 0.000000 0.130545 0.717004
O O3 0.167416 0.161188 0.242038
O O4 0.000000 0.250379 0.328911
O O5 0.500000 0.349619 0.721382
O O6 0.720409 0.337803 0.636648
O O7 0.666027 0.135256 0.701691
O O8 0.723724 0.744212 0.028433
O O9 0.000000 0.811434 0.081767
O O10 0.799629 0.000000 0.051751
O O11 0.835040 0.192009 0.425120
O O12 0.000000 0.000000 0.375132
O O13 0.500000 0.500000 0.125944
O O14 0.500000 0.193115 0.448766
O O15 0.691294 0.000000 0.480077
#
# Coordination Sequence:
#
# PCOD9358217 Si02
#       7
#     2   4   8   8   4   4   8
#     4   8  16  32  50  74 108 150 190 236 280 320
#     4  10  20  37  56  84 115 158 197 241 287 351
#     4  10  20  35  57  86 121 157 193 237 291 354
#     4  11  23  39  60  90 126 161 194 240 301 363
#     4  10  22  41  61  85 115 151 194 255 296 342
#     4   8  16  30  50  78 112 148 192 232 273 332
#     4  10  22  42  66  90 115 153 204 250 298 354
#
# _framework density 20.679061000000001
#
# number of rings (size 3 to 8) (size 9 to 14) (size 15 to 20)
#    0.000    2.105    2.105    0.632    1.474    3.368 
#    1.895    0.000    0.000    0.000    0.000    0.000 
#    0.000    0.000    0.000    0.000    0.000    0.000 
#
# Total GULP energy -105963.374797 kJ/mol
# GULP energy per Si atom -5577.019726 kJ/mol
# Density = 2.063199 g / cm^3
# Si number density = 20.679061 Si / 1000 Ang^3
#
#
#
# Elastic Constant Matrix: (Units=GPa)
#
#
# Indices 1 2 3 4 5 6 
#
# 1 253.7521 24.9943 54.5498 0.0000 0.0000 0.0000
# 2 24.9943 73.5201 13.8284 0.0000 0.0000 0.0000
# 3 54.5498 13.8284 82.7960 0.0000 0.0000 0.0000
# 4 0.0000 0.0000 0.0000 0.0769 0.0000 0.0000
# 5 0.0000 0.0000 0.0000 0.0000 6.8208 0.0000
# 6 0.0000 0.0000 0.0000 0.0000 0.0000 4.9570
#
#
#
# Elastic Compliance Matrix: (Units=1/GPa)
#
#
# Indices 1 2 3 4 5 6 
#
# 1 0.004667 -0.001041 -0.002901 0.000000 0.000000 0.000000
# 2 -0.001041 0.014275 -0.001698 0.000000 0.000000 0.000000
# 3 -0.002901 -0.001698 0.014273 0.000000 0.000000 0.000000
# 4 0.000000 0.000000 0.000000 13.006275 0.000000 0.000000
# 5 0.000000 0.000000 0.000000 0.000000 0.146611 0.000000
# 6 0.000000 0.000000 0.000000 0.000000 0.000000 0.201736
#
#
# Mechanical properties :
#
#
# Convention : Reuss Voigt Hill
#
# Bulk Modulus (GPa) = 45.59069 66.31256 55.95162
# Shear Modulus (GPa) = 0.37296 23.48397 11.92846
#
# Velocity S-wave (km/s) = 0.42514 3.37358 2.40435
# Velocity P-wave (km/s) = 4.72606 6.87836 5.90116
#
# Compressibility (1/GPa) = 0.02193430
#
# Stress axis : x y z
#
# Youngs Moduli (GPa) = 214.26938 70.05225 70.06319
#
# Poissons Ratio (x) = 0.07292 0.20325
# Poissons Ratio (y) = 0.22305 0.11899
# Poissons Ratio (z) = 0.62159 0.11897
#
# Static dielectric constant tensor:
#      x y z
#    x 1.830400 0.000000 0.000000 
#    y 0.000000 1.770030 0.000000 
#    z 0.000000 0.000000 1.660920 
# 
# From -- ./inp_files/16349.got.cif
#   From: 2010.05.17/outbox.cif.g08.bks.cpg/sg38_9_cif.got.tgz:16349.got - 2010.06.03 18:07:57.
