data_PCOD9358996
_publ_section_title
;
Structure prediction by ZEFSAII (Michael W. Deem and Ramdas Pophale) SiO2 
 PCOD9358996
Probable space group: A M M 2
;
_chemical_formula_sum "Si O2"
_cell_formula_units_Z 40
_cell_length_a 11.318091
_cell_length_b 21.070138
_cell_length_c 8.012216
_cell_angle_alpha 90.000000
_cell_angle_beta 90.000000
_cell_angle_gamma 90.000000
_cell_volume 1910.703109
_symmetry_space_group_name_H-M "A M M 2"
_symmetry_group_IT_number 38
_symmetry_cell_setting 'orthorhombic'
loop_
_space_group_symop_operation_xyz
x,y,z
-x,-y,z
-x,y,z
x,-y,z
x,1/2+y,1/2+z
-x,1/2-y,1/2+z
-x,1/2+y,1/2+z
x,1/2-y,1/2+z
loop_
_atom_site_type_symbol
_atom_site_label
_atom_site_fract_x
_atom_site_fract_y
_atom_site_fract_z
Si Si1 0.864506 0.810211 0.335200
Si Si2 0.639056 0.428540 0.533862
Si Si3 0.500000 0.739629 0.347202
Si Si4 0.746602 0.194378 0.988402
Si Si5 0.500000 0.643776 0.033908
Si Si6 0.721192 0.927296 0.423946
O O1 0.774317 0.806053 0.182575
O O2 0.845252 0.741857 0.419621
O O3 0.822044 0.872992 0.433911
O O4 0.000000 0.818040 0.284533
O O5 0.500000 0.410963 0.515153
O O6 0.653047 0.500000 0.471380
O O7 0.726954 0.379219 0.444080
O O8 0.672449 0.429227 0.731503
O O9 0.620505 0.723509 0.443217
O O10 0.500000 0.695821 0.182196
O O11 0.500000 0.816289 0.358518
O O12 0.385674 0.599577 0.034925
O O13 0.754706 0.000000 0.464529
#
# Coordination Sequence:
#
# PCOD9358996 Si02
#       6
#     8   8   4   8   4   8
#     4  11  24  40  63  90 121 167 216 262 306 363
#     4   9  17  32  57  88 122 160 199 244 304 371
#     4  12  24  36  61  97 127 160 195 258 318 383
#     4  11  22  39  62  89 126 159 205 258 316 373
#     4  12  23  36  59  95 130 164 199 250 327 379
#     4  10  21  37  61  89 123 163 206 254 304 369
#
# _framework density 20.934702000000001
#
# number of rings (size 3 to 8) (size 9 to 14) (size 15 to 20)
#    0.000    1.400    4.000    2.100    2.800    0.400 
#    0.000    2.000    0.000    1.800    0.000    0.000 
#    0.000    0.000    0.000    0.000    0.000    0.000 
#
# Total GULP energy -111489.286830 kJ/mol
# GULP energy per Si atom -5574.464342 kJ/mol
# Density = 2.088705 g / cm^3
# Si number density = 20.934702 Si / 1000 Ang^3
#
#
#
# Elastic Constant Matrix: (Units=GPa)
#
#
# Indices 1 2 3 4 5 6 
#
# 1 64.1096 27.5637 20.2128 0.0000 0.0000 0.0000
# 2 27.5637 163.8522 28.7438 0.0000 0.0000 0.0000
# 3 20.2128 28.7438 27.6681 0.0000 0.0000 0.0000
# 4 0.0000 0.0000 0.0000 21.9953 0.0000 0.0000
# 5 0.0000 0.0000 0.0000 0.0000 5.5891 0.0000
# 6 0.0000 0.0000 0.0000 0.0000 0.0000 9.7397
#
#
#
# Elastic Compliance Matrix: (Units=1/GPa)
#
#
# Indices 1 2 3 4 5 6 
#
# 1 0.020399 -0.000999 -0.013864 0.000000 0.000000 0.000000
# 2 -0.000999 0.007512 -0.007074 0.000000 0.000000 0.000000
# 3 -0.013864 -0.007074 0.053620 0.000000 0.000000 0.000000
# 4 0.000000 0.000000 0.000000 0.045464 0.000000 0.000000
# 5 0.000000 0.000000 0.000000 0.000000 0.178918 0.000000
# 6 0.000000 0.000000 0.000000 0.000000 0.000000 0.102673
#
#
# Mechanical properties :
#
#
# Convention : Reuss Voigt Hill
#
# Bulk Modulus (GPa) = 26.55615 45.40785 35.98200
# Shear Modulus (GPa) = 10.75235 19.40547 15.07891
#
# Velocity S-wave (km/s) = 2.26876 3.04789 2.68672
# Velocity P-wave (km/s) = 4.42446 5.84153 5.18167
#
# Compressibility (1/GPa) = 0.03765606
#
# Stress axis : x y z
#
# Youngs Moduli (GPa) = 49.02160 133.11731 18.64969
#
# Poissons Ratio (x) = 0.13305 0.25856
# Poissons Ratio (y) = 0.04900 0.13193
# Poissons Ratio (z) = 0.67964 0.94168
#
# Static dielectric constant tensor:
#      x y z
#    x 1.693770 0.000000 0.000000 
#    y 0.000000 1.839700 0.000000 
#    z 0.000000 0.000000 1.846140 
# 
# From -- ./inp_files/4503.got.cif
#   From: 2010.05.17/outbox.cif.g08.bks.cpg/sg38_3_cif.got.tgz:4503.got - 2010.06.03 18:07:57.
