data_PCOD9358928
_publ_section_title
;
Structure prediction by ZEFSAII (Michael W. Deem and Ramdas Pophale) SiO2 
 PCOD9358928
Probable space group: A M M 2
;
_chemical_formula_sum "Si O2"
_cell_formula_units_Z 64
_cell_length_a 9.192788
_cell_length_b 27.001409
_cell_length_c 13.136626
_cell_angle_alpha 90.000000
_cell_angle_beta 90.000000
_cell_angle_gamma 90.000000
_cell_volume 3260.750036
_symmetry_space_group_name_H-M "A M M 2"
_symmetry_group_IT_number 38
_symmetry_cell_setting 'orthorhombic'
loop_
_space_group_symop_operation_xyz
x,y,z
-x,-y,z
-x,y,z
x,-y,z
x,1/2+y,1/2+z
-x,1/2-y,1/2+z
-x,1/2+y,1/2+z
x,1/2-y,1/2+z
loop_
_atom_site_type_symbol
_atom_site_label
_atom_site_fract_x
_atom_site_fract_y
_atom_site_fract_z
Si Si1 0.675788 0.621211 0.244190
Si Si2 0.671105 0.558850 0.446058
Si Si3 0.173840 0.911195 0.154560
Si Si4 0.824869 0.623497 0.030723
Si Si5 0.671308 0.275810 0.344592
Si Si6 0.837171 0.699862 0.723350
Si Si7 0.672022 0.557159 0.858951
Si Si8 0.163827 0.739603 0.020420
O O1 0.500000 0.619630 0.228337
O O2 0.710719 0.586595 0.341122
O O3 0.756665 0.608044 0.139587
O O4 0.718910 0.676866 0.278862
O O5 0.500000 0.569933 0.465471
O O6 0.686200 0.500000 0.432489
O O7 0.762674 0.574940 0.544556
O O8 0.199696 0.853181 0.177752
O O9 0.255297 0.938208 0.247516
O O10 0.000000 0.920431 0.157667
O O11 0.792283 0.682198 0.018801
O O12 0.000000 0.617741 0.030629
O O13 0.753543 0.592909 0.938529
O O14 0.500000 0.277007 0.346234
O O15 0.727520 0.223452 0.302455
O O16 0.734840 0.276186 0.457171
O O17 0.839765 0.739920 0.633833
O O18 0.000000 0.695329 0.767252
O O19 0.500000 0.569290 0.853271
O O20 0.685502 0.500000 0.892827
O O21 0.000000 0.743724 0.979130
#
# Coordination Sequence:
#
# PCOD9358928 Si02
#       8
#     8   8   8   8   8   8   8   8
#     4  10  22  40  60  88 126 164 207 255 304 366
#     4  10  22  41  64  88 119 162 206 251 310 374
#     4  11  23  39  63  94 125 157 202 260 312 366
#     4  11  23  40  64  92 123 162 207 259 309 361
#     4  11  22  34  55  86 118 154 197 248 293 340
#     4  10  21  38  57  82 117 157 194 229 288 359
#     4  11  25  44  65  88 120 164 207 255 318 377
#     4  10  21  37  57  82 117 159 197 236 291 359
#
# _framework density 19.627386000000001
#
# number of rings (size 3 to 8) (size 9 to 14) (size 15 to 20)
#    0.000    1.500    1.250    3.375    0.000    9.750 
#    0.000    1.250    0.000    0.000    0.000    0.000 
#    0.000    0.000    0.000    0.000    0.000    0.000 
#
# Total GULP energy -178727.127102 kJ/mol
# GULP energy per Si atom -5585.222722 kJ/mol
# Density = 1.958271 g / cm^3
# Si number density = 19.627386 Si / 1000 Ang^3
#
#
#
# Elastic Constant Matrix: (Units=GPa)
#
#
# Indices 1 2 3 4 5 6 
#
# 1 58.9895 32.5536 46.0517 0.0000 0.0000 0.0000
# 2 32.5536 72.5425 22.0126 0.0000 0.0000 0.0000
# 3 46.0517 22.0126 107.8057 0.0000 0.0000 0.0000
# 4 0.0000 0.0000 0.0000 31.2275 0.0000 0.0000
# 5 0.0000 0.0000 0.0000 0.0000 41.9446 0.0000
# 6 0.0000 0.0000 0.0000 0.0000 0.0000 24.4440
#
#
#
# Elastic Compliance Matrix: (Units=1/GPa)
#
#
# Indices 1 2 3 4 5 6 
#
# 1 0.031805 -0.010820 -0.011377 0.000000 0.000000 0.000000
# 2 -0.010820 0.018377 0.000870 0.000000 0.000000 0.000000
# 3 -0.011377 0.000870 0.013958 0.000000 0.000000 0.000000
# 4 0.000000 0.000000 0.000000 0.032023 0.000000 0.000000
# 5 0.000000 0.000000 0.000000 0.000000 0.023841 0.000000
# 6 0.000000 0.000000 0.000000 0.000000 0.000000 0.040910
#
#
# Mechanical properties :
#
#
# Convention : Reuss Voigt Hill
#
# Bulk Modulus (GPa) = 46.54350 48.95262 47.74806
# Shear Modulus (GPa) = 23.72696 28.77119 26.24908
#
# Velocity S-wave (km/s) = 3.48065 3.83282 3.66097
# Velocity P-wave (km/s) = 6.31809 6.67701 6.50003
#
# Compressibility (1/GPa) = 0.02148528
#
# Stress axis : x y z
#
# Youngs Moduli (GPa) = 31.44143 54.41663 71.64224
#
# Poissons Ratio (x) = 0.58881 0.81507
# Poissons Ratio (y) = 0.34021 -0.06232
# Poissons Ratio (z) = 0.35771 -0.04734
#
# Static dielectric constant tensor:
#      x y z
#    x 1.675810 0.000000 0.000000 
#    y 0.000000 1.682970 0.000000 
#    z 0.000000 0.000000 1.700730 
# 
# From -- ./inp_files/8635.got.cif
#   From: 2010.05.17/outbox.cif.g08.bks.cpg/sg38_5_cif.got.tgz:8635.got - 2010.06.03 18:07:57.
