data_PCOD9358976
_publ_section_title
;
Structure prediction by ZEFSAII (Michael W. Deem and Ramdas Pophale) SiO2 
 PCOD9358976
Probable space group: A M M 2
;
_chemical_formula_sum "Si O2"
_cell_formula_units_Z 48
_cell_length_a 7.779907
_cell_length_b 19.689024
_cell_length_c 15.986043
_cell_angle_alpha 90.000000
_cell_angle_beta 90.000000
_cell_angle_gamma 90.000000
_cell_volume 2448.722494
_symmetry_space_group_name_H-M "A M M 2"
_symmetry_group_IT_number 38
_symmetry_cell_setting 'orthorhombic'
loop_
_space_group_symop_operation_xyz
x,y,z
-x,-y,z
-x,y,z
x,-y,z
x,1/2+y,1/2+z
-x,1/2-y,1/2+z
-x,1/2+y,1/2+z
x,1/2-y,1/2+z
loop_
_atom_site_type_symbol
_atom_site_label
_atom_site_fract_x
_atom_site_fract_y
_atom_site_fract_z
Si Si1 0.803408 0.329188 0.194510
Si Si2 0.208097 0.578790 0.532244
Si Si3 0.500000 0.424846 0.944446
Si Si4 0.798028 0.832993 0.376048
Si Si5 0.500000 0.925285 0.642516
Si Si6 0.792066 0.677330 0.680031
Si Si7 0.704114 0.317601 0.384550
O O1 0.669970 0.385345 0.167719
O O2 0.742464 0.255220 0.161450
O O3 0.796409 0.327792 0.295573
O O4 0.000000 0.340540 0.167611
O O5 0.267178 0.500000 0.529793
O O6 0.269479 0.621206 0.614020
O O7 0.257508 0.623719 0.451496
O O8 0.000000 0.576970 0.535451
O O9 0.500000 0.500000 0.906479
O O10 0.670392 0.384783 0.918965
O O11 0.500000 0.430066 0.043485
O O12 0.748653 0.833995 0.277248
O O13 0.765169 0.757370 0.412076
O O14 0.000000 0.848904 0.383565
O O15 0.500000 0.000000 0.681255
O O16 0.000000 0.676763 0.676770
O O17 0.500000 0.315146 0.369518
#
# Coordination Sequence:
#
# PCOD9358976 Si02
#       7
#     8   8   4   8   4   8   8
#     4  10  21  41  67  91 119 162 211 256 309 373
#     4  10  21  37  58  90 130 165 201 249 308 376
#     4  11  26  43  60  93 127 158 209 266 322 374
#     4  10  21  41  67  93 123 165 213 258 309 368
#     4  11  26  43  60  89 123 154 205 268 322 374
#     4   8  18  36  61  92 121 156 207 254 296 363
#     4  11  21  38  62  91 129 163 207 260 302 361
#
# _framework density 19.602058
#
# number of rings (size 3 to 8) (size 9 to 14) (size 15 to 20)
#    0.000    2.000    1.667    2.500    2.333    3.000 
#    1.500    3.333    0.000    0.000    0.000    0.000 
#    0.000    0.000    0.000    0.000    0.000    0.000 
#
# Total GULP energy -133980.544333 kJ/mol
# GULP energy per Si atom -5582.522681 kJ/mol
# Density = 1.955744 g / cm^3
# Si number density = 19.602058 Si / 1000 Ang^3
#
#
#
# Elastic Constant Matrix: (Units=GPa)
#
#
# Indices 1 2 3 4 5 6 
#
# 1 105.7780 56.7472 9.9392 0.0000 0.0000 0.0000
# 2 56.7472 185.0647 62.5419 0.0000 0.0000 0.0000
# 3 9.9392 62.5419 54.4639 0.0000 0.0000 0.0000
# 4 0.0000 0.0000 0.0000 49.6776 0.0000 0.0000
# 5 0.0000 0.0000 0.0000 0.0000 -433.0712 0.0000
# 6 0.0000 0.0000 0.0000 0.0000 0.0000 25.0888
#
#
#
# Elastic Compliance Matrix: (Units=1/GPa)
#
#
# Indices 1 2 3 4 5 6 
#
# 1 0.011653 -0.004665 0.003230 0.000000 0.000000 0.000000
# 2 -0.004665 0.010698 -0.011433 0.000000 0.000000 0.000000
# 3 0.003230 -0.011433 0.030900 0.000000 0.000000 0.000000
# 4 0.000000 0.000000 0.000000 0.020130 0.000000 0.000000
# 5 0.000000 0.000000 0.000000 0.000000 -0.002309 0.000000
# 6 0.000000 0.000000 0.000000 0.000000 0.000000 0.039858
#
#
# Mechanical properties :
#
#
# Convention : Reuss Voigt Hill
#
# Bulk Modulus (GPa) = 36.34367 67.08482 51.71424
# Shear Modulus (GPa) = 34.28492 -57.25575 -11.48542
#
# Velocity S-wave (km/s) = 4.18670 -5.41040 -2.42322
# Velocity P-wave (km/s) = 6.47706 2.17538 4.31393
#
# Compressibility (1/GPa) = 0.02751511
#
# Stress axis : x y z
#
# Youngs Moduli (GPa) = 85.81651 93.47865 32.36237
#
# Poissons Ratio (x) = 0.43605 -0.10453
# Poissons Ratio (y) = 0.40031 0.37000
# Poissons Ratio (z) = -0.27719 1.06874
#
# Static dielectric constant tensor:
#      x y z
#    x 1.692440 0.000000 0.000000 
#    y 0.000000 1.695220 0.000000 
#    z 0.000000 0.000000 1.685620 
# 
# From -- ./inp_files/12071.got.cif
#   From: 2010.05.17/outbox.cif.g08.bks.cpg/sg38_7_cif.got.tgz:12071.got - 2010.06.03 18:07:57.
