data_PCOD9358371
_publ_section_title
;
Structure prediction by ZEFSAII (Michael W. Deem and Ramdas Pophale) SiO2 
 PCOD9358371
Probable space group: A M M 2
;
_chemical_formula_sum "Si O2"
_cell_formula_units_Z 64
_cell_length_a 7.949887
_cell_length_b 31.841866
_cell_length_c 12.266251
_cell_angle_alpha 90.000000
_cell_angle_beta 90.000000
_cell_angle_gamma 90.000000
_cell_volume 3105.069414
_symmetry_space_group_name_H-M "A M M 2"
_symmetry_group_IT_number 38
_symmetry_cell_setting 'orthorhombic'
loop_
_space_group_symop_operation_xyz
x,y,z
-x,-y,z
-x,y,z
x,-y,z
x,1/2+y,1/2+z
-x,1/2-y,1/2+z
-x,1/2+y,1/2+z
x,1/2-y,1/2+z
loop_
_atom_site_type_symbol
_atom_site_label
_atom_site_fract_x
_atom_site_fract_y
_atom_site_fract_z
Si Si1 0.296337 0.330785 0.513200
Si Si2 0.696295 0.197381 0.776433
Si Si3 0.797212 0.453622 0.270696
Si Si4 0.199027 0.376651 0.123794
Si Si5 0.199261 0.545363 0.750164
Si Si6 0.299249 0.428802 0.514043
Si Si7 0.802980 0.291166 0.738524
Si Si8 0.206866 0.371616 0.875431
O O1 0.500000 0.327362 0.519669
O O2 0.238249 0.312853 0.397340
O O3 0.251027 0.379768 0.517938
O O4 0.220435 0.306825 0.615371
O O5 0.500000 0.186231 0.775939
O O6 0.778022 0.166917 0.687680
O O7 0.717162 0.246390 0.753608
O O8 0.737751 0.500000 0.236217
O O9 0.731773 0.415077 0.197071
O O10 0.753301 0.446626 0.397245
O O11 0.000000 0.453315 0.263363
O O12 0.000000 0.384287 0.113140
O O13 0.264363 0.374008 0.000516
O O14 0.269776 0.500000 0.785442
O O15 0.223297 0.549813 0.620603
O O16 0.265485 0.587138 0.809402
O O17 0.000000 0.544757 0.772821
O O18 0.500000 0.432059 0.522467
O O19 0.738274 0.328752 0.816017
O O20 0.000000 0.285175 0.761826
O O21 0.000000 0.371068 0.872352
#
# Coordination Sequence:
#
# PCOD9358371 Si02
#       8
#     8   8   8   8   8   8   8   8
#     4  10  22  40  61  86 117 154 193 238 290 344
#     4  11  24  42  61  86 120 153 194 240 292 348
#     4  10  21  36  57  86 118 153 194 241 292 346
#     4  10  21  39  61  85 116 153 197 241 288 345
#     4  10  20  36  59  86 116 151 191 235 288 345
#     4  11  21  36  58  85 118 152 192 238 288 345
#     4  11  23  39  62  89 118 151 193 239 290 348
#     4   9  20  38  58  85 116 148 188 237 286 338
#
# _framework density 20.611456
#
# number of rings (size 3 to 8) (size 9 to 14) (size 15 to 20)
#    0.000    1.750    2.500    1.500    1.750    4.000 
#    0.000    3.750    0.000    0.000    0.000    1.750 
#    0.000    0.000    0.000    0.000    0.000    0.000 
#
# Total GULP energy -178780.331936 kJ/mol
# GULP energy per Si atom -5586.885373 kJ/mol
# Density = 2.056454 g / cm^3
# Si number density = 20.611456 Si / 1000 Ang^3
#
#
#
# Elastic Constant Matrix: (Units=GPa)
#
#
# Indices 1 2 3 4 5 6 
#
# 1 11.4758 -6.9727 -9.9914 0.0000 0.0000 0.0000
# 2 -6.9727 145.3902 57.6806 0.0000 0.0000 0.0000
# 3 -9.9914 57.6806 134.6496 0.0000 0.0000 0.0000
# 4 0.0000 0.0000 0.0000 13.1050 0.0000 0.0000
# 5 0.0000 0.0000 0.0000 0.0000 2.9099 0.0000
# 6 0.0000 0.0000 0.0000 0.0000 0.0000 9.8650
#
#
#
# Elastic Compliance Matrix: (Units=1/GPa)
#
#
# Indices 1 2 3 4 5 6 
#
# 1 0.093682 0.002090 0.006056 0.000000 0.000000 0.000000
# 2 0.002090 0.008333 -0.003415 0.000000 0.000000 0.000000
# 3 0.006056 -0.003415 0.009339 0.000000 0.000000 0.000000
# 4 0.000000 0.000000 0.000000 0.076307 0.000000 0.000000
# 5 0.000000 0.000000 0.000000 0.000000 0.343654 0.000000
# 6 0.000000 0.000000 0.000000 0.000000 0.000000 0.101368
#
#
# Mechanical properties :
#
#
# Convention : Reuss Voigt Hill
#
# Bulk Modulus (GPa) = 8.27694 41.43875 24.85785
# Shear Modulus (GPa) = 7.53589 21.89592 14.71591
#
# Velocity S-wave (km/s) = 1.91419 3.26286 2.67492
# Velocity P-wave (km/s) = 2.98494 5.86032 4.65044
#
# Compressibility (1/GPa) = 0.12081763
#
# Stress axis : x y z
#
# Youngs Moduli (GPa) = 10.67437 120.00576 107.08054
#
# Poissons Ratio (x) = -0.25084 -0.64849
# Poissons Ratio (y) = -0.02231 0.36563
# Poissons Ratio (z) = -0.06464 0.40976
#
# Static dielectric constant tensor:
#      x y z
#    x 1.732720 0.000000 0.000000 
#    y 0.000000 1.728680 0.000000 
#    z 0.000000 0.000000 1.703740 
# 
# From -- ./inp_files/8532.got.cif
#   From: 2010.05.17/outbox.cif.g08.bks.cpg/sg38_5_cif.got.tgz:8532.got - 2010.06.03 18:07:57.
