data_PCOD9358910
_publ_section_title
;
Structure prediction by ZEFSAII (Michael W. Deem and Ramdas Pophale) SiO2 
 PCOD9358910
Probable space group: A M M 2
;
_chemical_formula_sum "Si O2"
_cell_formula_units_Z 64
_cell_length_a 9.025061
_cell_length_b 14.253135
_cell_length_c 24.693832
_cell_angle_alpha 90.000000
_cell_angle_beta 90.000000
_cell_angle_gamma 90.000000
_cell_volume 3176.501273
_symmetry_space_group_name_H-M "A M M 2"
_symmetry_group_IT_number 38
_symmetry_cell_setting 'orthorhombic'
loop_
_space_group_symop_operation_xyz
x,y,z
-x,-y,z
-x,y,z
x,-y,z
x,1/2+y,1/2+z
-x,1/2-y,1/2+z
-x,1/2+y,1/2+z
x,1/2-y,1/2+z
loop_
_atom_site_type_symbol
_atom_site_label
_atom_site_fract_x
_atom_site_fract_y
_atom_site_fract_z
Si Si1 0.323540 0.784712 0.921250
Si Si2 0.330817 0.114366 0.710278
Si Si3 0.680378 0.892181 0.145165
Si Si4 0.175046 0.610559 0.875152
Si Si5 0.321678 0.273626 0.541459
Si Si6 0.329641 0.885773 0.263692
Si Si7 0.824038 0.390057 0.097552
Si Si8 0.827389 0.886657 0.820931
O O1 0.500000 0.790677 0.914539
O O2 0.268483 0.678153 0.913393
O O3 0.245358 0.844160 0.874481
O O4 0.284313 0.813945 0.982504
O O5 0.500000 0.147449 0.706269
O O6 0.243255 0.138566 0.655815
O O7 0.256324 0.145096 0.766331
O O8 0.332507 0.000000 0.712034
O O9 0.500000 0.892457 0.145877
O O10 0.728142 0.836294 0.092291
O O11 0.722515 0.853144 0.204391
O O12 0.729624 0.000000 0.140980
O O13 0.205716 0.500000 0.883132
O O14 0.225598 0.636342 0.814063
O O15 0.000000 0.625885 0.881974
O O16 0.500000 0.265277 0.543770
O O17 0.249549 0.172983 0.551757
O O18 0.500000 0.855464 0.274103
O O19 0.333770 0.000000 0.259871
O O20 0.791519 0.500000 0.089654
O O21 0.000000 0.377774 0.098292
O O22 0.000000 0.860961 0.817822
O O23 0.817588 0.000000 0.823079
#
# Coordination Sequence:
#
# PCOD9358910 Si02
#       8
#     8   8   8   8   8   8   8   8
#     4  11  24  39  56  80 110 147 192 238 282 333
#     4   9  17  32  57  87 116 145 181 226 275 332
#     4   8  15  31  56  83 109 137 169 210 263 320
#     4  10  21  37  57  80 109 145 182 226 281 336
#     4  10  22  38  56  80 108 142 188 236 276 321
#     4   8  14  28  53  82 109 137 171 213 265 328
#     4  10  21  37  57  81 112 150 187 227 280 337
#     4  10  21  38  60  85 115 149 184 228 282 338
#
# _framework density 20.147955
#
# number of rings (size 3 to 8) (size 9 to 14) (size 15 to 20)
#    0.000    2.500    0.000    2.625    0.000    6.750 
#    0.000    8.125    0.000    1.125    0.000    0.000 
#    0.000    0.000    0.000    0.000    0.000    0.000 
#
# Total GULP energy -178745.645752 kJ/mol
# GULP energy per Si atom -5585.801430 kJ/mol
# Density = 2.010210 g / cm^3
# Si number density = 20.147955 Si / 1000 Ang^3
#
#
#
# Elastic Constant Matrix: (Units=GPa)
#
#
# Indices 1 2 3 4 5 6 
#
# 1 37.2755 7.2063 17.9532 0.0000 0.0000 0.0000
# 2 7.2063 35.1658 7.1511 0.0000 0.0000 0.0000
# 3 17.9532 7.1511 87.1871 0.0000 0.0000 0.0000
# 4 0.0000 0.0000 0.0000 27.5204 0.0000 0.0000
# 5 0.0000 0.0000 0.0000 0.0000 -5.1906 0.0000
# 6 0.0000 0.0000 0.0000 0.0000 0.0000 21.9370
#
#
#
# Elastic Compliance Matrix: (Units=1/GPa)
#
#
# Indices 1 2 3 4 5 6 
#
# 1 0.030649 -0.005082 -0.005894 0.000000 0.000000 0.000000
# 2 -0.005082 0.029762 -0.001395 0.000000 0.000000 0.000000
# 3 -0.005894 -0.001395 0.012798 0.000000 0.000000 0.000000
# 4 0.000000 0.000000 0.000000 0.036337 0.000000 0.000000
# 5 0.000000 0.000000 0.000000 0.000000 -0.192656 0.000000
# 6 0.000000 0.000000 0.000000 0.000000 0.000000 0.045585
#
#
# Mechanical properties :
#
#
# Convention : Reuss Voigt Hill
#
# Bulk Modulus (GPa) = 20.63283 24.91661 22.77472
# Shear Modulus (GPa) = 1483.42770 17.34122 750.38446
#
# Velocity S-wave (km/s) = 27.16368 2.93694 19.31956
# Velocity P-wave (km/s) = 31.52909 4.88820 22.56079
#
# Compressibility (1/GPa) = 0.04846644
#
# Stress axis : x y z
#
# Youngs Moduli (GPa) = 32.62793 33.60015 78.13917
#
# Poissons Ratio (x) = 0.17076 0.46057
# Poissons Ratio (y) = 0.16582 0.10897
# Poissons Ratio (z) = 0.19232 0.04686
#
# Static dielectric constant tensor:
#      x y z
#    x 1.668510 0.000000 0.000000 
#    y 0.000000 1.760510 0.000000 
#    z 0.000000 0.000000 1.704190 
# 
# From -- ./inp_files/22131.got.cif
#   From: 2010.05.17/outbox.cif.g08.bks.cpg/sg38_12_cif.got.tgz:22131.got - 2010.06.03 18:07:57.
