data_PCOD9358703
_publ_section_title
;
Structure prediction by ZEFSAII (Michael W. Deem and Ramdas Pophale) SiO2 
 PCOD9358703
Probable space group: A M M 2
;
_chemical_formula_sum "Si O2"
_cell_formula_units_Z 64
_cell_length_a 14.366440
_cell_length_b 8.841216
_cell_length_c 26.675205
_cell_angle_alpha 90.000000
_cell_angle_beta 90.000000
_cell_angle_gamma 90.000000
_cell_volume 3388.199157
_symmetry_space_group_name_H-M "A M M 2"
_symmetry_group_IT_number 38
_symmetry_cell_setting 'orthorhombic'
loop_
_space_group_symop_operation_xyz
x,y,z
-x,-y,z
-x,y,z
x,-y,z
x,1/2+y,1/2+z
-x,1/2-y,1/2+z
-x,1/2+y,1/2+z
x,1/2-y,1/2+z
loop_
_atom_site_type_symbol
_atom_site_label
_atom_site_fract_x
_atom_site_fract_y
_atom_site_fract_z
Si Si1 0.283292 0.182306 0.536160
Si Si2 0.112898 0.172130 0.682856
Si Si3 0.706641 0.818968 0.839463
Si Si4 0.607904 0.317136 0.936273
Si Si5 0.105855 0.315629 0.293739
Si Si6 0.387606 0.677424 0.742230
Si Si7 0.609881 0.681280 0.137016
Si Si8 0.892651 0.680007 0.577996
O O1 0.338733 0.230694 0.486738
O O2 0.337185 0.229593 0.586807
O O3 0.179696 0.246707 0.539917
O O4 0.279958 0.000000 0.536351
O O5 0.137506 0.233324 0.737804
O O6 0.135975 0.267403 0.633999
O O7 0.000000 0.164100 0.684537
O O8 0.148403 0.000000 0.676716
O O9 0.658135 0.746219 0.887311
O O10 0.814993 0.772804 0.832965
O O11 0.655686 0.765945 0.788789
O O12 0.702102 0.000000 0.843029
O O13 0.500000 0.269786 0.937624
O O14 0.609550 0.500000 0.934431
O O15 0.103526 0.500000 0.291239
O O16 0.000000 0.264906 0.303671
O O17 0.500000 0.694007 0.744252
O O18 0.365542 0.500000 0.746129
O O19 0.356712 0.742062 0.688340
O O20 0.500000 0.714716 0.131099
O O21 0.619190 0.500000 0.142203
O O22 0.888899 0.500000 0.574951
O O23 0.000000 0.728569 0.570207
#
# Coordination Sequence:
#
# PCOD9358703 Si02
#       8
#     8   8   8   8   8   8   8   8
#     4  10  21  37  60  84 107 142 190 235 281 337
#     4   8  14  28  51  75 102 142 188 228 267 318
#     4  11  22  35  57  86 113 145 190 236 278 328
#     4  10  22  42  64  84 109 143 185 235 289 342
#     4   8  16  32  53  78 109 145 186 229 272 322
#     4  10  21  36  53  77 113 152 183 219 277 343
#     4   9  18  34  56  82 110 139 177 228 283 340
#     4  10  21  35  51  78 117 153 186 228 278 329
#
# _framework density 18.889091000000001
#
# number of rings (size 3 to 8) (size 9 to 14) (size 15 to 20)
#    0.000    2.500    0.000    2.625    1.750    5.750 
#    0.000    1.250    0.000    6.750    0.000    0.000 
#    0.000    0.000    0.000    0.000    0.000    0.000 
#
# Total GULP energy -178630.223227 kJ/mol
# GULP energy per Si atom -5582.194476 kJ/mol
# Density = 1.884610 g / cm^3
# Si number density = 18.889091 Si / 1000 Ang^3
#
#
#
# Elastic Constant Matrix: (Units=GPa)
#
#
# Indices 1 2 3 4 5 6 
#
# 1 128.7668 29.7198 88.9788 0.0000 0.0000 0.0000
# 2 29.7198 16.9444 30.9314 0.0000 0.0000 0.0000
# 3 88.9788 30.9314 145.5449 0.0000 0.0000 0.0000
# 4 0.0000 0.0000 0.0000 27.3745 0.0000 0.0000
# 5 0.0000 0.0000 0.0000 0.0000 36.7419 0.0000
# 6 0.0000 0.0000 0.0000 0.0000 0.0000 20.6902
#
#
#
# Elastic Compliance Matrix: (Units=1/GPa)
#
#
# Indices 1 2 3 4 5 6 
#
# 1 0.015847 -0.016518 -0.006178 0.000000 0.000000 0.000000
# 2 -0.016518 0.113642 -0.014053 0.000000 0.000000 0.000000
# 3 -0.006178 -0.014053 0.013634 0.000000 0.000000 0.000000
# 4 0.000000 0.000000 0.000000 0.036530 0.000000 0.000000
# 5 0.000000 0.000000 0.000000 0.000000 0.027217 0.000000
# 6 0.000000 0.000000 0.000000 0.000000 0.000000 0.048332
#
#
# Mechanical properties :
#
#
# Convention : Reuss Voigt Hill
#
# Bulk Modulus (GPa) = 14.36259 65.61290 39.98774
# Shear Modulus (GPa) = 14.20824 26.40307 20.30565
#
# Velocity S-wave (km/s) = 2.74559 3.74277 3.28227
# Velocity P-wave (km/s) = 4.20371 7.31362 5.96490
#
# Compressibility (1/GPa) = 0.06962534
#
# Stress axis : x y z
#
# Youngs Moduli (GPa) = 63.10220 8.79958 73.34570
#
# Poissons Ratio (x) = 0.14535 0.45311
# Poissons Ratio (y) = 1.04233 1.03072
# Poissons Ratio (z) = 0.38983 0.12366
#
# Static dielectric constant tensor:
#      x y z
#    x 1.691920 0.000000 0.000000 
#    y 0.000000 1.635260 0.000000 
#    z 0.000000 0.000000 1.628530 
# 
# From -- ./inp_files/22957.got.cif
#   From: 2010.05.17/outbox.cif.g08.bks.cpg/sg38_12_cif.got.tgz:22957.got - 2010.06.03 18:07:57.
