data_PCOD9358913
_publ_section_title
;
Structure prediction by ZEFSAII (Michael W. Deem and Ramdas Pophale) SiO2 
 PCOD9358913
Probable space group: A M M 2
;
_chemical_formula_sum "Si O2"
_cell_formula_units_Z 56
_cell_length_a 21.799827
_cell_length_b 8.640699
_cell_length_c 15.852470
_cell_angle_alpha 90.000000
_cell_angle_beta 90.000000
_cell_angle_gamma 90.000000
_cell_volume 2986.062296
_symmetry_space_group_name_H-M "A M M 2"
_symmetry_group_IT_number 38
_symmetry_cell_setting 'orthorhombic'
loop_
_space_group_symop_operation_xyz
x,y,z
-x,-y,z
-x,y,z
x,-y,z
x,1/2+y,1/2+z
-x,1/2-y,1/2+z
-x,1/2+y,1/2+z
x,1/2-y,1/2+z
loop_
_atom_site_type_symbol
_atom_site_label
_atom_site_fract_x
_atom_site_fract_y
_atom_site_fract_z
Si Si1 0.873803 0.686477 0.799920
Si Si2 0.869816 0.685088 0.989954
Si Si3 0.000000 0.815520 0.045412
Si Si4 0.570854 0.686696 0.303047
Si Si5 0.000000 0.683561 0.234051
Si Si6 0.210670 0.685326 0.642296
Si Si7 0.652304 0.812551 0.644563
Si Si8 0.429160 0.686715 0.985980
O O1 0.882202 0.500000 0.795215
O O2 0.939035 0.765441 0.782902
O O3 0.827254 0.733005 0.725881
O O4 0.851226 0.723713 0.894028
O O5 0.869585 0.500000 0.999348
O O6 0.938576 0.746241 0.005121
O O7 0.825917 0.756572 0.060422
O O8 0.000000 0.768991 0.143868
O O9 0.000000 0.000000 0.037117
O O10 0.500000 0.734009 0.287124
O O11 0.571874 0.500000 0.305575
O O12 0.615023 0.737862 0.227728
O O13 0.589108 0.750022 0.394513
O O14 0.000000 0.500000 0.220234
O O15 0.212688 0.500000 0.641041
O O16 0.278955 0.751119 0.644123
O O17 0.614935 0.762335 0.561392
O O18 0.653537 0.000000 0.644426
O O19 0.500000 0.733903 0.001894
O O20 0.428042 0.500000 0.983308
#
# Coordination Sequence:
#
# PCOD9358913 Si02
#       8
#     8   8   4   8   4   8   8   8
#     4  10  23  42  62  84 117 153 187 237 297 347
#     4  11  23  41  64  89 115 152 196 238 290 350
#     4  12  23  38  61  90 124 154 185 237 296 341
#     4   9  18  34  57  85 115 147 186 235 287 336
#     4  12  23  36  63  94 118 150 193 239 286 345
#     4  11  24  41  59  82 115 156 194 240 290 340
#     4  10  21  37  57  80 112 153 193 234 280 343
#     4   9  18  34  57  84 113 147 187 232 286 343
#
# _framework density 18.753796000000001
#
# number of rings (size 3 to 8) (size 9 to 14) (size 15 to 20)
#    0.000    1.714    1.429    3.000    0.000    7.429 
#    0.000    4.286    0.000    4.286    0.000    0.000 
#    0.000    0.000    0.000    0.000    0.000    0.000 
#
# Total GULP energy -156461.300043 kJ/mol
# GULP energy per Si atom -5587.903573 kJ/mol
# Density = 1.871111 g / cm^3
# Si number density = 18.753796 Si / 1000 Ang^3
#
#
#
# Elastic Constant Matrix: (Units=GPa)
#
#
# Indices 1 2 3 4 5 6 
#
# 1 151.8079 32.8867 113.7822 0.0000 0.0000 0.0000
# 2 32.8867 25.1184 39.8343 0.0000 0.0000 0.0000
# 3 113.7822 39.8343 183.6970 0.0000 0.0000 0.0000
# 4 0.0000 0.0000 0.0000 30.5407 0.0000 0.0000
# 5 0.0000 0.0000 0.0000 0.0000 -2.0832 0.0000
# 6 0.0000 0.0000 0.0000 0.0000 0.0000 27.9736
#
#
#
# Elastic Compliance Matrix: (Units=1/GPa)
#
#
# Indices 1 2 3 4 5 6 
#
# 1 0.012947 -0.006452 -0.006620 0.000000 0.000000 0.000000
# 2 -0.006452 0.063894 -0.009859 0.000000 0.000000 0.000000
# 3 -0.006620 -0.009859 0.011682 0.000000 0.000000 0.000000
# 4 0.000000 0.000000 0.000000 0.032743 0.000000 0.000000
# 5 0.000000 0.000000 0.000000 0.000000 -0.480026 0.000000
# 6 0.000000 0.000000 0.000000 0.000000 0.000000 0.035748
#
#
# Mechanical properties :
#
#
# Convention : Reuss Voigt Hill
#
# Bulk Modulus (GPa) = 23.44085 81.51439 52.47762
# Shear Modulus (GPa) = -19.01649 22.89423 1.93887
#
# Velocity S-wave (km/s) = -3.18780 3.49775 1.01789
# Velocity P-wave (km/s) = 1.01147 7.73772 5.42445
#
# Compressibility (1/GPa) = 0.04266057
#
# Stress axis : x y z
#
# Youngs Moduli (GPa) = 77.23790 15.65097 85.60080
#
# Poissons Ratio (x) = 0.10099 0.56670
# Poissons Ratio (y) = 0.49837 0.84391
# Poissons Ratio (z) = 0.51133 0.15430
#
# Static dielectric constant tensor:
#      x y z
#    x 1.615470 0.000000 0.000000 
#    y 0.000000 1.635290 0.000000 
#    z 0.000000 0.000000 1.645700 
# 
# From -- ./inp_files/15517.got.cif
#   From: 2010.05.17/outbox.cif.g08.bks.cpg/sg38_8_cif.got.tgz:15517.got - 2010.06.03 18:07:57.
