data_PCOD9358191
_publ_section_title
;
Structure prediction by ZEFSAII (Michael W. Deem and Ramdas Pophale) SiO2 
 PCOD9358191
Probable space group: A M M 2
;
_chemical_formula_sum "Si O2"
_cell_formula_units_Z 64
_cell_length_a 7.723333
_cell_length_b 25.218826
_cell_length_c 14.447929
_cell_angle_alpha 90.000000
_cell_angle_beta 90.000000
_cell_angle_gamma 90.000000
_cell_volume 2814.072125
_symmetry_space_group_name_H-M "A M M 2"
_symmetry_group_IT_number 38
_symmetry_cell_setting 'orthorhombic'
loop_
_space_group_symop_operation_xyz
x,y,z
-x,-y,z
-x,y,z
x,-y,z
x,1/2+y,1/2+z
-x,1/2-y,1/2+z
-x,1/2+y,1/2+z
x,1/2-y,1/2+z
loop_
_atom_site_type_symbol
_atom_site_label
_atom_site_fract_x
_atom_site_fract_y
_atom_site_fract_z
Si Si1 0.201277 0.557593 0.062840
Si Si2 0.700624 0.605508 0.247303
Si Si3 0.294694 0.726178 0.446442
Si Si4 0.197867 0.776285 0.733874
Si Si5 0.209040 0.161159 0.461593
Si Si6 0.710791 0.890459 0.957365
Si Si7 0.708786 0.557539 0.639602
Si Si8 0.207416 0.163691 0.249186
O O1 0.279365 0.500000 0.041990
O O2 0.208437 0.569565 0.171755
O O3 0.000000 0.555442 0.034699
O O4 0.277721 0.609604 0.014084
O O5 0.500000 0.590261 0.248643
O O6 0.713513 0.667351 0.217086
O O7 0.770303 0.601445 0.352052
O O8 0.500000 0.723480 0.427783
O O9 0.201813 0.728959 0.346509
O O10 0.258640 0.780740 0.499265
O O11 0.242065 0.669572 0.487995
O O12 0.274475 0.719074 0.704976
O O13 0.000000 0.781813 0.701251
O O14 0.270032 0.159050 0.355090
O O15 0.000000 0.159683 0.463203
O O16 0.500000 0.892627 0.954449
O O17 0.769396 0.931311 0.034690
O O18 0.500000 0.555943 0.638460
O O19 0.771364 0.500000 0.673148
O O20 0.756061 0.609137 0.697952
O O21 0.000000 0.170593 0.252414
#
# Coordination Sequence:
#
# PCOD9358191 Si02
#       8
#     8   8   8   8   8   8   8   8
#     4  10  22  39  56  76 105 143 187 229 270 323
#     4  10  20  35  57  83 109 139 175 220 272 321
#     4   9  16  29  52  81 109 136 171 218 268 317
#     4   9  17  32  54  80 110 142 174 210 261 326
#     4   9  19  36  56  77 104 140 177 215 266 327
#     4   8  17  34  53  75 105 139 172 207 257 320
#     4  10  21  36  53  74 102 139 181 219 257 307
#     4   9  19  35  55  79 106 137 173 215 263 312
#
# _framework density 22.742840999999999
#
# number of rings (size 3 to 8) (size 9 to 14) (size 15 to 20)
#    0.000    2.750    0.000    2.625    0.000    5.500 
#    0.000    8.750    0.000    0.000    0.000    0.000 
#    0.000    0.000    0.000    0.000    0.000    0.000 
#
# Total GULP energy -178570.235162 kJ/mol
# GULP energy per Si atom -5580.319849 kJ/mol
# Density = 2.269108 g / cm^3
# Si number density = 22.742841 Si / 1000 Ang^3
#
#
#
# Elastic Constant Matrix: (Units=GPa)
#
#
# Indices 1 2 3 4 5 6 
#
# 1 45.9498 0.0915 -5.7956 0.0000 0.0000 0.0000
# 2 0.0915 96.0376 13.0687 0.0000 0.0000 0.0000
# 3 -5.7956 13.0687 42.1024 0.0000 0.0000 0.0000
# 4 0.0000 0.0000 0.0000 22.5393 0.0000 0.0000
# 5 0.0000 0.0000 0.0000 0.0000 13.4695 0.0000
# 6 0.0000 0.0000 0.0000 0.0000 0.0000 15.6984
#
#
#
# Elastic Compliance Matrix: (Units=1/GPa)
#
#
# Indices 1 2 3 4 5 6 
#
# 1 0.022166 -0.000456 0.003193 0.000000 0.000000 0.000000
# 2 -0.000456 0.010881 -0.003440 0.000000 0.000000 0.000000
# 3 0.003193 -0.003440 0.025259 0.000000 0.000000 0.000000
# 4 0.000000 0.000000 0.000000 0.044367 0.000000 0.000000
# 5 0.000000 0.000000 0.000000 0.000000 0.074242 0.000000
# 6 0.000000 0.000000 0.000000 0.000000 0.000000 0.063701
#
#
# Mechanical properties :
#
#
# Convention : Reuss Voigt Hill
#
# Bulk Modulus (GPa) = 17.57455 22.09099 19.83277
# Shear Modulus (GPa) = 19.15791 22.12315 20.64053
#
# Velocity S-wave (km/s) = 2.90551 3.12228 3.01584
# Velocity P-wave (km/s) = 4.35893 4.76788 4.56798
#
# Compressibility (1/GPa) = 0.05690047
#
# Stress axis : x y z
#
# Youngs Moduli (GPa) = 45.11312 91.90192 39.58991
#
# Poissons Ratio (x) = 0.04187 -0.12640
# Poissons Ratio (y) = 0.02055 0.13620
# Poissons Ratio (z) = -0.14404 0.31617
#
# Static dielectric constant tensor:
#      x y z
#    x 1.803760 0.000000 0.000000 
#    y 0.000000 1.885730 0.000000 
#    z 0.000000 0.000000 1.856290 
# 
# From -- ./inp_files/12800.got.cif
#   From: 2010.05.17/outbox.cif.g08.bks.cpg/sg38_7_cif.got.tgz:12800.got - 2010.06.03 18:07:57.
