data_PCOD9358383
_publ_section_title
;
Structure prediction by ZEFSAII (Michael W. Deem and Ramdas Pophale) SiO2 
 PCOD9358383
Probable space group: A M M 2
;
_chemical_formula_sum "Si O2"
_cell_formula_units_Z 48
_cell_length_a 19.478523
_cell_length_b 8.600854
_cell_length_c 15.411244
_cell_angle_alpha 90.000000
_cell_angle_beta 90.000000
_cell_angle_gamma 90.000000
_cell_volume 2581.875489
_symmetry_space_group_name_H-M "A M M 2"
_symmetry_group_IT_number 38
_symmetry_cell_setting 'orthorhombic'
loop_
_space_group_symop_operation_xyz
x,y,z
-x,-y,z
-x,y,z
x,-y,z
x,1/2+y,1/2+z
-x,1/2-y,1/2+z
-x,1/2+y,1/2+z
x,1/2-y,1/2+z
loop_
_atom_site_type_symbol
_atom_site_label
_atom_site_fract_x
_atom_site_fract_y
_atom_site_fract_z
Si Si1 0.325706 0.312326 0.575820
Si Si2 0.831296 0.684498 0.332308
Si Si3 0.172786 0.685678 0.642102
Si Si4 0.317684 0.686385 0.885006
Si Si5 0.080019 0.314076 0.987798
Si Si6 0.421615 0.810547 0.234112
O O1 0.327912 0.500000 0.566839
O O2 0.250149 0.271982 0.612340
O O3 0.335439 0.236698 0.482300
O O4 0.382224 0.263997 0.646417
O O5 0.835532 0.500000 0.341317
O O6 0.843665 0.734994 0.233461
O O7 0.755077 0.740173 0.358768
O O8 0.884445 0.762047 0.398577
O O9 0.170975 0.500000 0.653424
O O10 0.121184 0.736568 0.566748
O O11 0.310872 0.500000 0.879923
O O12 0.375801 0.736584 0.816487
O O13 0.085507 0.500000 0.996038
O O14 0.000000 0.270605 0.989292
O O15 0.500000 0.756024 0.237925
O O16 0.422695 0.000000 0.234346
#
# Coordination Sequence:
#
# PCOD9358383 Si02
#       6
#     8   8   8   8   8   8
#     4  10  20  36  59  89 118 155 202 246 298 361
#     4  12  24  39  63  92 123 162 207 252 300 359
#     4  11  22  39  64  93 123 159 202 250 302 361
#     4  11  21  36  60  89 120 157 204 253 302 360
#     4  11  25  44  65  92 125 159 199 251 308 363
#     4   9  19  37  59  84 120 162 200 245 303 362
#
# _framework density 18.591137
#
# number of rings (size 3 to 8) (size 9 to 14) (size 15 to 20)
#    0.000    1.333    3.333    3.000    0.000    3.333 
#    0.000    0.000    0.000    3.500    0.000    0.000 
#    0.000    0.000    0.000    0.000    0.000    0.000 
#
# Total GULP energy -134171.309619 kJ/mol
# GULP energy per Si atom -5590.471234 kJ/mol
# Density = 1.854882 g / cm^3
# Si number density = 18.591137 Si / 1000 Ang^3
#
#
#
# Elastic Constant Matrix: (Units=GPa)
#
#
# Indices 1 2 3 4 5 6 
#
# 1 115.2419 9.4645 21.1908 0.0000 0.0000 0.0000
# 2 9.4645 20.5225 -7.0662 0.0000 0.0000 0.0000
# 3 21.1908 -7.0662 89.7196 0.0000 0.0000 0.0000
# 4 0.0000 0.0000 0.0000 37.0843 0.0000 0.0000
# 5 0.0000 0.0000 0.0000 0.0000 30.8324 0.0000
# 6 0.0000 0.0000 0.0000 0.0000 0.0000 17.6313
#
#
#
# Elastic Compliance Matrix: (Units=1/GPa)
#
#
# Indices 1 2 3 4 5 6 
#
# 1 0.009613 -0.005360 -0.002693 0.000000 0.000000 0.000000
# 2 -0.005360 0.053074 0.005446 0.000000 0.000000 0.000000
# 3 -0.002693 0.005446 0.012211 0.000000 0.000000 0.000000
# 4 0.000000 0.000000 0.000000 0.026966 0.000000 0.000000
# 5 0.000000 0.000000 0.000000 0.000000 0.032433 0.000000
# 6 0.000000 0.000000 0.000000 0.000000 0.000000 0.056717
#
#
# Mechanical properties :
#
#
# Convention : Reuss Voigt Hill
#
# Bulk Modulus (GPa) = 14.35047 30.29581 22.32314
# Shear Modulus (GPa) = 22.78366 30.56927 26.67646
#
# Velocity S-wave (km/s) = 3.50453 4.05939 3.79212
# Velocity P-wave (km/s) = 4.91033 6.18892 5.58633
#
# Compressibility (1/GPa) = 0.06968414
#
# Stress axis : x y z
#
# Youngs Moduli (GPa) = 104.02857 18.84154 81.89522
#
# Poissons Ratio (x) = 0.10100 0.22051
# Poissons Ratio (y) = 0.55762 -0.44601
# Poissons Ratio (z) = 0.28011 -0.10261
#
# Static dielectric constant tensor:
#      x y z
#    x 1.619160 0.000000 0.000000 
#    y 0.000000 1.630080 0.000000 
#    z 0.000000 0.000000 1.612730 
# 
# From -- ./inp_files/14966.got.cif
#   From: 2010.05.17/outbox.cif.g08.bks.cpg/sg38_8_cif.got.tgz:14966.got - 2010.06.03 18:07:57.
