data_PCOD9358213
_publ_section_title
;
Structure prediction by ZEFSAII (Michael W. Deem and Ramdas Pophale) SiO2 
 PCOD9358213
Probable space group: A M M 2
;
_chemical_formula_sum "Si O2"
_cell_formula_units_Z 64
_cell_length_a 14.153423
_cell_length_b 19.031415
_cell_length_c 12.684315
_cell_angle_alpha 90.000000
_cell_angle_beta 90.000000
_cell_angle_gamma 90.000000
_cell_volume 3416.642862
_symmetry_space_group_name_H-M "A M M 2"
_symmetry_group_IT_number 38
_symmetry_cell_setting 'orthorhombic'
loop_
_space_group_symop_operation_xyz
x,y,z
-x,-y,z
-x,y,z
x,-y,z
x,1/2+y,1/2+z
-x,1/2-y,1/2+z
-x,1/2+y,1/2+z
x,1/2-y,1/2+z
loop_
_atom_site_type_symbol
_atom_site_label
_atom_site_fract_x
_atom_site_fract_y
_atom_site_fract_z
Si Si1 0.609344 0.363912 0.022440
Si Si2 0.610052 0.704482 0.434858
Si Si3 0.888149 0.915241 0.673580
Si Si4 0.613821 0.921285 0.306893
Si Si5 0.110114 0.915197 0.206955
Si Si6 0.114540 0.419651 0.938253
Si Si7 0.274751 0.822986 0.721883
Si Si8 0.275731 0.832310 0.136955
O O1 0.500000 0.381522 0.043366
O O2 0.664515 0.362551 0.131678
O O3 0.612326 0.286464 0.969306
O O4 0.646581 0.412457 0.927939
O O5 0.500000 0.684144 0.427608
O O6 0.663090 0.690766 0.325507
O O7 0.664271 0.666974 0.530268
O O8 0.864029 0.890103 0.553250
O O9 0.817798 0.869761 0.744171
O O10 0.000000 0.903419 0.691785
O O11 0.873533 0.000000 0.679788
O O12 0.500000 0.911897 0.307651
O O13 0.660365 0.866223 0.228795
O O14 0.635877 0.000000 0.270273
O O15 0.140485 0.888906 0.324791
O O16 0.181007 0.877906 0.128380
O O17 0.000000 0.898512 0.190069
O O18 0.118362 0.000000 0.205567
O O19 0.147827 0.500000 0.938722
O O20 0.000000 0.422377 0.934896
O O21 0.251285 0.747046 0.671516
#
# Coordination Sequence:
#
# PCOD9358213 Si02
#       8
#     8   8   8   8   8   8   8   8
#     4   9  19  35  56  84 115 146 186 239 297 349
#     4  10  21  39  59  80 114 156 195 238 288 355
#     4   9  19  36  56  80 113 152 195 242 294 351
#     4  10  20  35  57  86 118 149 189 243 295 344
#     4   9  18  33  54  81 115 154 192 234 288 344
#     4   7  12  26  50  78 105 136 176 225 284 342
#     4  11  22  35  59  86 113 151 201 240 292 349
#     4  11  22  35  56  86 119 151 197 238 291 350
#
# _framework density 18.731838
#
# number of rings (size 3 to 8) (size 9 to 14) (size 15 to 20)
#    0.000    2.500    1.250    2.625    1.750    2.000 
#    0.000    1.875    0.000    4.875    0.000    0.000 
#    0.000    0.000    0.000    0.000    0.000    0.000 
#
# Total GULP energy -178426.442750 kJ/mol
# GULP energy per Si atom -5575.826336 kJ/mol
# Density = 1.868920 g / cm^3
# Si number density = 18.731838 Si / 1000 Ang^3
#
#
#
# Elastic Constant Matrix: (Units=GPa)
#
#
# Indices 1 2 3 4 5 6 
#
# 1 109.0512 36.2820 46.1727 0.0000 0.0000 0.0000
# 2 36.2820 44.5370 14.2740 0.0000 0.0000 0.0000
# 3 46.1727 14.2740 69.4304 0.0000 0.0000 0.0000
# 4 0.0000 0.0000 0.0000 21.5233 0.0000 0.0000
# 5 0.0000 0.0000 0.0000 0.0000 31.1326 0.0000
# 6 0.0000 0.0000 0.0000 0.0000 0.0000 30.2815
#
#
#
# Elastic Compliance Matrix: (Units=1/GPa)
#
#
# Indices 1 2 3 4 5 6 
#
# 1 0.016368 -0.010540 -0.008718 0.000000 0.000000 0.000000
# 2 -0.010540 0.030824 0.000672 0.000000 0.000000 0.000000
# 3 -0.008718 0.000672 0.020063 0.000000 0.000000 0.000000
# 4 0.000000 0.000000 0.000000 0.046461 0.000000 0.000000
# 5 0.000000 0.000000 0.000000 0.000000 0.032121 0.000000
# 6 0.000000 0.000000 0.000000 0.000000 0.000000 0.033023
#
#
# Mechanical properties :
#
#
# Convention : Reuss Voigt Hill
#
# Bulk Modulus (GPa) = 33.24154 46.27511 39.75833
# Shear Modulus (GPa) = 22.11803 25.00680 23.56241
#
# Velocity S-wave (km/s) = 3.43996 3.65771 3.55051
# Velocity P-wave (km/s) = 5.79330 6.52657 6.17084
#
# Compressibility (1/GPa) = 0.03008284
#
# Stress axis : x y z
#
# Youngs Moduli (GPa) = 61.09445 32.44201 49.84421
#
# Poissons Ratio (x) = 0.34194 0.43455
# Poissons Ratio (y) = 0.64394 -0.03351
# Poissons Ratio (z) = 0.53264 -0.02181
#
# Static dielectric constant tensor:
#      x y z
#    x 1.678110 0.000000 0.000000 
#    y 0.000000 1.635580 0.000000 
#    z 0.000000 0.000000 1.657780 
# 
# From -- ./inp_files/10242.got.cif
#   From: 2010.05.17/outbox.cif.g08.bks.cpg/sg38_6_cif.got.tgz:10242.got - 2010.06.03 18:07:57.
