data_PCOD9358870
_publ_section_title
;
Structure prediction by ZEFSAII (Michael W. Deem and Ramdas Pophale) SiO2 
 PCOD9358870
Probable space group: A M M 2
;
_chemical_formula_sum "Si O2"
_cell_formula_units_Z 64
_cell_length_a 13.404008
_cell_length_b 27.925507
_cell_length_c 9.657340
_cell_angle_alpha 90.000000
_cell_angle_beta 90.000000
_cell_angle_gamma 90.000000
_cell_volume 3614.874853
_symmetry_space_group_name_H-M "A M M 2"
_symmetry_group_IT_number 38
_symmetry_cell_setting 'orthorhombic'
loop_
_space_group_symop_operation_xyz
x,y,z
-x,-y,z
-x,y,z
x,-y,z
x,1/2+y,1/2+z
-x,1/2-y,1/2+z
-x,1/2+y,1/2+z
x,1/2-y,1/2+z
loop_
_atom_site_type_symbol
_atom_site_label
_atom_site_fract_x
_atom_site_fract_y
_atom_site_fract_z
Si Si1 0.217240 0.053802 0.381750
Si Si2 0.117560 0.552307 0.165249
Si Si3 0.386471 0.369769 0.865144
Si Si4 0.115180 0.866563 0.863195
Si Si5 0.694799 0.194273 0.872482
Si Si6 0.613297 0.890010 0.048342
Si Si7 0.618153 0.721542 0.065824
Si Si8 0.814981 0.444696 0.569225
O O1 0.138038 0.056771 0.503671
O O2 0.304952 0.091195 0.404833
O O3 0.168720 0.061007 0.232550
O O4 0.259838 0.000000 0.380984
O O5 0.159088 0.500000 0.208542
O O6 0.156681 0.599408 0.240150
O O7 0.000000 0.551540 0.195047
O O8 0.500000 0.386855 0.886376
O O9 0.375323 0.363321 0.698256
O O10 0.373121 0.323375 0.960506
O O11 0.189998 0.822471 0.878505
O O12 0.000000 0.852844 0.841345
O O13 0.123449 0.904355 0.989212
O O14 0.634378 0.147615 0.926217
O O15 0.662781 0.210062 0.717758
O O16 0.670566 0.235193 0.984340
O O17 0.500000 0.908038 0.041190
O O18 0.698519 0.930606 0.044804
O O19 0.500000 0.732306 0.082899
O O20 0.835769 0.500000 0.531358
#
# Coordination Sequence:
#
# PCOD9358870 Si02
#       8
#     8   8   8   8   8   8   8   8
#     4   9  17  30  48  74 107 137 168 207 248 290
#     4   9  17  30  50  74  99 132 173 213 251 291
#     4   9  18  31  49  74 103 137 171 201 240 294
#     4  10  21  37  55  74 100 134 172 212 255 303
#     4  11  22  36  55  78 101 129 167 211 258 308
#     4   9  17  31  49  71 104 139 171 209 253 303
#     4  11  21  34  55  80 104 130 165 208 255 307
#     4   9  18  30  48  76 105 136 174 213 254 300
#
# _framework density 17.704623999999999
#
# number of rings (size 3 to 8) (size 9 to 14) (size 15 to 20)
#    0.000    2.375    0.000    3.000    0.000    2.750 
#    0.000    4.375    0.000    0.750    0.000    3.500 
#    0.000    0.000    0.000    0.000    0.000    0.000 
#
# Total GULP energy -178295.867166 kJ/mol
# GULP energy per Si atom -5571.745849 kJ/mol
# Density = 1.766433 g / cm^3
# Si number density = 17.704624 Si / 1000 Ang^3
#
#
#
# Elastic Constant Matrix: (Units=GPa)
#
#
# Indices 1 2 3 4 5 6 
#
# 1 55.6596 22.8997 24.1932 0.0000 0.0000 0.0000
# 2 22.8997 64.7653 37.5460 0.0000 0.0000 0.0000
# 3 24.1932 37.5460 83.4531 0.0000 0.0000 0.0000
# 4 0.0000 0.0000 0.0000 27.2375 0.0000 0.0000
# 5 0.0000 0.0000 0.0000 0.0000 19.6306 0.0000
# 6 0.0000 0.0000 0.0000 0.0000 0.0000 -30.3389
#
#
#
# Elastic Compliance Matrix: (Units=1/GPa)
#
#
# Indices 1 2 3 4 5 6 
#
# 1 0.021915 -0.005500 -0.003879 0.000000 0.000000 0.000000
# 2 -0.005500 0.022269 -0.008424 0.000000 0.000000 0.000000
# 3 -0.003879 -0.008424 0.016897 0.000000 0.000000 0.000000
# 4 0.000000 0.000000 0.000000 0.036714 0.000000 0.000000
# 5 0.000000 0.000000 0.000000 0.000000 0.050941 0.000000
# 6 0.000000 0.000000 0.000000 0.000000 0.000000 -0.032961
#
#
# Mechanical properties :
#
#
# Convention : Reuss Voigt Hill
#
# Bulk Modulus (GPa) = 39.25424 41.46178 40.35801
# Shear Modulus (GPa) = 31.27465 11.25510 21.26488
#
# Velocity S-wave (km/s) = 4.20750 2.52408 3.46944
# Velocity P-wave (km/s) = 6.76934 5.65368 6.23650
#
# Compressibility (1/GPa) = 0.02547495
#
# Stress axis : x y z
#
# Youngs Moduli (GPa) = 45.63044 44.90553 59.18064
#
# Poissons Ratio (x) = 0.24699 0.22954
# Poissons Ratio (y) = 0.25098 0.49856
# Poissons Ratio (z) = 0.17699 0.37830
#
# Static dielectric constant tensor:
#      x y z
#    x 1.596720 0.000000 0.000000 
#    y 0.000000 1.616210 0.000000 
#    z 0.000000 0.000000 1.637420 
# 
# From -- ./inp_files/5877.got.cif
#   From: 2010.05.17/outbox.cif.g08.bks.cpg/sg38_3_cif.got.tgz:5877.got - 2010.06.03 18:07:57.
