data_PCOD9358674
_publ_section_title
;
Structure prediction by ZEFSAII (Michael W. Deem and Ramdas Pophale) SiO2 
 PCOD9358674
Probable space group: A M M 2
;
_chemical_formula_sum "Si O2"
_cell_formula_units_Z 48
_cell_length_a 7.590798
_cell_length_b 31.118259
_cell_length_c 10.412180
_cell_angle_alpha 90.000000
_cell_angle_beta 90.000000
_cell_angle_gamma 90.000000
_cell_volume 2459.486216
_symmetry_space_group_name_H-M "A M M 2"
_symmetry_group_IT_number 38
_symmetry_cell_setting 'orthorhombic'
loop_
_space_group_symop_operation_xyz
x,y,z
-x,-y,z
-x,y,z
x,-y,z
x,1/2+y,1/2+z
-x,1/2-y,1/2+z
-x,1/2+y,1/2+z
x,1/2-y,1/2+z
loop_
_atom_site_type_symbol
_atom_site_label
_atom_site_fract_x
_atom_site_fract_y
_atom_site_fract_z
Si Si1 0.715671 0.382345 0.187460
Si Si2 0.710577 0.117771 0.397280
Si Si3 0.285164 0.215762 0.682572
Si Si4 0.284646 0.214753 0.388970
Si Si5 0.790845 0.451632 0.681314
Si Si6 0.291415 0.451474 0.391355
O O1 0.500000 0.382716 0.189900
O O2 0.768517 0.333110 0.214487
O O3 0.779693 0.416680 0.291376
O O4 0.772503 0.392924 0.041693
O O5 0.500000 0.121045 0.406527
O O6 0.773374 0.165775 0.361719
O O7 0.748684 0.081999 0.292150
O O8 0.500000 0.216201 0.684046
O O9 0.232575 0.225145 0.535541
O O10 0.223593 0.250771 0.784899
O O11 0.500000 0.215228 0.386068
O O12 0.720541 0.500000 0.706699
O O13 0.728978 0.438066 0.539644
O O14 0.000000 0.454482 0.674226
O O15 0.500000 0.454370 0.366461
O O16 0.218045 0.500000 0.378411
#
# Coordination Sequence:
#
# PCOD9358674 Si02
#       6
#     8   8   8   8   8   8
#     4   8  15  27  44  69  98 123 150 188 230 270
#     4   9  17  30  48  71  96 120 150 188 229 271
#     4   8  13  22  36  60  95 124 145 177 221 264
#     4   8  14  23  37  61  92 121 147 179 220 264
#     4  10  21  35  48  65  91 121 153 189 229 274
#     4   9  17  30  48  69  92 120 155 192 229 269
#
# _framework density 19.516272000000001
#
# number of rings (size 3 to 8) (size 9 to 14) (size 15 to 20)
#    0.000    3.333    0.000    2.500    0.000    3.000 
#    0.000    7.500    0.000    2.000    0.000   10.500 
#    0.000    0.000    0.000    0.000    0.000    0.000 
#
# Total GULP energy -133778.543910 kJ/mol
# GULP energy per Si atom -5574.105996 kJ/mol
# Density = 1.947185 g / cm^3
# Si number density = 19.516272 Si / 1000 Ang^3
#
#
#
# Elastic Constant Matrix: (Units=GPa)
#
#
# Indices 1 2 3 4 5 6 
#
# 1 38.8806 4.6225 1.2181 0.0000 0.0000 0.0000
# 2 4.6225 158.0075 151.4684 0.0000 0.0000 0.0000
# 3 1.2181 151.4684 175.6803 0.0000 0.0000 0.0000
# 4 0.0000 0.0000 0.0000 53.3015 0.0000 0.0000
# 5 0.0000 0.0000 0.0000 0.0000 -36.1538 0.0000
# 6 0.0000 0.0000 0.0000 0.0000 0.0000 -9.4840
#
#
#
# Elastic Compliance Matrix: (Units=1/GPa)
#
#
# Indices 1 2 3 4 5 6 
#
# 1 0.026037 -0.003393 0.002745 0.000000 0.000000 0.000000
# 2 -0.003393 0.036920 -0.031808 0.000000 0.000000 0.000000
# 3 0.002745 -0.031808 0.033097 0.000000 0.000000 0.000000
# 4 0.000000 0.000000 0.000000 0.018761 0.000000 0.000000
# 5 0.000000 0.000000 0.000000 0.000000 -0.027660 0.000000
# 6 0.000000 0.000000 0.000000 0.000000 0.000000 -0.105441
#
#
# Mechanical properties :
#
#
# Convention : Reuss Voigt Hill
#
# Bulk Modulus (GPa) = 32.11094 76.35405 54.23250
# Shear Modulus (GPa) = 87.70729 15.88335 51.79532
#
# Velocity S-wave (km/s) = 6.71105 2.85590 5.15724
# Velocity P-wave (km/s) = 8.74872 7.07694 7.95686
#
# Compressibility (1/GPa) = 0.03114203
#
# Stress axis : x y z
#
# Youngs Moduli (GPa) = 38.40665 27.08588 30.21393
#
# Poissons Ratio (x) = 0.09190 -0.08293
# Poissons Ratio (y) = 0.13031 0.96104
# Poissons Ratio (z) = -0.10541 0.86154
#
# Static dielectric constant tensor:
#      x y z
#    x 1.720810 0.000000 0.000000 
#    y 0.000000 1.656850 0.000000 
#    z 0.000000 0.000000 1.665910 
# 
# From -- ./inp_files/3788.got.cif
#   From: 2010.05.17/outbox.cif.g08.bks.cpg/sg38_2_cif.got.tgz:3788.got - 2010.06.03 18:07:57.
