data_PCOD9358133
_publ_section_title
;
Structure prediction by ZEFSAII (Michael W. Deem and Ramdas Pophale) SiO2 
 PCOD9358133
Probable space group: A M M 2
;
_chemical_formula_sum "Si O2"
_cell_formula_units_Z 64
_cell_length_a 16.832380
_cell_length_b 12.652789
_cell_length_c 15.085254
_cell_angle_alpha 90.000000
_cell_angle_beta 90.000000
_cell_angle_gamma 90.000000
_cell_volume 3212.805391
_symmetry_space_group_name_H-M "A M M 2"
_symmetry_group_IT_number 38
_symmetry_cell_setting 'orthorhombic'
loop_
_space_group_symop_operation_xyz
x,y,z
-x,-y,z
-x,y,z
x,-y,z
x,1/2+y,1/2+z
-x,1/2-y,1/2+z
-x,1/2+y,1/2+z
x,1/2-y,1/2+z
loop_
_atom_site_type_symbol
_atom_site_label
_atom_site_fract_x
_atom_site_fract_y
_atom_site_fract_z
Si Si1 0.911762 0.285481 0.178970
Si Si2 0.786127 0.245908 0.438162
Si Si3 0.911263 0.879764 0.338926
Si Si4 0.246423 0.882340 0.608952
Si Si5 0.405356 0.115729 0.079975
Si Si6 0.086902 0.880736 0.018255
Si Si7 0.590306 0.321226 0.193559
Si Si8 0.349551 0.374597 0.376971
O O1 0.906774 0.208239 0.262978
O O2 0.832090 0.354226 0.167115
O O3 0.912271 0.204884 0.095968
O O4 0.000000 0.338231 0.180492
O O5 0.842346 0.151950 0.405445
O O6 0.749983 0.203306 0.530004
O O7 0.842768 0.346202 0.455280
O O8 0.721921 0.290435 0.370595
O O9 0.000000 0.873244 0.379503
O O10 0.902184 0.000000 0.305683
O O11 0.330992 0.880942 0.658922
O O12 0.234685 0.000000 0.572648
O O13 0.500000 0.108560 0.073570
O O14 0.392189 0.204027 0.154733
O O15 0.372271 0.000000 0.105141
O O16 0.377632 0.137602 0.979138
O O17 0.000000 0.875350 0.974276
O O18 0.097124 0.000000 0.051854
O O19 0.500000 0.349967 0.162319
O O20 0.591542 0.339717 0.299036
O O21 0.330891 0.500000 0.365732
#
# Coordination Sequence:
#
# PCOD9358133 Si02
#       8
#     8   8   8   8   8   8   8   8
#     4   9  19  36  58  83 112 148 198 257 307 358
#     4  11  21  36  54  82 120 157 200 253 306 363
#     4  10  20  35  55  79 111 155 205 254 307 369
#     4  11  23  39  58  85 122 161 203 252 309 377
#     4   9  19  39  65  91 119 153 198 253 309 369
#     4   9  17  31  53  80 110 147 190 240 299 357
#     4  11  23  41  65  92 123 161 205 259 316 373
#     4  11  22  38  63  92 121 159 207 256 308 374
#
# _framework density 19.920283999999999
#
# number of rings (size 3 to 8) (size 9 to 14) (size 15 to 20)
#    0.000    1.875    1.250    3.000    0.000    3.750 
#    0.000    3.750    0.000    1.500    0.000    0.000 
#    0.000    0.000    0.000    0.000    0.000    0.000 
#
# Total GULP energy -178219.085647 kJ/mol
# GULP energy per Si atom -5569.346426 kJ/mol
# Density = 1.987494 g / cm^3
# Si number density = 19.920284 Si / 1000 Ang^3
#
#
#
# Elastic Constant Matrix: (Units=GPa)
#
#
# Indices 1 2 3 4 5 6 
#
# 1 116.9838 38.6096 27.4803 0.0000 0.0000 0.0000
# 2 38.6096 93.6624 23.8760 0.0000 0.0000 0.0000
# 3 27.4803 23.8760 47.9713 0.0000 0.0000 0.0000
# 4 0.0000 0.0000 0.0000 20.6667 0.0000 0.0000
# 5 0.0000 0.0000 0.0000 0.0000 19.5545 0.0000
# 6 0.0000 0.0000 0.0000 0.0000 0.0000 1.8341
#
#
#
# Elastic Compliance Matrix: (Units=1/GPa)
#
#
# Indices 1 2 3 4 5 6 
#
# 1 0.010679 -0.003256 -0.004497 0.000000 0.000000 0.000000
# 2 -0.003256 0.013221 -0.004715 0.000000 0.000000 0.000000
# 3 -0.004497 -0.004715 0.025769 0.000000 0.000000 0.000000
# 4 0.000000 0.000000 0.000000 0.048387 0.000000 0.000000
# 5 0.000000 0.000000 0.000000 0.000000 0.051139 0.000000
# 6 0.000000 0.000000 0.000000 0.000000 0.000000 0.545214
#
#
# Mechanical properties :
#
#
# Convention : Reuss Voigt Hill
#
# Bulk Modulus (GPa) = 40.43233 48.72769 44.58001
# Shear Modulus (GPa) = 6.87202 19.65451 13.26327
#
# Velocity S-wave (km/s) = 1.85937 3.14452 2.58314
# Velocity P-wave (km/s) = 4.99508 6.13991 5.59684
#
# Compressibility (1/GPa) = 0.02473268
#
# Stress axis : x y z
#
# Youngs Moduli (GPa) = 93.64053 75.63901 38.80685
#
# Poissons Ratio (x) = 0.24627 0.17452
# Poissons Ratio (y) = 0.30487 0.18298
# Poissons Ratio (z) = 0.42111 0.35664
#
# Static dielectric constant tensor:
#      x y z
#    x 1.751240 0.000000 0.000000 
#    y 0.000000 1.690970 0.000000 
#    z 0.000000 0.000000 1.717080 
# 
# From -- ./inp_files/15276.got.cif
#   From: 2010.05.17/outbox.cif.g08.bks.cpg/sg38_8_cif.got.tgz:15276.got - 2010.06.03 18:07:57.
