data_PCOD9358611
_publ_section_title
;
Structure prediction by ZEFSAII (Michael W. Deem and Ramdas Pophale) SiO2 
 PCOD9358611
Probable space group: A M M 2
;
_chemical_formula_sum "Si O2"
_cell_formula_units_Z 34
_cell_length_a 7.518813
_cell_length_b 22.961952
_cell_length_c 8.985465
_cell_angle_alpha 90.000000
_cell_angle_beta 90.000000
_cell_angle_gamma 90.000000
_cell_volume 1551.310190
_symmetry_space_group_name_H-M "A M M 2"
_symmetry_group_IT_number 38
_symmetry_cell_setting 'orthorhombic'
loop_
_space_group_symop_operation_xyz
x,y,z
-x,-y,z
-x,y,z
x,-y,z
x,1/2+y,1/2+z
-x,1/2-y,1/2+z
-x,1/2+y,1/2+z
x,1/2-y,1/2+z
loop_
_atom_site_type_symbol
_atom_site_label
_atom_site_fract_x
_atom_site_fract_y
_atom_site_fract_z
Si Si1 0.285187 0.175704 0.109570
Si Si2 0.284633 0.213126 0.434950
Si Si3 0.790678 0.565615 0.425447
Si Si4 0.702593 0.404256 0.095125
Si Si5 0.000000 0.500000 0.020258
O O1 0.500000 0.177381 0.111713
O O2 0.221122 0.193536 0.272967
O O3 0.221212 0.224562 0.993095
O O4 0.234648 0.111613 0.056096
O O5 0.500000 0.217577 0.425936
O O6 0.246940 0.161488 0.550858
O O7 0.729852 0.500000 0.461011
O O8 0.703144 0.587483 0.273236
O O9 0.000000 0.562242 0.390864
O O10 0.500000 0.414508 0.040809
O O11 0.843465 0.449327 0.029724
#
# Coordination Sequence:
#
# PCOD9358611 Si02
#       5
#     8   8   8   8   2
#     4  10  20  39  64  91 123 162 216 269 318 379
#     4   9  20  39  64  93 121 162 216 265 320 382
#     4  11  22  40  58  90 127 167 216 260 310 386
#     4  11  21  40  67  93 130 170 210 263 316 372
#     4  12  22  40  60 100 132 164 220 254 308 394
#
# _framework density 21.916958999999999
#
# number of rings (size 3 to 8) (size 9 to 14) (size 15 to 20)
#    0.000    1.647    2.353    2.471    0.000    5.176 
#    6.353    0.000    0.000    0.000    0.000    0.000 
#    0.000    0.000    0.000    0.000    0.000    0.000 
#
# Total GULP energy -94765.726908 kJ/mol
# GULP energy per Si atom -5574.454524 kJ/mol
# Density = 2.186708 g / cm^3
# Si number density = 21.916959 Si / 1000 Ang^3
#
#
#
# Elastic Constant Matrix: (Units=GPa)
#
#
# Indices 1 2 3 4 5 6 
#
# 1 91.1985 3.1309 1.1324 0.0000 0.0000 0.0000
# 2 3.1309 162.5467 93.6826 0.0000 0.0000 0.0000
# 3 1.1324 93.6826 94.7483 0.0000 0.0000 0.0000
# 4 0.0000 0.0000 0.0000 9.7269 0.0000 0.0000
# 5 0.0000 0.0000 0.0000 0.0000 -19.6491 0.0000
# 6 0.0000 0.0000 0.0000 0.0000 0.0000 46.1235
#
#
#
# Elastic Compliance Matrix: (Units=1/GPa)
#
#
# Indices 1 2 3 4 5 6 
#
# 1 0.010974 -0.000316 0.000181 0.000000 0.000000 0.000000
# 2 -0.000316 0.014312 -0.014147 0.000000 0.000000 0.000000
# 3 0.000181 -0.014147 0.024540 0.000000 0.000000 0.000000
# 4 0.000000 0.000000 0.000000 0.102807 0.000000 0.000000
# 5 0.000000 0.000000 0.000000 0.000000 -0.050893 0.000000
# 6 0.000000 0.000000 0.000000 0.000000 0.000000 0.021681
#
#
# Mechanical properties :
#
#
# Convention : Reuss Voigt Hill
#
# Bulk Modulus (GPa) = 47.03225 60.48727 53.75976
# Shear Modulus (GPa) = 31.43256 23.94345 27.68801
#
# Velocity S-wave (km/s) = 3.79115 3.30883 3.55817
# Velocity P-wave (km/s) = 6.37727 6.50047 6.43917
#
# Compressibility (1/GPa) = 0.02126201
#
# Stress axis : x y z
#
# Youngs Moduli (GPa) = 91.12711 69.87353 40.75012
#
# Poissons Ratio (x) = 0.02206 -0.00737
# Poissons Ratio (y) = 0.02877 0.57648
# Poissons Ratio (z) = -0.01649 0.98849
#
# Static dielectric constant tensor:
#      x y z
#    x 1.835710 0.000000 0.000000 
#    y 0.000000 1.776470 0.000000 
#    z 0.000000 0.000000 1.791980 
# 
# From -- ./inp_files/3148.got.cif
#   From: 2010.05.17/outbox.cif.g08.bks.cpg/sg38_2_cif.got.tgz:3148.got - 2010.06.03 18:07:57.
