data_PCOD9358921
_publ_section_title
;
Structure prediction by ZEFSAII (Michael W. Deem and Ramdas Pophale) SiO2 
 PCOD9358921
Probable space group: A M M 2
;
_chemical_formula_sum "Si O2"
_cell_formula_units_Z 48
_cell_length_a 7.827857
_cell_length_b 17.484218
_cell_length_c 17.388054
_cell_angle_alpha 90.000000
_cell_angle_beta 90.000000
_cell_angle_gamma 90.000000
_cell_volume 2379.797897
_symmetry_space_group_name_H-M "A M M 2"
_symmetry_group_IT_number 38
_symmetry_cell_setting 'orthorhombic'
loop_
_space_group_symop_operation_xyz
x,y,z
-x,-y,z
-x,y,z
x,-y,z
x,1/2+y,1/2+z
-x,1/2-y,1/2+z
-x,1/2+y,1/2+z
x,1/2-y,1/2+z
loop_
_atom_site_type_symbol
_atom_site_label
_atom_site_fract_x
_atom_site_fract_y
_atom_site_fract_z
Si Si1 0.795754 0.680285 0.077830
Si Si2 0.205276 0.648730 0.549137
Si Si3 0.705158 0.913128 0.729600
Si Si4 0.293604 0.680230 0.377163
Si Si5 0.706158 0.000000 0.318294
Si Si6 0.704033 0.850953 0.406589
Si Si7 0.206440 0.000000 0.139475
O O1 0.730478 0.768233 0.077711
O O2 0.741975 0.632983 0.151982
O O3 0.000000 0.683020 0.076100
O O4 0.736789 0.643337 0.997591
O O5 0.247037 0.643234 0.458890
O O6 0.270440 0.576611 0.597162
O O7 0.000000 0.649775 0.556624
O O8 0.500000 0.917319 0.737179
O O9 0.770163 0.867127 0.804100
O O10 0.771165 0.000000 0.726297
O O11 0.500000 0.682943 0.373255
O O12 0.229095 0.768002 0.379504
O O13 0.772049 0.923382 0.359954
O O14 0.500000 0.000000 0.326413
O O15 0.747824 0.000000 0.228690
O O16 0.500000 0.849166 0.395326
O O17 0.000000 0.000000 0.133336
#
# Coordination Sequence:
#
# PCOD9358921 Si02
#       7
#     8   8   8   8   4   8   4
#     4  10  21  37  57  82 109 142 185 225 267 321
#     4   9  20  38  57  80 111 145 179 221 272 323
#     4  10  22  37  55  81 113 145 179 223 273 321
#     4   9  19  36  58  81 106 141 183 224 270 323
#     4  10  22  36  56  85 110 137 180 227 270 321
#     4   9  19  37  57  80 110 142 177 223 276 324
#     4  10  22  38  56  81 114 147 178 217 272 327
#
# _framework density 20.169781
#
# number of rings (size 3 to 8) (size 9 to 14) (size 15 to 20)
#    0.000    2.500    0.000    0.500    4.667    3.000 
#    0.000    0.000    0.000    0.000    0.000    0.000 
#    0.000    0.000    0.000    0.000    0.000    0.000 
#
# Total GULP energy -133988.773669 kJ/mol
# GULP energy per Si atom -5582.865570 kJ/mol
# Density = 2.012387 g / cm^3
# Si number density = 20.169781 Si / 1000 Ang^3
#
#
#
# Elastic Constant Matrix: (Units=GPa)
#
#
# Indices 1 2 3 4 5 6 
#
# 1 17.1224 3.8932 -12.9581 0.0000 0.0000 0.0000
# 2 3.8932 170.4076 149.7737 0.0000 0.0000 0.0000
# 3 -12.9581 149.7737 184.4765 0.0000 0.0000 0.0000
# 4 0.0000 0.0000 0.0000 32.3943 0.0000 0.0000
# 5 0.0000 0.0000 0.0000 0.0000 41.7496 0.0000
# 6 0.0000 0.0000 0.0000 0.0000 0.0000 10.1488
#
#
#
# Elastic Compliance Matrix: (Units=1/GPa)
#
#
# Indices 1 2 3 4 5 6 
#
# 1 0.083643 -0.024701 0.025929 0.000000 0.000000 0.000000
# 2 -0.024701 0.027783 -0.024291 0.000000 0.000000 0.000000
# 3 0.025929 -0.024291 0.026964 0.000000 0.000000 0.000000
# 4 0.000000 0.000000 0.000000 0.030870 0.000000 0.000000
# 5 0.000000 0.000000 0.000000 0.000000 0.023952 0.000000
# 6 0.000000 0.000000 0.000000 0.000000 0.000000 0.098534
#
#
# Mechanical properties :
#
#
# Convention : Reuss Voigt Hill
#
# Bulk Modulus (GPa) = 10.83849 72.60268 41.72058
# Shear Modulus (GPa) = 13.56393 32.27836 22.92115
#
# Velocity S-wave (km/s) = 2.59605 4.00476 3.37473
# Velocity P-wave (km/s) = 3.79094 7.58011 5.99288
#
# Compressibility (1/GPa) = 0.09226380
#
# Stress axis : x y z
#
# Youngs Moduli (GPa) = 11.95564 35.99381 37.08676
#
# Poissons Ratio (x) = 0.88907 -0.96163
# Poissons Ratio (y) = 0.29531 0.90088
# Poissons Ratio (z) = -0.31000 0.87434
#
# Static dielectric constant tensor:
#      x y z
#    x 1.735110 0.000000 0.000000 
#    y 0.000000 1.736170 0.000000 
#    z 0.000000 0.000000 1.658570 
# 
# From -- ./inp_files/12055.got.cif
#   From: 2010.05.17/outbox.cif.g08.bks.cpg/sg38_7_cif.got.tgz:12055.got - 2010.06.03 18:07:57.
