data_PCOD9358379
_publ_section_title
;
Structure prediction by ZEFSAII (Michael W. Deem and Ramdas Pophale) SiO2 
 PCOD9358379
Probable space group: A M M 2
;
_chemical_formula_sum "Si O2"
_cell_formula_units_Z 48
_cell_length_a 8.161845
_cell_length_b 10.285305
_cell_length_c 29.018396
_cell_angle_alpha 90.000000
_cell_angle_beta 90.000000
_cell_angle_gamma 90.000000
_cell_volume 2436.009181
_symmetry_space_group_name_H-M "A M M 2"
_symmetry_group_IT_number 38
_symmetry_cell_setting 'orthorhombic'
loop_
_space_group_symop_operation_xyz
x,y,z
-x,-y,z
-x,y,z
x,-y,z
x,1/2+y,1/2+z
-x,1/2-y,1/2+z
-x,1/2+y,1/2+z
x,1/2-y,1/2+z
loop_
_atom_site_type_symbol
_atom_site_label
_atom_site_fract_x
_atom_site_fract_y
_atom_site_fract_z
Si Si1 0.302491 0.651712 0.375000
Si Si2 0.194996 0.348471 0.955193
Si Si3 0.303657 0.253528 0.054830
Si Si4 0.300085 0.000000 0.717143
Si Si5 0.194285 0.000000 0.110737
Si Si6 0.299806 0.248336 0.775133
Si Si7 0.299749 0.500000 0.113154
Si Si8 0.698442 0.000000 0.218081
O O1 0.500000 0.644050 0.372872
O O2 0.245048 0.500000 0.379766
O O3 0.258391 0.750611 0.415865
O O4 0.244933 0.717743 0.327100
O O5 0.257548 0.500000 0.953259
O O6 0.000000 0.355744 0.950786
O O7 0.237373 0.281703 0.003943
O O8 0.500000 0.255597 0.051651
O O9 0.253624 0.123988 0.081525
O O10 0.246422 0.373144 0.086168
O O11 0.249305 0.126596 0.744452
O O12 0.241522 0.000000 0.665179
O O13 0.500000 0.000000 0.716339
O O14 0.252668 0.000000 0.164183
O O15 0.000000 0.000000 0.111847
O O16 0.500000 0.253423 0.776569
O O17 0.245373 0.375838 0.747750
O O18 0.500000 0.500000 0.113806
O O19 0.500000 0.000000 0.217829
#
# Coordination Sequence:
#
# PCOD9358379 Si02
#       8
#     8   8   8   4   4   8   4   4
#     4  10  21  38  62  94 125 157 202 257 310 365
#     4  11  25  43  62  88 123 164 203 249 312 378
#     4  11  22  41  66  93 120 154 204 259 307 361
#     4   9  14  26  49  81 118 145 173 231 302 361
#     4  12  26  42  59  88 129 172 207 246 305 372
#     4   9  17  31  55  87 120 151 195 252 307 354
#     4   9  18  32  60  95 118 144 189 248 306 355
#     4  10  20  36  59  88 119 159 209 259 305 358
#
# _framework density 19.704360000000001
#
# number of rings (size 3 to 8) (size 9 to 14) (size 15 to 20)
#    0.000    1.833    1.667    2.750    2.333    4.000 
#    0.000    0.833    0.000    0.000    0.000    0.000 
#    0.000    0.000    0.000    0.000    0.000    0.000 
#
# Total GULP energy -133944.782472 kJ/mol
# GULP energy per Si atom -5581.032603 kJ/mol
# Density = 1.965951 g / cm^3
# Si number density = 19.704360 Si / 1000 Ang^3
#
#
#
# Elastic Constant Matrix: (Units=GPa)
#
#
# Indices 1 2 3 4 5 6 
#
# 1 21.6583 11.3811 8.0690 0.0000 0.0000 0.0000
# 2 11.3811 218.1085 125.9474 0.0000 0.0000 0.0000
# 3 8.0690 125.9474 229.1082 0.0000 0.0000 0.0000
# 4 0.0000 0.0000 0.0000 40.1159 0.0000 0.0000
# 5 0.0000 0.0000 0.0000 0.0000 -22.1885 0.0000
# 6 0.0000 0.0000 0.0000 0.0000 0.0000 12.8648
#
#
#
# Elastic Compliance Matrix: (Units=1/GPa)
#
#
# Indices 1 2 3 4 5 6 
#
# 1 0.047506 -0.002216 -0.000455 0.000000 0.000000 0.000000
# 2 -0.002216 0.006821 -0.003671 0.000000 0.000000 0.000000
# 3 -0.000455 -0.003671 0.006399 0.000000 0.000000 0.000000
# 4 0.000000 0.000000 0.000000 0.024928 0.000000 0.000000
# 5 0.000000 0.000000 0.000000 0.000000 -0.045068 0.000000
# 6 0.000000 0.000000 0.000000 0.000000 0.000000 0.077732
#
#
# Mechanical properties :
#
#
# Convention : Reuss Voigt Hill
#
# Bulk Modulus (GPa) = 20.81578 84.40778 52.61178
# Shear Modulus (GPa) = 34.01016 27.72361 30.86689
#
# Velocity S-wave (km/s) = 4.15905 3.75504 3.96220
# Velocity P-wave (km/s) = 5.80091 7.85688 6.90584
#
# Compressibility (1/GPa) = 0.04804048
#
# Stress axis : x y z
#
# Youngs Moduli (GPa) = 21.05007 146.61479 156.27319
#
# Poissons Ratio (x) = 0.32494 0.07107
# Poissons Ratio (y) = 0.04665 0.57374
# Poissons Ratio (z) = 0.00957 0.53828
#
# Static dielectric constant tensor:
#      x y z
#    x 1.689450 0.000000 0.000000 
#    y 0.000000 1.724770 0.000000 
#    z 0.000000 0.000000 1.678660 
# 
# From -- ./inp_files/24450.got.cif
#   From: 2010.05.17/outbox.cif.g08.bks.cpg/sg38_13_cif.got.tgz:24450.got - 2010.06.03 18:07:57.
