data_PCOD9358985
_publ_section_title
;
Structure prediction by ZEFSAII (Michael W. Deem and Ramdas Pophale) SiO2 
 PCOD9358985
Probable space group: A M M 2
;
_chemical_formula_sum "Si O2"
_cell_formula_units_Z 64
_cell_length_a 8.254881
_cell_length_b 31.700974
_cell_length_c 12.271300
_cell_angle_alpha 90.000000
_cell_angle_beta 90.000000
_cell_angle_gamma 90.000000
_cell_volume 3211.249107
_symmetry_space_group_name_H-M "A M M 2"
_symmetry_group_IT_number 38
_symmetry_cell_setting 'orthorhombic'
loop_
_space_group_symop_operation_xyz
x,y,z
-x,-y,z
-x,y,z
x,-y,z
x,1/2+y,1/2+z
-x,1/2-y,1/2+z
-x,1/2+y,1/2+z
x,1/2-y,1/2+z
loop_
_atom_site_type_symbol
_atom_site_label
_atom_site_fract_x
_atom_site_fract_y
_atom_site_fract_z
Si Si1 0.695139 0.373389 0.820950
Si Si2 0.304279 0.705014 0.968620
Si Si3 0.693074 0.954080 0.938465
Si Si4 0.310492 0.162262 0.696088
Si Si5 0.804244 0.046647 0.460608
Si Si6 0.189812 0.798116 0.914300
Si Si7 0.697070 0.371927 0.569959
Si Si8 0.188749 0.931062 0.702817
O O1 0.500000 0.372272 0.820645
O O2 0.750090 0.331472 0.884943
O O3 0.745791 0.415095 0.886232
O O4 0.749364 0.373780 0.695648
O O5 0.500000 0.708829 0.961195
O O6 0.229325 0.750216 0.944717
O O7 0.264954 0.688858 0.089789
O O8 0.500000 0.954611 0.955647
O O9 0.724667 0.947996 0.810265
O O10 0.758524 0.000000 0.972559
O O11 0.754898 0.913462 0.004335
O O12 0.500000 0.150426 0.685939
O O13 0.284519 0.188436 0.805614
O O14 0.209998 0.119328 0.702172
O O15 0.749242 0.052909 0.585940
O O16 0.000000 0.048057 0.462279
O O17 0.753652 0.000000 0.422392
O O18 0.000000 0.803044 0.893025
O O19 0.241235 0.830310 0.009317
O O20 0.500000 0.371067 0.566581
O O21 0.000000 0.942512 0.711532
#
# Coordination Sequence:
#
# PCOD9358985 Si02
#       8
#     8   8   8   8   8   8   8   8
#     4  10  22  41  64  90 117 155 208 255 297 352
#     4  10  23  42  64  90 121 159 203 249 302 357
#     4  10  21  37  59  87 119 160 205 249 303 361
#     4  11  22  40  66  91 122 159 200 250 303 357
#     4  10  22  39  59  87 125 164 198 242 305 366
#     4  12  26  41  62  93 126 159 201 247 299 362
#     4  10  22  41  63  87 122 161 201 253 303 353
#     4  11  21  36  60  90 124 158 199 251 307 357
#
# _framework density 19.929938
#
# number of rings (size 3 to 8) (size 9 to 14) (size 15 to 20)
#    0.000    1.500    2.500    2.250    1.750    4.000 
#    0.000    1.250    0.000    0.000    0.000    0.000 
#    0.000    0.000    0.000    0.000    0.000    0.000 
#
# Total GULP energy -178855.787117 kJ/mol
# GULP energy per Si atom -5589.243347 kJ/mol
# Density = 1.988458 g / cm^3
# Si number density = 19.929938 Si / 1000 Ang^3
#
#
#
# Elastic Constant Matrix: (Units=GPa)
#
#
# Indices 1 2 3 4 5 6 
#
# 1 12.1202 8.5264 6.2673 0.0000 0.0000 0.0000
# 2 8.5264 176.8958 76.0028 0.0000 0.0000 0.0000
# 3 6.2673 76.0028 142.6029 0.0000 0.0000 0.0000
# 4 0.0000 0.0000 0.0000 30.1702 0.0000 0.0000
# 5 0.0000 0.0000 0.0000 0.0000 12.9187 0.0000
# 6 0.0000 0.0000 0.0000 0.0000 0.0000 21.2226
#
#
#
# Elastic Compliance Matrix: (Units=1/GPa)
#
#
# Indices 1 2 3 4 5 6 
#
# 1 0.085855 -0.003265 -0.002033 0.000000 0.000000 0.000000
# 2 -0.003265 0.007456 -0.003830 0.000000 0.000000 0.000000
# 3 -0.002033 -0.003830 0.009143 0.000000 0.000000 0.000000
# 4 0.000000 0.000000 0.000000 0.033145 0.000000 0.000000
# 5 0.000000 0.000000 0.000000 0.000000 0.077407 0.000000
# 6 0.000000 0.000000 0.000000 0.000000 0.000000 0.047120
#
#
# Mechanical properties :
#
#
# Convention : Reuss Voigt Hill
#
# Bulk Modulus (GPa) = 11.87680 57.02354 34.45017
# Shear Modulus (GPa) = 16.31594 28.91714 22.61654
#
# Velocity S-wave (km/s) = 2.86434 3.81325 3.37234
# Velocity P-wave (km/s) = 4.11235 6.93267 5.69971
#
# Compressibility (1/GPa) = 0.08419774
#
# Stress axis : x y z
#
# Youngs Moduli (GPa) = 11.64755 134.11801 109.36943
#
# Poissons Ratio (x) = 0.43784 0.22238
# Poissons Ratio (y) = 0.03802 0.41893
# Poissons Ratio (z) = 0.02368 0.51373
#
# Static dielectric constant tensor:
#      x y z
#    x 1.701950 0.000000 0.000000 
#    y 0.000000 1.683610 0.000000 
#    z 0.000000 0.000000 1.676770 
# 
# From -- ./inp_files/8587.got.cif
#   From: 2010.05.17/outbox.cif.g08.bks.cpg/sg38_5_cif.got.tgz:8587.got - 2010.06.03 18:07:57.
