data_PCOD9358926
_publ_section_title
;
Structure prediction by ZEFSAII (Michael W. Deem and Ramdas Pophale) SiO2 
 PCOD9358926
Probable space group: A M M 2
;
_chemical_formula_sum "Si O2"
_cell_formula_units_Z 64
_cell_length_a 9.363302
_cell_length_b 14.128475
_cell_length_c 24.639469
_cell_angle_alpha 90.000000
_cell_angle_beta 90.000000
_cell_angle_gamma 90.000000
_cell_volume 3259.535106
_symmetry_space_group_name_H-M "A M M 2"
_symmetry_group_IT_number 38
_symmetry_cell_setting 'orthorhombic'
loop_
_space_group_symop_operation_xyz
x,y,z
-x,-y,z
-x,y,z
x,-y,z
x,1/2+y,1/2+z
-x,1/2-y,1/2+z
-x,1/2+y,1/2+z
x,1/2-y,1/2+z
loop_
_atom_site_type_symbol
_atom_site_label
_atom_site_fract_x
_atom_site_fract_y
_atom_site_fract_z
Si Si1 0.829092 0.235673 0.642770
Si Si2 0.168322 0.388238 0.248005
Si Si3 0.167904 0.295264 0.021962
Si Si4 0.332342 0.887032 0.205003
Si Si5 0.334921 0.114387 0.422834
Si Si6 0.166944 0.391781 0.461139
Si Si7 0.337222 0.384489 0.353806
Si Si8 0.163959 0.884754 0.315399
O O1 0.798221 0.165388 0.692539
O O2 0.792486 0.191078 0.584594
O O3 0.741504 0.329795 0.656583
O O4 0.000000 0.255096 0.642125
O O5 0.196886 0.500000 0.241159
O O6 0.254661 0.352979 0.300129
O O7 0.000000 0.377292 0.258999
O O8 0.000000 0.319573 0.014697
O O9 0.260067 0.349634 0.977475
O O10 0.184186 0.183700 0.008661
O O11 0.500000 0.863997 0.210062
O O12 0.248044 0.861551 0.260325
O O13 0.319719 0.000000 0.197573
O O14 0.500000 0.144512 0.419943
O O15 0.247486 0.145968 0.369428
O O16 0.332678 0.000000 0.422879
O O17 0.204022 0.500000 0.475737
O O18 0.259076 0.360093 0.409636
O O19 0.000000 0.390809 0.445024
O O20 0.500000 0.352600 0.353206
O O21 0.335592 0.500000 0.352543
O O22 0.000000 0.850766 0.314211
O O23 0.159468 0.000000 0.317263
#
# Coordination Sequence:
#
# PCOD9358926 Si02
#       8
#     8   8   8   8   8   8   8   8
#     4  10  22  38  56  80 108 142 187 231 269 317
#     4   9  18  34  55  78 106 139 173 214 266 319
#     4  10  22  38  56  80 108 142 187 231 269 317
#     4  10  21  37  57  82 113 147 181 222 275 331
#     4  10  21  37  57  82 113 147 181 222 275 331
#     4   9  18  34  55  78 106 139 173 214 266 319
#     4   9  17  30  51  80 108 134 170 214 261 317
#     4   9  17  32  57  86 112 140 178 224 273 327
#
# _framework density 19.634702999999998
#
# number of rings (size 3 to 8) (size 9 to 14) (size 15 to 20)
#    0.000    2.500    0.000    1.500    0.000    8.000 
#    0.000    3.750    0.000    3.000    0.000    0.000 
#    0.000    0.000    0.000    0.000    0.000    0.000 
#
# Total GULP energy -178754.340909 kJ/mol
# GULP energy per Si atom -5586.073153 kJ/mol
# Density = 1.959001 g / cm^3
# Si number density = 19.634703 Si / 1000 Ang^3
#
#
#
# Elastic Constant Matrix: (Units=GPa)
#
#
# Indices 1 2 3 4 5 6 
#
# 1 62.9133 10.9393 31.1469 0.0000 0.0000 0.0000
# 2 10.9393 39.6747 0.5886 0.0000 0.0000 0.0000
# 3 31.1469 0.5886 80.6948 0.0000 0.0000 0.0000
# 4 0.0000 0.0000 0.0000 27.6651 0.0000 0.0000
# 5 0.0000 0.0000 0.0000 0.0000 4.8554 0.0000
# 6 0.0000 0.0000 0.0000 0.0000 0.0000 21.1861
#
#
#
# Elastic Compliance Matrix: (Units=1/GPa)
#
#
# Indices 1 2 3 4 5 6 
#
# 1 0.020834 -0.005626 -0.008001 0.000000 0.000000 0.000000
# 2 -0.005626 0.026727 0.001977 0.000000 0.000000 0.000000
# 3 -0.008001 0.001977 0.015466 0.000000 0.000000 0.000000
# 4 0.000000 0.000000 0.000000 0.036147 0.000000 0.000000
# 5 0.000000 0.000000 0.000000 0.000000 0.205958 0.000000
# 6 0.000000 0.000000 0.000000 0.000000 0.000000 0.047201
#
#
# Mechanical properties :
#
#
# Convention : Reuss Voigt Hill
#
# Bulk Modulus (GPa) = 25.17165 29.84806 27.50985
# Shear Modulus (GPa) = 12.85762 20.11518 16.48640
#
# Velocity S-wave (km/s) = 2.56176 3.20421 2.90083
# Velocity P-wave (km/s) = 4.64736 5.37810 5.02603
#
# Compressibility (1/GPa) = 0.03972723
#
# Stress axis : x y z
#
# Youngs Moduli (GPa) = 47.99853 37.41560 64.65781
#
# Poissons Ratio (x) = 0.21049 0.51730
# Poissons Ratio (y) = 0.27003 -0.12780
# Poissons Ratio (z) = 0.38401 -0.07395
#
# Static dielectric constant tensor:
#      x y z
#    x 1.664990 0.000000 0.000000 
#    y 0.000000 1.733610 0.000000 
#    z 0.000000 0.000000 1.638610 
# 
# From -- ./inp_files/22218.got.cif
#   From: 2010.05.17/outbox.cif.g08.bks.cpg/sg38_12_cif.got.tgz:22218.got - 2010.06.03 18:07:57.
