data_PCOD9358123
_publ_section_title
;
Structure prediction by ZEFSAII (Michael W. Deem and Ramdas Pophale) SiO2 
 PCOD9358123
Probable space group: A M M 2
;
_chemical_formula_sum "Si O2"
_cell_formula_units_Z 56
_cell_length_a 29.318609
_cell_length_b 18.248682
_cell_length_c 5.068191
_cell_angle_alpha 90.000000
_cell_angle_beta 90.000000
_cell_angle_gamma 90.000000
_cell_volume 2711.613818
_symmetry_space_group_name_H-M "A M M 2"
_symmetry_group_IT_number 38
_symmetry_cell_setting 'orthorhombic'
loop_
_space_group_symop_operation_xyz
x,y,z
-x,-y,z
-x,y,z
x,-y,z
x,1/2+y,1/2+z
-x,1/2-y,1/2+z
-x,1/2+y,1/2+z
x,1/2-y,1/2+z
loop_
_atom_site_type_symbol
_atom_site_label
_atom_site_fract_x
_atom_site_fract_y
_atom_site_fract_z
Si Si1 0.178954 0.086628 0.538820
Si Si2 0.549452 0.801812 0.293632
Si Si3 0.049255 0.664648 0.371084
Si Si4 0.150037 0.295014 0.433916
Si Si5 0.355356 0.700170 0.918924
Si Si6 0.745241 0.696855 0.827119
Si Si7 0.924372 0.917510 0.363421
O O1 0.167224 0.128100 0.815843
O O2 0.220235 0.131200 0.405037
O O3 0.130597 0.093048 0.379944
O O4 0.187859 0.000000 0.571522
O O5 0.500000 0.839325 0.327466
O O6 0.550195 0.734939 0.505431
O O7 0.597480 0.841373 0.351720
O O8 0.095126 0.708055 0.432507
O O9 0.055773 0.598042 0.576750
O O10 0.000000 0.699073 0.417663
O O11 0.053565 0.636086 0.075176
O O12 0.251758 0.264726 0.538498
O O13 0.164548 0.236577 0.212530
O O14 0.356214 0.769815 0.717140
O O15 0.306265 0.665658 0.861618
O O16 0.933690 0.000000 0.445799
#
# Coordination Sequence:
#
# PCOD9358123 Si02
#       7
#     8   8   8   8   8   8   8
#     4  10  22  40  60  84 110 137 176 221 261 303
#     4   8  12  18  30  51  82 120 159 200 247 295
#     4  11  23  38  58  85 110 135 170 209 247 294
#     4  11  23  41  61  81 108 140 169 200 246 303
#     4   8  14  24  39  61  90 125 165 206 249 303
#     4  10  20  35  55  78 105 139 176 214 263 318
#     4  10  22  38  56  80 111 143 171 205 252 305
#
# _framework density 20.651907999999999
#
# number of rings (size 3 to 8) (size 9 to 14) (size 15 to 20)
#    0.000    2.286    0.000    3.429    0.000    5.143 
#    0.000    5.714    0.000    0.000    0.000    0.000 
#    0.000    0.571    0.000    0.000    0.000  129.714 
#
# Total GULP energy -156213.016444 kJ/mol
# GULP energy per Si atom -5579.036302 kJ/mol
# Density = 2.060490 g / cm^3
# Si number density = 20.651908 Si / 1000 Ang^3
#
#
#
# Elastic Constant Matrix: (Units=GPa)
#
#
# Indices 1 2 3 4 5 6 
#
# 1 158.0221 33.1169 5.7884 0.0000 0.0000 0.0000
# 2 33.1169 90.4677 27.9333 0.0000 0.0000 0.0000
# 3 5.7884 27.9333 84.0592 0.0000 0.0000 0.0000
# 4 0.0000 0.0000 0.0000 21.5337 0.0000 0.0000
# 5 0.0000 0.0000 0.0000 0.0000 19.3216 0.0000
# 6 0.0000 0.0000 0.0000 0.0000 0.0000 5.6260
#
#
#
# Elastic Compliance Matrix: (Units=1/GPa)
#
#
# Indices 1 2 3 4 5 6 
#
# 1 0.006866 -0.002638 0.000404 0.000000 0.000000 0.000000
# 2 -0.002638 0.013331 -0.004248 0.000000 0.000000 0.000000
# 3 0.000404 -0.004248 0.013280 0.000000 0.000000 0.000000
# 4 0.000000 0.000000 0.000000 0.046439 0.000000 0.000000
# 5 0.000000 0.000000 0.000000 0.000000 0.051756 0.000000
# 6 0.000000 0.000000 0.000000 0.000000 0.000000 0.177745
#
#
# Mechanical properties :
#
#
# Convention : Reuss Voigt Hill
#
# Bulk Modulus (GPa) = 48.75093 51.80292 50.27692
# Shear Modulus (GPa) = 15.18740 27.01030 21.09885
#
# Velocity S-wave (km/s) = 2.71477 3.62039 3.19978
# Velocity P-wave (km/s) = 5.78653 6.52799 6.16841
#
# Compressibility (1/GPa) = 0.02051243
#
# Stress axis : x y z
#
# Youngs Moduli (GPa) = 145.63830 75.01224 75.29944
#
# Poissons Ratio (x) = 0.19790 -0.03041
# Poissons Ratio (y) = 0.38422 0.31990
# Poissons Ratio (z) = -0.05882 0.31868
#
# Static dielectric constant tensor:
#      x y z
#    x 1.889010 0.000000 0.000000 
#    y 0.000000 1.698870 0.000000 
#    z 0.000000 0.000000 1.779280 
# 
# From -- ./inp_files/2243.got.cif
#   From: 2010.05.17/outbox.cif.g08.bks.cpg/sg38_2_cif.got.tgz:2243.got - 2010.06.03 18:07:57.
