data_PCOD9358723
_publ_section_title
;
Structure prediction by ZEFSAII (Michael W. Deem and Ramdas Pophale) SiO2 
 PCOD9358723
Probable space group: A M M 2
;
_chemical_formula_sum "Si O2"
_cell_formula_units_Z 56
_cell_length_a 21.978529
_cell_length_b 13.040479
_cell_length_c 9.289143
_cell_angle_alpha 90.000000
_cell_angle_beta 90.000000
_cell_angle_gamma 90.000000
_cell_volume 2662.366346
_symmetry_space_group_name_H-M "A M M 2"
_symmetry_group_IT_number 38
_symmetry_cell_setting 'orthorhombic'
loop_
_space_group_symop_operation_xyz
x,y,z
-x,-y,z
-x,y,z
x,-y,z
x,1/2+y,1/2+z
-x,1/2-y,1/2+z
-x,1/2+y,1/2+z
x,1/2-y,1/2+z
loop_
_atom_site_type_symbol
_atom_site_label
_atom_site_fract_x
_atom_site_fract_y
_atom_site_fract_z
Si Si1 0.929412 0.618567 0.510400
Si Si2 0.637017 0.750161 0.175239
Si Si3 0.279503 0.805673 0.923864
Si Si4 0.166251 0.615978 0.298398
Si Si5 0.427005 0.120299 0.423683
Si Si6 0.932001 0.623740 0.831544
Si Si7 0.802772 0.120747 0.487127
O O1 0.908231 0.500000 0.520582
O O2 0.890823 0.663432 0.380268
O O3 0.922807 0.664621 0.668707
O O4 0.000000 0.617114 0.474951
O O5 0.682671 0.811800 0.070169
O O6 0.676260 0.682787 0.287497
O O7 0.598240 0.823890 0.279849
O O8 0.599281 0.679811 0.063581
O O9 0.248234 0.692321 0.916093
O O10 0.222154 0.879752 0.908772
O O11 0.149600 0.500000 0.256411
O O12 0.190206 0.661886 0.150358
O O13 0.500000 0.126960 0.424947
O O14 0.409622 0.000000 0.426395
O O15 0.938376 0.500000 0.816145
O O16 0.000000 0.657651 0.885593
O O17 0.870006 0.632116 0.920773
O O18 0.785772 0.000000 0.482925
#
# Coordination Sequence:
#
# PCOD9358723 Si02
#       7
#     8   8   8   8   8   8   8
#     4   8  15  29  49  74 104 140 188 249 318 383
#     4  10  23  40  65  96 135 174 212 260 310 373
#     4  11  22  39  56  86 125 164 204 251 305 368
#     4  10  21  35  53  78 110 150 197 252 310 371
#     4  10  22  44  74 105 137 175 217 262 314 369
#     4   8  15  29  50  77 105 139 192 257 324 390
#     4  10  21  36  56  79 110 155 203 259 319 380
#
# _framework density 21.033919999999998
#
# number of rings (size 3 to 8) (size 9 to 14) (size 15 to 20)
#    0.000    2.429    1.429    1.286    2.000    4.000 
#    0.000    5.714    0.000    7.714    0.000    0.000 
#    0.000    0.000    0.000    0.000    0.000    0.000 
#
# Total GULP energy -156165.134401 kJ/mol
# GULP energy per Si atom -5577.326229 kJ/mol
# Density = 2.098605 g / cm^3
# Si number density = 21.033920 Si / 1000 Ang^3
#
#
#
# Elastic Constant Matrix: (Units=GPa)
#
#
# Indices 1 2 3 4 5 6 
#
# 1 93.6658 17.5018 55.9238 0.0000 0.0000 0.0000
# 2 17.5018 83.6499 32.4734 0.0000 0.0000 0.0000
# 3 55.9238 32.4734 119.9448 0.0000 0.0000 0.0000
# 4 0.0000 0.0000 0.0000 21.2753 0.0000 0.0000
# 5 0.0000 0.0000 0.0000 0.0000 39.3451 0.0000
# 6 0.0000 0.0000 0.0000 0.0000 0.0000 22.6460
#
#
#
# Elastic Compliance Matrix: (Units=1/GPa)
#
#
# Indices 1 2 3 4 5 6 
#
# 1 0.014811 -0.000467 -0.006779 0.000000 0.000000 0.000000
# 2 -0.000467 0.013373 -0.003403 0.000000 0.000000 0.000000
# 3 -0.006779 -0.003403 0.012419 0.000000 0.000000 0.000000
# 4 0.000000 0.000000 0.000000 0.047003 0.000000 0.000000
# 5 0.000000 0.000000 0.000000 0.000000 0.025416 0.000000
# 6 0.000000 0.000000 0.000000 0.000000 0.000000 0.044158
#
#
# Mechanical properties :
#
#
# Convention : Reuss Voigt Hill
#
# Bulk Modulus (GPa) = 51.79918 56.56205 54.18062
# Shear Modulus (GPa) = 27.03963 29.41072 28.22517
#
# Velocity S-wave (km/s) = 3.58931 3.74338 3.66715
# Velocity P-wave (km/s) = 6.46974 6.75523 6.61402
#
# Compressibility (1/GPa) = 0.01930533
#
# Stress axis : x y z
#
# Youngs Moduli (GPa) = 67.51700 74.77573 80.52059
#
# Poissons Ratio (x) = 0.03493 0.54586
# Poissons Ratio (y) = 0.03154 0.27400
# Poissons Ratio (z) = 0.45771 0.25445
#
# Static dielectric constant tensor:
#      x y z
#    x 1.759450 0.000000 0.000000 
#    y 0.000000 1.830340 0.000000 
#    z 0.000000 0.000000 1.776150 
# 
# From -- ./inp_files/6752.got.cif
#   From: 2010.05.17/outbox.cif.g08.bks.cpg/sg38_4_cif.got.tgz:6752.got - 2010.06.03 18:07:57.
