data_PCOD9358372
_publ_section_title
;
Structure prediction by ZEFSAII (Michael W. Deem and Ramdas Pophale) SiO2 
 PCOD9358372
Probable space group: A M M 2
;
_chemical_formula_sum "Si O2"
_cell_formula_units_Z 48
_cell_length_a 7.958115
_cell_length_b 10.293351
_cell_length_c 28.943549
_cell_angle_alpha 90.000000
_cell_angle_beta 90.000000
_cell_angle_gamma 90.000000
_cell_volume 2370.930237
_symmetry_space_group_name_H-M "A M M 2"
_symmetry_group_IT_number 38
_symmetry_cell_setting 'orthorhombic'
loop_
_space_group_symop_operation_xyz
x,y,z
-x,-y,z
-x,y,z
x,-y,z
x,1/2+y,1/2+z
-x,1/2-y,1/2+z
-x,1/2+y,1/2+z
x,1/2-y,1/2+z
loop_
_atom_site_type_symbol
_atom_site_label
_atom_site_fract_x
_atom_site_fract_y
_atom_site_fract_z
Si Si1 0.300146 0.650546 0.373350
Si Si2 0.298616 0.348957 0.951461
Si Si3 0.203655 0.251825 0.052069
Si Si4 0.205728 0.000000 0.714127
Si Si5 0.203152 0.000000 0.108996
Si Si6 0.200096 0.243785 0.773277
Si Si7 0.205161 0.500000 0.109706
Si Si8 0.300902 0.000000 0.217538
O O1 0.500000 0.640016 0.381158
O O2 0.234438 0.500000 0.373805
O O3 0.232058 0.750735 0.411968
O O4 0.273338 0.718598 0.323892
O O5 0.500000 0.357890 0.945685
O O6 0.235205 0.500000 0.950484
O O7 0.263092 0.280231 0.000369
O O8 0.259161 0.373650 0.082471
O O9 0.000000 0.248280 0.050723
O O10 0.261044 0.124501 0.079580
O O11 0.261641 0.126671 0.741147
O O12 0.264273 0.000000 0.661886
O O13 0.000000 0.000000 0.713469
O O14 0.249361 0.000000 0.163323
O O15 0.000000 0.000000 0.108544
O O16 0.238618 0.375396 0.746157
O O17 0.000000 0.233386 0.778254
O O18 0.000000 0.500000 0.110357
O O19 0.500000 0.000000 0.218531
#
# Coordination Sequence:
#
# PCOD9358372 Si02
#       8
#     8   8   8   4   4   8   4   4
#     4  10  22  40  61  87 121 161 201 247 308 372
#     4  10  22  39  59  85 119 159 201 246 300 361
#     4  10  20  36  59  86 118 153 195 247 302 355
#     4   9  18  34  60  89 118 152 191 242 302 361
#     4  10  22  40  61  88 121 159 203 253 303 358
#     4  11  22  40  64  92 123 158 203 255 307 364
#     4   9  16  30  54  81 110 147 183 225 290 359
#     4  12  26  42  61  90 127 168 207 250 305 368
#
# _framework density 20.24522
#
# number of rings (size 3 to 8) (size 9 to 14) (size 15 to 20)
#    0.000    1.833    1.667    2.250    2.333    4.000 
#    0.000    0.000    0.000    1.000    0.000    0.000 
#    0.000    0.000    0.000    0.000    0.000    0.000 
#
# Total GULP energy -133966.170015 kJ/mol
# GULP energy per Si atom -5581.923751 kJ/mol
# Density = 2.019914 g / cm^3
# Si number density = 20.245220 Si / 1000 Ang^3
#
#
#
# Elastic Constant Matrix: (Units=GPa)
#
#
# Indices 1 2 3 4 5 6 
#
# 1 17.6626 0.5673 -7.7755 0.0000 0.0000 0.0000
# 2 0.5673 207.2661 112.4961 0.0000 0.0000 0.0000
# 3 -7.7755 112.4961 211.0969 0.0000 0.0000 0.0000
# 4 0.0000 0.0000 0.0000 44.2418 0.0000 0.0000
# 5 0.0000 0.0000 0.0000 0.0000 27.2701 0.0000
# 6 0.0000 0.0000 0.0000 0.0000 0.0000 0.0659
#
#
#
# Elastic Compliance Matrix: (Units=1/GPa)
#
#
# Indices 1 2 3 4 5 6 
#
# 1 0.058053 -0.001856 0.003128 0.000000 0.000000 0.000000
# 2 -0.001856 0.006848 -0.003718 0.000000 0.000000 0.000000
# 3 0.003128 -0.003718 0.006833 0.000000 0.000000 0.000000
# 4 0.000000 0.000000 0.000000 0.022603 0.000000 0.000000
# 5 0.000000 0.000000 0.000000 0.000000 0.036670 0.000000
# 6 0.000000 0.000000 0.000000 0.000000 0.000000 15.178235
#
#
# Mechanical properties :
#
#
# Convention : Reuss Voigt Hill
#
# Bulk Modulus (GPa) = 14.96073 71.84458 43.40266
# Shear Modulus (GPa) = 0.32602 36.36475 18.34538
#
# Velocity S-wave (km/s) = 0.40173 4.24277 3.01351
# Velocity P-wave (km/s) = 2.76061 7.71788 5.79598
#
# Compressibility (1/GPa) = 0.06684167
#
# Stress axis : x y z
#
# Youngs Moduli (GPa) = 17.22555 146.03828 146.33848
#
# Poissons Ratio (x) = 0.27112 -0.45770
# Poissons Ratio (y) = 0.03198 0.54401
# Poissons Ratio (z) = -0.05388 0.54290
#
# Static dielectric constant tensor:
#      x y z
#    x 1.726150 0.000000 0.000000 
#    y 0.000000 1.746650 0.000000 
#    z 0.000000 0.000000 1.696150 
# 
# From -- ./inp_files/24448.got.cif
#   From: 2010.05.17/outbox.cif.g08.bks.cpg/sg38_13_cif.got.tgz:24448.got - 2010.06.03 18:07:57.
