data_PCOD9358189
_publ_section_title
;
Structure prediction by ZEFSAII (Michael W. Deem and Ramdas Pophale) SiO2 
 PCOD9358189
Probable space group: A M M 2
;
_chemical_formula_sum "Si O2"
_cell_formula_units_Z 40
_cell_length_a 8.527517
_cell_length_b 12.068367
_cell_length_c 20.572859
_cell_angle_alpha 90.000000
_cell_angle_beta 90.000000
_cell_angle_gamma 90.000000
_cell_volume 2117.218851
_symmetry_space_group_name_H-M "A M M 2"
_symmetry_group_IT_number 38
_symmetry_cell_setting 'orthorhombic'
loop_
_space_group_symop_operation_xyz
x,y,z
-x,-y,z
-x,y,z
x,-y,z
x,1/2+y,1/2+z
-x,1/2-y,1/2+z
-x,1/2+y,1/2+z
x,1/2-y,1/2+z
loop_
_atom_site_type_symbol
_atom_site_label
_atom_site_fract_x
_atom_site_fract_y
_atom_site_fract_z
Si Si1 0.683804 0.500000 0.691680
Si Si2 0.315331 0.000000 0.035693
Si Si3 0.814378 0.218736 0.259600
Si Si4 0.310611 0.627439 0.150859
Si Si5 0.689276 0.127566 0.391060
Si Si6 0.307840 0.245183 0.020739
O O1 0.500000 0.500000 0.710061
O O2 0.693606 0.500000 0.613982
O O3 0.761973 0.608829 0.720722
O O4 0.250727 0.881396 0.013147
O O5 0.500000 0.000000 0.017874
O O6 0.748574 0.320484 0.217861
O O7 0.747294 0.202229 0.331672
O O8 0.000000 0.225354 0.262537
O O9 0.500000 0.630979 0.151297
O O10 0.262083 0.500000 0.142623
O O11 0.257857 0.701256 0.089238
O O12 0.500000 0.125975 0.389781
O O13 0.738063 0.178666 0.460109
O O14 0.743359 0.000000 0.383228
O O15 0.500000 0.242216 0.022427
#
# Coordination Sequence:
#
# PCOD9358189 Si02
#       6
#     4   4   8   8   8   8
#     4  11  19  35  63  89 113 142 189 242 287 333
#     4   9  16  29  57  89 115 136 173 240 295 331
#     4  12  24  37  56  84 120 154 189 234 291 350
#     4  10  20  37  62  88 114 147 193 242 286 337
#     4  10  20  35  57  82 112 150 193 238 283 335
#     4   9  17  32  56  88 115 141 186 242 290 332
#
# _framework density 18.892710000000001
#
# number of rings (size 3 to 8) (size 9 to 14) (size 15 to 20)
#    0.000    1.800    3.000    2.700    0.000    2.800 
#    1.800    1.000    0.000    2.400    0.000    0.000 
#    0.000    0.000    0.000    0.000    0.000    0.000 
#
# Total GULP energy -111654.998537 kJ/mol
# GULP energy per Si atom -5582.749927 kJ/mol
# Density = 1.884971 g / cm^3
# Si number density = 18.892710 Si / 1000 Ang^3
#
#
#
# Elastic Constant Matrix: (Units=GPa)
#
#
# Indices 1 2 3 4 5 6 
#
# 1 14.5017 18.4842 17.9684 0.0000 0.0000 0.0000
# 2 18.4842 119.0588 58.3756 0.0000 0.0000 0.0000
# 3 17.9684 58.3756 114.3811 0.0000 0.0000 0.0000
# 4 0.0000 0.0000 0.0000 39.1275 0.0000 0.0000
# 5 0.0000 0.0000 0.0000 0.0000 -22.2709 0.0000
# 6 0.0000 0.0000 0.0000 0.0000 0.0000 7.2217
#
#
#
# Elastic Compliance Matrix: (Units=1/GPa)
#
#
# Indices 1 2 3 4 5 6 
#
# 1 0.093395 -0.009745 -0.009698 0.000000 0.000000 0.000000
# 2 -0.009745 0.012219 -0.004705 0.000000 0.000000 0.000000
# 3 -0.009698 -0.004705 0.012668 0.000000 0.000000 0.000000
# 4 0.000000 0.000000 0.000000 0.025557 0.000000 0.000000
# 5 0.000000 0.000000 0.000000 0.000000 -0.044902 0.000000
# 6 0.000000 0.000000 0.000000 0.000000 0.000000 0.138472
#
#
# Mechanical properties :
#
#
# Convention : Reuss Voigt Hill
#
# Bulk Modulus (GPa) = 14.28876 48.62199 31.45537
# Shear Modulus (GPa) = 16.17942 15.02322 15.60132
#
# Velocity S-wave (km/s) = 2.92958 2.82296 2.87677
# Velocity P-wave (km/s) = 4.36151 6.03467 5.26498
#
# Compressibility (1/GPa) = 0.06998506
#
# Stress axis : x y z
#
# Youngs Moduli (GPa) = 10.70723 81.83863 78.94108
#
# Poissons Ratio (x) = 0.79748 0.76560
# Poissons Ratio (y) = 0.10434 0.37145
# Poissons Ratio (z) = 0.10384 0.38508
#
# Static dielectric constant tensor:
#      x y z
#    x 1.636970 0.000000 0.000000 
#    y 0.000000 1.656200 0.000000 
#    z 0.000000 0.000000 1.632220 
# 
# From -- ./inp_files/19489.got.cif
#   From: 2010.05.17/outbox.cif.g08.bks.cpg/sg38_10_cif.got.tgz:19489.got - 2010.06.03 18:07:57.
