data_PCOD9358887
_publ_section_title
;
Structure prediction by ZEFSAII (Michael W. Deem and Ramdas Pophale) SiO2 
 PCOD9358887
Probable space group: A M M 2
;
_chemical_formula_sum "Si O2"
_cell_formula_units_Z 58
_cell_length_a 15.518254
_cell_length_b 7.951366
_cell_length_c 25.667274
_cell_angle_alpha 90.000000
_cell_angle_beta 90.000000
_cell_angle_gamma 90.000000
_cell_volume 3167.118749
_symmetry_space_group_name_H-M "A M M 2"
_symmetry_group_IT_number 38
_symmetry_cell_setting 'orthorhombic'
loop_
_space_group_symop_operation_xyz
x,y,z
-x,-y,z
-x,y,z
x,-y,z
x,1/2+y,1/2+z
-x,1/2-y,1/2+z
-x,1/2+y,1/2+z
x,1/2-y,1/2+z
loop_
_atom_site_type_symbol
_atom_site_label
_atom_site_fract_x
_atom_site_fract_y
_atom_site_fract_z
Si Si1 0.121677 0.305132 0.805340
Si Si2 0.000000 0.500000 0.273376
Si Si3 0.595803 0.305706 0.864938
Si Si4 0.717154 0.306369 0.455816
Si Si5 0.598255 0.794747 0.669228
Si Si6 0.904555 0.200495 0.428782
Si Si7 0.303745 0.194851 0.769754
Si Si8 0.599287 0.796413 0.550619
O O1 0.094676 0.500000 0.795739
O O2 0.106765 0.269675 0.866850
O O3 0.221828 0.292191 0.791553
O O4 0.073452 0.152742 0.776456
O O5 0.500000 0.257323 0.883934
O O6 0.593386 0.500000 0.849170
O O7 0.666436 0.289831 0.910246
O O8 0.623477 0.204580 0.814091
O O9 0.707522 0.500000 0.441974
O O10 0.818792 0.266681 0.456535
O O11 0.667711 0.269783 0.509375
O O12 0.500000 0.741965 0.679905
O O13 0.660669 0.737463 0.715024
O O14 0.619626 0.744763 0.610051
O O15 0.598771 0.000000 0.670084
O O16 0.000000 0.266246 0.443940
O O17 0.905388 0.000000 0.436230
O O18 0.279828 0.000000 0.762677
O O19 0.500000 0.745116 0.538956
O O20 0.600768 0.000000 0.548440
#
# Coordination Sequence:
#
# PCOD9358887 Si02
#       8
#     8   2   8   8   8   8   8   8
#     4  11  22  36  55  83 117 149 191 240 284 347
#     4  12  22  36  60  82 110 156 194 236 300 342
#     4  11  23  36  50  72 110 156 192 226 275 341
#     4  12  24  34  52  80 112 143 182 233 285 339
#     4   8  16  32  56  83 110 145 192 237 275 328
#     4  10  21  37  56  78 106 144 184 231 282 336
#     4  11  20  33  54  84 116 149 187 231 285 345
#     4   9  18  36  59  80 106 146 192 234 279 335
#
# _framework density 18.313175000000001
#
# number of rings (size 3 to 8) (size 9 to 14) (size 15 to 20)
#    0.000    1.655    2.759    3.931    0.966    3.862 
#    0.000    1.379    0.000    1.655    1.793    0.000 
#    0.000    0.000    0.000    0.000    0.000    0.000 
#
# Total GULP energy -161539.659359 kJ/mol
# GULP energy per Si atom -5570.333081 kJ/mol
# Density = 1.827149 g / cm^3
# Si number density = 18.313175 Si / 1000 Ang^3
#
#
#
# Elastic Constant Matrix: (Units=GPa)
#
#
# Indices 1 2 3 4 5 6 
#
# 1 133.0540 20.3590 50.7906 0.0000 0.0000 0.0000
# 2 20.3590 57.7693 5.4642 0.0000 0.0000 0.0000
# 3 50.7906 5.4642 68.4106 0.0000 0.0000 0.0000
# 4 0.0000 0.0000 0.0000 13.6772 0.0000 0.0000
# 5 0.0000 0.0000 0.0000 0.0000 27.6686 0.0000
# 6 0.0000 0.0000 0.0000 0.0000 0.0000 25.9501
#
#
#
# Elastic Compliance Matrix: (Units=1/GPa)
#
#
# Indices 1 2 3 4 5 6 
#
# 1 0.011024 -0.003135 -0.007934 0.000000 0.000000 0.000000
# 2 -0.003135 0.018333 0.000863 0.000000 0.000000 0.000000
# 3 -0.007934 0.000863 0.020439 0.000000 0.000000 0.000000
# 4 0.000000 0.000000 0.000000 0.073114 0.000000 0.000000
# 5 0.000000 0.000000 0.000000 0.000000 0.036142 0.000000
# 6 0.000000 0.000000 0.000000 0.000000 0.000000 0.038535
#
#
# Mechanical properties :
#
#
# Convention : Reuss Voigt Hill
#
# Bulk Modulus (GPa) = 34.03123 45.82905 39.93014
# Shear Modulus (GPa) = 21.94947 25.63386 23.79167
#
# Velocity S-wave (km/s) = 3.46578 3.74538 3.60829
# Velocity P-wave (km/s) = 5.88547 6.61690 6.26187
#
# Compressibility (1/GPa) = 0.02938477
#
# Stress axis : x y z
#
# Youngs Moduli (GPa) = 90.70970 54.54551 48.92490
#
# Poissons Ratio (x) = 0.17098 0.38819
# Poissons Ratio (y) = 0.28434 -0.04222
# Poissons Ratio (z) = 0.71973 -0.04707
#
# Static dielectric constant tensor:
#      x y z
#    x 1.656900 0.000000 0.000000 
#    y 0.000000 1.644320 0.000000 
#    z 0.000000 0.000000 1.607500 
# 
# From -- ./inp_files/22844.got.cif
#   From: 2010.05.17/outbox.cif.g08.bks.cpg/sg38_12_cif.got.tgz:22844.got - 2010.06.03 18:07:57.
