data_PCOD9358499
_publ_section_title
;
Structure prediction by ZEFSAII (Michael W. Deem and Ramdas Pophale) SiO2 
 PCOD9358499
Probable space group: A M M 2
;
_chemical_formula_sum "Si O2"
_cell_formula_units_Z 48
_cell_length_a 7.439439
_cell_length_b 27.698514
_cell_length_c 9.757425
_cell_angle_alpha 90.000000
_cell_angle_beta 90.000000
_cell_angle_gamma 90.000000
_cell_volume 2010.628708
_symmetry_space_group_name_H-M "A M M 2"
_symmetry_group_IT_number 38
_symmetry_cell_setting 'orthorhombic'
loop_
_space_group_symop_operation_xyz
x,y,z
-x,-y,z
-x,y,z
x,-y,z
x,1/2+y,1/2+z
-x,1/2-y,1/2+z
-x,1/2+y,1/2+z
x,1/2-y,1/2+z
loop_
_atom_site_type_symbol
_atom_site_label
_atom_site_fract_x
_atom_site_fract_y
_atom_site_fract_z
Si Si1 0.719817 0.723813 0.772020
Si Si2 0.706843 0.447126 0.130490
Si Si3 0.218236 0.052973 0.228007
Si Si4 0.702890 0.366611 0.940565
Si Si5 0.207263 0.579541 0.430057
Si Si6 0.282365 0.808331 0.967680
O O1 0.500000 0.722064 0.770017
O O2 0.782317 0.681911 0.876927
O O3 0.772656 0.774176 0.841321
O O4 0.776469 0.712607 0.616166
O O5 0.500000 0.448534 0.081435
O O6 0.787570 0.500000 0.102454
O O7 0.703465 0.438222 0.291935
O O8 0.789356 0.399861 0.058243
O O9 0.299470 0.096140 0.314161
O O10 0.000000 0.057832 0.232362
O O11 0.265158 0.000000 0.281849
O O12 0.276793 0.057504 0.071106
O O13 0.500000 0.353458 0.986712
O O14 0.219535 0.637171 0.446708
O O15 0.000000 0.565001 0.417580
O O16 0.500000 0.809213 0.969552
#
# Coordination Sequence:
#
# PCOD9358499 Si02
#       6
#     8   8   8   8   8   8
#     4   9  19  34  59  89 115 145 185 233 290 343
#     4  10  22  38  58  86 119 155 195 241 290 342
#     4  10  21  37  57  81 112 151 190 232 286 346
#     4  10  20  37  60  88 116 146 188 239 290 343
#     4  11  23  39  58  83 117 157 195 238 287 343
#     4  10  20  37  60  87 115 149 191 238 289 347
#
# _framework density 23.873131000000001
#
# number of rings (size 3 to 8) (size 9 to 14) (size 15 to 20)
#    0.000    2.000    1.667    1.500    2.333    3.333 
#    0.000    1.667    0.000    0.000    0.000    0.000 
#    0.000    0.000    0.000    0.000    0.000    0.000 
#
# Total GULP energy -134156.077668 kJ/mol
# GULP energy per Si atom -5589.836569 kJ/mol
# Density = 2.381879 g / cm^3
# Si number density = 23.873131 Si / 1000 Ang^3
#
#
#
# Elastic Constant Matrix: (Units=GPa)
#
#
# Indices 1 2 3 4 5 6 
#
# 1 77.1527 -9.4319 -3.7045 0.0000 0.0000 0.0000
# 2 -9.4319 96.5563 6.2361 0.0000 0.0000 0.0000
# 3 -3.7045 6.2361 99.6927 0.0000 0.0000 0.0000
# 4 0.0000 0.0000 0.0000 50.8598 0.0000 0.0000
# 5 0.0000 0.0000 0.0000 0.0000 23.3516 0.0000
# 6 0.0000 0.0000 0.0000 0.0000 0.0000 35.6395
#
#
#
# Elastic Compliance Matrix: (Units=1/GPa)
#
#
# Indices 1 2 3 4 5 6 
#
# 1 0.013135 0.001257 0.000409 0.000000 0.000000 0.000000
# 2 0.001257 0.010519 -0.000611 0.000000 0.000000 0.000000
# 3 0.000409 -0.000611 0.010084 0.000000 0.000000 0.000000
# 4 0.000000 0.000000 0.000000 0.019662 0.000000 0.000000
# 5 0.000000 0.000000 0.000000 0.000000 0.042824 0.000000
# 6 0.000000 0.000000 0.000000 0.000000 0.000000 0.028059
#
#
# Mechanical properties :
#
#
# Convention : Reuss Voigt Hill
#
# Bulk Modulus (GPa) = 27.89614 28.84456 28.37035
# Shear Modulus (GPa) = 37.27960 40.65697 38.96829
#
# Velocity S-wave (km/s) = 3.95596 4.13127 4.04457
# Velocity P-wave (km/s) = 5.70760 5.90468 5.80697
#
# Compressibility (1/GPa) = 0.03584725
#
# Stress axis : x y z
#
# Youngs Moduli (GPa) = 76.13488 95.06716 99.16423
#
# Poissons Ratio (x) = -0.11946 -0.04060
# Poissons Ratio (y) = -0.09567 0.06062
# Poissons Ratio (z) = -0.03117 0.05811
#
# Static dielectric constant tensor:
#      x y z
#    x 1.908510 0.000000 0.000000 
#    y 0.000000 1.838310 0.000000 
#    z 0.000000 0.000000 1.883350 
# 
# From -- ./inp_files/3723.got.cif
#   From: 2010.05.17/outbox.cif.g08.bks.cpg/sg38_2_cif.got.tgz:3723.got - 2010.06.03 18:07:57.
