data_PCOD9358173
_publ_section_title
;
Structure prediction by ZEFSAII (Michael W. Deem and Ramdas Pophale) SiO2 
 PCOD9358173
Probable space group: A M M 2
;
_chemical_formula_sum "Si O2"
_cell_formula_units_Z 64
_cell_length_a 15.103994
_cell_length_b 8.352605
_cell_length_c 25.361281
_cell_angle_alpha 90.000000
_cell_angle_beta 90.000000
_cell_angle_gamma 90.000000
_cell_volume 3199.520774
_symmetry_space_group_name_H-M "A M M 2"
_symmetry_group_IT_number 38
_symmetry_cell_setting 'orthorhombic'
loop_
_space_group_symop_operation_xyz
x,y,z
-x,-y,z
-x,y,z
x,-y,z
x,1/2+y,1/2+z
-x,1/2-y,1/2+z
-x,1/2+y,1/2+z
x,1/2-y,1/2+z
loop_
_atom_site_type_symbol
_atom_site_label
_atom_site_fract_x
_atom_site_fract_y
_atom_site_fract_z
Si Si1 0.401376 0.310168 0.291790
Si Si2 0.208432 0.193974 0.532686
Si Si3 0.597096 0.806777 0.569630
Si Si4 0.772255 0.808860 0.336384
Si Si5 0.092983 0.310153 0.751987
Si Si6 0.103232 0.308727 0.430503
Si Si7 0.156060 0.815291 0.647717
Si Si8 0.341491 0.313046 0.679041
O O1 0.500000 0.266669 0.309991
O O2 0.397886 0.500000 0.282804
O O3 0.325261 0.263695 0.333031
O O4 0.383775 0.226780 0.235274
O O5 0.312887 0.240053 0.538384
O O6 0.153929 0.264176 0.484374
O O7 0.161652 0.242252 0.587709
O O8 0.206163 0.000000 0.529543
O O9 0.500000 0.770970 0.545783
O O10 0.601224 0.725509 0.627259
O O11 0.602384 0.000000 0.576709
O O12 0.823708 0.747435 0.284179
O O13 0.836455 0.764908 0.384299
O O14 0.762223 0.000000 0.334376
O O15 0.092808 0.500000 0.760742
O O16 0.099825 0.278871 0.690218
O O17 0.000000 0.242720 0.772508
O O18 0.102407 0.500000 0.424439
O O19 0.000000 0.253273 0.429896
O O20 0.255626 0.795957 0.669514
O O21 0.128894 0.000000 0.647971
O O22 0.315259 0.500000 0.678871
#
# Coordination Sequence:
#
# PCOD9358173 Si02
#       8
#     8   8   8   8   8   8   8   8
#     4  11  23  38  58  86 122 162 201 244 295 350
#     4   9  20  38  60  87 117 153 199 249 300 355
#     4   9  18  34  56  84 120 160 200 242 293 354
#     4  11  23  41  65  90 118 155 199 249 302 357
#     4  10  21  36  56  86 121 155 191 237 299 364
#     4  11  25  44  66  90 115 152 202 253 306 362
#     4  10  20  35  56  83 119 161 200 242 298 355
#     4  11  20  31  51  82 120 162 205 245 289 345
#
# _framework density 20.002994999999999
#
# number of rings (size 3 to 8) (size 9 to 14) (size 15 to 20)
#    0.000    1.750    1.250    4.125    0.000    8.000 
#    0.000    3.125    0.000    2.250    0.000    0.000 
#    0.000    0.000    0.000    0.000    0.000    0.000 
#
# Total GULP energy -178553.180060 kJ/mol
# GULP energy per Si atom -5579.786877 kJ/mol
# Density = 1.995747 g / cm^3
# Si number density = 20.002995 Si / 1000 Ang^3
#
#
#
# Elastic Constant Matrix: (Units=GPa)
#
#
# Indices 1 2 3 4 5 6 
#
# 1 135.0731 9.1949 48.1139 0.0000 0.0000 0.0000
# 2 9.1949 24.2617 7.1069 0.0000 0.0000 0.0000
# 3 48.1139 7.1069 84.1983 0.0000 0.0000 0.0000
# 4 0.0000 0.0000 0.0000 29.6444 0.0000 0.0000
# 5 0.0000 0.0000 0.0000 0.0000 15.7819 0.0000
# 6 0.0000 0.0000 0.0000 0.0000 0.0000 16.8878
#
#
#
# Elastic Compliance Matrix: (Units=1/GPa)
#
#
# Indices 1 2 3 4 5 6 
#
# 1 0.009393 -0.002038 -0.005195 0.000000 0.000000 0.000000
# 2 -0.002038 0.042704 -0.002440 0.000000 0.000000 0.000000
# 3 -0.005195 -0.002440 0.015051 0.000000 0.000000 0.000000
# 4 0.000000 0.000000 0.000000 0.033733 0.000000 0.000000
# 5 0.000000 0.000000 0.000000 0.000000 0.063364 0.000000
# 6 0.000000 0.000000 0.000000 0.000000 0.000000 0.059214
#
#
# Mechanical properties :
#
#
# Convention : Reuss Voigt Hill
#
# Bulk Modulus (GPa) = 20.91961 41.37383 31.14672
# Shear Modulus (GPa) = 19.32443 24.40401 21.86422
#
# Velocity S-wave (km/s) = 3.11155 3.49666 3.30971
# Velocity P-wave (km/s) = 4.83631 6.08531 5.49640
#
# Compressibility (1/GPa) = 0.04780205
#
# Stress axis : x y z
#
# Youngs Moduli (GPa) = 106.46529 23.41687 66.43871
#
# Poissons Ratio (x) = 0.04772 0.34517
# Poissons Ratio (y) = 0.21696 0.16211
# Poissons Ratio (z) = 0.55312 0.05714
#
# Static dielectric constant tensor:
#      x y z
#    x 1.769740 0.000000 0.000000 
#    y 0.000000 1.688960 0.000000 
#    z 0.000000 0.000000 1.694920 
# 
# From -- ./inp_files/22875.got.cif
#   From: 2010.05.17/outbox.cif.g08.bks.cpg/sg38_12_cif.got.tgz:22875.got - 2010.06.03 18:07:57.
