data_PCOD9358407
_publ_section_title
;
Structure prediction by ZEFSAII (Michael W. Deem and Ramdas Pophale) SiO2 
 PCOD9358407
Probable space group: A M M 2
;
_chemical_formula_sum "Si O2"
_cell_formula_units_Z 48
_cell_length_a 8.923349
_cell_length_b 7.850854
_cell_length_c 34.775025
_cell_angle_alpha 90.000000
_cell_angle_beta 90.000000
_cell_angle_gamma 90.000000
_cell_volume 2436.196028
_symmetry_space_group_name_H-M "A M M 2"
_symmetry_group_IT_number 38
_symmetry_cell_setting 'orthorhombic'
loop_
_space_group_symop_operation_xyz
x,y,z
-x,-y,z
-x,y,z
x,-y,z
x,1/2+y,1/2+z
-x,1/2-y,1/2+z
-x,1/2+y,1/2+z
x,1/2-y,1/2+z
loop_
_atom_site_type_symbol
_atom_site_label
_atom_site_fract_x
_atom_site_fract_y
_atom_site_fract_z
Si Si1 0.179424 0.500000 0.144521
Si Si2 0.678772 0.500000 0.228978
Si Si3 0.169234 0.295328 0.514652
Si Si4 0.177322 0.307366 0.775854
Si Si5 0.325601 0.800059 0.852199
Si Si6 0.678729 0.798477 0.094280
Si Si7 0.670644 0.702005 0.936181
O O1 0.244812 0.500000 0.187386
O O2 0.239532 0.331403 0.122761
O O3 0.000000 0.500000 0.144875
O O4 0.500000 0.500000 0.225700
O O5 0.733100 0.333469 0.252089
O O6 0.164804 0.500000 0.514065
O O7 0.271329 0.248848 0.551024
O O8 0.234611 0.239661 0.473906
O O9 0.000000 0.230996 0.520239
O O10 0.206070 0.500000 0.762164
O O11 0.229431 0.293128 0.820106
O O12 0.000000 0.273205 0.773074
O O13 0.500000 0.741998 0.850984
O O14 0.271853 0.776711 0.895950
O O15 0.323282 0.000000 0.842875
O O16 0.500000 0.781905 0.098248
O O17 0.717156 0.000000 0.100216
O O18 0.500000 0.766742 0.942003
O O19 0.664791 0.500000 0.930968
#
# Coordination Sequence:
#
# PCOD9358407 Si02
#       7
#     4   4   8   8   8   8   8
#     4  12  26  44  70 100 134 170 208 262 324 388
#     4  12  26  46  70  98 130 168 216 266 316 380
#     4  10  21  37  57  83 117 159 208 261 319 376
#     4  11  24  42  66  96 131 170 210 260 322 385
#     4  10  20  36  60  88 119 162 214 266 319 377
#     4  10  22  42  68  96 128 169 216 265 316 379
#     4  10  21  35  53  81 118 161 210 263 314 374
#
# _framework density 19.702846999999998
#
# number of rings (size 3 to 8) (size 9 to 14) (size 15 to 20)
#    0.000    1.500    0.833    4.000    1.167    6.333 
#    0.000    0.000    0.000    0.000    0.000    0.000 
#    0.000    0.000    0.000    0.000    0.000    0.000 
#
# Total GULP energy -134146.128330 kJ/mol
# GULP energy per Si atom -5589.422014 kJ/mol
# Density = 1.965800 g / cm^3
# Si number density = 19.702847 Si / 1000 Ang^3
#
#
#
# Elastic Constant Matrix: (Units=GPa)
#
#
# Indices 1 2 3 4 5 6 
#
# 1 117.7225 62.5954 61.3824 0.0000 0.0000 0.0000
# 2 62.5954 89.9496 55.9332 0.0000 0.0000 0.0000
# 3 61.3824 55.9332 131.8309 0.0000 0.0000 0.0000
# 4 0.0000 0.0000 0.0000 -1.7461 0.0000 0.0000
# 5 0.0000 0.0000 0.0000 0.0000 56.7011 0.0000
# 6 0.0000 0.0000 0.0000 0.0000 0.0000 19.9412
#
#
#
# Elastic Compliance Matrix: (Units=1/GPa)
#
#
# Indices 1 2 3 4 5 6 
#
# 1 0.014500 -0.008004 -0.003356 0.000000 0.000000 0.000000
# 2 -0.008004 0.019520 -0.004555 0.000000 0.000000 0.000000
# 3 -0.003356 -0.004555 0.011080 0.000000 0.000000 0.000000
# 4 0.000000 0.000000 0.000000 -0.572719 0.000000 0.000000
# 5 0.000000 0.000000 0.000000 0.000000 0.017636 0.000000
# 6 0.000000 0.000000 0.000000 0.000000 0.000000 0.050147
#
#
# Mechanical properties :
#
#
# Convention : Reuss Voigt Hill
#
# Bulk Modulus (GPa) = 75.35132 77.70280 76.52706
# Shear Modulus (GPa) = -11.80407 25.61872 6.90733
#
# Velocity S-wave (km/s) = -2.45032 3.60982 1.87440
# Velocity P-wave (km/s) = 5.50650 7.54303 6.60374
#
# Compressibility (1/GPa) = 0.01327117
#
# Stress axis : x y z
#
# Youngs Moduli (GPa) = 68.96546 51.23028 90.24883
#
# Poissons Ratio (x) = 0.41004 0.30283
# Poissons Ratio (y) = 0.55199 0.41109
# Poissons Ratio (z) = 0.23141 0.23336
#
# Static dielectric constant tensor:
#      x y z
#    x 1.677990 0.000000 0.000000 
#    y 0.000000 1.710830 0.000000 
#    z 0.000000 0.000000 1.669480 
# 
# From -- ./inp_files/24331.got.cif
#   From: 2010.05.17/outbox.cif.g08.bks.cpg/sg38_13_cif.got.tgz:24331.got - 2010.06.03 18:07:57.
