data_PCOD9358888
_publ_section_title
;
Structure prediction by ZEFSAII (Michael W. Deem and Ramdas Pophale) SiO2 
 PCOD9358888
Probable space group: A M M 2
;
_chemical_formula_sum "Si O2"
_cell_formula_units_Z 56
_cell_length_a 20.596528
_cell_length_b 9.030045
_cell_length_c 15.770709
_cell_angle_alpha 90.000000
_cell_angle_beta 90.000000
_cell_angle_gamma 90.000000
_cell_volume 2933.155918
_symmetry_space_group_name_H-M "A M M 2"
_symmetry_group_IT_number 38
_symmetry_cell_setting 'orthorhombic'
loop_
_space_group_symop_operation_xyz
x,y,z
-x,-y,z
-x,y,z
x,-y,z
x,1/2+y,1/2+z
-x,1/2-y,1/2+z
-x,1/2+y,1/2+z
x,1/2-y,1/2+z
loop_
_atom_site_type_symbol
_atom_site_label
_atom_site_fract_x
_atom_site_fract_y
_atom_site_fract_z
Si Si1 0.074940 0.321302 0.441060
Si Si2 0.571379 0.331091 0.339664
Si Si3 0.834238 0.178247 0.786138
Si Si4 0.303906 0.173212 0.608123
Si Si5 0.427746 0.168965 0.042710
Si Si6 0.159270 0.324712 0.087358
Si Si7 0.298566 0.673182 0.785723
O O1 0.076603 0.500000 0.444708
O O2 0.110502 0.277907 0.353111
O O3 0.113393 0.258794 0.521941
O O4 0.000000 0.273445 0.441768
O O5 0.500000 0.279089 0.309499
O O6 0.581013 0.500000 0.308052
O O7 0.568554 0.338210 0.441218
O O8 0.632825 0.232718 0.318280
O O9 0.846348 0.221697 0.687179
O O10 0.765843 0.244131 0.818110
O O11 0.828816 0.000000 0.785374
O O12 0.370246 0.219056 0.563533
O O13 0.235155 0.194051 0.561013
O O14 0.299617 0.282005 0.687481
O O15 0.305396 0.000000 0.634143
O O16 0.500000 0.211377 0.074197
O O17 0.413881 0.000000 0.072824
O O18 0.144856 0.500000 0.084414
O O19 0.292484 0.500000 0.800246
#
# Coordination Sequence:
#
# PCOD9358888 Si02
#       7
#     8   8   8   8   8   8   8
#     4  10  22  39  61  90 119 151 192 231 279 346
#     4   9  19  36  55  76 107 147 187 228 281 340
#     4   9  20  40  61  83 116 157 194 234 286 346
#     4  10  21  37  56  79 109 145 187 231 282 341
#     4   9  19  35  54  78 108 143 185 232 282 335
#     4   9  20  38  59  85 117 151 192 238 285 338
#     4  11  22  35  55  82 110 142 187 237 282 332
#
# _framework density 19.092064000000001
#
# number of rings (size 3 to 8) (size 9 to 14) (size 15 to 20)
#    0.000    2.429    0.000    3.429    2.000    6.000 
#    0.000    2.857    0.000    0.000    0.000    0.000 
#    0.000    0.000    0.000    0.000    0.000    0.000 
#
# Total GULP energy -156073.641014 kJ/mol
# GULP energy per Si atom -5574.058608 kJ/mol
# Density = 1.904861 g / cm^3
# Si number density = 19.092064 Si / 1000 Ang^3
#
#
#
# Elastic Constant Matrix: (Units=GPa)
#
#
# Indices 1 2 3 4 5 6 
#
# 1 170.7151 48.5334 61.4388 0.0000 0.0000 0.0000
# 2 48.5334 34.3096 20.7971 0.0000 0.0000 0.0000
# 3 61.4388 20.7971 60.2005 0.0000 0.0000 0.0000
# 4 0.0000 0.0000 0.0000 25.2402 0.0000 0.0000
# 5 0.0000 0.0000 0.0000 0.0000 52.0664 0.0000
# 6 0.0000 0.0000 0.0000 0.0000 0.0000 -305.1319
#
#
#
# Elastic Compliance Matrix: (Units=1/GPa)
#
#
# Indices 1 2 3 4 5 6 
#
# 1 0.012419 -0.012503 -0.008355 0.000000 0.000000 0.000000
# 2 -0.012503 0.049454 -0.004324 0.000000 0.000000 0.000000
# 3 -0.008355 -0.004324 0.026632 0.000000 0.000000 0.000000
# 4 0.000000 0.000000 0.000000 0.039619 0.000000 0.000000
# 5 0.000000 0.000000 0.000000 0.000000 0.019206 0.000000
# 6 0.000000 0.000000 0.000000 0.000000 0.000000 -0.003277
#
#
# Mechanical properties :
#
#
# Convention : Reuss Voigt Hill
#
# Bulk Modulus (GPa) = 26.21904 58.52929 42.37416
# Shear Modulus (GPa) = 24.13903 -36.60133 -6.23115
#
# Velocity S-wave (km/s) = 3.55963 -4.38322 -1.80854
# Velocity P-wave (km/s) = 5.53691 2.25967 4.22868
#
# Compressibility (1/GPa) = 0.03814022
#
# Stress axis : x y z
#
# Youngs Moduli (GPa) = 80.51936 20.22066 37.54849
#
# Poissons Ratio (x) = 0.25283 0.31373
# Poissons Ratio (y) = 1.00677 0.16236
# Poissons Ratio (z) = 0.67277 0.08744
#
# Static dielectric constant tensor:
#      x y z
#    x 1.696460 0.000000 0.000000 
#    y 0.000000 1.650920 0.000000 
#    z 0.000000 0.000000 1.683530 
# 
# From -- ./inp_files/15429.got.cif
#   From: 2010.05.17/outbox.cif.g08.bks.cpg/sg38_8_cif.got.tgz:15429.got - 2010.06.03 18:07:57.
