data_PCOD9358106
_publ_section_title
;
Structure prediction by ZEFSAII (Michael W. Deem and Ramdas Pophale) SiO2 
 PCOD9358106
Probable space group: A M M 2
;
_chemical_formula_sum "Si O2"
_cell_formula_units_Z 64
_cell_length_a 9.253339
_cell_length_b 28.916898
_cell_length_c 12.945084
_cell_angle_alpha 90.000000
_cell_angle_beta 90.000000
_cell_angle_gamma 90.000000
_cell_volume 3463.817875
_symmetry_space_group_name_H-M "A M M 2"
_symmetry_group_IT_number 38
_symmetry_cell_setting 'orthorhombic'
loop_
_space_group_symop_operation_xyz
x,y,z
-x,-y,z
-x,y,z
x,-y,z
x,1/2+y,1/2+z
-x,1/2-y,1/2+z
-x,1/2+y,1/2+z
x,1/2-y,1/2+z
loop_
_atom_site_type_symbol
_atom_site_label
_atom_site_fract_x
_atom_site_fract_y
_atom_site_fract_z
Si Si1 0.826642 0.380666 0.713720
Si Si2 0.170310 0.944924 0.021485
Si Si3 0.171034 0.612189 0.135357
Si Si4 0.330424 0.252302 0.900393
Si Si5 0.841478 0.784685 0.718019
Si Si6 0.674965 0.640071 0.925835
Si Si7 0.160631 0.296814 0.564855
Si Si8 0.669040 0.444168 0.311688
O O1 0.791950 0.419901 0.628897
O O2 0.738377 0.381226 0.819828
O O3 0.795037 0.333156 0.652043
O O4 0.000000 0.381919 0.735286
O O5 0.000000 0.935834 0.001940
O O6 0.189448 0.000000 0.032436
O O7 0.260511 0.929244 0.921266
O O8 0.183089 0.662653 0.188474
O O9 0.244964 0.576984 0.215127
O O10 0.000000 0.602474 0.120856
O O11 0.253192 0.616333 0.025907
O O12 0.500000 0.252470 0.911741
O O13 0.279979 0.237969 0.787448
O O14 0.282833 0.305119 0.924241
O O15 0.265513 0.211818 0.971071
O O16 0.847924 0.753378 0.616787
O O17 0.000000 0.688831 0.530200
O O18 0.500000 0.636805 0.929131
O O19 0.000000 0.280030 0.269945
O O20 0.500000 0.431158 0.307464
O O21 0.678784 0.500000 0.308112
#
# Coordination Sequence:
#
# PCOD9358106 Si02
#       8
#     8   8   8   8   8   8   8   8
#     4  10  21  37  59  84 111 151 197 238 284 339
#     4   9  19  38  63  90 118 147 186 236 286 339
#     4  11  23  39  61  86 113 152 199 240 284 341
#     4  11  23  35  51  77 112 151 189 236 290 339
#     4  10  21  36  55  78 108 149 192 234 279 332
#     4  11  23  38  56  81 117 156 193 238 291 344
#     4  10  20  35  54  77 109 149 194 237 277 333
#     4  10  22  41  64  90 120 150 182 230 293 350
#
# _framework density 18.476721999999999
#
# number of rings (size 3 to 8) (size 9 to 14) (size 15 to 20)
#    0.000    1.750    2.500    1.500    1.750    4.250 
#    0.000    0.625    0.000    2.250    0.000    0.000 
#    0.000    0.000    0.000    0.000    0.000    0.000 
#
# Total GULP energy -178516.578294 kJ/mol
# GULP energy per Si atom -5578.643072 kJ/mol
# Density = 1.843467 g / cm^3
# Si number density = 18.476722 Si / 1000 Ang^3
#
#
#
# Elastic Constant Matrix: (Units=GPa)
#
#
# Indices 1 2 3 4 5 6 
#
# 1 83.4952 36.9493 73.8956 0.0000 0.0000 0.0000
# 2 36.9493 44.8963 37.0559 0.0000 0.0000 0.0000
# 3 73.8956 37.0559 125.5511 0.0000 0.0000 0.0000
# 4 0.0000 0.0000 0.0000 31.2948 0.0000 0.0000
# 5 0.0000 0.0000 0.0000 0.0000 107.5869 0.0000
# 6 0.0000 0.0000 0.0000 0.0000 0.0000 20.7007
#
#
#
# Elastic Compliance Matrix: (Units=1/GPa)
#
#
# Indices 1 2 3 4 5 6 
#
# 1 0.030072 -0.013406 -0.013743 0.000000 0.000000 0.000000
# 2 -0.013406 0.035424 -0.002565 0.000000 0.000000 0.000000
# 3 -0.013743 -0.002565 0.016810 0.000000 0.000000 0.000000
# 4 0.000000 0.000000 0.000000 0.031954 0.000000 0.000000
# 5 0.000000 0.000000 0.000000 0.000000 0.009295 0.000000
# 6 0.000000 0.000000 0.000000 0.000000 0.000000 0.048308
#
#
# Mechanical properties :
#
#
# Convention : Reuss Voigt Hill
#
# Bulk Modulus (GPa) = 43.70858 61.08270 52.39564
# Shear Modulus (GPa) = 20.92783 38.98593 29.95688
#
# Velocity S-wave (km/s) = 3.36915 4.59846 4.03094
# Velocity P-wave (km/s) = 6.23236 7.83106 7.07700
#
# Compressibility (1/GPa) = 0.02287880
#
# Stress axis : x y z
#
# Youngs Moduli (GPa) = 33.25328 28.22983 59.48698
#
# Poissons Ratio (x) = 0.37846 0.81752
# Poissons Ratio (y) = 0.44580 0.15256
# Poissons Ratio (z) = 0.45699 0.07240
#
# Static dielectric constant tensor:
#      x y z
#    x 1.644010 0.000000 0.000000 
#    y 0.000000 1.635290 0.000000 
#    z 0.000000 0.000000 1.632180 
# 
# From -- ./inp_files/8576.got.cif
#   From: 2010.05.17/outbox.cif.g08.bks.cpg/sg38_5_cif.got.tgz:8576.got - 2010.06.03 18:07:57.
