data_PCOD9358986
_publ_section_title
;
Structure prediction by ZEFSAII (Michael W. Deem and Ramdas Pophale) SiO2 
 PCOD9358986
Probable space group: A M M 2
;
_chemical_formula_sum "Si O2"
_cell_formula_units_Z 64
_cell_length_a 17.584994
_cell_length_b 20.062083
_cell_length_c 9.387983
_cell_angle_alpha 90.000000
_cell_angle_beta 90.000000
_cell_angle_gamma 90.000000
_cell_volume 3312.001630
_symmetry_space_group_name_H-M "A M M 2"
_symmetry_group_IT_number 38
_symmetry_cell_setting 'orthorhombic'
loop_
_space_group_symop_operation_xyz
x,y,z
-x,-y,z
-x,y,z
x,-y,z
x,1/2+y,1/2+z
-x,1/2-y,1/2+z
-x,1/2+y,1/2+z
x,1/2-y,1/2+z
loop_
_atom_site_type_symbol
_atom_site_label
_atom_site_fract_x
_atom_site_fract_y
_atom_site_fract_z
Si Si1 0.087288 0.787674 0.758090
Si Si2 0.387416 0.924889 0.544330
Si Si3 0.584862 0.700629 0.233251
Si Si4 0.589005 0.920436 0.206827
Si Si5 0.783675 0.073058 0.486199
Si Si6 0.913591 0.070278 0.723758
Si Si7 0.667359 0.806264 0.033935
Si Si8 0.185630 0.279676 0.976833
O O1 0.093346 0.863511 0.815061
O O2 0.115869 0.738588 0.876615
O O3 0.148235 0.784806 0.631947
O O4 0.000000 0.775795 0.714101
O O5 0.417745 0.869015 0.648813
O O6 0.401429 0.908245 0.377251
O O7 0.296668 0.926736 0.566287
O O8 0.415914 0.000000 0.568302
O O9 0.500000 0.728974 0.243227
O O10 0.618818 0.691837 0.389384
O O11 0.636400 0.749740 0.140674
O O12 0.500000 0.905651 0.169768
O O13 0.601207 0.000000 0.185183
O O14 0.648184 0.875153 0.117709
O O15 0.854008 0.071947 0.595236
O O16 0.785025 0.147852 0.422133
O O17 0.785399 0.000000 0.408003
O O18 0.000000 0.071953 0.665560
O O19 0.903434 0.000000 0.801215
O O20 0.750198 0.777974 0.986323
#
# Coordination Sequence:
#
# PCOD9358986 Si02
#       8
#     8   8   8   8   8   8   8   8
#     4  10  21  37  59  88 119 156 195 240 295 356
#     4  10  21  38  62  89 117 152 199 252 305 362
#     4  12  24  39  59  85 117 156 200 251 304 358
#     4  10  22  42  64  85 115 159 206 254 309 371
#     4   9  18  34  57  82 113 147 190 241 294 346
#     4   8  15  30  54  82 111 146 189 233 282 345
#     4  12  25  40  60  88 121 158 202 253 305 364
#     4  11  22  37  61  87 120 154 193 246 298 359
#
# _framework density 19.323663
#
# number of rings (size 3 to 8) (size 9 to 14) (size 15 to 20)
#    0.000    1.750    1.250    3.375    3.500    1.750 
#    0.000    0.625    0.000    0.750    0.000    0.000 
#    0.000    0.000    0.000    0.000    0.000    0.000 
#
# Total GULP energy -178199.131423 kJ/mol
# GULP energy per Si atom -5568.722857 kJ/mol
# Density = 1.927968 g / cm^3
# Si number density = 19.323663 Si / 1000 Ang^3
#
#
#
# Elastic Constant Matrix: (Units=GPa)
#
#
# Indices 1 2 3 4 5 6 
#
# 1 79.9206 11.4502 -10.3414 0.0000 0.0000 0.0000
# 2 11.4502 73.6909 15.9274 0.0000 0.0000 0.0000
# 3 -10.3414 15.9274 53.7489 0.0000 0.0000 0.0000
# 4 0.0000 0.0000 0.0000 20.2221 0.0000 0.0000
# 5 0.0000 0.0000 0.0000 0.0000 21.4767 0.0000
# 6 0.0000 0.0000 0.0000 0.0000 0.0000 9.4836
#
#
#
# Elastic Compliance Matrix: (Units=1/GPa)
#
#
# Indices 1 2 3 4 5 6 
#
# 1 0.013355 -0.002811 0.003402 0.000000 0.000000 0.000000
# 2 -0.002811 0.015090 -0.005012 0.000000 0.000000 0.000000
# 3 0.003402 -0.005012 0.020745 0.000000 0.000000 0.000000
# 4 0.000000 0.000000 0.000000 0.049451 0.000000 0.000000
# 5 0.000000 0.000000 0.000000 0.000000 0.046562 0.000000
# 6 0.000000 0.000000 0.000000 0.000000 0.000000 0.105445
#
#
# Mechanical properties :
#
#
# Convention : Reuss Voigt Hill
#
# Bulk Modulus (GPa) = 24.78347 26.82588 25.80467
# Shear Modulus (GPa) = 18.31906 22.92476 20.62191
#
# Velocity S-wave (km/s) = 3.08232 3.44809 3.27032
# Velocity P-wave (km/s) = 5.05182 5.45573 5.25765
#
# Compressibility (1/GPa) = 0.04034948
#
# Stress axis : x y z
#
# Youngs Moduli (GPa) = 74.87637 66.26774 48.20434
#
# Poissons Ratio (x) = 0.18625 -0.16401
# Poissons Ratio (y) = 0.21045 0.24162
# Poissons Ratio (z) = -0.25476 0.33216
#
# Static dielectric constant tensor:
#      x y z
#    x 1.689920 0.000000 0.000000 
#    y 0.000000 1.754020 0.000000 
#    z 0.000000 0.000000 1.624850 
# 
# From -- ./inp_files/6506.got.cif
#   From: 2010.05.17/outbox.cif.g08.bks.cpg/sg38_4_cif.got.tgz:6506.got - 2010.06.03 18:07:57.
