data_PCOD9358066
_publ_section_title
;
Structure prediction by ZEFSAII (Michael W. Deem and Ramdas Pophale) SiO2 
 PCOD9358066
Probable space group: A M M 2
;
_chemical_formula_sum "Si O2"
_cell_formula_units_Z 64
_cell_length_a 24.406621
_cell_length_b 8.613207
_cell_length_c 15.913782
_cell_angle_alpha 90.000000
_cell_angle_beta 90.000000
_cell_angle_gamma 90.000000
_cell_volume 3345.383776
_symmetry_space_group_name_H-M "A M M 2"
_symmetry_group_IT_number 38
_symmetry_cell_setting 'orthorhombic'
loop_
_space_group_symop_operation_xyz
x,y,z
-x,-y,z
-x,y,z
x,-y,z
x,1/2+y,1/2+z
-x,1/2-y,1/2+z
-x,1/2+y,1/2+z
x,1/2-y,1/2+z
loop_
_atom_site_type_symbol
_atom_site_label
_atom_site_fract_x
_atom_site_fract_y
_atom_site_fract_z
Si Si1 0.864794 0.685930 0.012640
Si Si2 0.325227 0.815872 0.359820
Si Si3 0.329511 0.312637 0.673979
Si Si4 0.937067 0.810936 0.669601
Si Si5 0.063828 0.187281 0.860362
Si Si6 0.561810 0.314975 0.414432
Si Si7 0.561317 0.315373 0.102511
Si Si8 0.742524 0.685280 0.514896
O O1 0.864940 0.500000 0.013705
O O2 0.896802 0.742374 0.096249
O O3 0.802861 0.744668 0.012020
O O4 0.897429 0.742378 0.930733
O O5 0.307310 0.770757 0.265874
O O6 0.389099 0.772134 0.368867
O O7 0.291827 0.732427 0.432931
O O8 0.318584 0.000000 0.370253
O O9 0.334343 0.500000 0.670680
O O10 0.389429 0.241357 0.659980
O O11 0.290777 0.261456 0.597570
O O12 0.922146 0.763660 0.764709
O O13 0.000000 0.762854 0.653047
O O14 0.936872 0.000000 0.669293
O O15 0.000000 0.229218 0.875308
O O16 0.067448 0.000000 0.863808
O O17 0.500000 0.272680 0.387203
O O18 0.568478 0.500000 0.404824
O O19 0.566158 0.270785 0.512955
O O20 0.500000 0.284794 0.136121
O O21 0.566053 0.500000 0.088073
O O22 0.746576 0.500000 0.518576
#
# Coordination Sequence:
#
# PCOD9358066 Si02
#       8
#     8   8   8   8   8   8   8   8
#     4  11  22  36  58  86 116 151 193 241 287 335
#     4  11  23  40  62  88 115 147 190 242 295 348
#     4  10  23  41  61  84 114 150 189 238 297 352
#     4   8  16  33  57  85 118 154 190 229 277 335
#     4   9  18  35  59  87 120 156 192 231 279 338
#     4  10  20  35  57  85 118 154 189 230 286 347
#     4  10  20  34  57  88 118 149 188 235 285 343
#     4  11  24  43  61  80 112 154 197 241 290 346
#
# _framework density 19.130839000000002
#
# number of rings (size 3 to 8) (size 9 to 14) (size 15 to 20)
#    0.000    2.000    1.250    3.000    0.000    5.250 
#    0.000    6.250    0.000    1.500    0.000    0.000 
#    0.000    0.000    0.000    0.000    0.000    0.000 
#
# Total GULP energy -178719.560278 kJ/mol
# GULP energy per Si atom -5584.986259 kJ/mol
# Density = 1.908730 g / cm^3
# Si number density = 19.130839 Si / 1000 Ang^3
#
#
#
# Elastic Constant Matrix: (Units=GPa)
#
#
# Indices 1 2 3 4 5 6 
#
# 1 117.9219 22.1658 78.8396 0.0000 0.0000 0.0000
# 2 22.1658 20.6383 21.4672 0.0000 0.0000 0.0000
# 3 78.8396 21.4672 130.5715 0.0000 0.0000 0.0000
# 4 0.0000 0.0000 0.0000 23.4011 0.0000 0.0000
# 5 0.0000 0.0000 0.0000 0.0000 -4.1522 0.0000
# 6 0.0000 0.0000 0.0000 0.0000 0.0000 20.0036
#
#
#
# Elastic Compliance Matrix: (Units=1/GPa)
#
#
# Indices 1 2 3 4 5 6 
#
# 1 0.015298 -0.008230 -0.007884 0.000000 0.000000 0.000000
# 2 -0.008230 0.062876 -0.005368 0.000000 0.000000 0.000000
# 3 -0.007884 -0.005368 0.013302 0.000000 0.000000 0.000000
# 4 0.000000 0.000000 0.000000 0.042733 0.000000 0.000000
# 5 0.000000 0.000000 0.000000 0.000000 -0.240835 0.000000
# 6 0.000000 0.000000 0.000000 0.000000 0.000000 0.049991
#
#
# Mechanical properties :
#
#
# Convention : Reuss Voigt Hill
#
# Bulk Modulus (GPa) = 20.61351 57.11964 38.86657
# Shear Modulus (GPa) = 2000.22462 17.62778 1008.92620
#
# Velocity S-wave (km/s) = 32.37004 3.03880 22.98971
# Velocity P-wave (km/s) = 37.52188 6.49882 26.92699
#
# Compressibility (1/GPa) = 0.04851188
#
# Stress axis : x y z
#
# Youngs Moduli (GPa) = 65.36697 15.90426 75.17850
#
# Poissons Ratio (x) = 0.13089 0.59271
# Poissons Ratio (y) = 0.53796 0.40358
# Poissons Ratio (z) = 0.51536 0.08538
#
# Static dielectric constant tensor:
#      x y z
#    x 1.639260 0.000000 0.000000 
#    y 0.000000 1.647600 0.000000 
#    z 0.000000 0.000000 1.675430 
# 
# From -- ./inp_files/15808.got.cif
#   From: 2010.05.17/outbox.cif.g08.bks.cpg/sg38_8_cif.got.tgz:15808.got - 2010.06.03 18:07:57.
