data_PCOD9358508
_publ_section_title
;
Structure prediction by ZEFSAII (Michael W. Deem and Ramdas Pophale) SiO2 
 PCOD9358508
Probable space group: A M M 2
;
_chemical_formula_sum "Si O2"
_cell_formula_units_Z 64
_cell_length_a 14.199783
_cell_length_b 9.761601
_cell_length_c 25.455111
_cell_angle_alpha 90.000000
_cell_angle_beta 90.000000
_cell_angle_gamma 90.000000
_cell_volume 3528.399525
_symmetry_space_group_name_H-M "A M M 2"
_symmetry_group_IT_number 38
_symmetry_cell_setting 'orthorhombic'
loop_
_space_group_symop_operation_xyz
x,y,z
-x,-y,z
-x,y,z
x,-y,z
x,1/2+y,1/2+z
-x,1/2-y,1/2+z
-x,1/2+y,1/2+z
x,1/2-y,1/2+z
loop_
_atom_site_type_symbol
_atom_site_label
_atom_site_fract_x
_atom_site_fract_y
_atom_site_fract_z
Si Si1 0.309343 0.646505 0.611590
Si Si2 0.294328 0.166158 0.415812
Si Si3 0.386633 0.164122 0.821230
Si Si4 0.891321 0.155117 0.704849
Si Si5 0.895828 0.664272 0.971630
Si Si6 0.716420 0.163244 0.232199
Si Si7 0.893771 0.267129 0.590826
Si Si8 0.388005 0.153485 0.525934
O O1 0.352035 0.500000 0.598405
O O2 0.323362 0.674176 0.672962
O O3 0.197043 0.641929 0.601817
O O4 0.350131 0.757402 0.573044
O O5 0.336243 0.257962 0.369624
O O6 0.187699 0.204564 0.432487
O O7 0.353138 0.195899 0.468612
O O8 0.299648 0.000000 0.405048
O O9 0.500000 0.179024 0.824880
O O10 0.346671 0.246466 0.771016
O O11 0.366199 0.000000 0.819573
O O12 0.819684 0.266194 0.728427
O O13 0.889362 0.165358 0.640971
O O14 0.000000 0.180223 0.720223
O O15 0.864669 0.000000 0.719943
O O16 0.896406 0.500000 0.971226
O O17 0.000000 0.714364 0.956140
O O18 0.880765 0.706568 0.032449
O O19 0.720783 0.000000 0.245445
O O20 0.000000 0.326983 0.592416
O O21 0.500000 0.152949 0.526513
O O22 0.350890 0.000000 0.533414
#
# Coordination Sequence:
#
# PCOD9358508 Si02
#       8
#     8   8   8   8   8   8   8   8
#     4  10  21  35  53  82 118 152 186 229 282 339
#     4  10  20  37  61  86 114 148 187 233 283 339
#     4  11  25  44  65  86 106 138 190 250 305 353
#     4   9  17  30  53  86 121 157 195 235 280 331
#     4   9  16  28  51  84 118 151 188 226 266 320
#     4  10  22  39  59  84 114 151 193 238 290 346
#     4   9  16  28  49  79 117 158 195 229 269 324
#     4  10  21  36  55  81 112 148 189 230 279 342
#
# _framework density 18.138534
#
# number of rings (size 3 to 8) (size 9 to 14) (size 15 to 20)
#    0.000    2.250    1.250    1.500    0.000    7.250 
#    0.000    5.625    0.000    2.625    0.000    0.000 
#    0.000    0.000    0.000    0.000    0.000    0.000 
#
# Total GULP energy -178275.710102 kJ/mol
# GULP energy per Si atom -5571.115941 kJ/mol
# Density = 1.809725 g / cm^3
# Si number density = 18.138534 Si / 1000 Ang^3
#
#
#
# Elastic Constant Matrix: (Units=GPa)
#
#
# Indices 1 2 3 4 5 6 
#
# 1 93.1935 53.2546 63.2547 0.0000 0.0000 0.0000
# 2 53.2546 97.1784 69.2931 0.0000 0.0000 0.0000
# 3 63.2547 69.2931 102.3002 0.0000 0.0000 0.0000
# 4 0.0000 0.0000 0.0000 13.6524 0.0000 0.0000
# 5 0.0000 0.0000 0.0000 0.0000 18.0906 0.0000
# 6 0.0000 0.0000 0.0000 0.0000 0.0000 -4.5885
#
#
#
# Elastic Compliance Matrix: (Units=1/GPa)
#
#
# Indices 1 2 3 4 5 6 
#
# 1 0.019259 -0.003990 -0.009205 0.000000 0.000000 0.000000
# 2 -0.003990 0.020730 -0.011574 0.000000 0.000000 0.000000
# 3 -0.009205 -0.011574 0.023307 0.000000 0.000000 0.000000
# 4 0.000000 0.000000 0.000000 0.073247 0.000000 0.000000
# 5 0.000000 0.000000 0.000000 0.000000 0.055277 0.000000
# 6 0.000000 0.000000 0.000000 0.000000 0.000000 -0.217934
#
#
# Mechanical properties :
#
#
# Convention : Reuss Voigt Hill
#
# Bulk Modulus (GPa) = 72.69542 73.80854 73.25198
# Shear Modulus (GPa) = 178.50102 12.55554 95.52828
#
# Velocity S-wave (km/s) = 9.93094 2.63383 7.26500
# Velocity P-wave (km/s) = 13.10202 7.07314 10.52835
#
# Compressibility (1/GPa) = 0.01375603
#
# Stress axis : x y z
#
# Youngs Moduli (GPa) = 51.92508 48.23937 42.90546
#
# Poissons Ratio (x) = 0.19247 0.39497
# Poissons Ratio (y) = 0.20717 0.49661
# Poissons Ratio (z) = 0.47800 0.55834
#
# Static dielectric constant tensor:
#      x y z
#    x 1.650660 0.000000 0.000000 
#    y 0.000000 1.631140 0.000000 
#    z 0.000000 0.000000 1.603630 
# 
# From -- ./inp_files/22958.got.cif
#   From: 2010.05.17/outbox.cif.g08.bks.cpg/sg38_12_cif.got.tgz:22958.got - 2010.06.03 18:07:57.
