data_PCOD9358494
_publ_section_title
;
Structure prediction by ZEFSAII (Michael W. Deem and Ramdas Pophale) SiO2 
 PCOD9358494
Probable space group: A M M 2
;
_chemical_formula_sum "Si O2"
_cell_formula_units_Z 64
_cell_length_a 13.886400
_cell_length_b 23.473258
_cell_length_c 9.351038
_cell_angle_alpha 90.000000
_cell_angle_beta 90.000000
_cell_angle_gamma 90.000000
_cell_volume 3048.055462
_symmetry_space_group_name_H-M "A M M 2"
_symmetry_group_IT_number 38
_symmetry_cell_setting 'orthorhombic'
loop_
_space_group_symop_operation_xyz
x,y,z
-x,-y,z
-x,y,z
x,-y,z
x,1/2+y,1/2+z
-x,1/2-y,1/2+z
-x,1/2+y,1/2+z
x,1/2-y,1/2+z
loop_
_atom_site_type_symbol
_atom_site_label
_atom_site_fract_x
_atom_site_fract_y
_atom_site_fract_z
Si Si1 0.105588 0.934439 0.507220
Si Si2 0.725231 0.741865 0.162158
Si Si3 0.745859 0.350170 0.478347
Si Si4 0.612212 0.186896 0.404017
Si Si5 0.109113 0.157263 0.760380
Si Si6 0.390767 0.895640 0.759817
Si Si7 0.318793 0.565733 0.956507
Si Si8 0.606712 0.063325 0.066666
O O1 0.109622 0.889550 0.635632
O O2 0.205276 0.927234 0.422539
O O3 0.000000 0.927062 0.435800
O O4 0.108943 0.000000 0.559783
O O5 0.667738 0.653236 0.346313
O O6 0.667512 0.776841 0.283523
O O7 0.819092 0.708112 0.216294
O O8 0.658084 0.702931 0.058849
O O9 0.760896 0.291072 0.554219
O O10 0.842707 0.369734 0.401591
O O11 0.695380 0.394270 0.585890
O O12 0.500000 0.201509 0.401483
O O13 0.625154 0.118515 0.386347
O O14 0.000000 0.176218 0.783790
O O15 0.500000 0.879847 0.719403
O O16 0.336134 0.922479 0.626256
O O17 0.396151 0.939036 0.892884
O O18 0.347954 0.500000 0.930525
O O19 0.500000 0.084942 0.108089
O O20 0.620653 0.000000 0.122638
#
# Coordination Sequence:
#
# PCOD9358494 Si02
#       8
#     8   8   8   8   8   8   8   8
#     4   9  17  32  59  94 129 164 206 266 333 387
#     4  12  25  48  62  91 131 172 220 273 326 392
#     4  10  20  37  60  85 125 161 206 264 320 379
#     4  12  27  44  67  95 128 178 223 269 331 396
#     4  11  22  39  64  94 130 168 216 272 330 390
#     4   9  17  29  53  88 120 157 201 252 311 372
#     4  11  21  37  61  92 130 169 217 274 326 386
#     4   8  15  28  51  86 123 161 203 247 303 374
#
# _framework density 20.996991999999999
#
# number of rings (size 3 to 8) (size 9 to 14) (size 15 to 20)
#    0.750    1.000    3.750    1.125    0.000    4.500 
#    0.000    1.250    0.000    0.000    0.000    0.000 
#    0.000    1.000    0.000    0.000    0.000    0.000 
#
# Total GULP energy -178321.257488 kJ/mol
# GULP energy per Si atom -5572.539297 kJ/mol
# Density = 2.094920 g / cm^3
# Si number density = 20.996992 Si / 1000 Ang^3
#
#
#
# Elastic Constant Matrix: (Units=GPa)
#
#
# Indices 1 2 3 4 5 6 
#
# 1 141.3517 37.4092 23.2744 0.0000 0.0000 0.0000
# 2 37.4092 93.9182 8.0643 0.0000 0.0000 0.0000
# 3 23.2744 8.0643 85.9092 0.0000 0.0000 0.0000
# 4 0.0000 0.0000 0.0000 -7.1308 0.0000 0.0000
# 5 0.0000 0.0000 0.0000 0.0000 15.4206 0.0000
# 6 0.0000 0.0000 0.0000 0.0000 0.0000 24.8513
#
#
#
# Elastic Compliance Matrix: (Units=1/GPa)
#
#
# Indices 1 2 3 4 5 6 
#
# 1 0.008215 -0.003106 -0.001934 0.000000 0.000000 0.000000
# 2 -0.003106 0.011909 -0.000276 0.000000 0.000000 0.000000
# 3 -0.001934 -0.000276 0.012190 0.000000 0.000000 0.000000
# 4 0.000000 0.000000 0.000000 -0.140237 0.000000 0.000000
# 5 0.000000 0.000000 0.000000 0.000000 0.064848 0.000000
# 6 0.000000 0.000000 0.000000 0.000000 0.000000 0.040239
#
#
# Mechanical properties :
#
#
# Convention : Reuss Voigt Hill
#
# Bulk Modulus (GPa) = 46.12408 50.96387 48.54397
# Shear Modulus (GPa) = 332.78398 23.45696 178.12047
#
# Velocity S-wave (km/s) = 12.60299 3.34602 9.22039
# Velocity P-wave (km/s) = 15.29036 6.26518 11.68434
#
# Compressibility (1/GPa) = 0.02168065
#
# Stress axis : x y z
#
# Youngs Moduli (GPa) = 121.72782 83.97351 82.03375
#
# Poissons Ratio (x) = 0.26083 0.15866
# Poissons Ratio (y) = 0.37810 0.02267
# Poissons Ratio (z) = 0.23543 0.02321
#
# Static dielectric constant tensor:
#      x y z
#    x 1.765980 0.000000 0.000000 
#    y 0.000000 1.805580 0.000000 
#    z 0.000000 0.000000 1.819360 
# 
# From -- ./inp_files/14776.got.cif
#   From: 2010.05.17/outbox.cif.g08.bks.cpg/sg38_8_cif.got.tgz:14776.got - 2010.06.03 18:07:57.
