data_PCOD9358512
_publ_section_title
;
Structure prediction by ZEFSAII (Michael W. Deem and Ramdas Pophale) SiO2 
 PCOD9358512
Probable space group: A M M 2
;
_chemical_formula_sum "Si O2"
_cell_formula_units_Z 48
_cell_length_a 8.697183
_cell_length_b 18.800529
_cell_length_c 15.360323
_cell_angle_alpha 90.000000
_cell_angle_beta 90.000000
_cell_angle_gamma 90.000000
_cell_volume 2511.591623
_symmetry_space_group_name_H-M "A M M 2"
_symmetry_group_IT_number 38
_symmetry_cell_setting 'orthorhombic'
loop_
_space_group_symop_operation_xyz
x,y,z
-x,-y,z
-x,y,z
x,-y,z
x,1/2+y,1/2+z
-x,1/2-y,1/2+z
-x,1/2+y,1/2+z
x,1/2-y,1/2+z
loop_
_atom_site_type_symbol
_atom_site_label
_atom_site_fract_x
_atom_site_fract_y
_atom_site_fract_z
Si Si1 0.683149 0.735640 0.937280
Si Si2 0.818159 0.884283 0.981334
Si Si3 0.682281 0.500000 0.356464
Si Si4 0.184863 0.500000 0.165737
Si Si5 0.685580 0.768675 0.236410
Si Si6 0.316050 0.077119 0.161978
Si Si7 0.816501 0.155769 0.595727
O O1 0.500000 0.727183 0.936801
O O2 0.730883 0.809818 0.980279
O O3 0.735957 0.739883 0.836809
O O4 0.754477 0.676880 0.000653
O O5 0.756613 0.931836 0.902640
O O6 0.000000 0.874074 0.974680
O O7 0.773257 0.921368 0.071241
O O8 0.500000 0.500000 0.370358
O O9 0.725337 0.500000 0.256149
O O10 0.222271 0.426035 0.117749
O O11 0.000000 0.500000 0.181998
O O12 0.500000 0.761718 0.233170
O O13 0.725481 0.849838 0.210227
O O14 0.751925 0.710438 0.169204
O O15 0.500000 0.080507 0.145135
O O16 0.286602 0.000000 0.205527
O O17 0.000000 0.163329 0.596371
#
# Coordination Sequence:
#
# PCOD9358512 Si02
#       7
#     8   8   4   4   8   8   8
#     4  11  23  40  62  91 124 162 208 256 309 371
#     4  12  23  36  58  89 123 159 202 250 306 371
#     4  12  24  38  60  91 124 161 202 255 317 373
#     4  10  24  44  62  87 124 163 208 259 313 371
#     4  10  22  40  63  91 122 159 205 256 306 366
#     4  10  20  37  61  87 121 159 196 248 309 364
#     4  11  23  41  65  90 123 164 205 258 315 369
#
# _framework density 19.111387000000001
#
# number of rings (size 3 to 8) (size 9 to 14) (size 15 to 20)
#    0.000    1.167    2.500    4.250    0.000    5.333 
#    1.500    0.000    0.000    0.000    0.000    0.000 
#    0.000    0.000    0.000    0.000    0.000    0.000 
#
# Total GULP energy -134058.076766 kJ/mol
# GULP energy per Si atom -5585.753199 kJ/mol
# Density = 1.906789 g / cm^3
# Si number density = 19.111387 Si / 1000 Ang^3
#
#
#
# Elastic Constant Matrix: (Units=GPa)
#
#
# Indices 1 2 3 4 5 6 
#
# 1 21.6972 23.2465 26.8000 0.0000 0.0000 0.0000
# 2 23.2465 122.2054 35.9916 0.0000 0.0000 0.0000
# 3 26.8000 35.9916 79.0367 0.0000 0.0000 0.0000
# 4 0.0000 0.0000 0.0000 128.7159 0.0000 0.0000
# 5 0.0000 0.0000 0.0000 0.0000 12.3793 0.0000
# 6 0.0000 0.0000 0.0000 0.0000 0.0000 28.5735
#
#
#
# Elastic Compliance Matrix: (Units=1/GPa)
#
#
# Indices 1 2 3 4 5 6 
#
# 1 0.087279 -0.009108 -0.025447 0.000000 0.000000 0.000000
# 2 -0.009108 0.010401 -0.001648 0.000000 0.000000 0.000000
# 3 -0.025447 -0.001648 0.022032 0.000000 0.000000 0.000000
# 4 0.000000 0.000000 0.000000 0.007769 0.000000 0.000000
# 5 0.000000 0.000000 0.000000 0.000000 0.080780 0.000000
# 6 0.000000 0.000000 0.000000 0.000000 0.000000 0.034997
#
#
# Mechanical properties :
#
#
# Convention : Reuss Voigt Hill
#
# Bulk Modulus (GPa) = 21.13936 43.89061 32.51499
# Shear Modulus (GPa) = 15.08600 43.06049 29.07324
#
# Velocity S-wave (km/s) = 2.81263 4.75187 3.90456
# Velocity P-wave (km/s) = 4.65112 7.28852 6.11373
#
# Compressibility (1/GPa) = 0.04730511
#
# Stress axis : x y z
#
# Youngs Moduli (GPa) = 11.45749 96.14594 45.38946
#
# Poissons Ratio (x) = 0.87569 1.15504
# Poissons Ratio (y) = 0.10435 0.07480
# Poissons Ratio (z) = 0.29156 0.15845
#
# Static dielectric constant tensor:
#      x y z
#    x 1.645550 0.000000 0.000000 
#    y 0.000000 1.688990 0.000000 
#    z 0.000000 0.000000 1.653390 
# 
# From -- ./inp_files/12118.got.cif
#   From: 2010.05.17/outbox.cif.g08.bks.cpg/sg38_7_cif.got.tgz:12118.got - 2010.06.03 18:07:57.
