data_PCOD9358358
_publ_section_title
;
Structure prediction by ZEFSAII (Michael W. Deem and Ramdas Pophale) SiO2 
 PCOD9358358
Probable space group: A M M 2
;
_chemical_formula_sum "Si O2"
_cell_formula_units_Z 64
_cell_length_a 7.957618
_cell_length_b 26.101701
_cell_length_c 15.321922
_cell_angle_alpha 90.000000
_cell_angle_beta 90.000000
_cell_angle_gamma 90.000000
_cell_volume 3182.476056
_symmetry_space_group_name_H-M "A M M 2"
_symmetry_group_IT_number 38
_symmetry_cell_setting 'orthorhombic'
loop_
_space_group_symop_operation_xyz
x,y,z
-x,-y,z
-x,y,z
x,-y,z
x,1/2+y,1/2+z
-x,1/2-y,1/2+z
-x,1/2+y,1/2+z
x,1/2-y,1/2+z
loop_
_atom_site_type_symbol
_atom_site_label
_atom_site_fract_x
_atom_site_fract_y
_atom_site_fract_z
Si Si1 0.300925 0.832758 0.586230
Si Si2 0.700483 0.556275 0.396260
Si Si3 0.200092 0.637546 0.904721
Si Si4 0.699285 0.720185 0.596695
Si Si5 0.803564 0.348868 0.281799
Si Si6 0.293451 0.607994 0.572205
Si Si7 0.297147 0.441280 0.755429
Si Si8 0.795318 0.264964 0.796747
O O1 0.500000 0.828992 0.601399
O O2 0.268359 0.867339 0.502375
O O3 0.232987 0.775163 0.565788
O O4 0.223025 0.850167 0.677545
O O5 0.500000 0.552260 0.404546
O O6 0.766449 0.500000 0.371512
O O7 0.731129 0.601664 0.328478
O O8 0.763740 0.573805 0.491322
O O9 0.246472 0.592559 0.838240
O O10 0.262387 0.691377 0.863251
O O11 0.000000 0.640367 0.910123
O O12 0.500000 0.720182 0.579763
O O13 0.766141 0.666610 0.560478
O O14 0.730777 0.720062 0.700683
O O15 0.736280 0.293295 0.313792
O O16 0.000000 0.348804 0.300628
O O17 0.500000 0.608482 0.572974
O O18 0.239502 0.585613 0.665575
O O19 0.500000 0.442193 0.752338
O O20 0.237907 0.500000 0.760391
O O21 0.000000 0.264919 0.794135
#
# Coordination Sequence:
#
# PCOD9358358 Si02
#       8
#     8   8   8   8   8   8   8   8
#     4  10  21  36  57  85 114 146 187 239 287 334
#     4  10  21  37  58  84 114 149 191 238 284 333
#     4  11  22  36  55  82 117 155 189 229 282 339
#     4   9  17  31  53  82 112 144 184 226 272 324
#     4  10  21  39  59  81 112 150 190 235 286 339
#     4   9  17  32  55  84 115 148 185 226 276 331
#     4  10  20  36  59  84 113 151 193 237 280 327
#     4   9  19  34  52  78 112 149 184 221 274 334
#
# _framework density 20.110128
#
# number of rings (size 3 to 8) (size 9 to 14) (size 15 to 20)
#    0.000    2.250    1.250    1.500    1.750    3.500 
#    0.000    1.875    0.000    5.250    0.000    0.000 
#    0.000    0.000    0.000    0.000    0.000    0.000 
#
# Total GULP energy -178614.511209 kJ/mol
# GULP energy per Si atom -5581.703475 kJ/mol
# Density = 2.006436 g / cm^3
# Si number density = 20.110128 Si / 1000 Ang^3
#
#
#
# Elastic Constant Matrix: (Units=GPa)
#
#
# Indices 1 2 3 4 5 6 
#
# 1 14.6166 4.9745 -11.3257 0.0000 0.0000 0.0000
# 2 4.9745 136.3192 51.3561 0.0000 0.0000 0.0000
# 3 -11.3257 51.3561 64.1666 0.0000 0.0000 0.0000
# 4 0.0000 0.0000 0.0000 24.1269 0.0000 0.0000
# 5 0.0000 0.0000 0.0000 0.0000 -24.5601 0.0000
# 6 0.0000 0.0000 0.0000 0.0000 0.0000 15.5595
#
#
#
# Elastic Compliance Matrix: (Units=1/GPa)
#
#
# Indices 1 2 3 4 5 6 
#
# 1 0.094809 -0.013979 0.027922 0.000000 0.000000 0.000000
# 2 -0.013979 0.012564 -0.012523 0.000000 0.000000 0.000000
# 3 0.027922 -0.012523 0.030535 0.000000 0.000000 0.000000
# 4 0.000000 0.000000 0.000000 0.041447 0.000000 0.000000
# 5 0.000000 0.000000 0.000000 0.000000 -0.040716 0.000000
# 6 0.000000 0.000000 0.000000 0.000000 0.000000 0.064270
#
#
# Mechanical properties :
#
#
# Convention : Reuss Voigt Hill
#
# Bulk Modulus (GPa) = 7.10486 33.90134 20.50310
# Shear Modulus (GPa) = 20.24432 14.36511 17.30471
#
# Velocity S-wave (km/s) = 3.17625 2.67558 2.93661
# Velocity P-wave (km/s) = 4.12215 5.14193 4.66002
#
# Compressibility (1/GPa) = 0.14074880
#
# Stress axis : x y z
#
# Youngs Moduli (GPa) = 10.54757 79.59545 32.74892
#
# Poissons Ratio (x) = 1.11266 -0.91442
# Poissons Ratio (y) = 0.14744 0.41010
# Poissons Ratio (z) = -0.29451 0.99674
#
# Static dielectric constant tensor:
#      x y z
#    x 1.720470 0.000000 0.000000 
#    y 0.000000 1.738220 0.000000 
#    z 0.000000 0.000000 1.688610 
# 
# From -- ./inp_files/12774.got.cif
#   From: 2010.05.17/outbox.cif.g08.bks.cpg/sg38_7_cif.got.tgz:12774.got - 2010.06.03 18:07:57.
