data_PCOD9358058
_publ_section_title
;
Structure prediction by ZEFSAII (Michael W. Deem and Ramdas Pophale) SiO2 
 PCOD9358058
Probable space group: A M M 2
;
_chemical_formula_sum "Si O2"
_cell_formula_units_Z 64
_cell_length_a 8.770455
_cell_length_b 33.514203
_cell_length_c 11.933892
_cell_angle_alpha 90.000000
_cell_angle_beta 90.000000
_cell_angle_gamma 90.000000
_cell_volume 3507.786269
_symmetry_space_group_name_H-M "A M M 2"
_symmetry_group_IT_number 38
_symmetry_cell_setting 'orthorhombic'
loop_
_space_group_symop_operation_xyz
x,y,z
-x,-y,z
-x,y,z
x,-y,z
x,1/2+y,1/2+z
-x,1/2-y,1/2+z
-x,1/2+y,1/2+z
x,1/2-y,1/2+z
loop_
_atom_site_type_symbol
_atom_site_label
_atom_site_fract_x
_atom_site_fract_y
_atom_site_fract_z
Si Si1 0.676945 0.899666 0.741120
Si Si2 0.817440 0.355744 0.036674
Si Si3 0.816918 0.223147 0.669203
Si Si4 0.178639 0.170232 0.874357
Si Si5 0.173824 0.952361 0.915453
Si Si6 0.184823 0.546664 0.666738
Si Si7 0.681494 0.120347 0.297350
Si Si8 0.818314 0.687062 0.635595
O O1 0.500000 0.901120 0.713084
O O2 0.771197 0.888050 0.630820
O O3 0.714904 0.864481 0.828930
O O4 0.730614 0.938010 0.809965
O O5 0.744377 0.367269 0.918981
O O6 0.000000 0.354390 0.025814
O O7 0.764537 0.312505 0.086320
O O8 0.789515 0.208255 0.795714
O O9 0.759405 0.267796 0.652494
O O10 0.000000 0.225211 0.652716
O O11 0.000000 0.159819 0.852930
O O12 0.197429 0.177431 0.004676
O O13 0.000000 0.937060 0.903715
O O14 0.167976 0.000000 0.918477
O O15 0.231088 0.940585 0.039710
O O16 0.227976 0.500000 0.684773
O O17 0.251363 0.578145 0.754072
O O18 0.000000 0.548233 0.669049
O O19 0.500000 0.117907 0.300081
O O20 0.735503 0.154517 0.211043
O O21 0.000000 0.685695 0.662968
#
# Coordination Sequence:
#
# PCOD9358058 Si02
#       8
#     8   8   8   8   8   8   8   8
#     4  11  21  34  54  80 113 146 178 222 278 341
#     4  10  21  40  63  80 104 147 197 243 282 331
#     4   8  17  33  57  83 103 134 188 245 285 318
#     4   9  18  33  53  78 106 140 186 231 271 321
#     4   9  18  34  58  86 114 144 184 233 279 328
#     4   9  19  38  63  88 114 149 195 243 286 330
#     4  12  25  38  54  84 121 154 188 231 290 356
#     4  10  20  34  57  83 109 144 191 241 279 326
#
# _framework density 18.245125999999999
#
# number of rings (size 3 to 8) (size 9 to 14) (size 15 to 20)
#    0.000    2.250    0.000    4.875    1.750    4.500 
#    0.000    5.000    0.000    3.750    0.000    0.000 
#    0.000    0.000    0.000    0.000    0.000    0.000 
#
# Total GULP energy -178519.428827 kJ/mol
# GULP energy per Si atom -5578.732151 kJ/mol
# Density = 1.820360 g / cm^3
# Si number density = 18.245126 Si / 1000 Ang^3
#
#
#
# Elastic Constant Matrix: (Units=GPa)
#
#
# Indices 1 2 3 4 5 6 
#
# 1 52.0747 27.4266 41.7916 0.0000 0.0000 0.0000
# 2 27.4266 86.0032 64.2848 0.0000 0.0000 0.0000
# 3 41.7916 64.2848 110.4993 0.0000 0.0000 0.0000
# 4 0.0000 0.0000 0.0000 11.9709 0.0000 0.0000
# 5 0.0000 0.0000 0.0000 0.0000 8.8877 0.0000
# 6 0.0000 0.0000 0.0000 0.0000 0.0000 4268.2743
#
#
#
# Elastic Compliance Matrix: (Units=1/GPa)
#
#
# Indices 1 2 3 4 5 6 
#
# 1 0.027724 -0.001776 -0.009452 0.000000 0.000000 0.000000
# 2 -0.001776 0.020688 -0.011364 0.000000 0.000000 0.000000
# 3 -0.009452 -0.011364 0.019236 0.000000 0.000000 0.000000
# 4 0.000000 0.000000 0.000000 0.083536 0.000000 0.000000
# 5 0.000000 0.000000 0.000000 0.000000 0.112515 0.000000
# 6 0.000000 0.000000 0.000000 0.000000 0.000000 0.000234
#
#
# Mechanical properties :
#
#
# Convention : Reuss Voigt Hill
#
# Bulk Modulus (GPa) = 44.51607 57.28700 50.90154
# Shear Modulus (GPa) = 15.79253 865.49821 440.64537
#
# Velocity S-wave (km/s) = 2.94526 21.80372 15.55758
# Velocity P-wave (km/s) = 6.00149 25.79411 18.72637
#
# Compressibility (1/GPa) = 0.02246380
#
# Stress axis : x y z
#
# Youngs Moduli (GPa) = 36.06939 48.33719 51.98624
#
# Poissons Ratio (x) = 0.08585 0.49139
# Poissons Ratio (y) = 0.06406 0.59076
# Poissons Ratio (z) = 0.34094 0.54930
#
# Static dielectric constant tensor:
#      x y z
#    x 1.626010 0.000000 0.000000 
#    y 0.000000 1.651510 0.000000 
#    z 0.000000 0.000000 1.613850 
# 
# From -- ./inp_files/8672.got.cif
#   From: 2010.05.17/outbox.cif.g08.bks.cpg/sg38_5_cif.got.tgz:8672.got - 2010.06.03 18:07:57.
