data_PCOD9358743
_publ_section_title
;
Structure prediction by ZEFSAII (Michael W. Deem and Ramdas Pophale) SiO2 
 PCOD9358743
Probable space group: A M M 2
;
_chemical_formula_sum "Si O2"
_cell_formula_units_Z 56
_cell_length_a 7.571319
_cell_length_b 15.194102
_cell_length_c 22.561790
_cell_angle_alpha 90.000000
_cell_angle_beta 90.000000
_cell_angle_gamma 90.000000
_cell_volume 2595.494630
_symmetry_space_group_name_H-M "A M M 2"
_symmetry_group_IT_number 38
_symmetry_cell_setting 'orthorhombic'
loop_
_space_group_symop_operation_xyz
x,y,z
-x,-y,z
-x,y,z
x,-y,z
x,1/2+y,1/2+z
-x,1/2-y,1/2+z
-x,1/2+y,1/2+z
x,1/2-y,1/2+z
loop_
_atom_site_type_symbol
_atom_site_label
_atom_site_fract_x
_atom_site_fract_y
_atom_site_fract_z
Si Si1 0.216735 0.216561 0.444990
Si Si2 0.786819 0.099324 0.335350
Si Si3 0.784670 0.402590 0.408604
Si Si4 0.705180 0.717427 0.162053
Si Si5 0.213332 0.400838 0.271248
Si Si6 0.206924 0.401276 0.052772
Si Si7 0.708749 0.402302 0.697570
O O1 0.271443 0.169808 0.383717
O O2 0.273868 0.318022 0.445298
O O3 0.280901 0.158667 0.499963
O O4 0.000000 0.217144 0.445474
O O5 0.726050 0.113375 0.268205
O O6 0.000000 0.101930 0.333996
O O7 0.734068 0.000000 0.353276
O O8 0.725208 0.500000 0.427308
O O9 0.733758 0.388988 0.339642
O O10 0.000000 0.403878 0.409348
O O11 0.500000 0.725265 0.146894
O O12 0.720433 0.672047 0.226239
O O13 0.783146 0.651435 0.114008
O O14 0.782967 0.815961 0.165290
O O15 0.266958 0.500000 0.252842
O O16 0.000000 0.397626 0.269723
O O17 0.281855 0.500000 0.056838
O O18 0.000000 0.410787 0.038749
O O19 0.500000 0.405700 0.684591
O O20 0.783176 0.500000 0.685012
#
# Coordination Sequence:
#
# PCOD9358743 Si02
#       7
#     8   8   8   8   8   8   8
#     4   9  16  28  47  69  95 127 159 193 235 282
#     4   9  16  27  48  77 101 121 152 195 238 281
#     4   8  14  25  44  72 101 125 152 189 234 284
#     4  11  22  34  50  71  95 127 166 205 242 280
#     4   9  17  30  50  76 104 132 159 190 236 292
#     4  10  21  36  52  70  95 128 163 198 239 288
#     4   9  19  35  51  69  97 130 160 193 240 295
#
# _framework density 21.575849999999999
#
# number of rings (size 3 to 8) (size 9 to 14) (size 15 to 20)
#    0.000    2.714    0.000    3.000    0.000    6.286 
#    0.000    1.429    0.000    3.429    0.000    0.000 
#    0.000    0.000    0.000    0.000    0.000    0.000 
#
# Total GULP energy -156270.994366 kJ/mol
# GULP energy per Si atom -5581.106942 kJ/mol
# Density = 2.152674 g / cm^3
# Si number density = 21.575850 Si / 1000 Ang^3
#
#
#
# Elastic Constant Matrix: (Units=GPa)
#
#
# Indices 1 2 3 4 5 6 
#
# 1 45.9030 8.8245 0.1010 0.0000 0.0000 0.0000
# 2 8.8245 229.2836 79.0888 0.0000 0.0000 0.0000
# 3 0.1010 79.0888 45.0033 0.0000 0.0000 0.0000
# 4 0.0000 0.0000 0.0000 29.4426 0.0000 0.0000
# 5 0.0000 0.0000 0.0000 0.0000 38.1030 0.0000
# 6 0.0000 0.0000 0.0000 0.0000 0.0000 8.2508
#
#
#
# Elastic Compliance Matrix: (Units=1/GPa)
#
#
# Indices 1 2 3 4 5 6 
#
# 1 0.022185 -0.002125 0.003684 0.000000 0.000000 0.000000
# 2 -0.002125 0.011278 -0.019816 0.000000 0.000000 0.000000
# 3 0.003684 -0.019816 0.057037 0.000000 0.000000 0.000000
# 4 0.000000 0.000000 0.000000 0.033964 0.000000 0.000000
# 5 0.000000 0.000000 0.000000 0.000000 0.026245 0.000000
# 6 0.000000 0.000000 0.000000 0.000000 0.000000 0.121201
#
#
# Mechanical properties :
#
#
# Convention : Reuss Voigt Hill
#
# Bulk Modulus (GPa) = 18.52277 55.13539 36.82908
# Shear Modulus (GPa) = 15.31770 30.63765 22.97768
#
# Velocity S-wave (km/s) = 2.66737 3.77237 3.26693
# Velocity P-wave (km/s) = 4.25325 6.67713 5.59795
#
# Compressibility (1/GPa) = 0.05398760
#
# Stress axis : x y z
#
# Youngs Moduli (GPa) = 45.07467 88.66427 17.53248
#
# Poissons Ratio (x) = 0.18838 -0.06459
# Poissons Ratio (y) = 0.09577 0.34742
# Poissons Ratio (z) = -0.16606 1.75698
#
# Static dielectric constant tensor:
#      x y z
#    x 1.822080 0.000000 0.000000 
#    y 0.000000 1.821830 0.000000 
#    z 0.000000 0.000000 1.729770 
# 
# From -- ./inp_files/19828.got.cif
#   From: 2010.05.17/outbox.cif.g08.bks.cpg/sg38_10_cif.got.tgz:19828.got - 2010.06.03 18:07:57.
