data_PCOD9358392
_publ_section_title
;
Structure prediction by ZEFSAII (Michael W. Deem and Ramdas Pophale) SiO2 
 PCOD9358392
Probable space group: A M M 2
;
_chemical_formula_sum "Si O2"
_cell_formula_units_Z 58
_cell_length_a 24.534452
_cell_length_b 12.911226
_cell_length_c 7.674358
_cell_angle_alpha 90.000000
_cell_angle_beta 90.000000
_cell_angle_gamma 90.000000
_cell_volume 2431.005267
_symmetry_space_group_name_H-M "A M M 2"
_symmetry_group_IT_number 38
_symmetry_cell_setting 'orthorhombic'
loop_
_space_group_symop_operation_xyz
x,y,z
-x,-y,z
-x,y,z
x,-y,z
x,1/2+y,1/2+z
-x,1/2-y,1/2+z
-x,1/2+y,1/2+z
x,1/2-y,1/2+z
loop_
_atom_site_type_symbol
_atom_site_label
_atom_site_fract_x
_atom_site_fract_y
_atom_site_fract_z
Si Si1 0.422755 0.388804 0.441680
Si Si2 0.420363 0.658829 0.843181
Si Si3 0.187202 0.614628 0.034703
Si Si4 0.062876 0.882185 0.900483
Si Si5 0.500000 0.500000 0.009643
Si Si6 0.292314 0.609433 0.427077
Si Si7 0.710059 0.664219 0.822827
Si Si8 0.125398 0.290025 0.715024
O O1 0.444111 0.500000 0.374271
O O2 0.434273 0.380393 0.648494
O O3 0.437142 0.279226 0.357829
O O4 0.357771 0.393848 0.423200
O O5 0.452441 0.590371 0.981193
O O6 0.354457 0.649241 0.864270
O O7 0.175131 0.500000 0.102445
O O8 0.248558 0.617614 0.961278
O O9 0.147608 0.640292 0.870941
O O10 0.172827 0.709996 0.159705
O O11 0.077468 0.789845 0.768260
O O12 0.104239 0.860352 0.058533
O O13 0.000000 0.872728 0.956514
O O14 0.069676 0.000000 0.834519
O O15 0.270364 0.500000 0.361476
O O16 0.278332 0.621791 0.630716
O O17 0.279028 0.713205 0.327320
#
# Coordination Sequence:
#
# PCOD9358392 Si02
#       8
#     8   8   8   8   2   8   8   8
#     4   9  18  39  63  84 113 146 183 231 287 353
#     4  10  22  39  64  87 117 152 192 241 301 362
#     4  11  22  36  57  81 116 158 194 245 299 344
#     4  10  20  37  62  87 119 163 202 241 290 341
#     4  12  24  40  62  90 120 152 188 252 306 348
#     4   9  18  34  57  82 112 143 181 239 285 341
#     4  10  20  36  60  86 111 153 200 233 293 365
#     4  10  22  38  55  87 124 151 201 249 289 342
#
# _framework density 23.858443999999999
#
# number of rings (size 3 to 8) (size 9 to 14) (size 15 to 20)
#    0.000    2.069    0.690    2.483    1.931    0.552 
#    1.241    6.207    4.552    6.621    0.000    0.000 
#    0.000    0.000    0.000    0.000    0.000    0.000 
#
# Total GULP energy -161947.148462 kJ/mol
# GULP energy per Si atom -5584.384430 kJ/mol
# Density = 2.380414 g / cm^3
# Si number density = 23.858444 Si / 1000 Ang^3
#
#
#
# Elastic Constant Matrix: (Units=GPa)
#
#
# Indices 1 2 3 4 5 6 
#
# 1 117.2882 26.2838 15.7940 0.0000 0.0000 0.0000
# 2 26.2838 178.7374 13.4639 0.0000 0.0000 0.0000
# 3 15.7940 13.4639 22.6425 0.0000 0.0000 0.0000
# 4 0.0000 0.0000 0.0000 9.1037 0.0000 0.0000
# 5 0.0000 0.0000 0.0000 0.0000 48.2505 0.0000
# 6 0.0000 0.0000 0.0000 0.0000 0.0000 26.4949
#
#
#
# Elastic Compliance Matrix: (Units=1/GPa)
#
#
# Indices 1 2 3 4 5 6 
#
# 1 0.009560 -0.000946 -0.006106 0.000000 0.000000 0.000000
# 2 -0.000946 0.005951 -0.002879 0.000000 0.000000 0.000000
# 3 -0.006106 -0.002879 0.050136 0.000000 0.000000 0.000000
# 4 0.000000 0.000000 0.000000 0.109845 0.000000 0.000000
# 5 0.000000 0.000000 0.000000 0.000000 0.020725 0.000000
# 6 0.000000 0.000000 0.000000 0.000000 0.000000 0.037743
#
#
# Mechanical properties :
#
#
# Convention : Reuss Voigt Hill
#
# Bulk Modulus (GPa) = 21.84108 47.75015 34.79561
# Shear Modulus (GPa) = 18.58159 34.31158 26.44658
#
# Velocity S-wave (km/s) = 2.79377 3.79638 3.33299
# Velocity P-wave (km/s) = 4.42507 6.26691 5.42473
#
# Compressibility (1/GPa) = 0.04578529
#
# Stress axis : x y z
#
# Youngs Moduli (GPa) = 104.59990 168.04629 19.94581
#
# Poissons Ratio (x) = 0.15895 0.12179
# Poissons Ratio (y) = 0.09894 0.05742
# Poissons Ratio (z) = 0.63871 0.48375
#
# Static dielectric constant tensor:
#      x y z
#    x 1.877120 0.000000 0.000000 
#    y 0.000000 1.884860 0.000000 
#    z 0.000000 0.000000 1.919070 
# 
# From -- ./inp_files/7019.got.cif
#   From: 2010.05.17/outbox.cif.g08.bks.cpg/sg38_4_cif.got.tgz:7019.got - 2010.06.03 18:07:57.
