data_PCOD9358556
_publ_section_title
;
Structure prediction by ZEFSAII (Michael W. Deem and Ramdas Pophale) SiO2 
 PCOD9358556
Probable space group: A M M 2
;
_chemical_formula_sum "Si O2"
_cell_formula_units_Z 56
_cell_length_a 15.027858
_cell_length_b 20.575245
_cell_length_c 9.431476
_cell_angle_alpha 90.000000
_cell_angle_beta 90.000000
_cell_angle_gamma 90.000000
_cell_volume 2916.229923
_symmetry_space_group_name_H-M "A M M 2"
_symmetry_group_IT_number 38
_symmetry_cell_setting 'orthorhombic'
loop_
_space_group_symop_operation_xyz
x,y,z
-x,-y,z
-x,y,z
x,-y,z
x,1/2+y,1/2+z
-x,1/2-y,1/2+z
-x,1/2+y,1/2+z
x,1/2-y,1/2+z
loop_
_atom_site_type_symbol
_atom_site_label
_atom_site_fract_x
_atom_site_fract_y
_atom_site_fract_z
Si Si1 0.292789 0.427460 0.199870
Si Si2 0.900684 0.602693 0.100463
Si Si3 0.294588 0.673248 0.712205
Si Si4 0.098980 0.861506 0.278099
Si Si5 0.715418 0.693879 0.395891
Si Si6 0.906457 0.707991 0.322506
Si Si7 0.395709 0.575442 0.906216
O O1 0.319457 0.500000 0.247727
O O2 0.186421 0.427988 0.169752
O O3 0.314428 0.368837 0.306309
O O4 0.340056 0.413478 0.050025
O O5 0.898538 0.675683 0.166683
O O6 0.000000 0.577377 0.135764
O O7 0.892533 0.603989 0.931447
O O8 0.197265 0.637191 0.708790
O O9 0.321570 0.693845 0.553889
O O10 0.293925 0.738935 0.808326
O O11 0.360857 0.623233 0.785985
O O12 0.091790 0.784641 0.308191
O O13 0.000000 0.880981 0.219160
O O14 0.822215 0.686913 0.410464
O O15 0.000000 0.685613 0.385669
O O16 0.500000 0.585292 0.934151
O O17 0.382220 0.500000 0.865892
#
# Coordination Sequence:
#
# PCOD9358556 Si02
#       7
#     8   8   8   8   8   8   8
#     4  10  20  38  60  85 117 154 197 240 285 340
#     4   9  16  29  47  77 113 150 195 237 283 335
#     4  11  21  37  58  85 122 154 192 240 287 337
#     4   9  17  26  46  76 112 152 190 233 279 330
#     4  10  22  34  57  87 118 158 193 237 290 338
#     4   8  16  26  43  72 111 153 194 235 275 325
#     4  10  22  42  67  89 111 145 187 233 289 351
#
# _framework density 19.202874999999999
#
# number of rings (size 3 to 8) (size 9 to 14) (size 15 to 20)
#    0.000    2.429    1.429    0.857   10.000    1.429 
#    0.000    3.571    0.000    2.143    0.000    2.000 
#    0.000    0.000    0.000    0.000    0.000    0.000 
#
# Total GULP energy -155898.971936 kJ/mol
# GULP energy per Si atom -5567.820426 kJ/mol
# Density = 1.915917 g / cm^3
# Si number density = 19.202875 Si / 1000 Ang^3
#
#
#
# Elastic Constant Matrix: (Units=GPa)
#
#
# Indices 1 2 3 4 5 6 
#
# 1 57.4374 31.1129 36.3954 0.0000 0.0000 0.0000
# 2 31.1129 58.6766 38.5032 0.0000 0.0000 0.0000
# 3 36.3954 38.5032 85.6353 0.0000 0.0000 0.0000
# 4 0.0000 0.0000 0.0000 20.0510 0.0000 0.0000
# 5 0.0000 0.0000 0.0000 0.0000 8.8711 0.0000
# 6 0.0000 0.0000 0.0000 0.0000 0.0000 20.0927
#
#
#
# Elastic Compliance Matrix: (Units=1/GPa)
#
#
# Indices 1 2 3 4 5 6 
#
# 1 0.027240 -0.009713 -0.007210 0.000000 0.000000 0.000000
# 2 -0.009713 0.027638 -0.008299 0.000000 0.000000 0.000000
# 3 -0.007210 -0.008299 0.018473 0.000000 0.000000 0.000000
# 4 0.000000 0.000000 0.000000 0.049873 0.000000 0.000000
# 5 0.000000 0.000000 0.000000 0.000000 0.112725 0.000000
# 6 0.000000 0.000000 0.000000 0.000000 0.000000 0.049769
#
#
# Mechanical properties :
#
#
# Convention : Reuss Voigt Hill
#
# Bulk Modulus (GPa) = 43.65231 45.97469 44.81350
# Shear Modulus (GPa) = 14.54342 16.18548 15.36445
#
# Velocity S-wave (km/s) = 2.75500 2.90637 2.83169
# Velocity P-wave (km/s) = 5.73599 5.93769 5.83771
#
# Compressibility (1/GPa) = 0.02290829
#
# Stress axis : x y z
#
# Youngs Moduli (GPa) = 36.71036 36.18185 54.13278
#
# Poissons Ratio (x) = 0.35142 0.39031
# Poissons Ratio (y) = 0.35655 0.44923
# Poissons Ratio (z) = 0.26469 0.30026
#
# Static dielectric constant tensor:
#      x y z
#    x 1.714770 0.000000 0.000000 
#    y 0.000000 1.678220 0.000000 
#    z 0.000000 0.000000 1.676670 
# 
# From -- ./inp_files/5720.got.cif
#   From: 2010.05.17/outbox.cif.g08.bks.cpg/sg38_3_cif.got.tgz:5720.got - 2010.06.03 18:07:57.
