data_PCOD9358946
_publ_section_title
;
Structure prediction by ZEFSAII (Michael W. Deem and Ramdas Pophale) SiO2 
 PCOD9358946
Probable space group: A M M 2
;
_chemical_formula_sum "Si O2"
_cell_formula_units_Z 56
_cell_length_a 21.894035
_cell_length_b 14.376607
_cell_length_c 8.868000
_cell_angle_alpha 90.000000
_cell_angle_beta 90.000000
_cell_angle_gamma 90.000000
_cell_volume 2791.308856
_symmetry_space_group_name_H-M "A M M 2"
_symmetry_group_IT_number 38
_symmetry_cell_setting 'orthorhombic'
loop_
_space_group_symop_operation_xyz
x,y,z
-x,-y,z
-x,y,z
x,-y,z
x,1/2+y,1/2+z
-x,1/2-y,1/2+z
-x,1/2+y,1/2+z
x,1/2-y,1/2+z
loop_
_atom_site_type_symbol
_atom_site_label
_atom_site_fract_x
_atom_site_fract_y
_atom_site_fract_z
Si Si1 0.069662 0.854293 0.736710
Si Si2 0.629860 0.241540 0.361161
Si Si3 0.200793 0.606472 0.093518
Si Si4 0.185443 0.898500 0.250839
Si Si5 0.280976 0.278305 0.616498
Si Si6 0.066722 0.648583 0.597197
Si Si7 0.573346 0.888688 0.624488
O O1 0.134045 0.892739 0.672762
O O2 0.067557 0.753076 0.660972
O O3 0.000000 0.893569 0.708062
O O4 0.076829 0.851356 0.917633
O O5 0.683262 0.284523 0.462600
O O6 0.669153 0.187277 0.236701
O O7 0.594966 0.170431 0.474965
O O8 0.595102 0.323264 0.266945
O O9 0.222016 0.500000 0.096141
O O10 0.254538 0.674678 0.148925
O O11 0.189576 0.638948 0.920330
O O12 0.220900 0.838053 0.130752
O O13 0.117137 0.902143 0.193624
O O14 0.213483 0.000000 0.254370
O O15 0.000000 0.609003 0.624007
O O16 0.500000 0.889450 0.625281
O O17 0.592609 0.000000 0.627005
#
# Coordination Sequence:
#
# PCOD9358946 Si02
#       7
#     8   8   8   8   8   8   8
#     4  10  21  37  59  83 112 149 200 266 334 399
#     4  10  23  40  69  98 137 181 218 263 319 383
#     4  11  24  40  61  86 119 162 211 265 327 391
#     4  11  24  39  58  85 119 160 205 260 321 384
#     4  11  22  41  60  90 129 169 213 261 309 372
#     4  10  21  37  58  83 111 150 200 261 330 397
#     4  10  22  44  74 108 143 178 222 272 320 376
#
# _framework density 20.062272
#
# number of rings (size 3 to 8) (size 9 to 14) (size 15 to 20)
#    0.000    1.571    2.857    1.286    2.000    6.286 
#    0.000    5.000    0.000    7.714    0.000    0.000 
#    0.000    0.000    0.000    0.000    0.000    0.000 
#
# Total GULP energy -155872.126352 kJ/mol
# GULP energy per Si atom -5566.861655 kJ/mol
# Density = 2.001661 g / cm^3
# Si number density = 20.062272 Si / 1000 Ang^3
#
#
#
# Elastic Constant Matrix: (Units=GPa)
#
#
# Indices 1 2 3 4 5 6 
#
# 1 93.1137 42.0627 37.9849 0.0000 0.0000 0.0000
# 2 42.0627 106.8335 27.9582 0.0000 0.0000 0.0000
# 3 37.9849 27.9582 80.5290 0.0000 0.0000 0.0000
# 4 0.0000 0.0000 0.0000 16.2096 0.0000 0.0000
# 5 0.0000 0.0000 0.0000 0.0000 32.9486 0.0000
# 6 0.0000 0.0000 0.0000 0.0000 0.0000 -154.4267
#
#
#
# Elastic Compliance Matrix: (Units=1/GPa)
#
#
# Indices 1 2 3 4 5 6 
#
# 1 0.015012 -0.004463 -0.005532 0.000000 0.000000 0.000000
# 2 -0.004463 0.011623 -0.001930 0.000000 0.000000 0.000000
# 3 -0.005532 -0.001930 0.015697 0.000000 0.000000 0.000000
# 4 0.000000 0.000000 0.000000 0.061692 0.000000 0.000000
# 5 0.000000 0.000000 0.000000 0.000000 0.030350 0.000000
# 6 0.000000 0.000000 0.000000 0.000000 0.000000 -0.006476
#
#
# Mechanical properties :
#
#
# Convention : Reuss Voigt Hill
#
# Bulk Modulus (GPa) = 54.10469 55.16531 54.63500
# Shear Modulus (GPa) = 31.66384 -9.55567 11.05409
#
# Velocity S-wave (km/s) = 3.97706 -2.18480 2.34986
# Velocity P-wave (km/s) = 6.93659 4.60351 5.88679
#
# Compressibility (1/GPa) = 0.01848269
#
# Stress axis : x y z
#
# Youngs Moduli (GPa) = 66.61220 86.03910 63.70566
#
# Poissons Ratio (x) = 0.38399 0.35240
# Poissons Ratio (y) = 0.29729 0.12295
# Poissons Ratio (z) = 0.36848 0.16605
#
# Static dielectric constant tensor:
#      x y z
#    x 1.711950 0.000000 0.000000 
#    y 0.000000 1.716090 0.000000 
#    z 0.000000 0.000000 1.762590 
# 
# From -- ./inp_files/6729.got.cif
#   From: 2010.05.17/outbox.cif.g08.bks.cpg/sg38_4_cif.got.tgz:6729.got - 2010.06.03 18:07:57.
