data_PCOD9358295
_publ_section_title
;
Structure prediction by ZEFSAII (Michael W. Deem and Ramdas Pophale) SiO2 
 PCOD9358295
Probable space group: A M M 2
;
_chemical_formula_sum "Si O2"
_cell_formula_units_Z 48
_cell_length_a 13.602748
_cell_length_b 13.216582
_cell_length_c 12.383729
_cell_angle_alpha 90.000000
_cell_angle_beta 90.000000
_cell_angle_gamma 90.000000
_cell_volume 2226.369516
_symmetry_space_group_name_H-M "A M M 2"
_symmetry_group_IT_number 38
_symmetry_cell_setting 'orthorhombic'
loop_
_space_group_symop_operation_xyz
x,y,z
-x,-y,z
-x,y,z
x,-y,z
x,1/2+y,1/2+z
-x,1/2-y,1/2+z
-x,1/2+y,1/2+z
x,1/2-y,1/2+z
loop_
_atom_site_type_symbol
_atom_site_label
_atom_site_fract_x
_atom_site_fract_y
_atom_site_fract_z
Si Si1 0.612475 0.282958 0.751740
Si Si2 0.392228 0.389424 0.070288
Si Si3 0.112896 0.823433 0.699197
Si Si4 0.819144 0.108100 0.470813
Si Si5 0.233618 0.313416 0.395251
Si Si6 0.215670 0.886126 0.137681
O O1 0.500000 0.313458 0.767238
O O2 0.616444 0.200645 0.654800
O O3 0.660784 0.224782 0.852876
O O4 0.686635 0.369598 0.710630
O O5 0.500000 0.381477 0.017338
O O6 0.389846 0.500000 0.125715
O O7 0.298210 0.389492 0.993843
O O8 0.131261 0.882164 0.587604
O O9 0.182026 0.866641 0.793884
O O10 0.146635 0.707842 0.671936
O O11 0.000000 0.828073 0.730124
O O12 0.834890 0.212813 0.409964
O O13 0.845175 0.000000 0.420409
O O14 0.238202 0.367893 0.510140
O O15 0.177844 0.000000 0.151387
#
# Coordination Sequence:
#
# PCOD9358295 Si02
#       6
#     8   8   8   8   8   8
#     4  10  20  36  57  84 120 155 189 229 278 332
#     4   9  16  30  55  83 111 145 183 222 269 324
#     4  10  22  41  60  82 112 147 188 237 294 347
#     4  10  20  37  59  84 115 146 183 232 285 336
#     4  10  20  36  56  90 111 150 184 239 280 334
#     4  10  22  40  59  83 116 155 193 233 285 339
#
# _framework density 21.559763
#
# number of rings (size 3 to 8) (size 9 to 14) (size 15 to 20)
#    0.000    2.167    5.000    0.000    0.000    9.000 
#    0.000    0.000    0.000    0.000    0.000    0.000 
#    0.000    0.000    0.000    0.000    0.000    0.000 
#
# Total GULP energy -133858.911166 kJ/mol
# GULP energy per Si atom -5577.454632 kJ/mol
# Density = 2.151069 g / cm^3
# Si number density = 21.559763 Si / 1000 Ang^3
#
#
#
# Elastic Constant Matrix: (Units=GPa)
#
#
# Indices 1 2 3 4 5 6 
#
# 1 88.6880 -15.1343 -0.8049 0.0000 0.0000 0.0000
# 2 -15.1343 83.2430 -5.3557 0.0000 0.0000 0.0000
# 3 -0.8049 -5.3557 77.4674 0.0000 0.0000 0.0000
# 4 0.0000 0.0000 0.0000 4.7484 0.0000 0.0000
# 5 0.0000 0.0000 0.0000 0.0000 0.1206 0.0000
# 6 0.0000 0.0000 0.0000 0.0000 0.0000 3.8557
#
#
#
# Elastic Compliance Matrix: (Units=1/GPa)
#
#
# Indices 1 2 3 4 5 6 
#
# 1 0.011642 0.002134 0.000268 0.000000 0.000000 0.000000
# 2 0.002134 0.012458 0.000883 0.000000 0.000000 0.000000
# 3 0.000268 0.000883 0.012973 0.000000 0.000000 0.000000
# 4 0.000000 0.000000 0.000000 0.210599 0.000000 0.000000
# 5 0.000000 0.000000 0.000000 0.000000 8.294030 0.000000
# 6 0.000000 0.000000 0.000000 0.000000 0.000000 0.259359
#
#
# Mechanical properties :
#
#
# Convention : Reuss Voigt Hill
#
# Bulk Modulus (GPa) = 22.91263 22.97875 22.94569
# Shear Modulus (GPa) = 0.56760 19.79114 10.17937
#
# Velocity S-wave (km/s) = 0.51365 3.03308 2.17525
# Velocity P-wave (km/s) = 3.31698 4.79035 4.12006
#
# Compressibility (1/GPa) = 0.04364405
#
# Stress axis : x y z
#
# Youngs Moduli (GPa) = 85.89544 80.27087 77.08600
#
# Poissons Ratio (x) = -0.17129 -0.02070
# Poissons Ratio (y) = -0.18329 -0.06810
# Poissons Ratio (z) = -0.02306 -0.07091
#
# Static dielectric constant tensor:
#      x y z
#    x 1.782400 0.000000 0.000000 
#    y 0.000000 1.826570 0.000000 
#    z 0.000000 0.000000 1.807970 
# 
# From -- ./inp_files/10009.got.cif
#   From: 2010.05.17/outbox.cif.g08.bks.cpg/sg38_6_cif.got.tgz:10009.got - 2010.06.03 18:07:57.
