data_PCOD9358230
_publ_section_title
;
Structure prediction by ZEFSAII (Michael W. Deem and Ramdas Pophale) SiO2 
 PCOD9358230
Probable space group: A M M 2
;
_chemical_formula_sum "Si O2"
_cell_formula_units_Z 64
_cell_length_a 19.178967
_cell_length_b 8.803153
_cell_length_c 20.367232
_cell_angle_alpha 90.000000
_cell_angle_beta 90.000000
_cell_angle_gamma 90.000000
_cell_volume 3438.709372
_symmetry_space_group_name_H-M "A M M 2"
_symmetry_group_IT_number 38
_symmetry_cell_setting 'orthorhombic'
loop_
_space_group_symop_operation_xyz
x,y,z
-x,-y,z
-x,y,z
x,-y,z
x,1/2+y,1/2+z
-x,1/2-y,1/2+z
-x,1/2+y,1/2+z
x,1/2-y,1/2+z
loop_
_atom_site_type_symbol
_atom_site_label
_atom_site_fract_x
_atom_site_fract_y
_atom_site_fract_z
Si Si1 0.081137 0.317149 0.484230
Si Si2 0.669789 0.821149 0.679290
Si Si3 0.335162 0.178916 0.424652
Si Si4 0.580553 0.185289 0.553652
Si Si5 0.082423 0.681039 0.124747
Si Si6 0.418071 0.325535 0.311938
Si Si7 0.812069 0.819520 0.228127
Si Si8 0.192348 0.818115 0.874364
O O1 0.085005 0.500000 0.491047
O O2 0.104140 0.243626 0.553122
O O3 0.129327 0.273133 0.422931
O O4 0.000000 0.275978 0.473162
O O5 0.624128 0.768265 0.617604
O O6 0.621966 0.810087 0.743647
O O7 0.740292 0.731494 0.693302
O O8 0.687293 0.000000 0.669588
O O9 0.375955 0.231248 0.489584
O O10 0.386386 0.210975 0.364093
O O11 0.263934 0.265206 0.408380
O O12 0.320266 0.000000 0.430755
O O13 0.500000 0.237522 0.553232
O O14 0.578005 0.000000 0.554058
O O15 0.091882 0.500000 0.126280
O O16 0.125914 0.755616 0.183111
O O17 0.000000 0.714710 0.131840
O O18 0.500000 0.303629 0.302766
O O19 0.406646 0.500000 0.335222
O O20 0.813138 0.752327 0.301809
O O21 0.815705 0.000000 0.231972
O O22 0.192435 0.000000 0.867481
#
# Coordination Sequence:
#
# PCOD9358230 Si02
#       8
#     8   8   8   8   8   8   8   8
#     4   9  20  40  65  93 124 157 195 243 298 352
#     4  10  20  37  60  85 115 155 199 246 296 355
#     4  11  22  36  56  85 119 156 195 245 300 356
#     4   9  19  36  58  85 115 150 195 245 299 357
#     4  10  22  41  66  94 124 160 201 242 289 351
#     4  10  20  35  58  84 112 152 199 246 298 357
#     4  12  25  40  60  89 124 161 202 250 300 354
#     4  11  23  40  61  87 121 162 204 249 300 358
#
# _framework density 18.611633999999999
#
# number of rings (size 3 to 8) (size 9 to 14) (size 15 to 20)
#    0.000    1.750    1.250    3.000    1.750    4.500 
#    0.000    1.875    0.000    2.625    0.000    0.000 
#    0.000    0.000    0.000    0.000    0.000    0.000 
#
# Total GULP energy -178753.143946 kJ/mol
# GULP energy per Si atom -5586.035748 kJ/mol
# Density = 1.856927 g / cm^3
# Si number density = 18.611634 Si / 1000 Ang^3
#
#
#
# Elastic Constant Matrix: (Units=GPa)
#
#
# Indices 1 2 3 4 5 6 
#
# 1 108.8273 49.4216 77.8454 0.0000 0.0000 0.0000
# 2 49.4216 49.8273 53.1100 0.0000 0.0000 0.0000
# 3 77.8454 53.1100 151.0598 0.0000 0.0000 0.0000
# 4 0.0000 0.0000 0.0000 12.0695 0.0000 0.0000
# 5 0.0000 0.0000 0.0000 0.0000 38.6872 0.0000
# 6 0.0000 0.0000 0.0000 0.0000 0.0000 21.2810
#
#
#
# Elastic Compliance Matrix: (Units=1/GPa)
#
#
# Indices 1 2 3 4 5 6 
#
# 1 0.018832 -0.013330 -0.005018 0.000000 0.000000 0.000000
# 2 -0.013330 0.041533 -0.007733 0.000000 0.000000 0.000000
# 3 -0.005018 -0.007733 0.011925 0.000000 0.000000 0.000000
# 4 0.000000 0.000000 0.000000 0.082853 0.000000 0.000000
# 5 0.000000 0.000000 0.000000 0.000000 0.025848 0.000000
# 6 0.000000 0.000000 0.000000 0.000000 0.000000 0.046990
#
#
# Mechanical properties :
#
#
# Convention : Reuss Voigt Hill
#
# Bulk Modulus (GPa) = 49.68279 74.49650 62.08964
# Shear Modulus (GPa) = 17.43055 23.03004 20.23029
#
# Velocity S-wave (km/s) = 3.06362 3.52149 3.30050
# Velocity P-wave (km/s) = 6.26632 7.52650 6.92513
#
# Compressibility (1/GPa) = 0.02012770
#
# Stress axis : x y z
#
# Youngs Moduli (GPa) = 53.10181 24.07716 83.85991
#
# Poissons Ratio (x) = 0.32094 0.42081
# Poissons Ratio (y) = 0.70784 0.64850
# Poissons Ratio (z) = 0.26647 0.18619
#
# Static dielectric constant tensor:
#      x y z
#    x 1.627620 0.000000 0.000000 
#    y 0.000000 1.633980 0.000000 
#    z 0.000000 0.000000 1.624440 
# 
# From -- ./inp_files/21386.got.cif
#   From: 2010.05.17/outbox.cif.g08.bks.cpg/sg38_11_cif.got.tgz:21386.got - 2010.06.03 18:07:57.
