data_PCOD9358994
_publ_section_title
;
Structure prediction by ZEFSAII (Michael W. Deem and Ramdas Pophale) SiO2 
 PCOD9358994
Probable space group: A M M 2
;
_chemical_formula_sum "Si O2"
_cell_formula_units_Z 64
_cell_length_a 8.937926
_cell_length_b 24.100620
_cell_length_c 15.693666
_cell_angle_alpha 90.000000
_cell_angle_beta 90.000000
_cell_angle_gamma 90.000000
_cell_volume 3380.565658
_symmetry_space_group_name_H-M "A M M 2"
_symmetry_group_IT_number 38
_symmetry_cell_setting 'orthorhombic'
loop_
_space_group_symop_operation_xyz
x,y,z
-x,-y,z
-x,y,z
x,-y,z
x,1/2+y,1/2+z
-x,1/2-y,1/2+z
-x,1/2+y,1/2+z
x,1/2-y,1/2+z
loop_
_atom_site_type_symbol
_atom_site_label
_atom_site_fract_x
_atom_site_fract_y
_atom_site_fract_z
Si Si1 0.820966 0.631119 0.687090
Si Si2 0.322491 0.869035 0.697707
Si Si3 0.175809 0.745057 0.247062
Si Si4 0.175703 0.246100 0.951845
Si Si5 0.679342 0.639055 0.005699
Si Si6 0.320147 0.064783 0.343129
Si Si7 0.175935 0.433933 0.352312
Si Si8 0.678120 0.131381 0.007509
O O1 0.783816 0.695586 0.707262
O O2 0.759863 0.594430 0.764429
O O3 0.746999 0.614499 0.598119
O O4 0.000000 0.626777 0.681969
O O5 0.500000 0.874576 0.711012
O O6 0.273485 0.805395 0.712565
O O7 0.286610 0.883402 0.599879
O O8 0.237151 0.906090 0.766399
O O9 0.192638 0.748260 0.349342
O O10 0.000000 0.734230 0.229055
O O11 0.237415 0.303079 0.990029
O O12 0.264353 0.193355 0.986785
O O13 0.000000 0.239506 0.971638
O O14 0.500000 0.648877 0.002153
O O15 0.718870 0.596768 0.930282
O O16 0.500000 0.069257 0.332101
O O17 0.281547 0.000000 0.347917
O O18 0.195089 0.500000 0.349969
O O19 0.261716 0.407394 0.431975
O O20 0.000000 0.420881 0.361078
O O21 0.500000 0.130148 0.010555
#
# Coordination Sequence:
#
# PCOD9358994 Si02
#       8
#     8   8   8   8   8   8   8   8
#     4  11  23  41  64  92 124 161 202 250 304 359
#     4  11  23  38  62  94 125 161 200 246 304 362
#     4  10  21  37  60  89 124 163 199 243 301 362
#     4  11  21  37  62  92 126 162 200 246 302 363
#     4  10  22  39  61  92 127 162 203 250 302 361
#     4  10  22  41  63  87 120 163 208 255 303 354
#     4  11  25  45  66  88 118 159 206 255 304 356
#     4  12  25  41  64  94 124 159 200 247 304 366
#
# _framework density 18.931742
#
# number of rings (size 3 to 8) (size 9 to 14) (size 15 to 20)
#    0.000    1.250    2.500    3.375    0.000    6.750 
#    0.000    1.250    0.000    0.000    0.000    0.000 
#    0.000    0.000    0.000    0.000    0.000    0.000 
#
# Total GULP energy -178992.975253 kJ/mol
# GULP energy per Si atom -5593.530477 kJ/mol
# Density = 1.888865 g / cm^3
# Si number density = 18.931742 Si / 1000 Ang^3
#
#
#
# Elastic Constant Matrix: (Units=GPa)
#
#
# Indices 1 2 3 4 5 6 
#
# 1 86.4917 64.6483 77.2142 0.0000 0.0000 0.0000
# 2 64.6483 99.4841 65.7171 0.0000 0.0000 0.0000
# 3 77.2142 65.7171 161.9062 0.0000 0.0000 0.0000
# 4 0.0000 0.0000 0.0000 -7.3634 0.0000 0.0000
# 5 0.0000 0.0000 0.0000 0.0000 -17.2863 0.0000
# 6 0.0000 0.0000 0.0000 0.0000 0.0000 27.9504
#
#
#
# Elastic Compliance Matrix: (Units=1/GPa)
#
#
# Indices 1 2 3 4 5 6 
#
# 1 0.029044 -0.013286 -0.008458 0.000000 0.000000 0.000000
# 2 -0.013286 0.019812 -0.001705 0.000000 0.000000 0.000000
# 3 -0.008458 -0.001705 0.010902 0.000000 0.000000 0.000000
# 4 0.000000 0.000000 0.000000 -0.135807 0.000000 0.000000
# 5 0.000000 0.000000 0.000000 0.000000 -0.057849 0.000000
# 6 0.000000 0.000000 0.000000 0.000000 0.000000 0.035778
#
#
# Mechanical properties :
#
#
# Convention : Reuss Voigt Hill
#
# Bulk Modulus (GPa) = 77.76962 84.78236 81.27599
# Shear Modulus (GPa) = -106.53323 10.01361 -48.25981
#
# Velocity S-wave (km/s) = -7.50962 2.30235 -5.05439
# Velocity P-wave (km/s) = 5.83305 7.20751 2.99363
#
# Compressibility (1/GPa) = 0.01285849
#
# Stress axis : x y z
#
# Youngs Moduli (GPa) = 34.43102 50.47368 91.72243
#
# Poissons Ratio (x) = 0.67060 0.77581
# Poissons Ratio (y) = 0.45746 0.15643
# Poissons Ratio (z) = 0.29123 0.08608
#
# Static dielectric constant tensor:
#      x y z
#    x 1.631470 0.000000 0.000000 
#    y 0.000000 1.620250 0.000000 
#    z 0.000000 0.000000 1.649720 
# 
# From -- ./inp_files/12761.got.cif
#   From: 2010.05.17/outbox.cif.g08.bks.cpg/sg38_7_cif.got.tgz:12761.got - 2010.06.03 18:07:57.
