data_PCOD9358147
_publ_section_title
;
Structure prediction by ZEFSAII (Michael W. Deem and Ramdas Pophale) SiO2 
 PCOD9358147
Probable space group: A M M 2
;
_chemical_formula_sum "Si O2"
_cell_formula_units_Z 64
_cell_length_a 8.895574
_cell_length_b 32.849401
_cell_length_c 12.070753
_cell_angle_alpha 90.000000
_cell_angle_beta 90.000000
_cell_angle_gamma 90.000000
_cell_volume 3527.246366
_symmetry_space_group_name_H-M "A M M 2"
_symmetry_group_IT_number 38
_symmetry_cell_setting 'orthorhombic'
loop_
_space_group_symop_operation_xyz
x,y,z
-x,-y,z
-x,y,z
x,-y,z
x,1/2+y,1/2+z
-x,1/2-y,1/2+z
-x,1/2+y,1/2+z
x,1/2-y,1/2+z
loop_
_atom_site_type_symbol
_atom_site_label
_atom_site_fract_x
_atom_site_fract_y
_atom_site_fract_z
Si Si1 0.817438 0.851009 0.125000
Si Si2 0.320273 0.047661 0.488627
Si Si3 0.678588 0.276818 0.492030
Si Si4 0.819884 0.622754 0.873246
Si Si5 0.829029 0.816497 0.788268
Si Si6 0.828829 0.599202 0.423795
Si Si7 0.321568 0.183028 0.552826
Si Si8 0.823898 0.451387 0.223471
O O1 0.751158 0.808860 0.078134
O O2 0.778142 0.861266 0.250909
O O3 0.000000 0.848809 0.115456
O O4 0.763961 0.887109 0.041800
O O5 0.500000 0.050759 0.485282
O O6 0.247382 0.078556 0.401796
O O7 0.261949 0.059975 0.611233
O O8 0.278752 0.000000 0.471558
O O9 0.500000 0.283779 0.489126
O O10 0.747387 0.285552 0.371124
O O11 0.706990 0.230361 0.524918
O O12 0.000000 0.620793 0.879598
O O13 0.758016 0.653915 0.964763
O O14 0.834641 0.858607 0.855974
O O15 0.741774 0.823748 0.675294
O O16 0.000000 0.803392 0.765504
O O17 0.759499 0.567906 0.336273
O O18 0.000000 0.584659 0.444786
O O19 0.500000 0.175731 0.549436
O O20 0.820238 0.500000 0.232141
O O21 0.000000 0.438583 0.212535
#
# Coordination Sequence:
#
# PCOD9358147 Si02
#       8
#     8   8   8   8   8   8   8   8
#     4   9  20  38  57  78 108 148 193 237 282 338
#     4  10  21  37  57  82 115 153 189 233 291 348
#     4  10  22  38  56  79 110 147 185 230 287 342
#     4  11  23  38  58  85 113 149 195 241 290 345
#     4  10  20  35  56  78 104 140 183 229 275 329
#     4   8  15  31  52  75 104 135 171 218 270 324
#     4  11  24  38  55  81 113 146 184 233 287 345
#     4   9  16  28  52  83 111 140 177 225 280 339
#
# _framework density 18.144466000000001
#
# number of rings (size 3 to 8) (size 9 to 14) (size 15 to 20)
#    0.000    2.250    0.000    3.375    1.750    4.750 
#    0.000    3.125    0.000    2.250    0.000    1.750 
#    0.000    0.000    0.000    0.000    0.000    0.000 
#
# Total GULP energy -178521.410829 kJ/mol
# GULP energy per Si atom -5578.794088 kJ/mol
# Density = 1.810317 g / cm^3
# Si number density = 18.144466 Si / 1000 Ang^3
#
#
#
# Elastic Constant Matrix: (Units=GPa)
#
#
# Indices 1 2 3 4 5 6 
#
# 1 48.6403 38.6382 43.9414 0.0000 0.0000 0.0000
# 2 38.6382 59.3634 50.2788 0.0000 0.0000 0.0000
# 3 43.9414 50.2788 141.9606 0.0000 0.0000 0.0000
# 4 0.0000 0.0000 0.0000 15.1128 0.0000 0.0000
# 5 0.0000 0.0000 0.0000 0.0000 14.6809 0.0000
# 6 0.0000 0.0000 0.0000 0.0000 0.0000 26.9613
#
#
#
# Elastic Compliance Matrix: (Units=1/GPa)
#
#
# Indices 1 2 3 4 5 6 
#
# 1 0.044993 -0.024984 -0.005078 0.000000 0.000000 0.000000
# 2 -0.024984 0.037937 -0.005703 0.000000 0.000000 0.000000
# 3 -0.005078 -0.005703 0.010636 0.000000 0.000000 0.000000
# 4 0.000000 0.000000 0.000000 0.066169 0.000000 0.000000
# 5 0.000000 0.000000 0.000000 0.000000 0.068116 0.000000
# 6 0.000000 0.000000 0.000000 0.000000 0.000000 0.037090
#
#
# Mechanical properties :
#
#
# Convention : Reuss Voigt Hill
#
# Bulk Modulus (GPa) = 45.38041 57.29791 51.33916
# Shear Modulus (GPa) = 14.54262 19.15805 16.85034
#
# Velocity S-wave (km/s) = 2.83413 3.25293 3.05073
# Velocity P-wave (km/s) = 5.98119 6.76432 6.38477
#
# Compressibility (1/GPa) = 0.02203594
#
# Stress axis : x y z
#
# Youngs Moduli (GPa) = 22.22562 26.35939 94.02095
#
# Poissons Ratio (x) = 0.65856 0.47745
# Poissons Ratio (y) = 0.55528 0.53620
# Poissons Ratio (z) = 0.11287 0.15033
#
# Static dielectric constant tensor:
#      x y z
#    x 1.623710 0.000000 0.000000 
#    y 0.000000 1.624220 0.000000 
#    z 0.000000 0.000000 1.619480 
# 
# From -- ./inp_files/8568.got.cif
#   From: 2010.05.17/outbox.cif.g08.bks.cpg/sg38_5_cif.got.tgz:8568.got - 2010.06.03 18:07:57.
