data_PCOD9358729
_publ_section_title
;
Structure prediction by ZEFSAII (Michael W. Deem and Ramdas Pophale) SiO2 
 PCOD9358729
Probable space group: A M M 2
;
_chemical_formula_sum "Si O2"
_cell_formula_units_Z 48
_cell_length_a 18.367335
_cell_length_b 7.701260
_cell_length_c 15.836325
_cell_angle_alpha 90.000000
_cell_angle_beta 90.000000
_cell_angle_gamma 90.000000
_cell_volume 2240.073863
_symmetry_space_group_name_H-M "A M M 2"
_symmetry_group_IT_number 38
_symmetry_cell_setting 'orthorhombic'
loop_
_space_group_symop_operation_xyz
x,y,z
-x,-y,z
-x,y,z
x,-y,z
x,1/2+y,1/2+z
-x,1/2-y,1/2+z
-x,1/2+y,1/2+z
x,1/2-y,1/2+z
loop_
_atom_site_type_symbol
_atom_site_label
_atom_site_fract_x
_atom_site_fract_y
_atom_site_fract_z
Si Si1 0.500000 0.785175 0.550451
Si Si2 0.187909 0.709507 0.298644
Si Si3 0.343275 0.303913 0.101749
Si Si4 0.500000 0.699916 0.863600
Si Si5 0.343896 0.193026 0.803025
Si Si6 0.185470 0.713486 0.103791
Si Si7 0.082620 0.208769 0.452255
O O1 0.422502 0.724902 0.586581
O O2 0.500000 0.717510 0.455247
O O3 0.500000 0.000000 0.561994
O O4 0.195086 0.500000 0.294723
O O5 0.267437 0.778935 0.329324
O O6 0.172334 0.766651 0.201684
O O7 0.126952 0.751112 0.367053
O O8 0.345946 0.500000 0.064795
O O9 0.335548 0.317505 0.202337
O O10 0.266183 0.225123 0.074746
O O11 0.500000 0.500000 0.883617
O O12 0.576040 0.734797 0.818465
O O13 0.345999 0.000000 0.840627
O O14 0.187542 0.500000 0.103972
O O15 0.126264 0.770259 0.035380
O O16 0.000000 0.275114 0.449062
O O17 0.079565 0.000000 0.458926
#
# Coordination Sequence:
#
# PCOD9358729 Si02
#       7
#     4   8   8   4   8   8   8
#     4   9  17  25  39  71 102 123 160 206 248 291
#     4   9  19  36  58  83 106 138 183 225 266 316
#     4   8  14  28  50  71  90 124 173 216 248 291
#     4  11  22  29  43  77 110 135 168 210 258 307
#     4   9  18  34  54  72  96 134 176 215 257 304
#     4   8  16  32  54  77 103 137 180 222 261 311
#     4  10  21  35  54  82 112 141 172 215 275 331
#
# _framework density 21.427866000000002
#
# number of rings (size 3 to 8) (size 9 to 14) (size 15 to 20)
#    0.000    3.000    0.000    2.750    2.333    3.000 
#    0.000    2.500    0.000    5.000    0.000    0.000 
#    0.000    0.000    0.000    0.000    0.000    0.000 
#
# Total GULP energy -133640.042701 kJ/mol
# GULP energy per Si atom -5568.335113 kJ/mol
# Density = 2.137910 g / cm^3
# Si number density = 21.427866 Si / 1000 Ang^3
#
#
#
# Elastic Constant Matrix: (Units=GPa)
#
#
# Indices 1 2 3 4 5 6 
#
# 1 248.0760 8.4177 94.6299 0.0000 0.0000 0.0000
# 2 8.4177 29.2231 0.1038 0.0000 0.0000 0.0000
# 3 94.6299 0.1038 88.7598 0.0000 0.0000 0.0000
# 4 0.0000 0.0000 0.0000 6.1205 0.0000 0.0000
# 5 0.0000 0.0000 0.0000 0.0000 31.7387 0.0000
# 6 0.0000 0.0000 0.0000 0.0000 0.0000 6.1668
#
#
#
# Elastic Compliance Matrix: (Units=1/GPa)
#
#
# Indices 1 2 3 4 5 6 
#
# 1 0.006905 -0.001963 -0.007359 0.000000 0.000000 0.000000
# 2 -0.001963 0.034778 0.002052 0.000000 0.000000 0.000000
# 3 -0.007359 0.002052 0.019110 0.000000 0.000000 0.000000
# 4 0.000000 0.000000 0.000000 0.163386 0.000000 0.000000
# 5 0.000000 0.000000 0.000000 0.000000 0.031507 0.000000
# 6 0.000000 0.000000 0.000000 0.000000 0.000000 0.162158
#
#
# Mechanical properties :
#
#
# Convention : Reuss Voigt Hill
#
# Bulk Modulus (GPa) = 21.62058 63.59572 42.60815
# Shear Modulus (GPa) = 11.16567 26.33238 18.74903
#
# Velocity S-wave (km/s) = 2.28520 3.50935 2.96122
# Velocity P-wave (km/s) = 4.13215 6.79442 5.62311
#
# Compressibility (1/GPa) = 0.04625224
#
# Stress axis : x y z
#
# Youngs Moduli (GPa) = 144.82644 28.75412 52.32908
#
# Poissons Ratio (x) = 0.05644 0.38510
# Poissons Ratio (y) = 0.28426 -0.10738
# Poissons Ratio (z) = 1.06580 -0.05900
#
# Static dielectric constant tensor:
#      x y z
#    x 1.903820 0.000000 0.000000 
#    y 0.000000 1.860680 0.000000 
#    z 0.000000 0.000000 1.761150 
# 
# From -- ./inp_files/15027.got.cif
#   From: 2010.05.17/outbox.cif.g08.bks.cpg/sg38_8_cif.got.tgz:15027.got - 2010.06.03 18:07:57.
