data_PCOD9358678
_publ_section_title
;
Structure prediction by ZEFSAII (Michael W. Deem and Ramdas Pophale) SiO2 
 PCOD9358678
Probable space group: A M M 2
;
_chemical_formula_sum "Si O2"
_cell_formula_units_Z 48
_cell_length_a 7.565748
_cell_length_b 17.169487
_cell_length_c 19.257190
_cell_angle_alpha 90.000000
_cell_angle_beta 90.000000
_cell_angle_gamma 90.000000
_cell_volume 2501.509211
_symmetry_space_group_name_H-M "A M M 2"
_symmetry_group_IT_number 38
_symmetry_cell_setting 'orthorhombic'
loop_
_space_group_symop_operation_xyz
x,y,z
-x,-y,z
-x,y,z
x,-y,z
x,1/2+y,1/2+z
-x,1/2-y,1/2+z
-x,1/2+y,1/2+z
x,1/2-y,1/2+z
loop_
_atom_site_type_symbol
_atom_site_label
_atom_site_fract_x
_atom_site_fract_y
_atom_site_fract_z
Si Si1 0.715349 0.500000 0.093431
Si Si2 0.290174 0.240428 0.141236
Si Si3 0.287805 0.682379 0.861180
Si Si4 0.716585 0.658046 0.016876
Si Si5 0.715770 0.500000 0.254327
Si Si6 0.209481 0.587188 0.722983
Si Si7 0.283507 0.670040 0.278302
O O1 0.500000 0.500000 0.094177
O O2 0.770757 0.577903 0.053809
O O3 0.770087 0.500000 0.173572
O O4 0.500000 0.252437 0.139676
O O5 0.225312 0.270959 0.066925
O O6 0.263403 0.152147 0.166526
O O7 0.224347 0.296088 0.203609
O O8 0.500000 0.686405 0.865542
O O9 0.250241 0.621446 0.799485
O O10 0.224945 0.766744 0.834543
O O11 0.220892 0.662470 0.937644
O O12 0.500000 0.658003 0.014650
O O13 0.500000 0.500000 0.255230
O O14 0.773642 0.418664 0.287530
O O15 0.283672 0.500000 0.714008
O O16 0.000000 0.582184 0.718006
O O17 0.500000 0.670552 0.277852
#
# Coordination Sequence:
#
# PCOD9358678 Si02
#       7
#     4   8   8   8   4   8   8
#     4   9  14  20  36  66  98 123 144 175 225 278
#     4   9  16  29  49  70  92 119 154 197 240 280
#     4   9  18  30  47  71  99 126 153 189 238 289
#     4   9  16  26  43  71 103 125 149 188 234 287
#     4   9  12  18  36  60  88 117 146 179 221 268
#     4  10  21  35  49  67  92 124 166 208 239 276
#     4   8  13  22  37  61  89 118 148 180 219 267
#
# _framework density 19.188414999999999
#
# number of rings (size 3 to 8) (size 9 to 14) (size 15 to 20)
#    0.000    3.000    1.667    1.500    1.167    1.333 
#    0.000    0.833    1.833    0.000    0.000   14.000 
#    0.000    0.000    0.000    0.000    0.000    0.000 
#
# Total GULP energy -133770.199372 kJ/mol
# GULP energy per Si atom -5573.758307 kJ/mol
# Density = 1.914474 g / cm^3
# Si number density = 19.188415 Si / 1000 Ang^3
#
#
#
# Elastic Constant Matrix: (Units=GPa)
#
#
# Indices 1 2 3 4 5 6 
#
# 1 39.1379 -8.6681 -1.5518 0.0000 0.0000 0.0000
# 2 -8.6681 146.0150 37.8525 0.0000 0.0000 0.0000
# 3 -1.5518 37.8525 77.0895 0.0000 0.0000 0.0000
# 4 0.0000 0.0000 0.0000 21.0822 0.0000 0.0000
# 5 0.0000 0.0000 0.0000 0.0000 -17.5359 0.0000
# 6 0.0000 0.0000 0.0000 0.0000 0.0000 134.9430
#
#
#
# Elastic Compliance Matrix: (Units=1/GPa)
#
#
# Indices 1 2 3 4 5 6 
#
# 1 0.025896 0.001607 -0.000268 0.000000 0.000000 0.000000
# 2 0.001607 0.007947 -0.003870 0.000000 0.000000 0.000000
# 3 -0.000268 -0.003870 0.014867 0.000000 0.000000 0.000000
# 4 0.000000 0.000000 0.000000 0.047433 0.000000 0.000000
# 5 0.000000 0.000000 0.000000 0.000000 -0.057026 0.000000
# 6 0.000000 0.000000 0.000000 0.000000 0.000000 0.007411
#
#
# Mechanical properties :
#
#
# Convention : Reuss Voigt Hill
#
# Bulk Modulus (GPa) = 22.91046 35.27860 29.09453
# Shear Modulus (GPa) = 75.59814 43.33849 59.46832
#
# Velocity S-wave (km/s) = 6.28358 4.75760 5.57307
# Velocity P-wave (km/s) = 8.03804 6.97173 7.52380
#
# Compressibility (1/GPa) = 0.04364818
#
# Stress axis : x y z
#
# Youngs Moduli (GPa) = 38.61614 125.83026 67.26421
#
# Poissons Ratio (x) = -0.20217 0.01800
# Poissons Ratio (y) = -0.06204 0.26031
# Poissons Ratio (z) = 0.01033 0.48695
#
# Static dielectric constant tensor:
#      x y z
#    x 1.731020 0.000000 0.000000 
#    y 0.000000 1.664610 0.000000 
#    z 0.000000 0.000000 1.663280 
# 
# From -- ./inp_files/19936.got.cif
#   From: 2010.05.17/outbox.cif.g08.bks.cpg/sg38_10_cif.got.tgz:19936.got - 2010.06.03 18:07:57.
