data_PCOD9358950
_publ_section_title
;
Structure prediction by ZEFSAII (Michael W. Deem and Ramdas Pophale) SiO2 
 PCOD9358950
Probable space group: A M M 2
;
_chemical_formula_sum "Si O2"
_cell_formula_units_Z 64
_cell_length_a 8.986521
_cell_length_b 14.293842
_cell_length_c 24.702598
_cell_angle_alpha 90.000000
_cell_angle_beta 90.000000
_cell_angle_gamma 90.000000
_cell_volume 3173.095927
_symmetry_space_group_name_H-M "A M M 2"
_symmetry_group_IT_number 38
_symmetry_cell_setting 'orthorhombic'
loop_
_space_group_symop_operation_xyz
x,y,z
-x,-y,z
-x,y,z
x,-y,z
x,1/2+y,1/2+z
-x,1/2-y,1/2+z
-x,1/2+y,1/2+z
x,1/2-y,1/2+z
loop_
_atom_site_type_symbol
_atom_site_label
_atom_site_fract_x
_atom_site_fract_y
_atom_site_fract_z
Si Si1 0.318820 0.605584 0.322280
Si Si2 0.821966 0.278625 0.987328
Si Si3 0.677622 0.208475 0.376931
Si Si4 0.828484 0.886100 0.153901
Si Si5 0.676397 0.389662 0.541387
Si Si6 0.824144 0.387470 0.774262
Si Si7 0.821822 0.891060 0.593696
Si Si8 0.328989 0.385655 0.203071
O O1 0.500000 0.602928 0.318879
O O2 0.268174 0.500000 0.333479
O O3 0.280103 0.683174 0.365717
O O4 0.266895 0.637607 0.262472
O O5 0.754889 0.320414 0.932517
O O6 0.000000 0.278773 0.984524
O O7 0.760532 0.174941 0.998667
O O8 0.773401 0.336956 0.040220
O O9 0.500000 0.201048 0.381450
O O10 0.733727 0.154319 0.323996
O O11 0.731755 0.862107 0.101679
O O12 0.775791 0.856074 0.213708
O O13 0.000000 0.855130 0.145782
O O14 0.831403 0.000000 0.155805
O O15 0.500000 0.375937 0.536748
O O16 0.708305 0.500000 0.534103
O O17 0.811020 0.500000 0.776065
O O18 0.000000 0.364923 0.779412
O O19 0.758461 0.853714 0.650319
O O20 0.000000 0.886738 0.596361
O O21 0.778072 0.000000 0.588996
O O22 0.500000 0.354702 0.199198
O O23 0.328915 0.500000 0.202911
#
# Coordination Sequence:
#
# PCOD9358950 Si02
#       8
#     8   8   8   8   8   8   8   8
#     4   8  16  33  55  78 107 141 171 205 260 325
#     4  11  24  40  56  76 106 147 191 229 270 327
#     4  11  23  37  55  81 109 140 185 236 278 319
#     4   8  15  31  56  84 112 143 180 220 268 332
#     4  10  21  37  58  84 113 144 179 226 282 331
#     4   9  19  37  59  81 110 149 185 220 271 333
#     4   9  19  36  56  78 105 137 173 216 266 316
#     4   8  14  28  53  82 108 135 168 206 255 319
#
# _framework density 20.169574999999998
#
# number of rings (size 3 to 8) (size 9 to 14) (size 15 to 20)
#    0.000    2.750    0.000    2.625    0.000    4.500 
#    0.000    7.500    0.000    2.625    0.000    0.000 
#    0.000    0.000    0.000    0.000    0.000    0.000 
#
# Total GULP energy -178613.280776 kJ/mol
# GULP energy per Si atom -5581.665024 kJ/mol
# Density = 2.012367 g / cm^3
# Si number density = 20.169575 Si / 1000 Ang^3
#
#
#
# Elastic Constant Matrix: (Units=GPa)
#
#
# Indices 1 2 3 4 5 6 
#
# 1 32.4732 11.2040 25.9521 0.0000 0.0000 0.0000
# 2 11.2040 31.6876 10.2524 0.0000 0.0000 0.0000
# 3 25.9521 10.2524 94.2046 0.0000 0.0000 0.0000
# 4 0.0000 0.0000 0.0000 26.8509 0.0000 0.0000
# 5 0.0000 0.0000 0.0000 0.0000 27.1286 0.0000
# 6 0.0000 0.0000 0.0000 0.0000 0.0000 20.1521
#
#
#
# Elastic Compliance Matrix: (Units=1/GPa)
#
#
# Indices 1 2 3 4 5 6 
#
# 1 0.043428 -0.011903 -0.010668 0.000000 0.000000 0.000000
# 2 -0.011903 0.035972 -0.000636 0.000000 0.000000 0.000000
# 3 -0.010668 -0.000636 0.013623 0.000000 0.000000 0.000000
# 4 0.000000 0.000000 0.000000 0.037243 0.000000 0.000000
# 5 0.000000 0.000000 0.000000 0.000000 0.036861 0.000000
# 6 0.000000 0.000000 0.000000 0.000000 0.000000 0.049623
#
#
# Mechanical properties :
#
#
# Convention : Reuss Voigt Hill
#
# Bulk Modulus (GPa) = 21.45519 28.13140 24.79330
# Shear Modulus (GPa) = 17.94038 22.22345 20.08192
#
# Velocity S-wave (km/s) = 2.98565 3.32298 3.15882
# Velocity P-wave (km/s) = 4.74826 5.35730 5.06195
#
# Compressibility (1/GPa) = 0.04660876
#
# Stress axis : x y z
#
# Youngs Moduli (GPa) = 23.02687 27.79905 73.40341
#
# Poissons Ratio (x) = 0.33090 0.78309
# Poissons Ratio (y) = 0.27410 0.04667
# Poissons Ratio (z) = 0.24566 0.01767
#
# Static dielectric constant tensor:
#      x y z
#    x 1.673310 0.000000 0.000000 
#    y 0.000000 1.756960 0.000000 
#    z 0.000000 0.000000 1.704940 
# 
# From -- ./inp_files/22159.got.cif
#   From: 2010.05.17/outbox.cif.g08.bks.cpg/sg38_12_cif.got.tgz:22159.got - 2010.06.03 18:07:57.
