data_PCOD9358550
_publ_section_title
;
Structure prediction by ZEFSAII (Michael W. Deem and Ramdas Pophale) SiO2 
 PCOD9358550
Probable space group: A M M 2
;
_chemical_formula_sum "Si O2"
_cell_formula_units_Z 38
_cell_length_a 7.453031
_cell_length_b 25.085673
_cell_length_c 10.357240
_cell_angle_alpha 90.000000
_cell_angle_beta 90.000000
_cell_angle_gamma 90.000000
_cell_volume 1936.434111
_symmetry_space_group_name_H-M "A M M 2"
_symmetry_group_IT_number 38
_symmetry_cell_setting 'orthorhombic'
loop_
_space_group_symop_operation_xyz
x,y,z
-x,-y,z
-x,y,z
x,-y,z
x,1/2+y,1/2+z
-x,1/2-y,1/2+z
-x,1/2+y,1/2+z
x,1/2-y,1/2+z
loop_
_atom_site_type_symbol
_atom_site_label
_atom_site_fract_x
_atom_site_fract_y
_atom_site_fract_z
Si Si1 0.293471 0.000000 0.495800
Si Si2 0.286701 0.596563 0.801504
Si Si3 0.000000 0.000000 0.707974
Si Si4 0.000000 0.115222 0.825010
Si Si5 0.282486 0.802289 0.724021
Si Si6 0.716935 0.708966 0.924567
Si Si7 0.000000 0.435873 0.593303
O O1 0.258206 0.948089 0.410034
O O2 0.172090 0.000000 0.618384
O O3 0.500000 0.000000 0.532587
O O4 0.500000 0.599188 0.772857
O O5 0.227198 0.653172 0.859969
O O6 0.173473 0.577588 0.679780
O O7 0.000000 0.945652 0.783550
O O8 0.172761 0.145970 0.768755
O O9 0.000000 0.107282 0.978351
O O10 0.500000 0.809580 0.727225
O O11 0.232103 0.756734 0.828351
O O12 0.230789 0.787554 0.575746
O O13 0.500000 0.708605 0.926265
O O14 0.000000 0.500000 0.562579
#
# Coordination Sequence:
#
# PCOD9358550 Si02
#       7
#     4   8   2   4   8   8   4
#     4  10  20  37  67  97 119 158 209 258 322 384
#     4  10  21  39  66  96 125 160 207 261 315 378
#     4  12  24  42  60  86 126 166 204 268 318 368
#     4  12  28  42  62  88 127 171 214 257 318 380
#     4  10  23  44  66  95 130 166 209 262 317 379
#     4   9  20  40  68  97 128 164 208 260 317 376
#     4  12  25  43  61  91 128 166 212 263 312 377
#
# _framework density 19.623697
#
# number of rings (size 3 to 8) (size 9 to 14) (size 15 to 20)
#    0.000    1.684    1.579    1.895    2.947    5.895 
#    0.000    0.000    0.000    0.000    0.000    0.000 
#    0.000    0.000    0.000    0.000    0.000    0.000 
#
# Total GULP energy -106098.955027 kJ/mol
# GULP energy per Si atom -5584.155528 kJ/mol
# Density = 1.957903 g / cm^3
# Si number density = 19.623697 Si / 1000 Ang^3
#
#
#
# Elastic Constant Matrix: (Units=GPa)
#
#
# Indices 1 2 3 4 5 6 
#
# 1 32.3901 41.5164 29.4281 0.0000 0.0000 0.0000
# 2 41.5164 150.2008 55.7248 0.0000 0.0000 0.0000
# 3 29.4281 55.7248 106.9213 0.0000 0.0000 0.0000
# 4 0.0000 0.0000 0.0000 34.2010 0.0000 0.0000
# 5 0.0000 0.0000 0.0000 0.0000 7.2109 0.0000
# 6 0.0000 0.0000 0.0000 0.0000 0.0000 48.5351
#
#
#
# Elastic Compliance Matrix: (Units=1/GPa)
#
#
# Indices 1 2 3 4 5 6 
#
# 1 0.053666 -0.011596 -0.008727 0.000000 0.000000 0.000000
# 2 -0.011596 0.010759 -0.002416 0.000000 0.000000 0.000000
# 3 -0.008727 -0.002416 0.013014 0.000000 0.000000 0.000000
# 4 0.000000 0.000000 0.000000 0.029239 0.000000 0.000000
# 5 0.000000 0.000000 0.000000 0.000000 0.138678 0.000000
# 6 0.000000 0.000000 0.000000 0.000000 0.000000 0.020604
#
#
# Mechanical properties :
#
#
# Convention : Reuss Voigt Hill
#
# Bulk Modulus (GPa) = 31.28796 60.31674 45.80235
# Shear Modulus (GPa) = 15.52358 28.84560 22.18459
#
# Velocity S-wave (km/s) = 2.81564 3.83814 3.36594
# Velocity P-wave (km/s) = 5.15257 7.10247 6.20460
#
# Compressibility (1/GPa) = 0.03196117
#
# Stress axis : x y z
#
# Youngs Moduli (GPa) = 18.63387 92.94379 76.84173
#
# Poissons Ratio (x) = 1.07775 0.67060
# Poissons Ratio (y) = 0.21607 0.18564
# Poissons Ratio (z) = 0.16262 0.22454
#
# Static dielectric constant tensor:
#      x y z
#    x 1.694940 0.000000 0.000000 
#    y 0.000000 1.670810 0.000000 
#    z 0.000000 0.000000 1.663890 
# 
# From -- ./inp_files/3356.got.cif
#   From: 2010.05.17/outbox.cif.g08.bks.cpg/sg38_2_cif.got.tgz:3356.got - 2010.06.03 18:07:57.
