data_PCOD9358274
_publ_section_title
;
Structure prediction by ZEFSAII (Michael W. Deem and Ramdas Pophale) SiO2 
 PCOD9358274
Probable space group: A M M 2
;
_chemical_formula_sum "Si O2"
_cell_formula_units_Z 32
_cell_length_a 8.176351
_cell_length_b 7.875777
_cell_length_c 25.116943
_cell_angle_alpha 90.000000
_cell_angle_beta 90.000000
_cell_angle_gamma 90.000000
_cell_volume 1617.408487
_symmetry_space_group_name_H-M "A M M 2"
_symmetry_group_IT_number 38
_symmetry_cell_setting 'orthorhombic'
loop_
_space_group_symop_operation_xyz
x,y,z
-x,-y,z
-x,y,z
x,-y,z
x,1/2+y,1/2+z
-x,1/2-y,1/2+z
-x,1/2+y,1/2+z
x,1/2-y,1/2+z
loop_
_atom_site_type_symbol
_atom_site_label
_atom_site_fract_x
_atom_site_fract_y
_atom_site_fract_z
Si Si1 0.801932 0.304624 0.357670
Si Si2 0.695534 0.000000 0.282805
Si Si3 0.802136 0.187316 0.590037
Si Si4 0.807474 0.795696 0.975454
Si Si5 0.305143 0.500000 0.661922
O O1 0.749815 0.500000 0.347081
O O2 0.750497 0.167576 0.314506
O O3 0.740685 0.252853 0.416976
O O4 0.000000 0.306987 0.360034
O O5 0.759866 0.000000 0.222278
O O6 0.500000 0.000000 0.281218
O O7 0.739041 0.218436 0.529728
O O8 0.748353 0.335100 0.629124
O O9 0.000000 0.193471 0.587623
O O10 0.752346 0.000000 0.608165
O O11 0.000000 0.748616 0.974237
O O12 0.798582 0.000000 0.980306
O O13 0.500000 0.500000 0.664559
#
# Coordination Sequence:
#
# PCOD9358274 Si02
#       5
#     8   4   8   8   4
#     4   9  19  36  61  90 115 145 187 237 288 339
#     4  11  25  41  57  79 113 161 202 233 280 339
#     4  10  20  35  61  91 114 144 188 239 290 340
#     4   8  14  29  56  87 118 145 174 223 287 344
#     4  11  25  43  57  75 115 163 200 235 280 337
#
# _framework density 19.784738000000001
#
# number of rings (size 3 to 8) (size 9 to 14) (size 15 to 20)
#    0.000    2.500    1.250    2.250    1.750    4.000 
#    0.000    6.250    0.000    0.000    0.000    0.000 
#    0.000    0.000    0.000    0.000    0.000    0.000 
#
# Total GULP energy -89259.811648 kJ/mol
# GULP energy per Si atom -5578.738228 kJ/mol
# Density = 1.973971 g / cm^3
# Si number density = 19.784738 Si / 1000 Ang^3
#
#
#
# Elastic Constant Matrix: (Units=GPa)
#
#
# Indices 1 2 3 4 5 6 
#
# 1 15.7475 20.1926 19.1056 0.0000 0.0000 0.0000
# 2 20.1926 153.4351 125.6567 0.0000 0.0000 0.0000
# 3 19.1056 125.6567 190.2556 0.0000 0.0000 0.0000
# 4 0.0000 0.0000 0.0000 -7.3682 0.0000 0.0000
# 5 0.0000 0.0000 0.0000 0.0000 41.0503 0.0000
# 6 0.0000 0.0000 0.0000 0.0000 0.0000 -25.7505
#
#
#
# Elastic Compliance Matrix: (Units=1/GPa)
#
#
# Indices 1 2 3 4 5 6 
#
# 1 0.076837 -0.008261 -0.002260 0.000000 0.000000 0.000000
# 2 -0.008261 0.015084 -0.009133 0.000000 0.000000 0.000000
# 3 -0.002260 -0.009133 0.011515 0.000000 0.000000 0.000000
# 4 0.000000 0.000000 0.000000 -0.135719 0.000000 0.000000
# 5 0.000000 0.000000 0.000000 0.000000 0.024360 0.000000
# 6 0.000000 0.000000 0.000000 0.000000 0.000000 -0.038834
#
#
# Mechanical properties :
#
#
# Convention : Reuss Voigt Hill
#
# Bulk Modulus (GPa) = 15.59379 76.59422 46.09401
# Shear Modulus (GPa) = 359.00990 14.55189 186.78089
#
# Velocity S-wave (km/s) = 13.48525 2.71497 9.72684
# Velocity P-wave (km/s) = 15.82302 6.97323 12.22690
#
# Compressibility (1/GPa) = 0.06412809
#
# Stress axis : x y z
#
# Youngs Moduli (GPa) = 13.01456 66.29521 86.84401
#
# Poissons Ratio (x) = 0.54769 0.19624
# Poissons Ratio (y) = 0.10752 0.79313
# Poissons Ratio (z) = 0.02941 0.60546
#
# Static dielectric constant tensor:
#      x y z
#    x 1.702900 0.000000 0.000000 
#    y 0.000000 1.678700 0.000000 
#    z 0.000000 0.000000 1.709610 
# 
# From -- ./inp_files/21638.got.cif
#   From: 2010.05.17/outbox.cif.g08.bks.cpg/sg38_11_cif.got.tgz:21638.got - 2010.06.03 18:07:57.
