data_PCOD9358779
_publ_section_title
;
Structure prediction by ZEFSAII (Michael W. Deem and Ramdas Pophale) SiO2 
 PCOD9358779
Probable space group: A M M 2
;
_chemical_formula_sum "Si O2"
_cell_formula_units_Z 64
_cell_length_a 9.559980
_cell_length_b 7.520543
_cell_length_c 42.401558
_cell_angle_alpha 90.000000
_cell_angle_beta 90.000000
_cell_angle_gamma 90.000000
_cell_volume 3048.512619
_symmetry_space_group_name_H-M "A M M 2"
_symmetry_group_IT_number 38
_symmetry_cell_setting 'orthorhombic'
loop_
_space_group_symop_operation_xyz
x,y,z
-x,-y,z
-x,y,z
x,-y,z
x,1/2+y,1/2+z
-x,1/2-y,1/2+z
-x,1/2+y,1/2+z
x,1/2-y,1/2+z
loop_
_atom_site_type_symbol
_atom_site_label
_atom_site_fract_x
_atom_site_fract_y
_atom_site_fract_z
Si Si1 0.658354 0.786553 0.555720
Si Si2 0.839270 0.717557 0.306105
Si Si3 0.339270 0.282443 0.366989
Si Si4 0.841646 0.286553 0.617374
Si Si5 0.340484 0.213023 0.746913
Si Si6 0.159516 0.286977 0.426181
Si Si7 0.840616 0.787010 0.497512
Si Si8 0.340616 0.287010 0.675582
O O1 0.500000 0.718134 0.558666
O O2 0.750000 0.750000 0.586547
O O3 0.738716 0.718478 0.524687
O O4 0.649569 0.000000 0.552740
O O5 0.840520 0.500000 0.305985
O O6 0.750000 0.772061 0.336547
O O7 0.761789 0.777690 0.274265
O O8 0.000000 0.775332 0.307800
O O9 0.500000 0.224668 0.365295
O O10 0.340520 0.500000 0.367109
O O11 0.261788 0.222310 0.398829
O O12 0.850432 0.500000 0.620354
O O13 0.761283 0.218478 0.648407
O O14 0.000000 0.218133 0.614428
O O15 0.500000 0.281315 0.750392
O O16 0.293236 0.250782 0.711273
O O17 0.347320 0.000000 0.750183
O O18 0.152680 0.500000 0.422912
O O19 0.206764 0.249218 0.461822
O O20 0.000000 0.218685 0.422703
O O21 0.000000 0.718218 0.500908
O O22 0.847550 0.000000 0.500976
O O23 0.500000 0.218219 0.672186
O O24 0.347549 0.500000 0.672118
#
# Coordination Sequence:
#
# PCOD9358779 Si02
#       8
#     8   8   8   8   8   8   8   8
#     4  10  21  36  54  76 101 130 165 204 246 293
#     4   9  16  26  42  65  93 123 154 191 236 282
#     4   9  16  26  42  65  93 123 154 191 236 282
#     4  10  21  36  54  76 101 130 165 204 246 293
#     4   9  17  29  46  69  95 122 155 195 236 279
#     4   9  17  29  46  69  95 122 155 195 236 279
#     4   9  18  33  51  70  96 130 162 193 236 289
#     4   9  18  33  51  70  96 130 162 193 236 289
#
# _framework density 20.993845
#
# number of rings (size 3 to 8) (size 9 to 14) (size 15 to 20)
#    0.000    2.750    0.000    1.500    0.000    6.500 
#    0.000    2.500    0.000    0.750    0.000    0.000 
#    0.000    0.000    0.000    0.000    0.000    0.000 
#
# Total GULP energy -178678.605855 kJ/mol
# GULP energy per Si atom -5583.706433 kJ/mol
# Density = 2.094606 g / cm^3
# Si number density = 20.993845 Si / 1000 Ang^3
#
#
#
# Elastic Constant Matrix: (Units=GPa)
#
#
# Indices 1 2 3 4 5 6 
#
# 1 185.3078 6.2445 161.6812 0.0000 0.0000 0.0000
# 2 6.2445 54.1158 -1.4795 0.0000 0.0000 0.0000
# 3 161.6812 -1.4795 232.1925 0.0000 0.0000 0.0000
# 4 0.0000 0.0000 0.0000 14.7458 0.0000 0.0000
# 5 0.0000 0.0000 0.0000 0.0000 41.1433 0.0000
# 6 0.0000 0.0000 0.0000 0.0000 0.0000 6.3578
#
#
#
# Elastic Compliance Matrix: (Units=1/GPa)
#
#
# Indices 1 2 3 4 5 6 
#
# 1 0.013938 -0.001874 -0.009717 0.000000 0.000000 0.000000
# 2 -0.001874 0.018734 0.001424 0.000000 0.000000 0.000000
# 3 -0.009717 0.001424 0.011082 0.000000 0.000000 0.000000
# 4 0.000000 0.000000 0.000000 0.067816 0.000000 0.000000
# 5 0.000000 0.000000 0.000000 0.000000 0.024305 0.000000
# 6 0.000000 0.000000 0.000000 0.000000 0.000000 0.157287
#
#
# Mechanical properties :
#
#
# Convention : Reuss Voigt Hill
#
# Bulk Modulus (GPa) = 42.69807 89.38985 66.04396
# Shear Modulus (GPa) = 15.56167 32.79404 24.17785
#
# Velocity S-wave (km/s) = 2.72554 3.95660 3.39730
# Velocity P-wave (km/s) = 5.50339 7.97148 6.84952
#
# Compressibility (1/GPa) = 0.02342026
#
# Stress axis : x y z
#
# Youngs Moduli (GPa) = 71.74719 53.37869 90.23514
#
# Poissons Ratio (x) = 0.10003 0.87683
# Poissons Ratio (y) = 0.13445 -0.12852
# Poissons Ratio (z) = 0.69718 -0.07602
#
# Static dielectric constant tensor:
#      x y z
#    x 1.743350 0.000000 0.000000 
#    y 0.000000 1.817580 0.000000 
#    z 0.000000 0.000000 1.712560 
# 
# From -- ./inp_files/24618.got.cif
#   From: 2010.05.17/outbox.cif.g08.bks.cpg/sg38_13_cif.got.tgz:24618.got - 2010.06.03 18:07:57.
