data_PCOD9358780
_publ_section_title
;
Structure prediction by ZEFSAII (Michael W. Deem and Ramdas Pophale) SiO2 
 PCOD9358780
Probable space group: A M M 2
;
_chemical_formula_sum "Si O2"
_cell_formula_units_Z 48
_cell_length_a 9.794497
_cell_length_b 7.734667
_cell_length_c 31.494282
_cell_angle_alpha 90.000000
_cell_angle_beta 90.000000
_cell_angle_gamma 90.000000
_cell_volume 2385.917761
_symmetry_space_group_name_H-M "A M M 2"
_symmetry_group_IT_number 38
_symmetry_cell_setting 'orthorhombic'
loop_
_space_group_symop_operation_xyz
x,y,z
-x,-y,z
-x,y,z
x,-y,z
x,1/2+y,1/2+z
-x,1/2-y,1/2+z
-x,1/2+y,1/2+z
x,1/2-y,1/2+z
loop_
_atom_site_type_symbol
_atom_site_label
_atom_site_fract_x
_atom_site_fract_y
_atom_site_fract_z
Si Si1 0.655048 0.707886 0.452400
Si Si2 0.344808 0.792131 0.703239
Si Si3 0.345395 0.794315 0.355707
Si Si4 0.846328 0.294266 0.278211
Si Si5 0.156866 0.287923 0.529575
Si Si6 0.344368 0.707948 0.607073
O O1 0.500000 0.772556 0.459803
O O2 0.650347 0.500000 0.455795
O O3 0.693136 0.750985 0.404094
O O4 0.760819 0.769369 0.487759
O O5 0.500000 0.726152 0.709358
O O6 0.242047 0.723762 0.738811
O O7 0.302780 0.752177 0.655050
O O8 0.350422 0.000000 0.707296
O O9 0.500000 0.725250 0.348318
O O10 0.238705 0.730082 0.321207
O O11 0.351110 0.000000 0.351877
O O12 0.857428 0.500000 0.271486
O O13 0.000000 0.223540 0.280683
O O14 0.156171 0.500000 0.529577
O O15 0.240669 0.230749 0.571093
O O16 0.000000 0.231669 0.529802
O O17 0.500000 0.772291 0.600505
O O18 0.349294 0.500000 0.603856
#
# Coordination Sequence:
#
# PCOD9358780 Si02
#       6
#     8   8   8   8   8   8
#     4   9  17  31  52  74  96 127 167 207 246 291
#     4   9  18  33  52  73  98 129 165 205 248 294
#     4  10  21  36  54  77 104 133 167 209 256 304
#     4  10  21  36  54  76 102 134 171 209 251 302
#     4   9  17  29  47  72  99 127 162 203 244 289
#     4   9  17  30  49  72  97 126 162 203 245 290
#
# _framework density 20.118044000000001
#
# number of rings (size 3 to 8) (size 9 to 14) (size 15 to 20)
#    0.000    2.667    0.000    1.500    0.000    6.000 
#    0.000    4.167    0.000    5.000    0.000    0.000 
#    0.000    0.000    0.000    0.000    0.000    0.000 
#
# Total GULP energy -133954.044384 kJ/mol
# GULP energy per Si atom -5581.418516 kJ/mol
# Density = 2.007225 g / cm^3
# Si number density = 20.118044 Si / 1000 Ang^3
#
#
#
# Elastic Constant Matrix: (Units=GPa)
#
#
# Indices 1 2 3 4 5 6 
#
# 1 168.5526 7.1416 154.9150 0.0000 0.0000 0.0000
# 2 7.1416 28.9586 -1.8974 0.0000 0.0000 0.0000
# 3 154.9150 -1.8974 188.4258 0.0000 0.0000 0.0000
# 4 0.0000 0.0000 0.0000 22.9339 0.0000 0.0000
# 5 0.0000 0.0000 0.0000 0.0000 18.3244 0.0000
# 6 0.0000 0.0000 0.0000 0.0000 0.0000 7.6621
#
#
#
# Elastic Compliance Matrix: (Units=1/GPa)
#
#
# Indices 1 2 3 4 5 6 
#
# 1 0.025925 -0.007795 -0.021393 0.000000 0.000000 0.000000
# 2 -0.007795 0.036899 0.006780 0.000000 0.000000 0.000000
# 3 -0.021393 0.006780 0.022964 0.000000 0.000000 0.000000
# 4 0.000000 0.000000 0.000000 0.043604 0.000000 0.000000
# 5 0.000000 0.000000 0.000000 0.000000 0.054572 0.000000
# 6 0.000000 0.000000 0.000000 0.000000 0.000000 0.130513
#
#
# Mechanical properties :
#
#
# Convention : Reuss Voigt Hill
#
# Bulk Modulus (GPa) = 24.40685 78.47283 51.43984
# Shear Modulus (GPa) = 13.40662 24.83592 19.12127
#
# Velocity S-wave (km/s) = 2.58427 3.51737 3.08629
# Velocity P-wave (km/s) = 4.58942 7.45565 6.19070
#
# Compressibility (1/GPa) = 0.04097211
#
# Stress axis : x y z
#
# Youngs Moduli (GPa) = 38.57234 27.10117 43.54680
#
# Poissons Ratio (x) = 0.21126 0.93160
# Poissons Ratio (y) = 0.30068 -0.29527
# Poissons Ratio (z) = 0.82518 -0.18376
#
# Static dielectric constant tensor:
#      x y z
#    x 1.704440 0.000000 0.000000 
#    y 0.000000 1.746570 0.000000 
#    z 0.000000 0.000000 1.676680 
# 
# From -- ./inp_files/23349.got.cif
#   From: 2010.05.17/outbox.cif.g08.bks.cpg/sg38_12_cif.got.tgz:23349.got - 2010.06.03 18:07:57.
