data_PCOD9358560
_publ_section_title
;
Structure prediction by ZEFSAII (Michael W. Deem and Ramdas Pophale) SiO2 
 PCOD9358560
Probable space group: A M M 2
;
_chemical_formula_sum "Si O2"
_cell_formula_units_Z 56
_cell_length_a 22.647050
_cell_length_b 8.373301
_cell_length_c 15.171280
_cell_angle_alpha 90.000000
_cell_angle_beta 90.000000
_cell_angle_gamma 90.000000
_cell_volume 2876.938420
_symmetry_space_group_name_H-M "A M M 2"
_symmetry_group_IT_number 38
_symmetry_cell_setting 'orthorhombic'
loop_
_space_group_symop_operation_xyz
x,y,z
-x,-y,z
-x,y,z
x,-y,z
x,1/2+y,1/2+z
-x,1/2-y,1/2+z
-x,1/2+y,1/2+z
x,1/2-y,1/2+z
loop_
_atom_site_type_symbol
_atom_site_label
_atom_site_fract_x
_atom_site_fract_y
_atom_site_fract_z
Si Si1 0.630686 0.688561 0.839830
Si Si2 0.627414 0.690472 0.539287
Si Si3 0.933575 0.192668 0.351304
Si Si4 0.500000 0.315328 0.557819
Si Si5 0.288115 0.813684 0.687632
Si Si6 0.933582 0.307319 0.549477
Si Si7 0.500000 0.809305 0.362621
Si Si8 0.155151 0.306255 0.700635
O O1 0.640884 0.500000 0.828854
O O2 0.675195 0.779177 0.776459
O O3 0.561966 0.721375 0.815289
O O4 0.636928 0.733050 0.943035
O O5 0.621428 0.500000 0.526681
O O6 0.564704 0.752066 0.579979
O O7 0.679253 0.725047 0.607364
O O8 0.923262 0.249135 0.450549
O O9 0.882765 0.246985 0.285264
O O10 0.000000 0.245086 0.324826
O O11 0.933757 0.000000 0.349612
O O12 0.500000 0.500000 0.586808
O O13 0.500000 0.295815 0.451227
O O14 0.221150 0.757150 0.698918
O O15 0.289322 0.000000 0.667767
O O16 0.933586 0.500000 0.550179
O O17 0.883088 0.253792 0.616132
O O18 0.000000 0.255681 0.576232
O O19 0.500000 0.000000 0.386634
O O20 0.157366 0.500000 0.700975
#
# Coordination Sequence:
#
# PCOD9358560 Si02
#       8
#     8   8   8   4   8   8   4   8
#     4  10  20  38  61  85 113 145 183 231 285 338
#     4  10  20  38  61  85 113 145 183 231 285 338
#     4   9  18  34  58  86 112 139 175 220 272 328
#     4   8  16  31  56  85 110 138 176 225 282 339
#     4  12  26  40  54  79 113 153 198 235 274 329
#     4   9  18  34  58  86 112 139 175 220 272 328
#     4   8  16  31  56  85 110 138 176 225 282 339
#     4  10  21  38  57  77 108 149 187 225 272 326
#
# _framework density 19.465138
#
# number of rings (size 3 to 8) (size 9 to 14) (size 15 to 20)
#    0.000    2.286    0.000    2.571    0.000    5.714 
#    0.000    5.714    0.000    4.286    0.000    0.000 
#    0.000    0.000    0.000    0.000    0.000    0.000 
#
# Total GULP energy -156257.086037 kJ/mol
# GULP energy per Si atom -5580.610216 kJ/mol
# Density = 1.942083 g / cm^3
# Si number density = 19.465138 Si / 1000 Ang^3
#
#
#
# Elastic Constant Matrix: (Units=GPa)
#
#
# Indices 1 2 3 4 5 6 
#
# 1 163.2550 13.2254 66.9197 0.0000 0.0000 0.0000
# 2 13.2254 19.4940 -2.0981 0.0000 0.0000 0.0000
# 3 66.9197 -2.0981 71.7251 0.0000 0.0000 0.0000
# 4 0.0000 0.0000 0.0000 27.7301 0.0000 0.0000
# 5 0.0000 0.0000 0.0000 0.0000 131.7447 0.0000
# 6 0.0000 0.0000 0.0000 0.0000 0.0000 20.8552
#
#
#
# Elastic Compliance Matrix: (Units=1/GPa)
#
#
# Indices 1 2 3 4 5 6 
#
# 1 0.011241 -0.008783 -0.010745 0.000000 0.000000 0.000000
# 2 -0.008783 0.058322 0.009901 0.000000 0.000000 0.000000
# 3 -0.010745 0.009901 0.024257 0.000000 0.000000 0.000000
# 4 0.000000 0.000000 0.000000 0.036062 0.000000 0.000000
# 5 0.000000 0.000000 0.000000 0.000000 0.007590 0.000000
# 6 0.000000 0.000000 0.000000 0.000000 0.000000 0.047950
#
#
# Mechanical properties :
#
#
# Convention : Reuss Voigt Hill
#
# Bulk Modulus (GPa) = 13.41104 45.61870 29.51487
# Shear Modulus (GPa) = 21.78331 47.82778 34.80554
#
# Velocity S-wave (km/s) = 3.34891 4.96229 4.23318
# Velocity P-wave (km/s) = 4.67529 7.50463 6.25211
#
# Compressibility (1/GPa) = 0.07456542
#
# Stress axis : x y z
#
# Youngs Moduli (GPa) = 88.95613 17.14612 41.22502
#
# Poissons Ratio (x) = 0.15060 0.44297
# Poissons Ratio (y) = 0.78131 -0.40816
# Poissons Ratio (z) = 0.95586 -0.16976
#
# Static dielectric constant tensor:
#      x y z
#    x 1.685370 0.000000 0.000000 
#    y 0.000000 1.668990 0.000000 
#    z 0.000000 0.000000 1.653990 
# 
# From -- ./inp_files/15585.got.cif
#   From: 2010.05.17/outbox.cif.g08.bks.cpg/sg38_8_cif.got.tgz:15585.got - 2010.06.03 18:07:57.
