data_PCOD9358452
_publ_section_title
;
Structure prediction by ZEFSAII (Michael W. Deem and Ramdas Pophale) SiO2 
 PCOD9358452
Probable space group: A M M 2
;
_chemical_formula_sum "Si O2"
_cell_formula_units_Z 56
_cell_length_a 15.158633
_cell_length_b 14.460419
_cell_length_c 11.731460
_cell_angle_alpha 90.000000
_cell_angle_beta 90.000000
_cell_angle_gamma 90.000000
_cell_volume 2571.538198
_symmetry_space_group_name_H-M "A M M 2"
_symmetry_group_IT_number 38
_symmetry_cell_setting 'orthorhombic'
loop_
_space_group_symop_operation_xyz
x,y,z
-x,-y,z
-x,y,z
x,-y,z
x,1/2+y,1/2+z
-x,1/2-y,1/2+z
-x,1/2+y,1/2+z
x,1/2-y,1/2+z
loop_
_atom_site_type_symbol
_atom_site_label
_atom_site_fract_x
_atom_site_fract_y
_atom_site_fract_z
Si Si1 0.901962 0.249100 0.278260
Si Si2 0.654802 0.104528 0.292502
Si Si3 0.601235 0.815806 0.759815
Si Si4 0.234063 0.102528 0.861371
Si Si5 0.793491 0.653439 0.604535
Si Si6 0.282555 0.150127 0.547580
Si Si7 0.902344 0.398190 0.981868
O O1 0.826379 0.324345 0.295563
O O2 0.881226 0.192541 0.163476
O O3 0.894361 0.179307 0.385109
O O4 0.000000 0.287994 0.278798
O O5 0.606775 0.202578 0.262334
O O6 0.737748 0.107460 0.205884
O O7 0.683823 0.118175 0.424008
O O8 0.615148 0.000000 0.281526
O O9 0.500000 0.841995 0.773670
O O10 0.666747 0.857023 0.855071
O O11 0.644012 0.860246 0.645166
O O12 0.233179 0.000000 0.811869
O O13 0.197031 0.097634 0.989491
O O14 0.739134 0.741754 0.558789
O O15 0.184597 0.106906 0.558969
O O16 0.901235 0.500000 0.927376
O O17 0.000000 0.387727 0.036149
#
# Coordination Sequence:
#
# PCOD9358452 Si02
#       7
#     8   8   8   8   8   8   8
#     4  11  23  42  68  99 141 184 227 277 336 398
#     4  11  22  41  73 105 133 171 224 283 343 405
#     4  11  26  48  70  99 137 176 224 285 353 415
#     4  12  25  45  69  98 137 183 234 281 340 409
#     4  11  20  42  66 100 134 181 223 276 344 399
#     4  11  20  40  69  98 136 177 218 276 335 401
#     4  10  20  36  65 102 135 172 223 277 331 393
#
# _framework density 21.77685
#
# number of rings (size 3 to 8) (size 9 to 14) (size 15 to 20)
#    0.000    1.000    7.143    0.857    0.000    4.286 
#    0.000    0.000    0.000    1.714    0.000    0.000 
#    0.000    0.000    0.000    0.000    0.000    0.000 
#
# Total GULP energy -156176.203901 kJ/mol
# GULP energy per Si atom -5577.721568 kJ/mol
# Density = 2.172729 g / cm^3
# Si number density = 21.776850 Si / 1000 Ang^3
#
#
#
# Elastic Constant Matrix: (Units=GPa)
#
#
# Indices 1 2 3 4 5 6 
#
# 1 166.9594 39.0274 35.1809 0.0000 0.0000 0.0000
# 2 39.0274 129.8155 20.6582 0.0000 0.0000 0.0000
# 3 35.1809 20.6582 113.7760 0.0000 0.0000 0.0000
# 4 0.0000 0.0000 0.0000 14.5236 0.0000 0.0000
# 5 0.0000 0.0000 0.0000 0.0000 17.8079 0.0000
# 6 0.0000 0.0000 0.0000 0.0000 0.0000 6.9948
#
#
#
# Elastic Compliance Matrix: (Units=1/GPa)
#
#
# Indices 1 2 3 4 5 6 
#
# 1 0.006774 -0.001754 -0.001776 0.000000 0.000000 0.000000
# 2 -0.001754 0.008387 -0.000980 0.000000 0.000000 0.000000
# 3 -0.001776 -0.000980 0.009516 0.000000 0.000000 0.000000
# 4 0.000000 0.000000 0.000000 0.068853 0.000000 0.000000
# 5 0.000000 0.000000 0.000000 0.000000 0.056155 0.000000
# 6 0.000000 0.000000 0.000000 0.000000 0.000000 0.142963
#
#
# Mechanical properties :
#
#
# Convention : Reuss Voigt Hill
#
# Bulk Modulus (GPa) = 63.87326 66.69821 65.28573
# Shear Modulus (GPa) = 16.29263 28.91089 22.60176
#
# Velocity S-wave (km/s) = 2.73822 3.64757 3.22511
# Velocity P-wave (km/s) = 6.27628 6.95947 6.62668
#
# Compressibility (1/GPa) = 0.01565600
#
# Stress axis : x y z
#
# Youngs Moduli (GPa) = 147.63030 119.23899 105.08180
#
# Poissons Ratio (x) = 0.20912 0.18663
# Poissons Ratio (y) = 0.25891 0.10303
# Poissons Ratio (z) = 0.26220 0.11691
#
# Static dielectric constant tensor:
#      x y z
#    x 1.783830 0.000000 0.000000 
#    y 0.000000 1.842830 0.000000 
#    z 0.000000 0.000000 1.832280 
# 
# From -- ./inp_files/10083.got.cif
#   From: 2010.05.17/outbox.cif.g08.bks.cpg/sg38_6_cif.got.tgz:10083.got - 2010.06.03 18:07:57.
