data_PCOD9358580
_publ_section_title
;
Structure prediction by ZEFSAII (Michael W. Deem and Ramdas Pophale) SiO2 
 PCOD9358580
Probable space group: A M M 2
;
_chemical_formula_sum "Si O2"
_cell_formula_units_Z 48
_cell_length_a 8.814695
_cell_length_b 22.227439
_cell_length_c 12.800683
_cell_angle_alpha 90.000000
_cell_angle_beta 90.000000
_cell_angle_gamma 90.000000
_cell_volume 2508.013440
_symmetry_space_group_name_H-M "A M M 2"
_symmetry_group_IT_number 38
_symmetry_cell_setting 'orthorhombic'
loop_
_space_group_symop_operation_xyz
x,y,z
-x,-y,z
-x,y,z
x,-y,z
x,1/2+y,1/2+z
-x,1/2-y,1/2+z
-x,1/2+y,1/2+z
x,1/2-y,1/2+z
loop_
_atom_site_type_symbol
_atom_site_label
_atom_site_fract_x
_atom_site_fract_y
_atom_site_fract_z
Si Si1 0.317903 0.067787 0.684120
Si Si2 0.177755 0.765831 0.901646
Si Si3 0.822106 0.647771 0.008646
Si Si4 0.679480 0.841772 0.296747
Si Si5 0.320036 0.395304 0.418012
Si Si6 0.819534 0.567862 0.633204
O O1 0.500000 0.074091 0.674696
O O2 0.238666 0.116839 0.611728
O O3 0.279973 0.077087 0.805637
O O4 0.275801 0.000000 0.651798
O O5 0.236789 0.722819 0.807954
O O6 0.275103 0.825198 0.913369
O O7 0.000000 0.780081 0.889039
O O8 0.194898 0.720347 0.000532
O O9 0.000000 0.634989 0.993720
O O10 0.729094 0.626735 0.906238
O O11 0.500000 0.833284 0.293129
O O12 0.737122 0.881969 0.202174
O O13 0.500000 0.402678 0.434216
O O14 0.231430 0.424499 0.513744
O O15 0.781041 0.500000 0.668171
O O16 0.000000 0.575936 0.641863
#
# Coordination Sequence:
#
# PCOD9358580 Si02
#       6
#     8   8   8   8   8   8
#     4  10  22  39  59  85 118 155 195 241 290 344
#     4   9  20  39  60  88 122 153 193 242 295 352
#     4   9  20  38  60  88 118 152 193 240 293 350
#     4  10  20  38  63  90 118 151 195 244 299 355
#     4  11  23  39  61  88 120 157 199 245 293 348
#     4  11  24  41  61  86 119 159 201 245 296 355
#
# _framework density 19.138653000000001
#
# number of rings (size 3 to 8) (size 9 to 14) (size 15 to 20)
#    1.000    1.000    0.000    3.500    0.000    5.667 
#    0.000    3.333    0.000    0.000    0.000    0.000 
#    0.000    0.000    0.000    0.000    0.000    0.000 
#
# Total GULP energy -133854.865075 kJ/mol
# GULP energy per Si atom -5577.286045 kJ/mol
# Density = 1.909509 g / cm^3
# Si number density = 19.138653 Si / 1000 Ang^3
#
#
#
# Elastic Constant Matrix: (Units=GPa)
#
#
# Indices 1 2 3 4 5 6 
#
# 1 31.4606 -0.3184 -0.8748 0.0000 0.0000 0.0000
# 2 -0.3184 52.4226 -7.5031 0.0000 0.0000 0.0000
# 3 -0.8748 -7.5031 34.2807 0.0000 0.0000 0.0000
# 4 0.0000 0.0000 0.0000 30.9833 0.0000 0.0000
# 5 0.0000 0.0000 0.0000 0.0000 174.3434 0.0000
# 6 0.0000 0.0000 0.0000 0.0000 0.0000 121.5691
#
#
#
# Elastic Compliance Matrix: (Units=1/GPa)
#
#
# Indices 1 2 3 4 5 6 
#
# 1 0.031814 0.000319 0.000882 0.000000 0.000000 0.000000
# 2 0.000319 0.019696 0.004319 0.000000 0.000000 0.000000
# 3 0.000882 0.004319 0.030139 0.000000 0.000000 0.000000
# 4 0.000000 0.000000 0.000000 0.032275 0.000000 0.000000
# 5 0.000000 0.000000 0.000000 0.000000 0.005736 0.000000
# 6 0.000000 0.000000 0.000000 0.000000 0.000000 0.008226
#
#
# Mechanical properties :
#
#
# Convention : Reuss Voigt Hill
#
# Bulk Modulus (GPa) = 10.78882 11.19681 10.99282
# Shear Modulus (GPa) = 33.84304 73.83652 53.83978
#
# Velocity S-wave (km/s) = 4.20969 6.21800 5.30966
# Velocity P-wave (km/s) = 5.41092 7.57723 6.58379
#
# Compressibility (1/GPa) = 0.09268857
#
# Stress axis : x y z
#
# Youngs Moduli (GPa) = 31.43319 50.77216 33.17986
#
# Poissons Ratio (x) = -0.01622 -0.02926
# Poissons Ratio (y) = -0.01004 -0.14330
# Poissons Ratio (z) = -0.02772 -0.21929
#
# Static dielectric constant tensor:
#      x y z
#    x 1.621030 0.000000 0.000000 
#    y 0.000000 1.664180 0.000000 
#    z 0.000000 0.000000 1.660870 
# 
# From -- ./inp_files/12251.got.cif
#   From: 2010.05.17/outbox.cif.g08.bks.cpg/sg38_7_cif.got.tgz:12251.got - 2010.06.03 18:07:57.
