data_PCOD9358297
_publ_section_title
;
Structure prediction by ZEFSAII (Michael W. Deem and Ramdas Pophale) SiO2 
 PCOD9358297
Probable space group: A M M 2
;
_chemical_formula_sum "Si O2"
_cell_formula_units_Z 40
_cell_length_a 8.027257
_cell_length_b 7.464516
_cell_length_c 30.554465
_cell_angle_alpha 90.000000
_cell_angle_beta 90.000000
_cell_angle_gamma 90.000000
_cell_volume 1830.810964
_symmetry_space_group_name_H-M "A M M 2"
_symmetry_group_IT_number 38
_symmetry_cell_setting 'orthorhombic'
loop_
_space_group_symop_operation_xyz
x,y,z
-x,-y,z
-x,y,z
x,-y,z
x,1/2+y,1/2+z
-x,1/2-y,1/2+z
-x,1/2+y,1/2+z
x,1/2-y,1/2+z
loop_
_atom_site_type_symbol
_atom_site_label
_atom_site_fract_x
_atom_site_fract_y
_atom_site_fract_z
Si Si1 0.820411 0.214592 0.191830
Si Si2 0.500000 0.290041 0.132982
Si Si3 0.192142 0.219271 0.474213
Si Si4 0.694730 0.284856 0.783816
Si Si5 0.500000 0.780506 0.534275
Si Si6 0.799564 0.206608 0.377354
O O1 0.664484 0.249211 0.160826
O O2 0.789814 0.284026 0.241157
O O3 0.000000 0.278428 0.175144
O O4 0.827198 0.000000 0.195469
O O5 0.500000 0.500000 0.126495
O O6 0.500000 0.213002 0.084070
O O7 0.332236 0.274167 0.508680
O O8 0.241416 0.281631 0.425172
O O9 0.000000 0.273403 0.483362
O O10 0.190042 0.000000 0.472935
O O11 0.500000 0.259897 0.775318
O O12 0.728148 0.500000 0.786007
O O13 0.737812 0.212187 0.831833
O O14 0.500000 0.000000 0.533692
O O15 0.000000 0.203966 0.375317
O O16 0.738357 0.000000 0.377935
#
# Coordination Sequence:
#
# PCOD9358297 Si02
#       6
#     8   4   8   8   4   8
#     4  10  20  36  57  77 102 137 174 213 257 306
#     4  11  23  37  52  75 105 135 173 221 264 307
#     4   8  14  24  37  55  84 122 160 194 232 289
#     4   9  15  23  40  67  97 127 159 198 245 298
#     4   9  18  29  42  59  85 125 165 199 244 297
#     4   8  13  20  32  56  89 122 155 190 233 290
#
# _framework density 21.848243
#
# number of rings (size 3 to 8) (size 9 to 14) (size 15 to 20)
#    0.000    3.000    1.000    2.100    1.400    3.600 
#    0.000    2.000    0.000    0.000    0.000    0.000 
#    0.000    6.400    0.000   11.200    0.000   11.200 
#
# Total GULP energy -111558.544663 kJ/mol
# GULP energy per Si atom -5577.927233 kJ/mol
# Density = 2.179852 g / cm^3
# Si number density = 21.848243 Si / 1000 Ang^3
#
#
#
# Elastic Constant Matrix: (Units=GPa)
#
#
# Indices 1 2 3 4 5 6 
#
# 1 136.8289 12.6677 131.1515 0.0000 0.0000 0.0000
# 2 12.6677 61.6998 5.3757 0.0000 0.0000 0.0000
# 3 131.1515 5.3757 192.8648 0.0000 0.0000 0.0000
# 4 0.0000 0.0000 0.0000 2.3266 0.0000 0.0000
# 5 0.0000 0.0000 0.0000 0.0000 -11.4988 0.0000
# 6 0.0000 0.0000 0.0000 0.0000 0.0000 -14.0355
#
#
#
# Elastic Compliance Matrix: (Units=1/GPa)
#
#
# Indices 1 2 3 4 5 6 
#
# 1 0.021587 -0.003161 -0.014591 0.000000 0.000000 0.000000
# 2 -0.003161 0.016710 0.001684 0.000000 0.000000 0.000000
# 3 -0.014591 0.001684 0.015061 0.000000 0.000000 0.000000
# 4 0.000000 0.000000 0.000000 0.429810 0.000000 0.000000
# 5 0.000000 0.000000 0.000000 0.000000 -0.086966 0.000000
# 6 0.000000 0.000000 0.000000 0.000000 0.000000 -0.071248
#
#
# Mechanical properties :
#
#
# Convention : Reuss Voigt Hill
#
# Bulk Modulus (GPa) = 47.12512 76.64258 61.88385
# Shear Modulus (GPa) = 13.73003 11.50503 12.61753
#
# Velocity S-wave (km/s) = 2.50956 2.29724 2.40575
# Velocity P-wave (km/s) = 5.47844 6.49554 6.00855
#
# Compressibility (1/GPa) = 0.02122011
#
# Stress axis : x y z
#
# Youngs Moduli (GPa) = 46.32402 59.84522 66.39875
#
# Poissons Ratio (x) = 0.18916 0.96886
# Poissons Ratio (y) = 0.14642 -0.11179
# Poissons Ratio (z) = 0.67594 -0.10076
#
# Static dielectric constant tensor:
#      x y z
#    x 1.751520 0.000000 0.000000 
#    y 0.000000 1.970480 0.000000 
#    z 0.000000 0.000000 1.818260 
# 
# From -- ./inp_files/23281.got.cif
#   From: 2010.05.17/outbox.cif.g08.bks.cpg/sg38_12_cif.got.tgz:23281.got - 2010.06.03 18:07:57.
