data_PCOD9358145
_publ_section_title
;
Structure prediction by ZEFSAII (Michael W. Deem and Ramdas Pophale) SiO2 
 PCOD9358145
Probable space group: A M M 2
;
_chemical_formula_sum "Si O2"
_cell_formula_units_Z 48
_cell_length_a 16.171526
_cell_length_b 17.360480
_cell_length_c 9.205812
_cell_angle_alpha 90.000000
_cell_angle_beta 90.000000
_cell_angle_gamma 90.000000
_cell_volume 2584.489867
_symmetry_space_group_name_H-M "A M M 2"
_symmetry_group_IT_number 38
_symmetry_cell_setting 'orthorhombic'
loop_
_space_group_symop_operation_xyz
x,y,z
-x,-y,z
-x,y,z
x,-y,z
x,1/2+y,1/2+z
-x,1/2-y,1/2+z
-x,1/2+y,1/2+z
x,1/2-y,1/2+z
loop_
_atom_site_type_symbol
_atom_site_label
_atom_site_fract_x
_atom_site_fract_y
_atom_site_fract_z
Si Si1 0.746394 0.856001 0.496950
Si Si2 0.647798 0.207724 0.002838
Si Si3 0.091462 0.406468 0.486197
Si Si4 0.904656 0.093049 0.324787
Si Si5 0.590589 0.656419 0.818803
Si Si6 0.746555 0.910536 0.820738
O O1 0.724583 0.766554 0.530818
O O2 0.833912 0.867922 0.420056
O O3 0.671191 0.883422 0.390949
O O4 0.743144 0.899488 0.648999
O O5 0.589265 0.263831 0.910325
O O6 0.677749 0.138918 0.901865
O O7 0.610920 0.177507 0.152819
O O8 0.088751 0.500000 0.480917
O O9 0.107569 0.386973 0.654691
O O10 0.164874 0.382236 0.381371
O O11 0.000000 0.378154 0.445201
O O12 0.000000 0.112148 0.363473
O O13 0.896375 0.000000 0.338460
O O14 0.500000 0.619151 0.830790
O O15 0.737687 0.000000 0.858214
#
# Coordination Sequence:
#
# PCOD9358145 Si02
#       6
#     8   8   8   8   8   8
#     4  10  20  35  55  89 117 149 200 251 291 346
#     4  10  20  37  58  88 114 147 200 242 295 357
#     4   8  16  30  49  75 108 152 202 238 275 344
#     4   9  17  32  56  85 121 165 205 244 299 364
#     4  10  20  37  65  86 110 152 202 246 296 365
#     4  11  21  35  57  84 119 158 194 242 306 358
#
# _framework density 18.572330999999998
#
# number of rings (size 3 to 8) (size 9 to 14) (size 15 to 20)
#    1.000    1.333    1.667    3.000    0.000    0.667 
#    0.000    3.333    0.000    9.000    0.000    0.000 
#    0.000    0.000    0.000    0.000    0.000    0.000 
#
# Total GULP energy -133639.299763 kJ/mol
# GULP energy per Si atom -5568.304157 kJ/mol
# Density = 1.853006 g / cm^3
# Si number density = 18.572331 Si / 1000 Ang^3
#
#
#
# Elastic Constant Matrix: (Units=GPa)
#
#
# Indices 1 2 3 4 5 6 
#
# 1 122.8785 14.1100 52.0842 0.0000 0.0000 0.0000
# 2 14.1100 21.0638 -10.4307 0.0000 0.0000 0.0000
# 3 52.0842 -10.4307 83.4407 0.0000 0.0000 0.0000
# 4 0.0000 0.0000 0.0000 14.3922 0.0000 0.0000
# 5 0.0000 0.0000 0.0000 0.0000 -562.5220 0.0000
# 6 0.0000 0.0000 0.0000 0.0000 0.0000 15.3332
#
#
#
# Elastic Compliance Matrix: (Units=1/GPa)
#
#
# Indices 1 2 3 4 5 6 
#
# 1 0.014525 -0.015158 -0.010961 0.000000 0.000000 0.000000
# 2 -0.015158 0.066426 0.017765 0.000000 0.000000 0.000000
# 3 -0.010961 0.017765 0.021047 0.000000 0.000000 0.000000
# 4 0.000000 0.000000 0.000000 0.069482 0.000000 0.000000
# 5 0.000000 0.000000 0.000000 0.000000 -0.001778 0.000000
# 6 0.000000 0.000000 0.000000 0.000000 0.000000 0.065218
#
#
# Mechanical properties :
#
#
# Convention : Reuss Voigt Hill
#
# Bulk Modulus (GPa) = 11.72468 37.65668 24.69068
# Shear Modulus (GPa) = 17.85347 -95.11802 -38.63227
#
# Velocity S-wave (km/s) = 3.10384 -7.16422 -4.56576
# Velocity P-wave (km/s) = 4.37856 6.93650 3.80416
#
# Compressibility (1/GPa) = 0.08529020
#
# Stress axis : x y z
#
# Youngs Moduli (GPa) = 68.84784 15.05445 47.51177
#
# Poissons Ratio (x) = 0.22819 0.52079
# Poissons Ratio (y) = 1.04357 -0.84405
# Poissons Ratio (z) = 0.75466 -0.26744
#
# Static dielectric constant tensor:
#      x y z
#    x 2.198110 0.000000 0.000000 
#    y 0.000000 1.647700 0.000000 
#    z 0.000000 0.000000 1.610370 
# 
# From -- ./inp_files/5584.got.cif
#   From: 2010.05.17/outbox.cif.g08.bks.cpg/sg38_3_cif.got.tgz:5584.got - 2010.06.03 18:07:57.
