data_PCOD9358446
_publ_section_title
;
Structure prediction by ZEFSAII (Michael W. Deem and Ramdas Pophale) SiO2 
 PCOD9358446
Probable space group: A M M 2
;
_chemical_formula_sum "Si O2"
_cell_formula_units_Z 52
_cell_length_a 20.040249
_cell_length_b 7.586321
_cell_length_c 16.154556
_cell_angle_alpha 90.000000
_cell_angle_beta 90.000000
_cell_angle_gamma 90.000000
_cell_volume 2456.005610
_symmetry_space_group_name_H-M "A M M 2"
_symmetry_group_IT_number 38
_symmetry_cell_setting 'orthorhombic'
loop_
_space_group_symop_operation_xyz
x,y,z
-x,-y,z
-x,y,z
x,-y,z
x,1/2+y,1/2+z
-x,1/2-y,1/2+z
-x,1/2+y,1/2+z
x,1/2-y,1/2+z
loop_
_atom_site_type_symbol
_atom_site_label
_atom_site_fract_x
_atom_site_fract_y
_atom_site_fract_z
Si Si1 0.834097 0.794157 0.095110
Si Si2 0.155459 0.287245 0.276992
Si Si3 0.923459 0.715521 0.440895
Si Si4 0.707734 0.711752 0.355497
Si Si5 0.306361 0.690716 0.041633
Si Si6 0.573893 0.291511 0.257893
Si Si7 0.609403 0.500000 0.622145
O O1 0.865027 0.775427 0.186138
O O2 0.820994 0.000000 0.078636
O O3 0.880611 0.727740 0.020661
O O4 0.761825 0.704467 0.094049
O O5 0.154002 0.500000 0.275203
O O6 0.110513 0.229701 0.354584
O O7 0.231382 0.229592 0.297098
O O8 0.923045 0.500000 0.441578
O O9 0.000000 0.772591 0.446148
O O10 0.712955 0.500000 0.362989
O O11 0.715037 0.789999 0.446270
O O12 0.635845 0.753557 0.317409
O O13 0.337381 0.500000 0.055280
O O14 0.354746 0.847127 0.065206
O O15 0.500000 0.273566 0.296277
O O16 0.581431 0.500000 0.235736
O O17 0.579582 0.156665 0.182520
#
# Coordination Sequence:
#
# PCOD9358446 Si02
#       7
#     8   8   8   8   8   8   4
#     4  11  21  38  60  91 132 171 223 282 346 406
#     4  10  20  36  62  92 126 170 220 277 339 409
#     4   9  19  37  60  86 127 181 229 278 340 407
#     4  10  20  40  65  97 131 168 221 280 339 401
#     4  12  24  39  65  99 134 172 224 285 342 406
#     4  10  23  43  68  97 134 179 225 274 339 415
#     4  12  23  42  66  98 135 174 216 276 341 400
#
# _framework density 21.172591000000001
#
# number of rings (size 3 to 8) (size 9 to 14) (size 15 to 20)
#    0.000    1.538    3.077    2.077    1.077    2.462 
#    0.000    1.538    0.000    5.077    0.000    0.000 
#    0.000    0.000    0.000    0.000    0.000    0.000 
#
# Total GULP energy -144760.221650 kJ/mol
# GULP energy per Si atom -5567.700833 kJ/mol
# Density = 2.112440 g / cm^3
# Si number density = 21.172591 Si / 1000 Ang^3
#
#
#
# Elastic Constant Matrix: (Units=GPa)
#
#
# Indices 1 2 3 4 5 6 
#
# 1 38.5278 11.6743 29.2783 0.0000 0.0000 0.0000
# 2 11.6743 100.9235 7.3918 0.0000 0.0000 0.0000
# 3 29.2783 7.3918 118.3013 0.0000 0.0000 0.0000
# 4 0.0000 0.0000 0.0000 23.8090 0.0000 0.0000
# 5 0.0000 0.0000 0.0000 0.0000 364.7218 0.0000
# 6 0.0000 0.0000 0.0000 0.0000 0.0000 27.5621
#
#
#
# Elastic Compliance Matrix: (Units=1/GPa)
#
#
# Indices 1 2 3 4 5 6 
#
# 1 0.032985 -0.003232 -0.007961 0.000000 0.000000 0.000000
# 2 -0.003232 0.010271 0.000158 0.000000 0.000000 0.000000
# 3 -0.007961 0.000158 0.010413 0.000000 0.000000 0.000000
# 4 0.000000 0.000000 0.000000 0.042001 0.000000 0.000000
# 5 0.000000 0.000000 0.000000 0.000000 0.002742 0.000000
# 6 0.000000 0.000000 0.000000 0.000000 0.000000 0.036282
#
#
# Mechanical properties :
#
#
# Convention : Reuss Voigt Hill
#
# Bulk Modulus (GPa) = 31.64761 39.38237 35.51499
# Shear Modulus (GPa) = 29.88689 97.17912 63.53300
#
# Velocity S-wave (km/s) = 3.76118 6.78220 5.48382
# Velocity P-wave (km/s) = 5.81738 8.94270 7.54367
#
# Compressibility (1/GPa) = 0.03159796
#
# Stress axis : x y z
#
# Youngs Moduli (GPa) = 30.31693 97.36333 96.02944
#
# Poissons Ratio (x) = 0.31472 0.76453
# Poissons Ratio (y) = 0.09800 -0.01520
# Poissons Ratio (z) = 0.24137 -0.01541
#
# Static dielectric constant tensor:
#      x y z
#    x 0.168560 0.000000 0.000000 
#    y 0.000000 1.781630 0.000000 
#    z 0.000000 0.000000 1.747450 
# 
# From -- ./inp_files/15390.got.cif
#   From: 2010.05.17/outbox.cif.g08.bks.cpg/sg38_8_cif.got.tgz:15390.got - 2010.06.03 18:07:57.
