data_PCOD9358323
_publ_section_title
;
Structure prediction by ZEFSAII (Michael W. Deem and Ramdas Pophale) SiO2 
 PCOD9358323
Probable space group: A M M 2
;
_chemical_formula_sum "Si O2"
_cell_formula_units_Z 48
_cell_length_a 15.789485
_cell_length_b 7.633108
_cell_length_c 18.550566
_cell_angle_alpha 90.000000
_cell_angle_beta 90.000000
_cell_angle_gamma 90.000000
_cell_volume 2235.766977
_symmetry_space_group_name_H-M "A M M 2"
_symmetry_group_IT_number 38
_symmetry_cell_setting 'orthorhombic'
loop_
_space_group_symop_operation_xyz
x,y,z
-x,-y,z
-x,y,z
x,-y,z
x,1/2+y,1/2+z
-x,1/2-y,1/2+z
-x,1/2+y,1/2+z
x,1/2-y,1/2+z
loop_
_atom_site_type_symbol
_atom_site_label
_atom_site_fract_x
_atom_site_fract_y
_atom_site_fract_z
Si Si1 0.827468 0.706579 0.309480
Si Si2 0.340534 0.204303 0.393079
Si Si3 0.000000 0.714041 0.058112
Si Si4 0.167115 0.714747 0.144568
Si Si5 0.500000 0.284771 0.801178
Si Si6 0.000000 0.790135 0.392474
Si Si7 0.327672 0.207495 0.554010
Si Si8 0.500000 0.210137 0.135784
O O1 0.810521 0.500000 0.305823
O O2 0.748850 0.785671 0.352706
O O3 0.833281 0.773564 0.227494
O O4 0.915633 0.733763 0.350701
O O5 0.416314 0.275643 0.343740
O O6 0.332900 0.282157 0.473171
O O7 0.362730 0.000000 0.403209
O O8 0.916308 0.769063 0.101055
O O9 0.000000 0.500000 0.056963
O O10 0.000000 0.773406 0.975202
O O11 0.166666 0.500000 0.146019
O O12 0.250561 0.776279 0.102372
O O13 0.500000 0.500000 0.798784
O O14 0.500000 0.226509 0.718335
O O15 0.000000 0.000000 0.394587
O O16 0.416119 0.230515 0.594421
O O17 0.310399 0.000000 0.546653
O O18 0.500000 0.000000 0.136464
#
# Coordination Sequence:
#
# PCOD9358323 Si02
#       8
#     8   8   4   8   4   4   8   4
#     4  11  22  36  56  83 115 145 175 223 281 329
#     4  10  20  37  60  82 107 143 186 228 269 322
#     4   9  17  33  57  81 104 135 180 226 260 303
#     4   9  18  33  55  82 109 140 179 221 267 317
#     4   9  19  35  55  81 112 145 180 222 278 333
#     4  11  22  37  59  83 108 145 190 228 264 319
#     4  10  20  36  58  81 106 143 190 229 262 315
#     4  11  22  35  53  79 112 145 176 222 282 331
#
# _framework density 21.469142000000002
#
# number of rings (size 3 to 8) (size 9 to 14) (size 15 to 20)
#    0.000    2.000    0.000    4.000    0.000    6.000 
#    0.000    2.083    0.000    8.000    0.000    0.000 
#    0.000    0.000    0.000    0.000    0.000    0.000 
#
# Total GULP energy -134160.686775 kJ/mol
# GULP energy per Si atom -5590.028616 kJ/mol
# Density = 2.142028 g / cm^3
# Si number density = 21.469142 Si / 1000 Ang^3
#
#
#
# Elastic Constant Matrix: (Units=GPa)
#
#
# Indices 1 2 3 4 5 6 
#
# 1 187.1260 -29.2284 118.3007 0.0000 0.0000 0.0000
# 2 -29.2284 37.0677 -8.4517 0.0000 0.0000 0.0000
# 3 118.3007 -8.4517 248.9603 0.0000 0.0000 0.0000
# 4 0.0000 0.0000 0.0000 4.2275 0.0000 0.0000
# 5 0.0000 0.0000 0.0000 0.0000 51.4223 0.0000
# 6 0.0000 0.0000 0.0000 0.0000 0.0000 36.4808
#
#
#
# Elastic Compliance Matrix: (Units=1/GPa)
#
#
# Indices 1 2 3 4 5 6 
#
# 1 0.008801 0.006033 -0.003977 0.000000 0.000000 0.000000
# 2 0.006033 0.031323 -0.001803 0.000000 0.000000 0.000000
# 3 -0.003977 -0.001803 0.005845 0.000000 0.000000 0.000000
# 4 0.000000 0.000000 0.000000 0.236549 0.000000 0.000000
# 5 0.000000 0.000000 0.000000 0.000000 0.019447 0.000000
# 6 0.000000 0.000000 0.000000 0.000000 0.000000 0.027412
#
#
# Mechanical properties :
#
#
# Convention : Reuss Voigt Hill
#
# Bulk Modulus (GPa) = 21.51752 70.48836 46.00294
# Shear Modulus (GPa) = 14.51955 44.59501 29.55728
#
# Velocity S-wave (km/s) = 2.60340 4.56254 3.71446
# Velocity P-wave (km/s) = 4.36820 7.78841 6.31429
#
# Compressibility (1/GPa) = 0.04647376
#
# Stress axis : x y z
#
# Youngs Moduli (GPa) = 113.62959 31.92515 171.07786
#
# Poissons Ratio (x) = -0.19259 0.68038
# Poissons Ratio (y) = -0.68547 0.30848
# Poissons Ratio (z) = 0.45191 0.05757
#
# Static dielectric constant tensor:
#      x y z
#    x 1.654340 0.000000 0.000000 
#    y 0.000000 1.828170 0.000000 
#    z 0.000000 0.000000 1.759570 
# 
# From -- ./inp_files/18229.got.cif
#   From: 2010.05.17/outbox.cif.g08.bks.cpg/sg38_10_cif.got.tgz:18229.got - 2010.06.03 18:07:57.
