data_PCOD9358036
_publ_section_title
;
Structure prediction by ZEFSAII (Michael W. Deem and Ramdas Pophale) SiO2 
 PCOD9358036
Probable space group: A M M 2
;
_chemical_formula_sum "Si O2"
_cell_formula_units_Z 64
_cell_length_a 8.289970
_cell_length_b 20.240986
_cell_length_c 21.011017
_cell_angle_alpha 90.000000
_cell_angle_beta 90.000000
_cell_angle_gamma 90.000000
_cell_volume 3525.589122
_symmetry_space_group_name_H-M "A M M 2"
_symmetry_group_IT_number 38
_symmetry_cell_setting 'orthorhombic'
loop_
_space_group_symop_operation_xyz
x,y,z
-x,-y,z
-x,y,z
x,-y,z
x,1/2+y,1/2+z
-x,1/2-y,1/2+z
-x,1/2+y,1/2+z
x,1/2-y,1/2+z
loop_
_atom_site_type_symbol
_atom_site_label
_atom_site_fract_x
_atom_site_fract_y
_atom_site_fract_z
Si Si1 0.309421 0.710622 0.824290
Si Si2 0.306782 0.925947 0.903379
Si Si3 0.308716 0.214290 0.568363
Si Si4 0.187708 0.788960 0.945346
Si Si5 0.804811 0.073106 0.757187
Si Si6 0.303897 0.427553 0.026887
Si Si7 0.303671 0.426973 0.877699
Si Si8 0.809015 0.289474 0.203027
O O1 0.500000 0.708171 0.810904
O O2 0.283397 0.751972 0.889039
O O3 0.248183 0.636412 0.838425
O O4 0.225569 0.746494 0.765497
O O5 0.500000 0.921501 0.906335
O O6 0.231643 0.866076 0.942345
O O7 0.253638 0.918668 0.829771
O O8 0.257768 0.000000 0.923634
O O9 0.500000 0.214755 0.556742
O O10 0.228982 0.256907 0.512888
O O11 0.248843 0.138172 0.562408
O O12 0.271893 0.237614 0.639372
O O13 0.000000 0.780441 0.931011
O O14 0.747390 0.136022 0.717494
O O15 0.000000 0.074421 0.757794
O O16 0.752554 0.000000 0.734923
O O17 0.500000 0.428775 0.029822
O O18 0.246409 0.500000 0.048983
O O19 0.260026 0.420005 0.952254
O O20 0.500000 0.426009 0.876203
O O21 0.251083 0.500000 0.856144
O O22 0.000000 0.292501 0.192432
#
# Coordination Sequence:
#
# PCOD9358036 Si02
#       8
#     8   8   8   8   8   8   8   8
#     4  11  20  34  58  84 108 142 187 231 270 322
#     4  10  20  34  56  85 112 139 180 231 275 324
#     4  11  22  37  56  79 108 147 191 235 274 325
#     4  12  23  36  56  82 113 148 182 226 280 333
#     4   9  18  33  52  75 109 152 188 220 268 327
#     4   8  14  27  49  78 109 140 176 220 269 318
#     4   8  14  27  51  82 110 135 170 221 275 320
#     4  11  23  37  52  77 113 151 185 228 281 334
#
# _framework density 18.152994
#
# number of rings (size 3 to 8) (size 9 to 14) (size 15 to 20)
#    0.000    2.000    2.500    3.375    0.000    1.750 
#    0.000    0.000    0.000    4.125    0.000    1.750 
#    0.000    0.000    0.000    0.000    0.000    0.000 
#
# Total GULP energy -178592.505139 kJ/mol
# GULP energy per Si atom -5581.015786 kJ/mol
# Density = 1.811168 g / cm^3
# Si number density = 18.152994 Si / 1000 Ang^3
#
#
#
# Elastic Constant Matrix: (Units=GPa)
#
#
# Indices 1 2 3 4 5 6 
#
# 1 17.8262 0.0377 -8.9920 0.0000 0.0000 0.0000
# 2 0.0377 104.3277 37.4766 0.0000 0.0000 0.0000
# 3 -8.9920 37.4766 68.4246 0.0000 0.0000 0.0000
# 4 0.0000 0.0000 0.0000 19.2616 0.0000 0.0000
# 5 0.0000 0.0000 0.0000 0.0000 25.1439 0.0000
# 6 0.0000 0.0000 0.0000 0.0000 0.0000 15.5513
#
#
#
# Elastic Compliance Matrix: (Units=1/GPa)
#
#
# Indices 1 2 3 4 5 6 
#
# 1 0.061160 -0.003622 0.010021 0.000000 0.000000 0.000000
# 2 -0.003622 0.012147 -0.007129 0.000000 0.000000 0.000000
# 3 0.010021 -0.007129 0.019836 0.000000 0.000000 0.000000
# 4 0.000000 0.000000 0.000000 0.051917 0.000000 0.000000
# 5 0.000000 0.000000 0.000000 0.000000 0.039771 0.000000
# 6 0.000000 0.000000 0.000000 0.000000 0.000000 0.064303
#
#
# Mechanical properties :
#
#
# Convention : Reuss Voigt Hill
#
# Bulk Modulus (GPa) = 10.90711 27.51370 19.21040
# Shear Modulus (GPa) = 17.78374 22.79511 20.28943
#
# Velocity S-wave (km/s) = 3.13335 3.54746 3.34681
# Velocity P-wave (km/s) = 4.37172 5.65409 5.05375
#
# Compressibility (1/GPa) = 0.09168328
#
# Stress axis : x y z
#
# Youngs Moduli (GPa) = 16.35064 82.32184 50.41272
#
# Poissons Ratio (x) = 0.29816 -0.50519
# Poissons Ratio (y) = 0.05922 0.35940
# Poissons Ratio (z) = -0.16385 0.58689
#
# Static dielectric constant tensor:
#      x y z
#    x 1.626090 0.000000 0.000000 
#    y 0.000000 1.658790 0.000000 
#    z 0.000000 0.000000 1.588870 
# 
# From -- ./inp_files/17163.got.cif
#   From: 2010.05.17/outbox.cif.g08.bks.cpg/sg38_9_cif.got.tgz:17163.got - 2010.06.03 18:07:57.
