data_PCOD9358047
_publ_section_title
;
Structure prediction by ZEFSAII (Michael W. Deem and Ramdas Pophale) SiO2 
 PCOD9358047
Probable space group: A M M 2
;
_chemical_formula_sum "Si O2"
_cell_formula_units_Z 40
_cell_length_a 7.764883
_cell_length_b 9.050304
_cell_length_c 29.589241
_cell_angle_alpha 90.000000
_cell_angle_beta 90.000000
_cell_angle_gamma 90.000000
_cell_volume 2079.370646
_symmetry_space_group_name_H-M "A M M 2"
_symmetry_group_IT_number 38
_symmetry_cell_setting 'orthorhombic'
loop_
_space_group_symop_operation_xyz
x,y,z
-x,-y,z
-x,y,z
x,-y,z
x,1/2+y,1/2+z
-x,1/2-y,1/2+z
-x,1/2+y,1/2+z
x,1/2-y,1/2+z
loop_
_atom_site_type_symbol
_atom_site_label
_atom_site_fract_x
_atom_site_fract_y
_atom_site_fract_z
Si Si1 0.291457 0.170759 0.832250
Si Si2 0.290912 0.671470 0.924551
Si Si3 0.197475 0.825078 0.016888
Si Si4 0.500000 0.677913 0.671502
Si Si5 0.194722 0.325351 0.739507
Si Si6 0.500000 0.323438 0.073689
O O1 0.500000 0.177651 0.830096
O O2 0.237222 0.262678 0.876273
O O3 0.222608 0.238228 0.785879
O O4 0.241111 0.000000 0.837126
O O5 0.500000 0.679480 0.926913
O O6 0.241531 0.500000 0.928648
O O7 0.218749 0.765405 0.965977
O O8 0.333169 0.739156 0.047695
O O9 0.000000 0.802340 0.031499
O O10 0.234854 0.000000 0.018146
O O11 0.500000 0.500000 0.663648
O O12 0.666014 0.715872 0.701875
O O13 0.500000 0.762018 0.624437
O O14 0.219576 0.500000 0.749182
O O15 0.000000 0.303512 0.723216
O O16 0.500000 0.500000 0.072385
#
# Coordination Sequence:
#
# PCOD9358047 Si02
#       6
#     8   8   8   4   8   4
#     4  10  20  34  56  86 122 164 206 247 296 357
#     4  10  20  35  59  90 124 164 206 250 303 360
#     4  11  24  42  66  94 125 163 207 254 306 366
#     4  10  22  42  65  88 119 156 198 251 305 365
#     4  10  21  38  62  90 119 155 200 248 300 357
#     4  12  26  44  67  94 125 160 200 253 315 373
#
# _framework density 19.236588999999999
#
# number of rings (size 3 to 8) (size 9 to 14) (size 15 to 20)
#    0.000    1.600    2.000    2.700    0.000    6.000 
#    0.000    2.000    0.000    0.000    0.000    0.000 
#    0.000    0.000    0.000    0.000    0.000    0.000 
#
# Total GULP energy -111833.076296 kJ/mol
# GULP energy per Si atom -5591.653815 kJ/mol
# Density = 1.919281 g / cm^3
# Si number density = 19.236589 Si / 1000 Ang^3
#
#
#
# Elastic Constant Matrix: (Units=GPa)
#
#
# Indices 1 2 3 4 5 6 
#
# 1 97.7242 73.3635 68.5165 0.0000 0.0000 0.0000
# 2 73.3635 120.5038 78.2445 0.0000 0.0000 0.0000
# 3 68.5165 78.2445 144.0514 0.0000 0.0000 0.0000
# 4 0.0000 0.0000 0.0000 40.5013 0.0000 0.0000
# 5 0.0000 0.0000 0.0000 0.0000 -10.2034 0.0000
# 6 0.0000 0.0000 0.0000 0.0000 0.0000 14.1920
#
#
#
# Elastic Compliance Matrix: (Units=1/GPa)
#
#
# Indices 1 2 3 4 5 6 
#
# 1 0.020668 -0.009578 -0.004628 0.000000 0.000000 0.000000
# 2 -0.009578 0.017258 -0.004819 0.000000 0.000000 0.000000
# 3 -0.004628 -0.004819 0.011761 0.000000 0.000000 0.000000
# 4 0.000000 0.000000 0.000000 0.024691 0.000000 0.000000
# 5 0.000000 0.000000 0.000000 0.000000 -0.098006 0.000000
# 6 0.000000 0.000000 0.000000 0.000000 0.000000 0.070462
#
#
# Mechanical properties :
#
#
# Convention : Reuss Voigt Hill
#
# Bulk Modulus (GPa) = 85.92649 89.16982 87.54815
# Shear Modulus (GPa) = 56.33085 18.37498 37.35292
#
# Velocity S-wave (km/s) = 5.41726 3.09400 4.41133
# Velocity P-wave (km/s) = 9.15938 7.69537 8.45911
#
# Compressibility (1/GPa) = 0.01163785
#
# Stress axis : x y z
#
# Youngs Moduli (GPa) = 48.38426 57.94348 85.02919
#
# Poissons Ratio (x) = 0.55496 0.39353
# Poissons Ratio (y) = 0.46340 0.40973
# Poissons Ratio (z) = 0.22393 0.27921
#
# Static dielectric constant tensor:
#      x y z
#    x 1.694490 0.000000 0.000000 
#    y 0.000000 1.644380 0.000000 
#    z 0.000000 0.000000 1.617410 
# 
# From -- ./inp_files/23221.got.cif
#   From: 2010.05.17/outbox.cif.g08.bks.cpg/sg38_12_cif.got.tgz:23221.got - 2010.06.03 18:07:57.
