data_PCOD9358405
_publ_section_title
;
Structure prediction by ZEFSAII (Michael W. Deem and Ramdas Pophale) SiO2 
 PCOD9358405
Probable space group: A M M 2
;
_chemical_formula_sum "Si O2"
_cell_formula_units_Z 48
_cell_length_a 7.833595
_cell_length_b 28.090539
_cell_length_c 9.772932
_cell_angle_alpha 90.000000
_cell_angle_beta 90.000000
_cell_angle_gamma 90.000000
_cell_volume 2150.532767
_symmetry_space_group_name_H-M "A M M 2"
_symmetry_group_IT_number 38
_symmetry_cell_setting 'orthorhombic'
loop_
_space_group_symop_operation_xyz
x,y,z
-x,-y,z
-x,y,z
x,-y,z
x,1/2+y,1/2+z
-x,1/2-y,1/2+z
-x,1/2+y,1/2+z
x,1/2-y,1/2+z
loop_
_atom_site_type_symbol
_atom_site_label
_atom_site_fract_x
_atom_site_fract_y
_atom_site_fract_z
Si Si1 0.702673 0.275146 0.227240
Si Si2 0.199545 0.193394 0.425116
Si Si3 0.701180 0.552614 0.568465
Si Si4 0.794330 0.087279 0.361970
Si Si5 0.794636 0.552285 0.158369
Si Si6 0.303426 0.629970 0.366298
O O1 0.500000 0.272935 0.247369
O O2 0.776399 0.227867 0.295701
O O3 0.772550 0.320396 0.314052
O O4 0.730780 0.284020 0.065995
O O5 0.269476 0.141041 0.389962
O O6 0.000000 0.186727 0.452215
O O7 0.500000 0.550887 0.532378
O O8 0.774406 0.500000 0.539200
O O9 0.717911 0.564008 0.727683
O O10 0.776818 0.597499 0.485465
O O11 0.759554 0.057583 0.498232
O O12 0.000000 0.088622 0.342928
O O13 0.742933 0.500000 0.207692
O O14 0.704042 0.594406 0.237952
O O15 0.000000 0.557354 0.176790
O O16 0.500000 0.640280 0.405150
#
# Coordination Sequence:
#
# PCOD9358405 Si02
#       6
#     8   8   8   8   8   8
#     4  11  24  42  65  94 125 162 205 256 313 372
#     4  11  24  43  66  93 124 162 205 256 313 372
#     4  10  22  39  59  87 124 164 205 250 300 357
#     4  10  22  40  61  87 121 159 200 249 303 360
#     4  10  20  36  60  88 119 156 198 247 299 355
#     4  10  22  40  61  87 121 159 199 248 304 360
#
# _framework density 22.320052
#
# number of rings (size 3 to 8) (size 9 to 14) (size 15 to 20)
#    0.000    1.667    1.667    2.000    2.333    5.333 
#    0.000    0.000    0.000    0.000    0.000    0.000 
#    0.000    0.000    0.000    0.000    0.000    0.000 
#
# Total GULP energy -134099.534792 kJ/mol
# GULP energy per Si atom -5587.480616 kJ/mol
# Density = 2.226925 g / cm^3
# Si number density = 22.320052 Si / 1000 Ang^3
#
#
#
# Elastic Constant Matrix: (Units=GPa)
#
#
# Indices 1 2 3 4 5 6 
#
# 1 27.7929 -3.4424 -8.6512 0.0000 0.0000 0.0000
# 2 -3.4424 98.5959 -0.5464 0.0000 0.0000 0.0000
# 3 -8.6512 -0.5464 72.2677 0.0000 0.0000 0.0000
# 4 0.0000 0.0000 0.0000 40.9365 0.0000 0.0000
# 5 0.0000 0.0000 0.0000 0.0000 35.1019 0.0000
# 6 0.0000 0.0000 0.0000 0.0000 0.0000 100.6304
#
#
#
# Elastic Compliance Matrix: (Units=1/GPa)
#
#
# Indices 1 2 3 4 5 6 
#
# 1 0.037548 0.001336 0.004505 0.000000 0.000000 0.000000
# 2 0.001336 0.010190 0.000237 0.000000 0.000000 0.000000
# 3 0.004505 0.000237 0.014379 0.000000 0.000000 0.000000
# 4 0.000000 0.000000 0.000000 0.024428 0.000000 0.000000
# 5 0.000000 0.000000 0.000000 0.000000 0.028488 0.000000
# 6 0.000000 0.000000 0.000000 0.000000 0.000000 0.009937
#
#
# Mechanical properties :
#
#
# Convention : Reuss Voigt Hill
#
# Bulk Modulus (GPa) = 13.46384 19.26405 16.36395
# Shear Modulus (GPa) = 36.34438 49.42019 42.88228
#
# Velocity S-wave (km/s) = 4.03963 4.71059 4.38796
# Velocity P-wave (km/s) = 5.27290 6.18351 5.74627
#
# Compressibility (1/GPa) = 0.07427299
#
# Stress axis : x y z
#
# Youngs Moduli (GPa) = 26.63241 98.13188 69.54810
#
# Poissons Ratio (x) = -0.13110 -0.31332
# Poissons Ratio (y) = -0.03558 -0.01648
# Poissons Ratio (z) = -0.11998 -0.02325
#
# Static dielectric constant tensor:
#      x y z
#    x 1.843280 0.000000 0.000000 
#    y 0.000000 1.810600 0.000000 
#    z 0.000000 0.000000 1.792190 
# 
# From -- ./inp_files/3767.got.cif
#   From: 2010.05.17/outbox.cif.g08.bks.cpg/sg38_2_cif.got.tgz:3767.got - 2010.06.03 18:07:57.
