data_PCOD9358248
_publ_section_title
;
Structure prediction by ZEFSAII (Michael W. Deem and Ramdas Pophale) SiO2 
 PCOD9358248
Probable space group: A M M 2
;
_chemical_formula_sum "Si O2"
_cell_formula_units_Z 48
_cell_length_a 8.128628
_cell_length_b 24.189962
_cell_length_c 12.018042
_cell_angle_alpha 90.000000
_cell_angle_beta 90.000000
_cell_angle_gamma 90.000000
_cell_volume 2363.122049
_symmetry_space_group_name_H-M "A M M 2"
_symmetry_group_IT_number 38
_symmetry_cell_setting 'orthorhombic'
loop_
_space_group_symop_operation_xyz
x,y,z
-x,-y,z
-x,y,z
x,-y,z
x,1/2+y,1/2+z
-x,1/2-y,1/2+z
-x,1/2+y,1/2+z
x,1/2-y,1/2+z
loop_
_atom_site_type_symbol
_atom_site_label
_atom_site_fract_x
_atom_site_fract_y
_atom_site_fract_z
Si Si1 0.302040 0.936170 0.760380
Si Si2 0.697357 0.771956 0.385898
Si Si3 0.200472 0.561441 0.845803
Si Si4 0.197246 0.862641 0.551007
Si Si5 0.304728 0.151546 0.931146
Si Si6 0.804080 0.848359 0.181356
O O1 0.500000 0.940671 0.763504
O O2 0.259759 0.892272 0.662550
O O3 0.241835 0.904294 0.871985
O O4 0.239870 0.000000 0.745982
O O5 0.500000 0.772020 0.382300
O O6 0.747064 0.803357 0.500981
O O7 0.761316 0.709183 0.381613
O O8 0.760794 0.804450 0.277565
O O9 0.263574 0.500000 0.850847
O O10 0.248598 0.593532 0.735412
O O11 0.000000 0.560607 0.848366
O O12 0.252497 0.596227 0.952323
O O13 0.000000 0.861073 0.556819
O O14 0.500000 0.151570 0.911072
O O15 0.275832 0.156912 0.062002
O O16 0.000000 0.847488 0.166850
#
# Coordination Sequence:
#
# PCOD9358248 Si02
#       6
#     8   8   8   8   8   8
#     4  10  22  40  60  85 120 162 205 244 289 353
#     4  10  21  38  60  83 113 153 197 241 295 359
#     4   8  15  30  52  78 110 145 178 220 279 339
#     4  10  20  35  58  89 119 150 192 247 301 346
#     4  10  23  40  58  80 112 157 198 237 290 355
#     4  10  21  36  56  85 115 143 186 242 294 346
#
# _framework density 20.312111999999999
#
# number of rings (size 3 to 8) (size 9 to 14) (size 15 to 20)
#    0.000    2.333    0.000    3.000    2.333    3.667 
#    0.000    0.000    0.000    9.500    0.000    0.000 
#    0.000    0.000    0.000    0.000    0.000    0.000 
#
# Total GULP energy -133783.187651 kJ/mol
# GULP energy per Si atom -5574.299485 kJ/mol
# Density = 2.026588 g / cm^3
# Si number density = 20.312112 Si / 1000 Ang^3
#
#
#
# Elastic Constant Matrix: (Units=GPa)
#
#
# Indices 1 2 3 4 5 6 
#
# 1 15.6178 17.4614 -7.9255 0.0000 0.0000 0.0000
# 2 17.4614 93.7284 30.4465 0.0000 0.0000 0.0000
# 3 -7.9255 30.4465 79.8085 0.0000 0.0000 0.0000
# 4 0.0000 0.0000 0.0000 16.7082 0.0000 0.0000
# 5 0.0000 0.0000 0.0000 0.0000 -25.0220 0.0000
# 6 0.0000 0.0000 0.0000 0.0000 0.0000 13.2155
#
#
#
# Elastic Compliance Matrix: (Units=1/GPa)
#
#
# Indices 1 2 3 4 5 6 
#
# 1 0.102877 -0.025665 0.020007 0.000000 0.000000 0.000000
# 2 -0.025665 0.018581 -0.009637 0.000000 0.000000 0.000000
# 3 0.020007 -0.009637 0.018193 0.000000 0.000000 0.000000
# 4 0.000000 0.000000 0.000000 0.059851 0.000000 0.000000
# 5 0.000000 0.000000 0.000000 0.000000 -0.039965 0.000000
# 6 0.000000 0.000000 0.000000 0.000000 0.000000 0.075669
#
#
# Mechanical properties :
#
#
# Convention : Reuss Voigt Hill
#
# Bulk Modulus (GPa) = 9.16910 29.90217 19.53563
# Shear Modulus (GPa) = 16.54809 10.92516 13.73663
#
# Velocity S-wave (km/s) = 2.85738 2.32171 2.60336
# Velocity P-wave (km/s) = 3.92556 4.68406 4.32148
#
# Compressibility (1/GPa) = 0.10906199
#
# Stress axis : x y z
#
# Youngs Moduli (GPa) = 9.72034 53.81854 54.96495
#
# Poissons Ratio (x) = 1.38125 -1.09971
# Poissons Ratio (y) = 0.24947 0.52971
# Poissons Ratio (z) = -0.19448 0.51866
#
# Static dielectric constant tensor:
#      x y z
#    x 1.712770 0.000000 0.000000 
#    y 0.000000 1.769060 0.000000 
#    z 0.000000 0.000000 1.714970 
# 
# From -- ./inp_files/8146.got.cif
#   From: 2010.05.17/outbox.cif.g08.bks.cpg/sg38_5_cif.got.tgz:8146.got - 2010.06.03 18:07:57.
