data_PCOD9358764
_publ_section_title
;
Structure prediction by ZEFSAII (Michael W. Deem and Ramdas Pophale) SiO2 
 PCOD9358764
Probable space group: A M M 2
;
_chemical_formula_sum "Si O2"
_cell_formula_units_Z 48
_cell_length_a 9.422124
_cell_length_b 7.868501
_cell_length_c 32.302082
_cell_angle_alpha 90.000000
_cell_angle_beta 90.000000
_cell_angle_gamma 90.000000
_cell_volume 2394.811501
_symmetry_space_group_name_H-M "A M M 2"
_symmetry_group_IT_number 38
_symmetry_cell_setting 'orthorhombic'
loop_
_space_group_symop_operation_xyz
x,y,z
-x,-y,z
-x,y,z
x,-y,z
x,1/2+y,1/2+z
-x,1/2-y,1/2+z
-x,1/2+y,1/2+z
x,1/2-y,1/2+z
loop_
_atom_site_type_symbol
_atom_site_label
_atom_site_fract_x
_atom_site_fract_y
_atom_site_fract_z
Si Si1 0.336931 0.205722 0.065440
Si Si2 0.660485 0.296562 0.224391
Si Si3 0.336874 0.705691 0.385400
Si Si4 0.839177 0.202450 0.304734
Si Si5 0.327217 0.803396 0.975430
Si Si6 0.838984 0.704497 0.146160
O O1 0.500000 0.262358 0.072634
O O2 0.238056 0.255701 0.103183
O O3 0.340070 0.000000 0.062927
O O4 0.287398 0.270721 0.020127
O O5 0.500000 0.228597 0.226323
O O6 0.650534 0.500000 0.219398
O O7 0.745486 0.265192 0.266454
O O8 0.747059 0.229450 0.184840
O O9 0.500000 0.762195 0.377953
O O10 0.340845 0.500000 0.387966
O O11 0.236449 0.753612 0.347825
O O12 0.287854 0.770961 0.430716
O O13 0.000000 0.270828 0.302900
O O14 0.845780 0.000000 0.301562
O O15 0.500000 0.805510 0.975485
O O16 0.278689 0.000000 0.975379
O O17 0.845344 0.500000 0.149962
O O18 0.000000 0.769786 0.147187
#
# Coordination Sequence:
#
# PCOD9358764 Si02
#       6
#     8   8   8   8   8   8
#     4   9  17  31  53  79 105 135 172 213 256 300
#     4  10  21  38  60  81  98 124 168 216 257 301
#     4   9  17  32  56  81 102 130 172 217 257 299
#     4  11  24  38  51  73 107 141 169 202 250 306
#     4   7  12  26  49  76 103 130 166 213 256 294
#     4  10  21  36  53  75 105 139 171 205 250 303
#
# _framework density 20.043331999999999
#
# number of rings (size 3 to 8) (size 9 to 14) (size 15 to 20)
#    0.000    2.667    0.000    4.000    0.000    6.667 
#    0.000    1.667    0.000    8.000    0.000    0.000 
#    0.000    0.000    0.000    0.000    0.000    0.000 
#
# Total GULP energy -133861.358161 kJ/mol
# GULP energy per Si atom -5577.556590 kJ/mol
# Density = 1.999771 g / cm^3
# Si number density = 20.043332 Si / 1000 Ang^3
#
#
#
# Elastic Constant Matrix: (Units=GPa)
#
#
# Indices 1 2 3 4 5 6 
#
# 1 154.6119 9.2446 117.1621 0.0000 0.0000 0.0000
# 2 9.2446 21.3453 0.2980 0.0000 0.0000 0.0000
# 3 117.1621 0.2980 218.4900 0.0000 0.0000 0.0000
# 4 0.0000 0.0000 0.0000 23.2471 0.0000 0.0000
# 5 0.0000 0.0000 0.0000 0.0000 -63.7357 0.0000
# 6 0.0000 0.0000 0.0000 0.0000 0.0000 19.4242
#
#
#
# Elastic Compliance Matrix: (Units=1/GPa)
#
#
# Indices 1 2 3 4 5 6 
#
# 1 0.011374 -0.004841 -0.006093 0.000000 0.000000 0.000000
# 2 -0.004841 0.048910 0.002529 0.000000 0.000000 0.000000
# 3 -0.006093 0.002529 0.007840 0.000000 0.000000 0.000000
# 4 0.000000 0.000000 0.000000 0.043016 0.000000 0.000000
# 5 0.000000 0.000000 0.000000 0.000000 -0.015690 0.000000
# 6 0.000000 0.000000 0.000000 0.000000 0.000000 0.051482
#
#
# Mechanical properties :
#
#
# Convention : Reuss Voigt Hill
#
# Bulk Modulus (GPa) = 19.48715 71.98403 45.73559
# Shear Modulus (GPa) = 27.64761 13.63661 20.64211
#
# Velocity S-wave (km/s) = 3.71805 2.61119 3.21265
# Velocity P-wave (km/s) = 5.30805 6.71441 6.05222
#
# Compressibility (1/GPa) = 0.05131587
#
# Stress axis : x y z
#
# Youngs Moduli (GPa) = 87.91876 20.44568 127.54295
#
# Poissons Ratio (x) = 0.09898 0.77707
# Poissons Ratio (y) = 0.42562 -0.32259
# Poissons Ratio (z) = 0.53566 -0.05171
#
# Static dielectric constant tensor:
#      x y z
#    x 1.693050 0.000000 0.000000 
#    y 0.000000 1.746130 0.000000 
#    z 0.000000 0.000000 1.715120 
# 
# From -- ./inp_files/24270.got.cif
#   From: 2010.05.17/outbox.cif.g08.bks.cpg/sg38_13_cif.got.tgz:24270.got - 2010.06.03 18:07:57.
