data_PCOD9358456
_publ_section_title
;
Structure prediction by ZEFSAII (Michael W. Deem and Ramdas Pophale) SiO2 
 PCOD9358456
Probable space group: A M M 2
;
_chemical_formula_sum "Si O2"
_cell_formula_units_Z 64
_cell_length_a 19.880033
_cell_length_b 9.417786
_cell_length_c 20.460888
_cell_angle_alpha 90.000000
_cell_angle_beta 90.000000
_cell_angle_gamma 90.000000
_cell_volume 3830.808098
_symmetry_space_group_name_H-M "A M M 2"
_symmetry_group_IT_number 38
_symmetry_cell_setting 'orthorhombic'
loop_
_space_group_symop_operation_xyz
x,y,z
-x,-y,z
-x,y,z
x,-y,z
x,1/2+y,1/2+z
-x,1/2-y,1/2+z
-x,1/2+y,1/2+z
x,1/2-y,1/2+z
loop_
_atom_site_type_symbol
_atom_site_label
_atom_site_fract_x
_atom_site_fract_y
_atom_site_fract_z
Si Si1 0.645494 0.331994 0.363190
Si Si2 0.419360 0.165896 0.243842
Si Si3 0.794294 0.168739 0.669799
Si Si4 0.793932 0.668752 0.324119
Si Si5 0.074082 0.166240 0.168042
Si Si6 0.647025 0.829683 0.623089
Si Si7 0.925787 0.666293 0.826678
Si Si8 0.579904 0.333211 0.504947
O O1 0.639447 0.500000 0.345421
O O2 0.608693 0.237037 0.309509
O O3 0.724873 0.297203 0.361205
O O4 0.612245 0.312636 0.433701
O O5 0.500000 0.173506 0.243116
O O6 0.390124 0.254243 0.183392
O O7 0.399760 0.000000 0.239380
O O8 0.783278 0.204000 0.746934
O O9 0.860893 0.248119 0.645664
O O10 0.726317 0.202969 0.631222
O O11 0.805256 0.000000 0.666597
O O12 0.805135 0.500000 0.327929
O O13 0.860381 0.748373 0.348662
O O14 0.073942 0.176188 0.247356
O O15 0.000000 0.216569 0.145926
O O16 0.080332 0.000000 0.151763
O O17 0.615924 0.765612 0.557536
O O18 0.638952 0.000000 0.626580
O O19 0.919611 0.500000 0.843002
O O20 0.000000 0.716563 0.848757
O O21 0.500000 0.305224 0.502920
O O22 0.588686 0.500000 0.522871
#
# Coordination Sequence:
#
# PCOD9358456 Si02
#       8
#     8   8   8   8   8   8   8   8
#     4  10  20  37  57  77 104 138 172 211 263 316
#     4  11  23  36  53  79 106 131 168 215 259 311
#     4   9  17  29  45  69  99 130 167 207 248 300
#     4   9  16  28  46  70  99 129 166 207 248 301
#     4   8  14  24  39  63  96 132 166 199 242 296
#     4  11  22  37  55  76 104 138 174 214 262 313
#     4   8  14  24  38  61  96 134 167 199 242 295
#     4  10  22  39  57  77 102 134 174 218 264 316
#
# _framework density 16.706657
#
# number of rings (size 3 to 8) (size 9 to 14) (size 15 to 20)
#    0.000    2.500    1.250    2.250    0.000    5.750 
#    0.000    2.500    0.000    0.000    0.000    0.875 
#    0.000    1.000    0.000    0.000    0.000    0.000 
#
# Total GULP energy -178379.534056 kJ/mol
# GULP energy per Si atom -5574.360439 kJ/mol
# Density = 1.666863 g / cm^3
# Si number density = 16.706657 Si / 1000 Ang^3
#
#
#
# Elastic Constant Matrix: (Units=GPa)
#
#
# Indices 1 2 3 4 5 6 
#
# 1 166.0783 81.4725 49.7427 0.0000 0.0000 0.0000
# 2 81.4725 72.1254 47.0851 0.0000 0.0000 0.0000
# 3 49.7427 47.0851 52.4515 0.0000 0.0000 0.0000
# 4 0.0000 0.0000 0.0000 22.3071 0.0000 0.0000
# 5 0.0000 0.0000 0.0000 0.0000 63.5243 0.0000
# 6 0.0000 0.0000 0.0000 0.0000 0.0000 34.5830
#
#
#
# Elastic Compliance Matrix: (Units=1/GPa)
#
#
# Indices 1 2 3 4 5 6 
#
# 1 0.013605 -0.016777 0.002158 0.000000 0.000000 0.000000
# 2 -0.016777 0.054182 -0.032727 0.000000 0.000000 0.000000
# 3 0.002158 -0.032727 0.046397 0.000000 0.000000 0.000000
# 4 0.000000 0.000000 0.000000 0.044829 0.000000 0.000000
# 5 0.000000 0.000000 0.000000 0.000000 0.015742 0.000000
# 6 0.000000 0.000000 0.000000 0.000000 0.000000 0.028916
#
#
# Mechanical properties :
#
#
# Convention : Reuss Voigt Hill
#
# Bulk Modulus (GPa) = 51.30471 71.91729 61.61100
# Shear Modulus (GPa) = 16.40093 31.57318 23.98706
#
# Velocity S-wave (km/s) = 3.13661 4.35196 3.79328
# Velocity P-wave (km/s) = 6.62522 8.27003 7.49289
#
# Compressibility (1/GPa) = 0.01949139
#
# Stress axis : x y z
#
# Youngs Moduli (GPa) = 73.50085 18.45648 21.55300
#
# Poissons Ratio (x) = 0.30965 -0.04652
# Poissons Ratio (y) = 1.23316 0.70537
# Poissons Ratio (z) = -0.15863 0.60403
#
# Static dielectric constant tensor:
#      x y z
#    x 1.571680 0.000000 0.000000 
#    y 0.000000 1.558060 0.000000 
#    z 0.000000 0.000000 1.542500 
# 
# From -- ./inp_files/21430.got.cif
#   From: 2010.05.17/outbox.cif.g08.bks.cpg/sg38_11_cif.got.tgz:21430.got - 2010.06.03 18:07:57.
