data_PCOD9358117
_publ_section_title
;
Structure prediction by ZEFSAII (Michael W. Deem and Ramdas Pophale) SiO2 
 PCOD9358117
Probable space group: A M M 2
;
_chemical_formula_sum "Si O2"
_cell_formula_units_Z 64
_cell_length_a 8.551519
_cell_length_b 20.438285
_cell_length_c 20.825199
_cell_angle_alpha 90.000000
_cell_angle_beta 90.000000
_cell_angle_gamma 90.000000
_cell_volume 3639.794597
_symmetry_space_group_name_H-M "A M M 2"
_symmetry_group_IT_number 38
_symmetry_cell_setting 'orthorhombic'
loop_
_space_group_symop_operation_xyz
x,y,z
-x,-y,z
-x,y,z
x,-y,z
x,1/2+y,1/2+z
-x,1/2-y,1/2+z
-x,1/2+y,1/2+z
x,1/2-y,1/2+z
loop_
_atom_site_type_symbol
_atom_site_label
_atom_site_fract_x
_atom_site_fract_y
_atom_site_fract_z
Si Si1 0.687496 0.676171 0.949410
Si Si2 0.690767 0.074634 0.196899
Si Si3 0.812873 0.924609 0.553944
Si Si4 0.185607 0.821560 0.947683
Si Si5 0.688759 0.075896 0.050052
Si Si6 0.311117 0.075427 0.694657
Si Si7 0.310698 0.173623 0.806301
Si Si8 0.690279 0.676544 0.803292
O O1 0.500000 0.675749 0.950946
O O2 0.750389 0.624474 0.000358
O O3 0.744077 0.749967 0.962824
O O4 0.738423 0.660092 0.876191
O O5 0.500000 0.075179 0.197809
O O6 0.736127 0.090717 0.123701
O O7 0.746749 0.126009 0.249754
O O8 0.739021 0.000000 0.211074
O O9 0.753394 0.905770 0.624872
O O10 0.000000 0.923471 0.553634
O O11 0.760981 0.000000 0.542358
O O12 0.246525 0.841234 0.876978
O O13 0.000000 0.816405 0.946381
O O14 0.238677 0.874343 0.999851
O O15 0.500000 0.080607 0.046653
O O16 0.730226 0.000000 0.036984
O O17 0.500000 0.077834 0.691895
O O18 0.259269 0.123298 0.751529
O O19 0.264922 0.000000 0.707120
O O20 0.500000 0.171763 0.809728
O O21 0.264220 0.248338 0.790207
O O22 0.500000 0.674796 0.802312
#
# Coordination Sequence:
#
# PCOD9358117 Si02
#       8
#     8   8   8   8   8   8   8   8
#     4  10  20  35  55  77 103 137 177 219 260 307
#     4   8  14  26  46  73 101 126 157 201 250 296
#     4  10  21  36  53  76 109 143 173 212 263 317
#     4  11  22  35  52  75 105 139 174 216 266 316
#     4   9  18  33  53  76 103 136 172 210 254 307
#     4   9  18  33  53  76 101 132 173 217 257 303
#     4   9  18  33  51  73 101 133 171 213 255 302
#     4   8  15  28  47  72  99 125 159 206 253 295
#
# _framework density 17.583409
#
# number of rings (size 3 to 8) (size 9 to 14) (size 15 to 20)
#    0.000    2.750    0.000    3.375    0.000    3.500 
#    0.000    5.000    0.000    3.750    0.000    0.000 
#    0.000    0.000    0.000    0.000    0.000    0.000 
#
# Total GULP energy -178452.746708 kJ/mol
# GULP energy per Si atom -5576.648335 kJ/mol
# Density = 1.754339 g / cm^3
# Si number density = 17.583409 Si / 1000 Ang^3
#
#
#
# Elastic Constant Matrix: (Units=GPa)
#
#
# Indices 1 2 3 4 5 6 
#
# 1 24.8685 29.4030 34.4043 0.0000 0.0000 0.0000
# 2 29.4030 124.1337 134.9941 0.0000 0.0000 0.0000
# 3 34.4043 134.9941 173.7594 0.0000 0.0000 0.0000
# 4 0.0000 0.0000 0.0000 44.2593 0.0000 0.0000
# 5 0.0000 0.0000 0.0000 0.0000 -0.0426 0.0000
# 6 0.0000 0.0000 0.0000 0.0000 0.0000 13.5214
#
#
#
# Elastic Compliance Matrix: (Units=1/GPa)
#
#
# Indices 1 2 3 4 5 6 
#
# 1 0.056545 -0.007853 -0.005095 0.000000 0.000000 0.000000
# 2 -0.007853 0.053021 -0.039638 0.000000 0.000000 0.000000
# 3 -0.005095 -0.039638 0.037558 0.000000 0.000000 0.000000
# 4 0.000000 0.000000 0.000000 0.022594 0.000000 0.000000
# 5 0.000000 0.000000 0.000000 0.000000-23.462812 0.000000
# 6 0.000000 0.000000 0.000000 0.000000 0.000000 0.073957
#
#
# Mechanical properties :
#
#
# Convention : Reuss Voigt Hill
#
# Bulk Modulus (GPa) = 23.83564 80.04052 51.93808
# Shear Modulus (GPa) = -0.21645 19.81162 9.79759
#
# Velocity S-wave (km/s) = -0.35124 3.36031 2.36308
# Velocity P-wave (km/s) = 3.66343 7.78941 6.08669
#
# Compressibility (1/GPa) = 0.04195399
#
# Stress axis : x y z
#
# Youngs Moduli (GPa) = 17.68504 18.86033 26.62514
#
# Poissons Ratio (x) = 0.14810 0.13566
# Poissons Ratio (y) = 0.13887 1.05536
# Poissons Ratio (z) = 0.09011 0.74758
#
# Static dielectric constant tensor:
#      x y z
#    x 1.586740 0.000000 0.000000 
#    y 0.000000 1.586080 0.000000 
#    z 0.000000 0.000000 1.578940 
# 
# From -- ./inp_files/17170.got.cif
#   From: 2010.05.17/outbox.cif.g08.bks.cpg/sg38_9_cif.got.tgz:17170.got - 2010.06.03 18:07:57.
