data_PCOD9358520
_publ_section_title
;
Structure prediction by ZEFSAII (Michael W. Deem and Ramdas Pophale) SiO2 
 PCOD9358520
Probable space group: A M M 2
;
_chemical_formula_sum "Si O2"
_cell_formula_units_Z 48
_cell_length_a 8.831522
_cell_length_b 18.572670
_cell_length_c 15.249497
_cell_angle_alpha 90.000000
_cell_angle_beta 90.000000
_cell_angle_gamma 90.000000
_cell_volume 2501.297887
_symmetry_space_group_name_H-M "A M M 2"
_symmetry_group_IT_number 38
_symmetry_cell_setting 'orthorhombic'
loop_
_space_group_symop_operation_xyz
x,y,z
-x,-y,z
-x,y,z
x,-y,z
x,1/2+y,1/2+z
-x,1/2-y,1/2+z
-x,1/2+y,1/2+z
x,1/2-y,1/2+z
loop_
_atom_site_type_symbol
_atom_site_label
_atom_site_fract_x
_atom_site_fract_y
_atom_site_fract_z
Si Si1 0.181760 0.348375 0.744130
Si Si2 0.676468 0.771355 0.080088
Si Si3 0.679593 0.420670 0.320030
Si Si4 0.679074 0.000000 0.301958
Si Si5 0.180918 0.273437 0.387520
Si Si6 0.327053 0.894847 0.616580
Si Si7 0.825577 0.000000 0.488879
O O1 0.237338 0.321446 0.649185
O O2 0.249741 0.426633 0.764099
O O3 0.229575 0.289321 0.818679
O O4 0.000000 0.351808 0.746081
O O5 0.500000 0.792497 0.075162
O O6 0.686191 0.690600 0.117263
O O7 0.745302 0.766798 0.983117
O O8 0.500000 0.410673 0.338348
O O9 0.724785 0.500000 0.354132
O O10 0.770402 0.352214 0.353875
O O11 0.696732 0.421380 0.215006
O O12 0.719873 0.000000 0.404666
O O13 0.500000 0.000000 0.287867
O O14 0.000000 0.268931 0.394702
O O15 0.500000 0.913082 0.590254
O O16 0.213601 0.931628 0.549217
O O17 0.000000 0.000000 0.461372
#
# Coordination Sequence:
#
# PCOD9358520 Si02
#       7
#     8   8   8   4   8   8   4
#     4  11  24  44  68  95 131 167 208 266 326 380
#     4  11  23  40  66  94 123 166 216 261 310 378
#     4  10  20  38  63  90 124 162 205 256 309 370
#     4  12  26  44  66  91 124 167 216 262 314 378
#     4  11  24  41  64  94 129 167 209 261 319 379
#     4  10  20  37  61  90 124 162 205 255 312 376
#     4  12  24  36  58  93 130 165 206 260 322 380
#
# _framework density 19.190037
#
# number of rings (size 3 to 8) (size 9 to 14) (size 15 to 20)
#    0.000    1.167    2.500    4.000    0.000    7.000 
#    1.500    0.000    0.000    0.000    0.000    0.000 
#    0.000    0.000    0.000    0.000    0.000    0.000 
#
# Total GULP energy -134118.763191 kJ/mol
# GULP energy per Si atom -5588.281800 kJ/mol
# Density = 1.914636 g / cm^3
# Si number density = 19.190037 Si / 1000 Ang^3
#
#
#
# Elastic Constant Matrix: (Units=GPa)
#
#
# Indices 1 2 3 4 5 6 
#
# 1 84.0545 51.4966 39.5645 0.0000 0.0000 0.0000
# 2 51.4966 133.0186 37.9365 0.0000 0.0000 0.0000
# 3 39.5645 37.9365 77.9701 0.0000 0.0000 0.0000
# 4 0.0000 0.0000 0.0000 403.7800 0.0000 0.0000
# 5 0.0000 0.0000 0.0000 0.0000 31.9106 0.0000
# 6 0.0000 0.0000 0.0000 0.0000 0.0000 31.8233
#
#
#
# Elastic Compliance Matrix: (Units=1/GPa)
#
#
# Indices 1 2 3 4 5 6 
#
# 1 0.018214 -0.005127 -0.006748 0.000000 0.000000 0.000000
# 2 -0.005127 0.010172 -0.002348 0.000000 0.000000 0.000000
# 3 -0.006748 -0.002348 0.017392 0.000000 0.000000 0.000000
# 4 0.000000 0.000000 0.000000 0.002477 0.000000 0.000000
# 5 0.000000 0.000000 0.000000 0.000000 0.031338 0.000000
# 6 0.000000 0.000000 0.000000 0.000000 0.000000 0.031424
#
#
# Mechanical properties :
#
#
# Convention : Reuss Voigt Hill
#
# Bulk Modulus (GPa) = 57.69329 61.44870 59.57099
# Shear Modulus (GPa) = 34.42596 104.57248 69.49922
#
# Velocity S-wave (km/s) = 4.24010 7.38995 6.02453
# Velocity P-wave (km/s) = 7.35532 10.24236 8.91646
#
# Compressibility (1/GPa) = 0.01733304
#
# Stress axis : x y z
#
# Youngs Moduli (GPa) = 54.90148 98.30758 57.49819
#
# Poissons Ratio (x) = 0.50402 0.38800
# Poissons Ratio (y) = 0.28148 0.13499
# Poissons Ratio (z) = 0.37048 0.23079
#
# Static dielectric constant tensor:
#      x y z
#    x 1.655840 0.000000 0.000000 
#    y 0.000000 1.660270 0.000000 
#    z 0.000000 0.000000 1.646930 
# 
# From -- ./inp_files/12116.got.cif
#   From: 2010.05.17/outbox.cif.g08.bks.cpg/sg38_7_cif.got.tgz:12116.got - 2010.06.03 18:07:57.
