data_PCOD9358039
_publ_section_title
;
Structure prediction by ZEFSAII (Michael W. Deem and Ramdas Pophale) SiO2 
 PCOD9358039
Probable space group: A M M 2
;
_chemical_formula_sum "Si O2"
_cell_formula_units_Z 64
_cell_length_a 24.462160
_cell_length_b 8.111046
_cell_length_c 15.381625
_cell_angle_alpha 90.000000
_cell_angle_beta 90.000000
_cell_angle_gamma 90.000000
_cell_volume 3051.925205
_symmetry_space_group_name_H-M "A M M 2"
_symmetry_group_IT_number 38
_symmetry_cell_setting 'orthorhombic'
loop_
_space_group_symop_operation_xyz
x,y,z
-x,-y,z
-x,y,z
x,-y,z
x,1/2+y,1/2+z
-x,1/2-y,1/2+z
-x,1/2+y,1/2+z
x,1/2-y,1/2+z
loop_
_atom_site_type_symbol
_atom_site_label
_atom_site_fract_x
_atom_site_fract_y
_atom_site_fract_z
Si Si1 0.937664 0.202397 0.932830
Si Si2 0.242874 0.189489 0.561894
Si Si3 0.438686 0.298129 0.656175
Si Si4 0.871415 0.190622 0.095921
Si Si5 0.268674 0.696451 0.265644
Si Si6 0.851287 0.303628 0.290425
Si Si7 0.644592 0.308697 0.511293
Si Si8 0.615770 0.691919 0.831672
O O1 0.896163 0.259989 0.857772
O O2 0.000000 0.253227 0.917975
O O3 0.936549 0.000000 0.932724
O O4 0.915023 0.256369 0.026763
O O5 0.188309 0.294935 0.550794
O O6 0.295933 0.226699 0.505047
O O7 0.387375 0.287834 0.421579
O O8 0.226418 0.000000 0.552544
O O9 0.500000 0.246424 0.633445
O O10 0.437350 0.500000 0.654194
O O11 0.392768 0.239341 0.588783
O O12 0.422471 0.248140 0.753509
O O13 0.867539 0.274354 0.189976
O O14 0.883543 0.000000 0.112432
O O15 0.274957 0.500000 0.284260
O O16 0.210790 0.758759 0.303554
O O17 0.262544 0.715000 0.161604
O O18 0.322171 0.787849 0.297788
O O19 0.847717 0.500000 0.302322
O O20 0.655115 0.500000 0.529470
O O21 0.604238 0.500000 0.848122
#
# Coordination Sequence:
#
# PCOD9358039 Si02
#       8
#     8   8   8   8   8   8   8   8
#     4   9  19  36  57  81 111 150 195 235 279 341
#     4  10  20  36  58  85 118 151 188 238 290 343
#     4   9  20  40  62  83 114 154 194 237 282 335
#     4  10  20  34  56  85 114 148 189 236 288 341
#     4   9  18  33  55  81 114 148 185 235 285 337
#     4   9  19  36  56  80 111 151 189 232 285 338
#     4  11  22  37  59  87 117 153 193 234 286 342
#     4  11  22  36  57  87 117 151 191 233 284 338
#
# _framework density 20.970371
#
# number of rings (size 3 to 8) (size 9 to 14) (size 15 to 20)
#    0.000    2.250    1.250    2.250    1.750    3.000 
#    0.000    1.250    0.000    7.875    0.000    0.000 
#    0.000    0.000    0.000    0.000    0.000    0.000 
#
# Total GULP energy -178688.280577 kJ/mol
# GULP energy per Si atom -5584.008768 kJ/mol
# Density = 2.092264 g / cm^3
# Si number density = 20.970371 Si / 1000 Ang^3
#
#
#
# Elastic Constant Matrix: (Units=GPa)
#
#
# Indices 1 2 3 4 5 6 
#
# 1 73.2215 -7.5124 5.2567 0.0000 0.0000 0.0000
# 2 -7.5124 10.0347 -6.4946 0.0000 0.0000 0.0000
# 3 5.2567 -6.4946 30.3375 0.0000 0.0000 0.0000
# 4 0.0000 0.0000 0.0000 22.5593 0.0000 0.0000
# 5 0.0000 0.0000 0.0000 0.0000 26.5522 0.0000
# 6 0.0000 0.0000 0.0000 0.0000 0.0000 12.6994
#
#
#
# Elastic Compliance Matrix: (Units=1/GPa)
#
#
# Indices 1 2 3 4 5 6 
#
# 1 0.014795 0.010931 -0.000223 0.000000 0.000000 0.000000
# 2 0.010931 0.123760 0.024600 0.000000 0.000000 0.000000
# 3 -0.000223 0.024600 0.038267 0.000000 0.000000 0.000000
# 4 0.000000 0.000000 0.000000 0.044328 0.000000 0.000000
# 5 0.000000 0.000000 0.000000 0.000000 0.037662 0.000000
# 6 0.000000 0.000000 0.000000 0.000000 0.000000 0.078744
#
#
# Mechanical properties :
#
#
# Convention : Reuss Voigt Hill
#
# Bulk Modulus (GPa) = 4.04142 10.67702 7.35922
# Shear Modulus (GPa) = 14.30951 20.51845 17.41398
#
# Velocity S-wave (km/s) = 2.61505 3.13141 2.88481
# Velocity P-wave (km/s) = 3.32406 4.26343 3.82271
#
# Compressibility (1/GPa) = 0.24743801
#
# Stress axis : x y z
#
# Youngs Moduli (GPa) = 67.59144 8.08018 26.13186
#
# Poissons Ratio (x) = -0.08833 0.00584
# Poissons Ratio (y) = -0.73887 -0.64284
# Poissons Ratio (z) = 0.01510 -0.19877
#
# Static dielectric constant tensor:
#      x y z
#    x 1.733650 0.000000 0.000000 
#    y 0.000000 1.731210 0.000000 
#    z 0.000000 0.000000 1.763230 
# 
# From -- ./inp_files/18979.got.cif
#   From: 2010.05.17/outbox.cif.g08.bks.cpg/sg38_10_cif.got.tgz:18979.got - 2010.06.03 18:07:57.
