data_PCOD9358912
_publ_section_title
;
Structure prediction by ZEFSAII (Michael W. Deem and Ramdas Pophale) SiO2 
 PCOD9358912
Probable space group: A M M 2
;
_chemical_formula_sum "Si O2"
_cell_formula_units_Z 56
_cell_length_a 9.830643
_cell_length_b 13.471128
_cell_length_c 18.938289
_cell_angle_alpha 90.000000
_cell_angle_beta 90.000000
_cell_angle_gamma 90.000000
_cell_volume 2507.994775
_symmetry_space_group_name_H-M "A M M 2"
_symmetry_group_IT_number 38
_symmetry_cell_setting 'orthorhombic'
loop_
_space_group_symop_operation_xyz
x,y,z
-x,-y,z
-x,y,z
x,-y,z
x,1/2+y,1/2+z
-x,1/2-y,1/2+z
-x,1/2+y,1/2+z
x,1/2-y,1/2+z
loop_
_atom_site_type_symbol
_atom_site_label
_atom_site_fract_x
_atom_site_fract_y
_atom_site_fract_z
Si Si1 0.852866 0.607038 0.173850
Si Si2 0.650762 0.383813 0.297888
Si Si3 0.341988 0.385530 0.961799
Si Si4 0.848079 0.117629 0.915848
Si Si5 0.842294 0.618784 0.824317
Si Si6 0.659762 0.316792 0.542049
Si Si7 0.153182 0.327449 0.664124
O O1 0.848347 0.500000 0.136235
O O2 0.719741 0.613750 0.221755
O O3 0.859607 0.713038 0.138484
O O4 0.000000 0.604402 0.214922
O O5 0.500000 0.338762 0.300793
O O6 0.636238 0.500000 0.317944
O O7 0.764318 0.340694 0.349553
O O8 0.500000 0.381056 0.939206
O O9 0.314858 0.500000 0.984420
O O10 0.248505 0.363238 0.893784
O O11 0.328250 0.301657 0.022329
O O12 0.752127 0.134462 0.982088
O O13 0.000000 0.158389 0.924958
O O14 0.862412 0.000000 0.904707
O O15 0.832422 0.500000 0.811722
O O16 0.811389 0.666072 0.747188
O O17 0.000000 0.642396 0.839557
O O18 0.500000 0.340155 0.536604
O O19 0.723670 0.359115 0.614455
O O20 0.000000 0.371748 0.655415
#
# Coordination Sequence:
#
# PCOD9358912 Si02
#       7
#     8   8   8   8   8   8   8
#     4   9  18  33  52  76 109 148 188 229 277 335
#     4   9  17  30  50  78 109 139 176 222 271 326
#     4   9  20  40  63  87 117 154 198 249 303 356
#     4  10  21  37  57  80 110 150 189 227 278 341
#     4   9  19  37  61  87 113 146 195 251 299 346
#     4  11  24  39  57  86 119 154 195 244 299 357
#     4  10  22  38  55  81 115 153 195 241 292 352
#
# _framework density 22.328595
#
# number of rings (size 3 to 8) (size 9 to 14) (size 15 to 20)
#    0.000    2.429    0.000    1.286    2.000    6.000 
#    0.000    1.429    0.000    0.000    0.000    0.000 
#    0.000    0.000    0.000    0.000    0.000    0.000 
#
# Total GULP energy -155951.280713 kJ/mol
# GULP energy per Si atom -5569.688597 kJ/mol
# Density = 2.227777 g / cm^3
# Si number density = 22.328595 Si / 1000 Ang^3
#
#
#
# Elastic Constant Matrix: (Units=GPa)
#
#
# Indices 1 2 3 4 5 6 
#
# 1 183.0459 2.9377 75.2289 0.0000 0.0000 0.0000
# 2 2.9377 53.9520 -10.0832 0.0000 0.0000 0.0000
# 3 75.2289 -10.0832 73.0361 0.0000 0.0000 0.0000
# 4 0.0000 0.0000 0.0000 3.8522 0.0000 0.0000
# 5 0.0000 0.0000 0.0000 0.0000 47.0578 0.0000
# 6 0.0000 0.0000 0.0000 0.0000 0.0000 19.3354
#
#
#
# Elastic Compliance Matrix: (Units=1/GPa)
#
#
# Indices 1 2 3 4 5 6 
#
# 1 0.009787 -0.002481 -0.010423 0.000000 0.000000 0.000000
# 2 -0.002481 0.019655 0.005269 0.000000 0.000000 0.000000
# 3 -0.010423 0.005269 0.025155 0.000000 0.000000 0.000000
# 4 0.000000 0.000000 0.000000 0.259592 0.000000 0.000000
# 5 0.000000 0.000000 0.000000 0.000000 0.021250 0.000000
# 6 0.000000 0.000000 0.000000 0.000000 0.000000 0.051719
#
#
# Mechanical properties :
#
#
# Convention : Reuss Voigt Hill
#
# Bulk Modulus (GPa) = 25.42807 49.57787 37.50297
# Shear Modulus (GPa) = 12.03266 30.17912 21.10589
#
# Velocity S-wave (km/s) = 2.32392 3.68039 3.07781
# Velocity P-wave (km/s) = 4.31435 6.34920 5.42798
#
# Compressibility (1/GPa) = 0.03932662
#
# Stress axis : x y z
#
# Youngs Moduli (GPa) = 102.18096 50.87822 39.75340
#
# Poissons Ratio (x) = 0.12622 0.41435
# Poissons Ratio (y) = 0.25350 -0.20945
# Poissons Ratio (z) = 1.06502 -0.26807
#
# Static dielectric constant tensor:
#      x y z
#    x 1.841710 0.000000 0.000000 
#    y 0.000000 1.933420 0.000000 
#    z 0.000000 0.000000 1.811680 
# 
# From -- ./inp_files/19764.got.cif
#   From: 2010.05.17/outbox.cif.g08.bks.cpg/sg38_10_cif.got.tgz:19764.got - 2010.06.03 18:07:57.
