data_PCOD9358588
_publ_section_title
;
Structure prediction by ZEFSAII (Michael W. Deem and Ramdas Pophale) SiO2 
 PCOD9358588
Probable space group: A M M 2
;
_chemical_formula_sum "Si O2"
_cell_formula_units_Z 64
_cell_length_a 8.949745
_cell_length_b 23.752837
_cell_length_c 15.664220
_cell_angle_alpha 90.000000
_cell_angle_beta 90.000000
_cell_angle_gamma 90.000000
_cell_volume 3329.928619
_symmetry_space_group_name_H-M "A M M 2"
_symmetry_group_IT_number 38
_symmetry_cell_setting 'orthorhombic'
loop_
_space_group_symop_operation_xyz
x,y,z
-x,-y,z
-x,y,z
x,-y,z
x,1/2+y,1/2+z
-x,1/2-y,1/2+z
-x,1/2+y,1/2+z
x,1/2-y,1/2+z
loop_
_atom_site_type_symbol
_atom_site_label
_atom_site_fract_x
_atom_site_fract_y
_atom_site_fract_z
Si Si1 0.325499 0.243439 0.587140
Si Si2 0.823236 0.567078 0.689729
Si Si3 0.321575 0.370709 0.529406
Si Si4 0.674501 0.256561 0.292318
Si Si5 0.675068 0.932686 0.689729
Si Si6 0.822566 0.129854 0.849026
Si Si7 0.177434 0.129854 0.530432
Si Si8 0.321575 0.370708 0.850053
O O1 0.500000 0.230012 0.568540
O O2 0.292710 0.304624 0.548738
O O3 0.308942 0.245981 0.689729
O O4 0.224054 0.194284 0.549992
O O5 0.803776 0.500000 0.689730
O O6 0.747631 0.593965 0.606532
O O7 0.747631 0.593966 0.772927
O O8 0.000000 0.579712 0.689729
O O9 0.500000 0.378290 0.526679
O O10 0.248220 0.386294 0.439630
O O11 0.500000 0.269989 0.310918
O O12 0.775946 0.305717 0.329466
O O13 0.707290 0.195377 0.330720
O O14 0.500000 0.916598 0.689729
O O15 0.752495 0.906768 0.772986
O O16 0.752495 0.906767 0.606473
O O17 0.686499 0.000000 0.689729
O O18 0.000000 0.123925 0.850533
O O19 0.248220 0.113706 0.439828
O O20 0.000000 0.123926 0.528925
O O21 0.500000 0.378290 0.852779
#
# Coordination Sequence:
#
# PCOD9358588 Si02
#       8
#     8   8   8   8   8   8   8   8
#     4  10  20  38  64  93 127 165 206 253 306 368
#     4  11  25  44  65  92 127 164 206 263 320 367
#     4  11  23  42  67  94 125 168 213 255 305 367
#     4  10  20  38  64  93 127 165 206 253 306 368
#     4  11  25  46  69  90 117 162 216 263 308 367
#     4  12  25  40  63  97 131 165 202 253 317 373
#     4  12  25  40  63  97 131 165 202 253 317 373
#     4  11  23  42  67  94 125 168 213 255 305 367
#
# _framework density 19.219629999999999
#
# number of rings (size 3 to 8) (size 9 to 14) (size 15 to 20)
#    0.000    1.000    2.500    4.500    0.000    8.000 
#    0.000    0.000    0.000    0.000    0.000    0.000 
#    0.000    0.000    0.000    0.000    0.000    0.000 
#
# Total GULP energy -179109.963322 kJ/mol
# GULP energy per Si atom -5597.186354 kJ/mol
# Density = 1.917589 g / cm^3
# Si number density = 19.219630 Si / 1000 Ang^3
#
#
#
# Elastic Constant Matrix: (Units=GPa)
#
#
# Indices 1 2 3 4 5 6 
#
# 1 154.3305 85.8758 106.0592 0.0000 0.0000 0.0000
# 2 85.8758 84.5753 69.1101 0.0000 0.0000 0.0000
# 3 106.0592 69.1101 199.0212 0.0000 0.0000 0.0000
# 4 0.0000 0.0000 0.0000 -14.3690 0.0000 0.0000
# 5 0.0000 0.0000 0.0000 0.0000 37.5768 0.0000
# 6 0.0000 0.0000 0.0000 0.0000 0.0000 3.4523
#
#
#
# Elastic Compliance Matrix: (Units=1/GPa)
#
#
# Indices 1 2 3 4 5 6 
#
# 1 0.017212 -0.013936 -0.004333 0.000000 0.000000 0.000000
# 2 -0.013936 0.027791 -0.002224 0.000000 0.000000 0.000000
# 3 -0.004333 -0.002224 0.008106 0.000000 0.000000 0.000000
# 4 0.000000 0.000000 0.000000 -0.069594 0.000000 0.000000
# 5 0.000000 0.000000 0.000000 0.000000 0.026612 0.000000
# 6 0.000000 0.000000 0.000000 0.000000 0.000000 0.289663
#
#
# Mechanical properties :
#
#
# Convention : Reuss Voigt Hill
#
# Bulk Modulus (GPa) = 82.48609 106.66855 94.57732
# Shear Modulus (GPa) = 14.50046 17.12416 15.81231
#
# Velocity S-wave (km/s) = 2.74973 2.98815 2.87142
# Velocity P-wave (km/s) = 7.28643 8.21740 7.76588
#
# Compressibility (1/GPa) = 0.01212326
#
# Stress axis : x y z
#
# Youngs Moduli (GPa) = 58.09991 35.98271 123.36543
#
# Poissons Ratio (x) = 0.50144 0.53455
# Poissons Ratio (y) = 0.80966 0.27438
# Poissons Ratio (z) = 0.25175 0.08003
#
# Static dielectric constant tensor:
#      x y z
#    x 1.638940 0.000000 0.000000 
#    y 0.000000 1.645080 0.000000 
#    z 0.000000 0.000000 1.650090 
# 
# From -- ./inp_files/12788.got.cif
#   From: 2010.05.17/outbox.cif.g08.bks.cpg/sg38_7_cif.got.tgz:12788.got - 2010.06.03 18:07:57.
