data_PCOD9358321
_publ_section_title
;
Structure prediction by ZEFSAII (Michael W. Deem and Ramdas Pophale) SiO2 
 PCOD9358321
Probable space group: A M M 2
;
_chemical_formula_sum "Si O2"
_cell_formula_units_Z 64
_cell_length_a 25.910334
_cell_length_b 7.759631
_cell_length_c 14.849450
_cell_angle_alpha 90.000000
_cell_angle_beta 90.000000
_cell_angle_gamma 90.000000
_cell_volume 2985.550689
_symmetry_space_group_name_H-M "A M M 2"
_symmetry_group_IT_number 38
_symmetry_cell_setting 'orthorhombic'
loop_
_space_group_symop_operation_xyz
x,y,z
-x,-y,z
-x,y,z
x,-y,z
x,1/2+y,1/2+z
-x,1/2-y,1/2+z
-x,1/2+y,1/2+z
x,1/2-y,1/2+z
loop_
_atom_site_type_symbol
_atom_site_label
_atom_site_fract_x
_atom_site_fract_y
_atom_site_fract_z
Si Si1 0.942759 0.289488 0.730820
Si Si2 0.254266 0.800034 0.363912
Si Si3 0.444396 0.701038 0.245139
Si Si4 0.942964 0.207713 0.023393
Si Si5 0.667435 0.699917 0.511059
Si Si6 0.138350 0.705624 0.874567
Si Si7 0.334663 0.701589 0.216666
Si Si8 0.444474 0.709454 0.534719
O O1 0.942362 0.500000 0.733038
O O2 0.936801 0.238145 0.627051
O O3 0.896866 0.225210 0.793279
O O4 0.000000 0.235048 0.761894
O O5 0.287597 0.787343 0.454969
O O6 0.196707 0.726938 0.376500
O O7 0.287174 0.717212 0.283893
O O8 0.249972 0.000000 0.339342
O O9 0.500000 0.776711 0.274249
O O10 0.445055 0.500000 0.273502
O O11 0.387170 0.771755 0.264409
O O12 0.444867 0.716261 0.135965
O O13 0.000000 0.268429 0.991994
O O14 0.943938 0.000000 0.022035
O O15 0.895562 0.264829 0.963117
O O16 0.669033 0.500000 0.484486
O O17 0.673898 0.714347 0.619040
O O18 0.609233 0.765471 0.490823
O O19 0.142160 0.500000 0.863011
O O20 0.344063 0.500000 0.198203
O O21 0.500000 0.753711 0.492709
O O22 0.442219 0.500000 0.541955
#
# Coordination Sequence:
#
# PCOD9358321 Si02
#       8
#     8   8   8   8   8   8   8   8
#     4   8  15  31  55  80 106 136 168 203 251 312
#     4  11  24  39  53  76 110 146 192 239 272 315
#     4   8  14  26  47  75 103 131 166 210 265 331
#     4   9  18  33  55  84 114 141 170 208 259 320
#     4  10  20  36  58  80 105 142 182 223 279 336
#     4  10  21  36  55  78 104 140 184 226 264 303
#     4  10  20  36  58  81 107 141 179 224 280 334
#     4   8  14  26  47  75 102 128 165 215 270 330
#
# _framework density 21.436582999999999
#
# number of rings (size 3 to 8) (size 9 to 14) (size 15 to 20)
#    0.000    2.750    0.000    2.250    0.000    3.750 
#    0.000    2.500    0.000    4.500    0.000    0.000 
#    0.000    0.000    0.000    0.000    0.000    0.000 
#
# Total GULP energy -178470.258672 kJ/mol
# GULP energy per Si atom -5577.195584 kJ/mol
# Density = 2.138779 g / cm^3
# Si number density = 21.436583 Si / 1000 Ang^3
#
#
#
# Elastic Constant Matrix: (Units=GPa)
#
#
# Indices 1 2 3 4 5 6 
#
# 1 230.5533 8.1046 74.0440 0.0000 0.0000 0.0000
# 2 8.1046 35.8896 -5.0272 0.0000 0.0000 0.0000
# 3 74.0440 -5.0272 80.1850 0.0000 0.0000 0.0000
# 4 0.0000 0.0000 0.0000 17.7533 0.0000 0.0000
# 5 0.0000 0.0000 0.0000 0.0000 134.6223 0.0000
# 6 0.0000 0.0000 0.0000 0.0000 0.0000 14.7599
#
#
#
# Elastic Compliance Matrix: (Units=1/GPa)
#
#
# Indices 1 2 3 4 5 6 
#
# 1 0.006345 -0.002273 -0.006001 0.000000 0.000000 0.000000
# 2 -0.002273 0.028925 0.003913 0.000000 0.000000 0.000000
# 3 -0.006001 0.003913 0.018258 0.000000 0.000000 0.000000
# 4 0.000000 0.000000 0.000000 0.056328 0.000000 0.000000
# 5 0.000000 0.000000 0.000000 0.000000 0.007428 0.000000
# 6 0.000000 0.000000 0.000000 0.000000 0.000000 0.067751
#
#
# Mechanical properties :
#
#
# Convention : Reuss Voigt Hill
#
# Bulk Modulus (GPa) = 22.31966 55.65231 38.98599
# Shear Modulus (GPa) = 23.95864 51.39418 37.67641
#
# Velocity S-wave (km/s) = 3.34676 4.90174 4.19689
# Velocity P-wave (km/s) = 5.03676 7.61930 6.45843
#
# Compressibility (1/GPa) = 0.04480354
#
# Stress axis : x y z
#
# Youngs Moduli (GPa) = 157.61271 34.57255 54.77008
#
# Poissons Ratio (x) = 0.07860 0.32869
# Poissons Ratio (y) = 0.35831 -0.21430
# Poissons Ratio (z) = 0.94588 -0.13527
#
# Static dielectric constant tensor:
#      x y z
#    x 1.818810 0.000000 0.000000 
#    y 0.000000 1.807040 0.000000 
#    z 0.000000 0.000000 1.756710 
# 
# From -- ./inp_files/15788.got.cif
#   From: 2010.05.17/outbox.cif.g08.bks.cpg/sg38_8_cif.got.tgz:15788.got - 2010.06.03 18:07:57.
