data_PCOD9358562
_publ_section_title
;
Structure prediction by ZEFSAII (Michael W. Deem and Ramdas Pophale) SiO2 
 PCOD9358562
Probable space group: A M M 2
;
_chemical_formula_sum "Si O2"
_cell_formula_units_Z 56
_cell_length_a 22.611566
_cell_length_b 8.306249
_cell_length_c 15.005307
_cell_angle_alpha 90.000000
_cell_angle_beta 90.000000
_cell_angle_gamma 90.000000
_cell_volume 2818.256209
_symmetry_space_group_name_H-M "A M M 2"
_symmetry_group_IT_number 38
_symmetry_cell_setting 'orthorhombic'
loop_
_space_group_symop_operation_xyz
x,y,z
-x,-y,z
-x,y,z
x,-y,z
x,1/2+y,1/2+z
-x,1/2-y,1/2+z
-x,1/2+y,1/2+z
x,1/2-y,1/2+z
loop_
_atom_site_type_symbol
_atom_site_label
_atom_site_fract_x
_atom_site_fract_y
_atom_site_fract_z
Si Si1 0.630653 0.689223 0.831970
Si Si2 0.626870 0.690309 0.532694
Si Si3 0.934061 0.195951 0.348659
Si Si4 0.500000 0.314509 0.554767
Si Si5 0.288611 0.815231 0.679252
Si Si6 0.932743 0.194326 0.555893
Si Si7 0.500000 0.807279 0.356322
Si Si8 0.156984 0.309390 0.701833
O O1 0.640705 0.500000 0.817171
O O2 0.675647 0.783960 0.770220
O O3 0.561904 0.724773 0.808327
O O4 0.636938 0.727580 0.937002
O O5 0.618734 0.500000 0.516202
O O6 0.564970 0.753706 0.576179
O O7 0.679719 0.715518 0.601215
O O8 0.925311 0.237380 0.451993
O O9 0.881883 0.253213 0.285104
O O10 0.000000 0.250847 0.321055
O O11 0.934637 0.000000 0.343840
O O12 0.500000 0.500000 0.585668
O O13 0.500000 0.296135 0.446819
O O14 0.220513 0.770433 0.692294
O O15 0.293714 0.000000 0.653044
O O16 0.884022 0.275874 0.616663
O O17 0.000000 0.239031 0.582174
O O18 0.927844 0.000000 0.563150
O O19 0.500000 0.000000 0.379371
O O20 0.166054 0.500000 0.712765
#
# Coordination Sequence:
#
# PCOD9358562 Si02
#       8
#     8   8   8   4   8   8   4   8
#     4  10  20  38  61  86 115 148 186 233 288 344
#     4  10  20  38  61  86 114 146 186 235 290 346
#     4   8  16  33  58  85 111 141 177 217 268 330
#     4   8  16  31  56  85 112 140 176 229 290 345
#     4  12  26  41  55  78 113 156 201 240 283 340
#     4   9  18  35  59  86 115 146 180 221 274 338
#     4   8  16  31  56  85 112 142 180 227 282 343
#     4  11  22  37  57  81 111 147 189 237 283 332
#
# _framework density 19.870443999999999
#
# number of rings (size 3 to 8) (size 9 to 14) (size 15 to 20)
#    0.000    2.286    0.000    3.857    0.000    3.714 
#    0.000    8.571    0.000    1.714    0.000    0.000 
#    0.000    0.000    0.000    0.000    0.000    0.000 
#
# Total GULP energy -156281.830007 kJ/mol
# GULP energy per Si atom -5581.493929 kJ/mol
# Density = 1.982522 g / cm^3
# Si number density = 19.870444 Si / 1000 Ang^3
#
#
#
# Elastic Constant Matrix: (Units=GPa)
#
#
# Indices 1 2 3 4 5 6 
#
# 1 127.5443 5.1705 41.5322 0.0000 0.0000 0.0000
# 2 5.1705 23.8432 -7.6023 0.0000 0.0000 0.0000
# 3 41.5322 -7.6023 60.8147 0.0000 0.0000 0.0000
# 4 0.0000 0.0000 0.0000 25.5825 0.0000 0.0000
# 5 0.0000 0.0000 0.0000 0.0000 117.7534 0.0000
# 6 0.0000 0.0000 0.0000 0.0000 0.0000 23.8869
#
#
#
# Elastic Compliance Matrix: (Units=1/GPa)
#
#
# Indices 1 2 3 4 5 6 
#
# 1 0.010583 -0.004790 -0.007826 0.000000 0.000000 0.000000
# 2 -0.004790 0.045850 0.009003 0.000000 0.000000 0.000000
# 3 -0.007826 0.009003 0.022914 0.000000 0.000000 0.000000
# 4 0.000000 0.000000 0.000000 0.039089 0.000000 0.000000
# 5 0.000000 0.000000 0.000000 0.000000 0.008492 0.000000
# 6 0.000000 0.000000 0.000000 0.000000 0.000000 0.041864
#
#
# Mechanical properties :
#
#
# Convention : Reuss Voigt Hill
#
# Bulk Modulus (GPa) = 13.86583 32.26700 23.06641
# Shear Modulus (GPa) = 24.99254 44.98467 34.98861
#
# Velocity S-wave (km/s) = 3.55036 4.76321 4.20078
# Velocity P-wave (km/s) = 4.87852 6.82091 5.92979
#
# Compressibility (1/GPa) = 0.07211975
#
# Stress axis : x y z
#
# Youngs Moduli (GPa) = 94.49017 21.81016 43.64197
#
# Poissons Ratio (x) = 0.10448 0.34156
# Poissons Ratio (y) = 0.45265 -0.39292
# Poissons Ratio (z) = 0.73951 -0.19636
#
# Static dielectric constant tensor:
#      x y z
#    x 1.696630 0.000000 0.000000 
#    y 0.000000 1.693080 0.000000 
#    z 0.000000 0.000000 1.680590 
# 
# From -- ./inp_files/15584.got.cif
#   From: 2010.05.17/outbox.cif.g08.bks.cpg/sg38_8_cif.got.tgz:15584.got - 2010.06.03 18:07:57.
