data_PCOD9358650
_publ_section_title
;
Structure prediction by ZEFSAII (Michael W. Deem and Ramdas Pophale) SiO2 
 PCOD9358650
Probable space group: A M M 2
;
_chemical_formula_sum "Si O2"
_cell_formula_units_Z 48
_cell_length_a 7.712106
_cell_length_b 9.065892
_cell_length_c 35.621466
_cell_angle_alpha 90.000000
_cell_angle_beta 90.000000
_cell_angle_gamma 90.000000
_cell_volume 2490.550316
_symmetry_space_group_name_H-M "A M M 2"
_symmetry_group_IT_number 38
_symmetry_cell_setting 'orthorhombic'
loop_
_space_group_symop_operation_xyz
x,y,z
-x,-y,z
-x,y,z
x,-y,z
x,1/2+y,1/2+z
-x,1/2-y,1/2+z
-x,1/2+y,1/2+z
x,1/2-y,1/2+z
loop_
_atom_site_type_symbol
_atom_site_label
_atom_site_fract_x
_atom_site_fract_y
_atom_site_fract_z
Si Si1 0.205480 0.832583 0.490040
Si Si2 0.707966 0.668046 0.072232
Si Si3 0.701193 0.676807 0.648458
Si Si4 0.000000 0.321793 0.706809
Si Si5 0.000000 0.676811 0.288171
Si Si6 0.706296 0.665345 0.414447
Si Si7 0.292505 0.175644 0.338448
O O1 0.248393 0.769795 0.531191
O O2 0.262317 0.736959 0.454817
O O3 0.000000 0.843539 0.487837
O O4 0.279420 0.000000 0.487878
O O5 0.500000 0.663043 0.074153
O O6 0.775656 0.500000 0.073353
O O7 0.764351 0.755455 0.109027
O O8 0.500000 0.721677 0.655162
O O9 0.703550 0.500000 0.644949
O O10 0.830777 0.716310 0.681975
O O11 0.000000 0.500000 0.712915
O O12 0.000000 0.237618 0.745899
O O13 0.170177 0.740730 0.309137
O O14 0.000000 0.500000 0.289491
O O15 0.500000 0.654308 0.410310
O O16 0.780228 0.500000 0.411927
O O17 0.762476 0.767446 0.379824
O O18 0.500000 0.204185 0.333140
O O19 0.266973 0.000000 0.335649
#
# Coordination Sequence:
#
# PCOD9358650 Si02
#       7
#     8   8   8   4   4   8   8
#     4  10  21  34  50  77 112 152 195 239 285 342
#     4   9  18  33  53  77 107 145 189 237 287 340
#     4   9  19  36  58  83 112 148 190 237 289 346
#     4  10  22  40  60  85 116 151 192 236 287 354
#     4  12  26  42  64  95 128 159 192 244 305 360
#     4  10  21  37  57  82 113 150 193 243 295 345
#     4  10  22  42  68  93 120 160 205 247 295 358
#
# _framework density 19.272849999999998
#
# number of rings (size 3 to 8) (size 9 to 14) (size 15 to 20)
#    0.000    2.167    0.000    2.250    2.333    5.000 
#    0.000    3.333    0.000    0.000    0.000    0.000 
#    0.000    0.000    0.000    0.000    0.000    0.000 
#
# Total GULP energy -133944.122514 kJ/mol
# GULP energy per Si atom -5581.005105 kJ/mol
# Density = 1.922898 g / cm^3
# Si number density = 19.272850 Si / 1000 Ang^3
#
#
#
# Elastic Constant Matrix: (Units=GPa)
#
#
# Indices 1 2 3 4 5 6 
#
# 1 74.4338 48.5991 62.2540 0.0000 0.0000 0.0000
# 2 48.5991 92.5910 86.2045 0.0000 0.0000 0.0000
# 3 62.2540 86.2045 195.0734 0.0000 0.0000 0.0000
# 4 0.0000 0.0000 0.0000 36.3396 0.0000 0.0000
# 5 0.0000 0.0000 0.0000 0.0000 36.1819 0.0000
# 6 0.0000 0.0000 0.0000 0.0000 0.0000 18.0800
#
#
#
# Elastic Compliance Matrix: (Units=1/GPa)
#
#
# Indices 1 2 3 4 5 6 
#
# 1 0.021549 -0.008339 -0.003192 0.000000 0.000000 0.000000
# 2 -0.008339 0.021577 -0.006874 0.000000 0.000000 0.000000
# 3 -0.003192 -0.006874 0.009182 0.000000 0.000000 0.000000
# 4 0.000000 0.000000 0.000000 0.027518 0.000000 0.000000
# 5 0.000000 0.000000 0.000000 0.000000 0.027638 0.000000
# 6 0.000000 0.000000 0.000000 0.000000 0.000000 0.055310
#
#
# Mechanical properties :
#
#
# Convention : Reuss Voigt Hill
#
# Bulk Modulus (GPa) = 64.51980 84.02371 74.27176
# Shear Modulus (GPa) = 24.42010 29.12301 26.77155
#
# Velocity S-wave (km/s) = 3.56346 3.89149 3.73108
# Velocity P-wave (km/s) = 7.10498 7.99270 7.56187
#
# Compressibility (1/GPa) = 0.01549912
#
# Stress axis : x y z
#
# Youngs Moduli (GPa) = 46.40594 46.34636 108.90296
#
# Poissons Ratio (x) = 0.38647 0.34761
# Poissons Ratio (y) = 0.38697 0.74857
# Poissons Ratio (z) = 0.14813 0.31857
#
# Static dielectric constant tensor:
#      x y z
#    x 1.687890 0.000000 0.000000 
#    y 0.000000 1.641590 0.000000 
#    z 0.000000 0.000000 1.651480 
# 
# From -- ./inp_files/24317.got.cif
#   From: 2010.05.17/outbox.cif.g08.bks.cpg/sg38_13_cif.got.tgz:24317.got - 2010.06.03 18:07:57.
