data_PCOD9358915
_publ_section_title
;
Structure prediction by ZEFSAII (Michael W. Deem and Ramdas Pophale) SiO2 
 PCOD9358915
Probable space group: A M M 2
;
_chemical_formula_sum "Si O2"
_cell_formula_units_Z 64
_cell_length_a 7.664982
_cell_length_b 32.148035
_cell_length_c 12.241311
_cell_angle_alpha 90.000000
_cell_angle_beta 90.000000
_cell_angle_gamma 90.000000
_cell_volume 3016.431751
_symmetry_space_group_name_H-M "A M M 2"
_symmetry_group_IT_number 38
_symmetry_cell_setting 'orthorhombic'
loop_
_space_group_symop_operation_xyz
x,y,z
-x,-y,z
-x,y,z
x,-y,z
x,1/2+y,1/2+z
-x,1/2-y,1/2+z
-x,1/2+y,1/2+z
x,1/2-y,1/2+z
loop_
_atom_site_type_symbol
_atom_site_label
_atom_site_fract_x
_atom_site_fract_y
_atom_site_fract_z
Si Si1 0.790549 0.296171 0.155250
Si Si2 0.790548 0.703829 0.606715
Si Si3 0.213553 0.164556 0.880982
Si Si4 0.289645 0.625667 0.005918
Si Si5 0.293055 0.454913 0.137238
Si Si6 0.209169 0.931236 0.880982
Si Si7 0.293054 0.545087 0.624727
Si Si8 0.710354 0.874333 0.256047
O O1 0.722847 0.250000 0.130983
O O2 0.725588 0.313117 0.271328
O O3 0.754139 0.330969 0.064446
O O4 0.000000 0.293092 0.164004
O O5 0.725588 0.686883 0.490637
O O6 0.754137 0.669031 0.697519
O O7 0.000000 0.706908 0.597962
O O8 0.268282 0.116690 0.880982
O O9 0.000000 0.164633 0.880982
O O10 0.500000 0.623140 0.003925
O O11 0.222972 0.586197 0.076524
O O12 0.227054 0.624219 0.880983
O O13 0.500000 0.455522 0.115489
O O14 0.221184 0.500000 0.102066
O O15 0.269434 0.450786 0.267402
O O16 0.000000 0.932670 0.880981
O O17 0.269432 0.950786 0.994562
O O18 0.500000 0.544479 0.646473
O O19 0.221186 0.500000 0.659900
O O20 0.222972 0.586197 0.685441
O O21 0.500000 0.876861 0.258041
#
# Coordination Sequence:
#
# PCOD9358915 Si02
#       8
#     8   8   8   8   8   8   8   8
#     4  10  21  37  60  85 111 145 185 227 272 328
#     4  10  21  37  60  85 111 145 185 227 272 328
#     4   9  18  34  54  83 114 140 177 225 272 322
#     4  10  22  39  57  80 112 146 184 231 278 326
#     4  10  21  37  57  81 110 146 187 228 274 331
#     4  11  20  34  57  84 116 146 178 227 281 329
#     4  10  21  37  57  81 110 146 187 228 274 331
#     4  10  22  39  57  80 112 146 184 231 278 326
#
# _framework density 21.217120000000001
#
# number of rings (size 3 to 8) (size 9 to 14) (size 15 to 20)
#    0.000    2.000    2.500    0.750    1.750    3.500 
#    0.000    3.125    0.000    0.000    0.000    3.500 
#    0.000    0.000    0.000    0.000    0.000    0.000 
#
# Total GULP energy -178752.401063 kJ/mol
# GULP energy per Si atom -5586.012533 kJ/mol
# Density = 2.116883 g / cm^3
# Si number density = 21.217120 Si / 1000 Ang^3
#
#
#
# Elastic Constant Matrix: (Units=GPa)
#
#
# Indices 1 2 3 4 5 6 
#
# 1 37.7887 3.0193 -8.8025 0.0000 0.0000 0.0000
# 2 3.0193 220.4925 88.0931 0.0000 0.0000 0.0000
# 3 -8.8025 88.0931 141.5089 0.0000 0.0000 0.0000
# 4 0.0000 0.0000 0.0000 136.8500 0.0000 0.0000
# 5 0.0000 0.0000 0.0000 0.0000 5.8858 0.0000
# 6 0.0000 0.0000 0.0000 0.0000 0.0000 -298.1606
#
#
#
# Elastic Compliance Matrix: (Units=1/GPa)
#
#
# Indices 1 2 3 4 5 6 
#
# 1 0.027170 -0.001394 0.002558 0.000000 0.000000 0.000000
# 2 -0.001394 0.006108 -0.003889 0.000000 0.000000 0.000000
# 3 0.002558 -0.003889 0.009647 0.000000 0.000000 0.000000
# 4 0.000000 0.000000 0.000000 0.007307 0.000000 0.000000
# 5 0.000000 0.000000 0.000000 0.000000 0.169901 0.000000
# 6 0.000000 0.000000 0.000000 0.000000 0.000000 -0.003354
#
#
# Mechanical properties :
#
#
# Convention : Reuss Voigt Hill
#
# Bulk Modulus (GPa) = 26.68468 62.71221 44.69844
# Shear Modulus (GPa) = 21.30181 -9.91961 5.69110
#
# Velocity S-wave (km/s) = 3.17202 -2.16459 1.63955
# Velocity P-wave (km/s) = 5.10097 4.83470 4.96962
#
# Compressibility (1/GPa) = 0.03747469
#
# Stress axis : x y z
#
# Youngs Moduli (GPa) = 36.80506 163.71258 103.65937
#
# Poissons Ratio (x) = 0.22822 -0.26515
# Poissons Ratio (y) = 0.05131 0.40316
# Poissons Ratio (z) = -0.09414 0.63672
#
# Static dielectric constant tensor:
#      x y z
#    x 1.788810 0.000000 0.000000 
#    y 0.000000 1.769010 0.000000 
#    z 0.000000 0.000000 1.728460 
# 
# From -- ./inp_files/8544.got.cif
#   From: 2010.05.17/outbox.cif.g08.bks.cpg/sg38_5_cif.got.tgz:8544.got - 2010.06.03 18:07:57.
