data_PCOD9358847
_publ_section_title
;
Structure prediction by ZEFSAII (Michael W. Deem and Ramdas Pophale) SiO2 
 PCOD9358847
Probable space group: A M M 2
;
_chemical_formula_sum "Si O2"
_cell_formula_units_Z 58
_cell_length_a 25.942318
_cell_length_b 8.048035
_cell_length_c 14.617569
_cell_angle_alpha 90.000000
_cell_angle_beta 90.000000
_cell_angle_gamma 90.000000
_cell_volume 3051.924513
_symmetry_space_group_name_H-M "A M M 2"
_symmetry_group_IT_number 38
_symmetry_cell_setting 'orthorhombic'
loop_
_space_group_symop_operation_xyz
x,y,z
-x,-y,z
-x,y,z
x,-y,z
x,1/2+y,1/2+z
-x,1/2-y,1/2+z
-x,1/2+y,1/2+z
x,1/2-y,1/2+z
loop_
_atom_site_type_symbol
_atom_site_label
_atom_site_fract_x
_atom_site_fract_y
_atom_site_fract_z
Si Si1 0.166046 0.202526 0.161010
Si Si2 0.000000 0.000000 0.011133
Si Si3 0.823952 0.302894 0.871499
Si Si4 0.558338 0.308198 0.376330
Si Si5 0.369877 0.685778 0.028053
Si Si6 0.745367 0.694357 0.521165
Si Si7 0.915831 0.804744 0.515022
Si Si8 0.557565 0.310910 0.678523
O O1 0.169705 0.252643 0.266869
O O2 0.118029 0.281075 0.107159
O O3 0.161198 0.000000 0.156557
O O4 0.216962 0.250409 0.103488
O O5 0.044300 0.151619 0.011874
O O6 0.813108 0.500000 0.869562
O O7 0.778019 0.220193 0.928543
O O8 0.876097 0.280989 0.930325
O O9 0.500000 0.245230 0.393293
O O10 0.560057 0.500000 0.405675
O O11 0.601483 0.212927 0.432209
O O12 0.567160 0.297762 0.267986
O O13 0.378764 0.500000 0.060343
O O14 0.399398 0.796174 0.102003
O O15 0.309458 0.718332 0.019922
O O16 0.735548 0.500000 0.534042
O O17 0.934184 0.000000 0.511338
O O18 0.500000 0.271400 0.641438
O O19 0.556421 0.500000 0.712070
#
# Coordination Sequence:
#
# PCOD9358847 Si02
#       8
#     8   2   8   8   8   8   8   8
#     4   9  18  38  64  87 117 156 195 243 292 351
#     4  12  22  40  64  86 136 158 202 248 294 338
#     4   9  19  37  63  88 118 154 199 241 291 351
#     4  10  21  38  59  82 109 145 190 238 293 357
#     4  12  24  37  55  80 118 152 192 243 296 345
#     4  10  21  36  57  85 114 152 197 243 296 349
#     4  10  21  38  63  90 122 165 201 242 295 345
#     4  10  21  38  59  82 110 148 191 234 291 360
#
# _framework density 19.004403
#
# number of rings (size 3 to 8) (size 9 to 14) (size 15 to 20)
#    0.000    1.931    0.690    3.103    0.966    5.517 
#    0.000    4.828    0.000    0.000    0.000    0.000 
#    0.000    0.000    0.000    0.000    0.000    0.000 
#
# Total GULP energy -161527.424211 kJ/mol
# GULP energy per Si atom -5569.911180 kJ/mol
# Density = 1.896115 g / cm^3
# Si number density = 19.004403 Si / 1000 Ang^3
#
#
#
# Elastic Constant Matrix: (Units=GPa)
#
#
# Indices 1 2 3 4 5 6 
#
# 1 104.6769 39.5883 43.6413 0.0000 0.0000 0.0000
# 2 39.5883 79.8156 15.5624 0.0000 0.0000 0.0000
# 3 43.6413 15.5624 109.9381 0.0000 0.0000 0.0000
# 4 0.0000 0.0000 0.0000 24.2118 0.0000 0.0000
# 5 0.0000 0.0000 0.0000 0.0000 -19.0400 0.0000
# 6 0.0000 0.0000 0.0000 0.0000 0.0000 31.3090
#
#
#
# Elastic Compliance Matrix: (Units=1/GPa)
#
#
# Indices 1 2 3 4 5 6 
#
# 1 0.013704 -0.005899 -0.004605 0.000000 0.000000 0.000000
# 2 -0.005899 0.015424 0.000158 0.000000 0.000000 0.000000
# 3 -0.004605 0.000158 0.010902 0.000000 0.000000 0.000000
# 4 0.000000 0.000000 0.000000 0.041302 0.000000 0.000000
# 5 0.000000 0.000000 0.000000 0.000000 -0.052521 0.000000
# 6 0.000000 0.000000 0.000000 0.000000 0.000000 0.031940
#
#
# Mechanical properties :
#
#
# Convention : Reuss Voigt Hill
#
# Bulk Modulus (GPa) = 51.71140 54.66830 53.18985
# Shear Modulus (GPa) = 56.89034 20.33874 38.61454
#
# Velocity S-wave (km/s) = 5.47726 3.27496 4.51252
# Velocity P-wave (km/s) = 8.20181 6.56727 7.42963
#
# Compressibility (1/GPa) = 0.01933810
#
# Stress axis : x y z
#
# Youngs Moduli (GPa) = 72.97035 64.83384 91.72965
#
# Poissons Ratio (x) = 0.38248 0.42241
# Poissons Ratio (y) = 0.43048 -0.01454
# Poissons Ratio (z) = 0.33603 -0.01027
#
# Static dielectric constant tensor:
#      x y z
#    x 1.634360 0.000000 0.000000 
#    y 0.000000 1.667320 0.000000 
#    z 0.000000 0.000000 1.638160 
# 
# From -- ./inp_files/15713.got.cif
#   From: 2010.05.17/outbox.cif.g08.bks.cpg/sg38_8_cif.got.tgz:15713.got - 2010.06.03 18:07:57.
