data_PCOD9358319
_publ_section_title
;
Structure prediction by ZEFSAII (Michael W. Deem and Ramdas Pophale) SiO2 
 PCOD9358319
Probable space group: A M M 2
;
_chemical_formula_sum "Si O2"
_cell_formula_units_Z 64
_cell_length_a 20.059101
_cell_length_b 9.026475
_cell_length_c 20.631452
_cell_angle_alpha 90.000000
_cell_angle_beta 90.000000
_cell_angle_gamma 90.000000
_cell_volume 3735.592051
_symmetry_space_group_name_H-M "A M M 2"
_symmetry_group_IT_number 38
_symmetry_cell_setting 'orthorhombic'
loop_
_space_group_symop_operation_xyz
x,y,z
-x,-y,z
-x,y,z
x,-y,z
x,1/2+y,1/2+z
-x,1/2-y,1/2+z
-x,1/2+y,1/2+z
x,1/2-y,1/2+z
loop_
_atom_site_type_symbol
_atom_site_label
_atom_site_fract_x
_atom_site_fract_y
_atom_site_fract_z
Si Si1 0.291231 0.677425 0.114880
Si Si2 0.149293 0.322924 0.059053
Si Si3 0.426993 0.822963 0.117761
Si Si4 0.718081 0.176680 0.769068
Si Si5 0.079499 0.172241 0.696081
Si Si6 0.571954 0.176681 0.759382
Si Si7 0.849717 0.324582 0.814758
Si Si8 0.921693 0.322579 0.437012
O O1 0.298734 0.500000 0.112013
O O2 0.225615 0.719577 0.074804
O O3 0.359391 0.751980 0.090728
O O4 0.279575 0.712362 0.191583
O O5 0.147495 0.500000 0.046268
O O6 0.107991 0.296651 0.124949
O O7 0.116258 0.237160 0.000111
O O8 0.500000 0.781568 0.089469
O O9 0.428455 0.764522 0.191840
O O10 0.421823 0.000000 0.116773
O O11 0.642575 0.211034 0.792176
O O12 0.774750 0.264199 0.806474
O O13 0.729658 0.000000 0.775093
O O14 0.112525 0.275824 0.749318
O O15 0.000000 0.186017 0.696739
O O16 0.096840 0.000000 0.711416
O O17 0.500000 0.204551 0.792013
O O18 0.574858 0.000000 0.744473
O O19 0.850183 0.500000 0.822683
O O20 0.887339 0.247911 0.874245
O O21 0.917363 0.500000 0.433520
O O22 0.000000 0.281673 0.439709
#
# Coordination Sequence:
#
# PCOD9358319 Si02
#       8
#     8   8   8   8   8   8   8   8
#     4   9  17  30  50  74 103 139 175 212 257 313
#     4  10  20  37  59  82 107 137 174 216 266 320
#     4   9  16  24  37  63 101 140 175 214 258 300
#     4   9  16  30  50  73 105 140 175 215 261 313
#     4  10  20  36  58  80 105 137 170 210 265 322
#     4   8  14  25  42  65  96 136 176 211 253 308
#     4  12  24  36  54  79 107 140 179 222 264 311
#     4  11  25  43  60  78 104 138 176 220 270 323
#
# _framework density 17.132493
#
# number of rings (size 3 to 8) (size 9 to 14) (size 15 to 20)
#    0.000    2.250    1.250    3.375    0.000    7.000 
#    0.000    0.000    0.000    0.000    0.000    0.875 
#    0.000    5.000    0.000    0.000    0.000    0.000 
#
# Total GULP energy -178410.648829 kJ/mol
# GULP energy per Si atom -5575.332776 kJ/mol
# Density = 1.709350 g / cm^3
# Si number density = 17.132493 Si / 1000 Ang^3
#
#
#
# Elastic Constant Matrix: (Units=GPa)
#
#
# Indices 1 2 3 4 5 6 
#
# 1 168.0150 62.0549 52.3393 0.0000 0.0000 0.0000
# 2 62.0549 53.0984 38.4819 0.0000 0.0000 0.0000
# 3 52.3393 38.4819 56.2022 0.0000 0.0000 0.0000
# 4 0.0000 0.0000 0.0000 23.9406 0.0000 0.0000
# 5 0.0000 0.0000 0.0000 0.0000 58.9307 0.0000
# 6 0.0000 0.0000 0.0000 0.0000 0.0000 25.5533
#
#
#
# Elastic Compliance Matrix: (Units=1/GPa)
#
#
# Indices 1 2 3 4 5 6 
#
# 1 0.010686 -0.010474 -0.002780 0.000000 0.000000 0.000000
# 2 -0.010474 0.047649 -0.022872 0.000000 0.000000 0.000000
# 3 -0.002780 -0.022872 0.036042 0.000000 0.000000 0.000000
# 4 0.000000 0.000000 0.000000 0.041770 0.000000 0.000000
# 5 0.000000 0.000000 0.000000 0.000000 0.016969 0.000000
# 6 0.000000 0.000000 0.000000 0.000000 0.000000 0.039134
#
#
# Mechanical properties :
#
#
# Convention : Reuss Voigt Hill
#
# Bulk Modulus (GPa) = 45.19504 64.78531 54.99018
# Shear Modulus (GPa) = 18.39054 29.98087 24.18570
#
# Velocity S-wave (km/s) = 3.27988 4.18777 3.76132
# Velocity P-wave (km/s) = 6.38596 7.82813 7.14353
#
# Compressibility (1/GPa) = 0.02212632
#
# Stress axis : x y z
#
# Youngs Moduli (GPa) = 93.57622 20.98660 27.74506
#
# Poissons Ratio (x) = 0.21981 0.07714
# Poissons Ratio (y) = 0.98012 0.63457
# Poissons Ratio (z) = 0.26018 0.48000
#
# Static dielectric constant tensor:
#      x y z
#    x 1.618300 0.000000 0.000000 
#    y 0.000000 1.570700 0.000000 
#    z 0.000000 0.000000 1.550950 
# 
# From -- ./inp_files/18907.got.cif
#   From: 2010.05.17/outbox.cif.g08.bks.cpg/sg38_10_cif.got.tgz:18907.got - 2010.06.03 18:07:57.
