data_PCOD9358799
_publ_section_title
;
Structure prediction by ZEFSAII (Michael W. Deem and Ramdas Pophale) SiO2 
 PCOD9358799
Probable space group: A M M 2
;
_chemical_formula_sum "Si O2"
_cell_formula_units_Z 64
_cell_length_a 14.126219
_cell_length_b 9.000692
_cell_length_c 26.462582
_cell_angle_alpha 90.000000
_cell_angle_beta 90.000000
_cell_angle_gamma 90.000000
_cell_volume 3364.604739
_symmetry_space_group_name_H-M "A M M 2"
_symmetry_group_IT_number 38
_symmetry_cell_setting 'orthorhombic'
loop_
_space_group_symop_operation_xyz
x,y,z
-x,-y,z
-x,y,z
x,-y,z
x,1/2+y,1/2+z
-x,1/2-y,1/2+z
-x,1/2+y,1/2+z
x,1/2-y,1/2+z
loop_
_atom_site_type_symbol
_atom_site_label
_atom_site_fract_x
_atom_site_fract_y
_atom_site_fract_z
Si Si1 0.787378 0.676866 0.371230
Si Si2 0.614757 0.330905 0.223844
Si Si3 0.112632 0.323910 0.171138
Si Si4 0.114477 0.673145 0.775528
Si Si5 0.388655 0.823613 0.118579
Si Si6 0.888755 0.678432 0.966751
Si Si7 0.777627 0.178375 0.569072
Si Si8 0.611007 0.177072 0.329078
O O1 0.784511 0.500000 0.371357
O O2 0.841486 0.735703 0.321455
O O3 0.841426 0.739097 0.419889
O O4 0.681796 0.743821 0.367454
O O5 0.500000 0.336832 0.223292
O O6 0.650391 0.500000 0.227734
O O7 0.640995 0.256478 0.170884
O O8 0.638525 0.235882 0.273201
O O9 0.127837 0.500000 0.179100
O O10 0.144375 0.236771 0.221045
O O11 0.162679 0.280351 0.119084
O O12 0.000000 0.300599 0.165472
O O13 0.140319 0.500000 0.780265
O O14 0.000000 0.684502 0.778030
O O15 0.500000 0.793173 0.110259
O O16 0.322494 0.759080 0.074947
O O17 0.376947 0.000000 0.123913
O O18 0.880857 0.500000 0.959158
O O19 0.000000 0.713784 0.970576
O O20 0.834940 0.715975 0.018655
O O21 0.764406 0.000000 0.569966
O O22 0.500000 0.212776 0.337203
O O23 0.621713 0.000000 0.331191
#
# Coordination Sequence:
#
# PCOD9358799 Si02
#       8
#     8   8   8   8   8   8   8   8
#     4  12  25  39  60  88 119 156 199 246 299 357
#     4   9  17  31  53  81 115 155 197 241 289 344
#     4   9  18  34  56  84 118 151 185 232 293 360
#     4  10  21  37  57  83 117 156 196 241 295 355
#     4  10  21  36  54  80 118 162 204 245 292 347
#     4  10  22  43  68  91 117 152 197 250 304 361
#     4  10  21  37  61  89 116 150 196 246 301 358
#     4  10  21  38  60  86 118 156 199 246 296 353
#
# _framework density 19.021552
#
# number of rings (size 3 to 8) (size 9 to 14) (size 15 to 20)
#    0.000    2.000    0.000    3.375    1.750    8.000 
#    0.000    0.625    0.000    3.000    0.000    0.000 
#    0.000    0.000    0.000    0.000    0.000    0.000 
#
# Total GULP energy -178859.711484 kJ/mol
# GULP energy per Si atom -5589.365984 kJ/mol
# Density = 1.897826 g / cm^3
# Si number density = 19.021552 Si / 1000 Ang^3
#
#
#
# Elastic Constant Matrix: (Units=GPa)
#
#
# Indices 1 2 3 4 5 6 
#
# 1 106.1920 64.6184 73.7724 0.0000 0.0000 0.0000
# 2 64.6184 93.9582 75.0127 0.0000 0.0000 0.0000
# 3 73.7724 75.0127 134.0606 0.0000 0.0000 0.0000
# 4 0.0000 0.0000 0.0000 32.6618 0.0000 0.0000
# 5 0.0000 0.0000 0.0000 0.0000 38.0388 0.0000
# 6 0.0000 0.0000 0.0000 0.0000 0.0000 26.1009
#
#
#
# Elastic Compliance Matrix: (Units=1/GPa)
#
#
# Indices 1 2 3 4 5 6 
#
# 1 0.018143 -0.008146 -0.005426 0.000000 0.000000 0.000000
# 2 -0.008146 0.022893 -0.008327 0.000000 0.000000 0.000000
# 3 -0.005426 -0.008327 0.015105 0.000000 0.000000 0.000000
# 4 0.000000 0.000000 0.000000 0.030617 0.000000 0.000000
# 5 0.000000 0.000000 0.000000 0.000000 0.026289 0.000000
# 6 0.000000 0.000000 0.000000 0.000000 0.000000 0.038313
#
#
# Mechanical properties :
#
#
# Convention : Reuss Voigt Hill
#
# Bulk Modulus (GPa) = 81.01776 84.55752 82.78764
# Shear Modulus (GPa) = 25.09127 27.41413 26.25270
#
# Velocity S-wave (km/s) = 3.63588 3.80045 3.71907
# Velocity P-wave (km/s) = 7.76603 7.98799 7.87779
#
# Compressibility (1/GPa) = 0.01234297
#
# Stress axis : x y z
#
# Youngs Moduli (GPa) = 55.11711 43.68090 66.20408
#
# Poissons Ratio (x) = 0.35581 0.35924
# Poissons Ratio (y) = 0.44896 0.55130
# Poissons Ratio (z) = 0.29908 0.36375
#
# Static dielectric constant tensor:
#      x y z
#    x 1.700170 0.000000 0.000000 
#    y 0.000000 1.636390 0.000000 
#    z 0.000000 0.000000 1.621580 
# 
# From -- ./inp_files/22878.got.cif
#   From: 2010.05.17/outbox.cif.g08.bks.cpg/sg38_12_cif.got.tgz:22878.got - 2010.06.03 18:07:57.
