data_PCOD9358292
_publ_section_title
;
Structure prediction by ZEFSAII (Michael W. Deem and Ramdas Pophale) SiO2 
 PCOD9358292
Probable space group: A M M 2
;
_chemical_formula_sum "Si O2"
_cell_formula_units_Z 56
_cell_length_a 19.863663
_cell_length_b 8.852637
_cell_length_c 16.298198
_cell_angle_alpha 90.000000
_cell_angle_beta 90.000000
_cell_angle_gamma 90.000000
_cell_volume 2865.969634
_symmetry_space_group_name_H-M "A M M 2"
_symmetry_group_IT_number 38
_symmetry_cell_setting 'orthorhombic'
loop_
_space_group_symop_operation_xyz
x,y,z
-x,-y,z
-x,y,z
x,-y,z
x,1/2+y,1/2+z
-x,1/2-y,1/2+z
-x,1/2+y,1/2+z
x,1/2-y,1/2+z
loop_
_atom_site_type_symbol
_atom_site_label
_atom_site_fract_x
_atom_site_fract_y
_atom_site_fract_z
Si Si1 0.151114 0.820117 0.760410
Si Si2 0.077737 0.315932 0.092692
Si Si3 0.424537 0.320283 0.941652
Si Si4 0.287538 0.320950 0.173368
Si Si5 0.288905 0.677645 0.501532
Si Si6 0.574826 0.179470 0.762417
Si Si7 0.840356 0.180583 0.431012
O O1 0.111946 0.768714 0.678408
O O2 0.230316 0.795819 0.741257
O O3 0.131776 0.740280 0.844746
O O4 0.140576 0.000000 0.769317
O O5 0.080200 0.500000 0.092674
O O6 0.000000 0.269745 0.089494
O O7 0.117450 0.267193 0.010937
O O8 0.500000 0.279086 0.970580
O O9 0.416744 0.500000 0.950365
O O10 0.364032 0.237153 0.986308
O O11 0.420750 0.272559 0.846312
O O12 0.285019 0.500000 0.151644
O O13 0.362046 0.284626 0.205350
O O14 0.270538 0.224847 0.093761
O O15 0.285527 0.500000 0.488584
O O16 0.235247 0.758443 0.442946
O O17 0.500000 0.204381 0.726263
O O18 0.579912 0.000000 0.782139
O O19 0.839685 0.000000 0.430738
#
# Coordination Sequence:
#
# PCOD9358292 Si02
#       7
#     8   8   8   8   8   8   8
#     4  10  20  37  61  89 121 160 202 247 300 360
#     4   9  19  38  63  90 124 165 204 244 298 364
#     4  10  21  37  57  81 112 151 196 246 300 359
#     4  10  20  36  56  80 113 153 197 244 299 359
#     4  12  24  37  57  84 116 154 200 253 303 355
#     4   9  18  33  54  80 112 150 192 241 297 357
#     4  11  22  39  63  91 123 162 205 250 302 360
#
# _framework density 19.539636000000002
#
# number of rings (size 3 to 8) (size 9 to 14) (size 15 to 20)
#    0.000    1.857    1.429    3.000    0.000    4.286 
#    0.000    1.429    0.000    3.000    0.000    0.000 
#    0.000    0.000    0.000    0.000    0.000    0.000 
#
# Total GULP energy -156370.911823 kJ/mol
# GULP energy per Si atom -5584.675422 kJ/mol
# Density = 1.949516 g / cm^3
# Si number density = 19.539636 Si / 1000 Ang^3
#
#
#
# Elastic Constant Matrix: (Units=GPa)
#
#
# Indices 1 2 3 4 5 6 
#
# 1 107.7551 32.4903 55.1159 0.0000 0.0000 0.0000
# 2 32.4903 40.1312 43.2895 0.0000 0.0000 0.0000
# 3 55.1159 43.2895 125.7157 0.0000 0.0000 0.0000
# 4 0.0000 0.0000 0.0000 33.6256 0.0000 0.0000
# 5 0.0000 0.0000 0.0000 0.0000 18.2428 0.0000
# 6 0.0000 0.0000 0.0000 0.0000 0.0000 10.3742
#
#
#
# Elastic Compliance Matrix: (Units=1/GPa)
#
#
# Indices 1 2 3 4 5 6 
#
# 1 0.013097 -0.007015 -0.003326 0.000000 0.000000 0.000000
# 2 -0.007015 0.043401 -0.011869 0.000000 0.000000 0.000000
# 3 -0.003326 -0.011869 0.013500 0.000000 0.000000 0.000000
# 4 0.000000 0.000000 0.000000 0.029739 0.000000 0.000000
# 5 0.000000 0.000000 0.000000 0.000000 0.054816 0.000000
# 6 0.000000 0.000000 0.000000 0.000000 0.000000 0.096393
#
#
# Mechanical properties :
#
#
# Convention : Reuss Voigt Hill
#
# Bulk Modulus (GPa) = 39.09866 59.48816 49.29341
# Shear Modulus (GPa) = 16.45310 21.96226 19.20768
#
# Velocity S-wave (km/s) = 2.90494 3.35623 3.13870
# Velocity P-wave (km/s) = 5.59508 6.74759 6.19818
#
# Compressibility (1/GPa) = 0.02557633
#
# Stress axis : x y z
#
# Youngs Moduli (GPa) = 76.35405 23.04078 74.07467
#
# Poissons Ratio (x) = 0.16164 0.24639
# Poissons Ratio (y) = 0.53564 0.87922
# Poissons Ratio (z) = 0.25397 0.27348
#
# Static dielectric constant tensor:
#      x y z
#    x 1.694970 0.000000 0.000000 
#    y 0.000000 1.660420 0.000000 
#    z 0.000000 0.000000 1.682900 
# 
# From -- ./inp_files/15471.got.cif
#   From: 2010.05.17/outbox.cif.g08.bks.cpg/sg38_8_cif.got.tgz:15471.got - 2010.06.03 18:07:57.
