data_PCOD9358766
_publ_section_title
;
Structure prediction by ZEFSAII (Michael W. Deem and Ramdas Pophale) SiO2 
 PCOD9358766
Probable space group: A M M 2
;
_chemical_formula_sum "Si O2"
_cell_formula_units_Z 58
_cell_length_a 21.759035
_cell_length_b 8.959064
_cell_length_c 16.058836
_cell_angle_alpha 90.000000
_cell_angle_beta 90.000000
_cell_angle_gamma 90.000000
_cell_volume 3130.518919
_symmetry_space_group_name_H-M "A M M 2"
_symmetry_group_IT_number 38
_symmetry_cell_setting 'orthorhombic'
loop_
_space_group_symop_operation_xyz
x,y,z
-x,-y,z
-x,y,z
x,-y,z
x,1/2+y,1/2+z
-x,1/2-y,1/2+z
-x,1/2+y,1/2+z
x,1/2-y,1/2+z
loop_
_atom_site_type_symbol
_atom_site_label
_atom_site_fract_x
_atom_site_fract_y
_atom_site_fract_z
Si Si1 0.311933 0.673257 0.444750
Si Si2 0.818517 0.820069 0.877894
Si Si3 0.567604 0.822152 0.699448
Si Si4 0.181483 0.679931 0.703863
Si Si5 0.311933 0.173257 0.137007
Si Si6 0.000000 0.000000 0.540878
Si Si7 0.567604 0.177848 0.382310
Si Si8 0.127240 0.834118 0.540879
O O1 0.325558 0.500000 0.425521
O O2 0.253569 0.720472 0.390465
O O3 0.292118 0.682017 0.540879
O O4 0.373721 0.764765 0.431707
O O5 0.840353 0.750000 0.790879
O O6 0.823134 0.000000 0.876979
O O7 0.853392 0.753445 0.957774
O O8 0.500000 0.782196 0.663995
O O9 0.626279 0.764765 0.650050
O O10 0.571212 0.750000 0.790879
O O11 0.570306 0.000000 0.706689
O O12 0.176866 0.500000 0.704778
O O13 0.253569 0.720472 0.691292
O O14 0.146608 0.746555 0.623983
O O15 0.325558 0.000000 0.156236
O O16 0.055065 0.872435 0.540878
O O17 0.500000 0.217803 0.417762
O O18 0.570306 0.000000 0.375068
O O19 0.158150 0.000000 0.540879
#
# Coordination Sequence:
#
# PCOD9358766 Si02
#       8
#     8   8   8   8   8   2   8   8
#     4  10  21  37  56  84 118 155 204 259 313 374
#     4  11  22  39  65  98 132 169 213 264 315 373
#     4  10  21  36  53  75 108 151 203 259 317 379
#     4  11  22  39  65  98 132 169 213 264 315 373
#     4  10  21  37  56  84 118 155 204 259 313 374
#     4   8  24  44  74  96 140 162 216 252 304 360
#     4  10  21  36  53  75 108 151 203 259 317 379
#     4  10  21  43  69  95 132 167 207 253 308 364
#
# _framework density 18.527280000000001
#
# number of rings (size 3 to 8) (size 9 to 14) (size 15 to 20)
#    0.414    1.379    1.379    2.897    0.000    7.172 
#    0.000    4.828    0.000    0.000    0.000    0.000 
#    0.000    0.000    0.000    0.000    0.000    0.000 
#
# Total GULP energy -161528.638314 kJ/mol
# GULP energy per Si atom -5569.953045 kJ/mol
# Density = 1.848511 g / cm^3
# Si number density = 18.527280 Si / 1000 Ang^3
#
#
#
# Elastic Constant Matrix: (Units=GPa)
#
#
# Indices 1 2 3 4 5 6 
#
# 1 112.3408 49.9201 49.7890 0.0000 0.0000 0.0000
# 2 49.9201 69.5234 45.2277 0.0000 0.0000 0.0000
# 3 49.7890 45.2277 112.4414 0.0000 0.0000 0.0000
# 4 0.0000 0.0000 0.0000 30.0066 0.0000 0.0000
# 5 0.0000 0.0000 0.0000 0.0000 2.8146 0.0000
# 6 0.0000 0.0000 0.0000 0.0000 0.0000 34.3104
#
#
#
# Elastic Compliance Matrix: (Units=1/GPa)
#
#
# Indices 1 2 3 4 5 6 
#
# 1 0.013720 -0.007990 -0.002861 0.000000 0.000000 0.000000
# 2 -0.007990 0.024134 -0.006170 0.000000 0.000000 0.000000
# 3 -0.002861 -0.006170 0.012642 0.000000 0.000000 0.000000
# 4 0.000000 0.000000 0.000000 0.033326 0.000000 0.000000
# 5 0.000000 0.000000 0.000000 0.000000 0.355296 0.000000
# 6 0.000000 0.000000 0.000000 0.000000 0.000000 0.029146
#
#
# Mechanical properties :
#
#
# Convention : Reuss Voigt Hill
#
# Bulk Modulus (GPa) = 60.77377 64.90880 62.84128
# Shear Modulus (GPa) = 9.84657 23.38422 16.61539
#
# Velocity S-wave (km/s) = 2.30785 3.55653 2.99792
# Velocity P-wave (km/s) = 6.32259 7.20940 6.78051
#
# Compressibility (1/GPa) = 0.01645447
#
# Stress axis : x y z
#
# Youngs Moduli (GPa) = 72.88553 41.43466 79.10017
#
# Poissons Ratio (x) = 0.33107 0.22634
# Poissons Ratio (y) = 0.58236 0.48802
# Poissons Ratio (z) = 0.20856 0.25564
#
# Static dielectric constant tensor:
#      x y z
#    x 1.636720 0.000000 0.000000 
#    y 0.000000 1.633140 0.000000 
#    z 0.000000 0.000000 1.648070 
# 
# From -- ./inp_files/15708.got.cif
#   From: 2010.05.17/outbox.cif.g08.bks.cpg/sg38_8_cif.got.tgz:15708.got - 2010.06.03 18:07:57.
