data_PCOD9358546
_publ_section_title
;
Structure prediction by ZEFSAII (Michael W. Deem and Ramdas Pophale) SiO2 
 PCOD9358546
Probable space group: A M M 2
;
_chemical_formula_sum "Si O2"
_cell_formula_units_Z 48
_cell_length_a 8.723078
_cell_length_b 27.636986
_cell_length_c 9.869382
_cell_angle_alpha 90.000000
_cell_angle_beta 90.000000
_cell_angle_gamma 90.000000
_cell_volume 2379.306512
_symmetry_space_group_name_H-M "A M M 2"
_symmetry_group_IT_number 38
_symmetry_cell_setting 'orthorhombic'
loop_
_space_group_symop_operation_xyz
x,y,z
-x,-y,z
-x,y,z
x,-y,z
x,1/2+y,1/2+z
-x,1/2-y,1/2+z
-x,1/2+y,1/2+z
x,1/2-y,1/2+z
loop_
_atom_site_type_symbol
_atom_site_label
_atom_site_fract_x
_atom_site_fract_y
_atom_site_fract_z
Si Si1 0.678307 0.126331 0.309640
Si Si2 0.820619 0.597026 0.295038
Si Si3 0.681915 0.799970 0.726694
Si Si4 0.823025 0.055088 0.507992
Si Si5 0.184915 0.444498 0.586824
Si Si6 0.817683 0.278049 0.928874
O O1 0.500000 0.137931 0.293173
O O2 0.708010 0.091536 0.437588
O O3 0.740742 0.094747 0.185379
O O4 0.771086 0.174888 0.341126
O O5 0.726015 0.644785 0.259759
O O6 0.810236 0.560874 0.168610
O O7 0.777010 0.570879 0.433635
O O8 0.000000 0.611659 0.306440
O O9 0.500000 0.794171 0.719741
O O10 0.748857 0.767178 0.847563
O O11 0.751810 0.784955 0.580668
O O12 0.000000 0.068102 0.470897
O O13 0.797379 0.000000 0.465738
O O14 0.233040 0.500000 0.614158
O O15 0.000000 0.442885 0.602150
O O16 0.000000 0.273935 0.937756
#
# Coordination Sequence:
#
# PCOD9358546 Si02
#       6
#     8   8   8   8   8   8
#     4  12  25  41  62  93 132 171 215 271 328 384
#     4  10  21  40  66  95 129 170 219 266 317 387
#     4  12  26  45  69 101 136 168 210 272 334 388
#     4  10  20  37  64  94 125 166 215 266 320 385
#     4  10  22  41  65  94 130 175 225 271 319 384
#     4  12  26  47  72  97 128 173 222 266 320 398
#
# _framework density 20.173943999999999
#
# number of rings (size 3 to 8) (size 9 to 14) (size 15 to 20)
#    0.000    1.000    1.667    5.500    2.333    5.333 
#    0.000    0.000    0.000    3.000    0.000    0.000 
#    0.000    0.000    0.000    0.000    0.000    0.000 
#
# Total GULP energy -134249.819423 kJ/mol
# GULP energy per Si atom -5593.742476 kJ/mol
# Density = 2.012803 g / cm^3
# Si number density = 20.173944 Si / 1000 Ang^3
#
#
#
# Elastic Constant Matrix: (Units=GPa)
#
#
# Indices 1 2 3 4 5 6 
#
# 1 104.5450 26.1320 19.1734 0.0000 0.0000 0.0000
# 2 26.1320 66.7913 -0.7430 0.0000 0.0000 0.0000
# 3 19.1734 -0.7430 79.2642 0.0000 0.0000 0.0000
# 4 0.0000 0.0000 0.0000 40.3140 0.0000 0.0000
# 5 0.0000 0.0000 0.0000 0.0000 -980.0854 0.0000
# 6 0.0000 0.0000 0.0000 0.0000 0.0000 -674.0843
#
#
#
# Elastic Compliance Matrix: (Units=1/GPa)
#
#
# Indices 1 2 3 4 5 6 
#
# 1 0.011168 -0.004400 -0.002743 0.000000 0.000000 0.000000
# 2 -0.004400 0.016707 0.001221 0.000000 0.000000 0.000000
# 3 -0.002743 0.001221 0.013291 0.000000 0.000000 0.000000
# 4 0.000000 0.000000 0.000000 0.024805 0.000000 0.000000
# 5 0.000000 0.000000 0.000000 0.000000 -0.001020 0.000000
# 6 0.000000 0.000000 0.000000 0.000000 0.000000 -0.001483
#
#
# Mechanical properties :
#
#
# Convention : Reuss Voigt Hill
#
# Bulk Modulus (GPa) = 34.10347 37.74723 35.92535
# Shear Modulus (GPa) = 58.76454 -309.03528 -125.13537
#
# Velocity S-wave (km/s) = 5.40298 -12.39023 -7.88434
# Velocity P-wave (km/s) = 7.47424 13.63595 8.06457
#
# Compressibility (1/GPa) = 0.02932253
#
# Stress axis : x y z
#
# Youngs Moduli (GPa) = 89.54081 59.85482 75.23934
#
# Poissons Ratio (x) = 0.26336 0.20636
# Poissons Ratio (y) = 0.39398 -0.09186
# Poissons Ratio (z) = 0.24558 -0.07308
#
# Static dielectric constant tensor:
#      x y z
#    x 2.254110 0.000000 0.000000 
#    y 0.000000 1.663270 0.000000 
#    z 0.000000 0.000000 1.712480 
# 
# From -- ./inp_files/3765.got.cif
#   From: 2010.05.17/outbox.cif.g08.bks.cpg/sg38_2_cif.got.tgz:3765.got - 2010.06.03 18:07:57.
