data_PCOD9358367
_publ_section_title
;
Structure prediction by ZEFSAII (Michael W. Deem and Ramdas Pophale) SiO2 
 PCOD9358367
Probable space group: A M M 2
;
_chemical_formula_sum "Si O2"
_cell_formula_units_Z 48
_cell_length_a 15.974710
_cell_length_b 8.172159
_cell_length_c 18.415168
_cell_angle_alpha 90.000000
_cell_angle_beta 90.000000
_cell_angle_gamma 90.000000
_cell_volume 2404.060960
_symmetry_space_group_name_H-M "A M M 2"
_symmetry_group_IT_number 38
_symmetry_cell_setting 'orthorhombic'
loop_
_space_group_symop_operation_xyz
x,y,z
-x,-y,z
-x,y,z
x,-y,z
x,1/2+y,1/2+z
-x,1/2-y,1/2+z
-x,1/2+y,1/2+z
x,1/2-y,1/2+z
loop_
_atom_site_type_symbol
_atom_site_label
_atom_site_fract_x
_atom_site_fract_y
_atom_site_fract_z
Si Si1 0.832102 0.697608 0.292070
Si Si2 0.333428 0.304339 0.376188
Si Si3 0.000000 0.700009 0.040722
Si Si4 0.166933 0.700277 0.124854
Si Si5 0.500000 0.305718 0.792651
Si Si6 0.000000 0.804071 0.373720
Si Si7 0.334156 0.197282 0.542766
Si Si8 0.500000 0.302079 0.125878
O O1 0.828669 0.500000 0.290524
O O2 0.749783 0.757237 0.334767
O O3 0.832429 0.754055 0.208506
O O4 0.916777 0.746842 0.332622
O O5 0.329499 0.500000 0.377343
O O6 0.416963 0.254613 0.333659
O O7 0.335588 0.243543 0.458649
O O8 0.916712 0.752623 0.083038
O O9 0.000000 0.500000 0.040416
O O10 0.000000 0.754816 0.957220
O O11 0.167049 0.500000 0.124959
O O12 0.249816 0.755133 0.082433
O O13 0.500000 0.500000 0.793806
O O14 0.500000 0.246110 0.709763
O O15 0.000000 0.000000 0.375070
O O16 0.416773 0.256952 0.584666
O O17 0.334294 0.000000 0.547211
O O18 0.500000 0.500000 0.122593
#
# Coordination Sequence:
#
# PCOD9358367 Si02
#       8
#     8   8   4   8   4   4   8   4
#     4  10  21  38  60  84 112 151 194 235 286 347
#     4  11  23  39  60  87 120 155 194 242 293 347
#     4   9  17  29  49  77 106 139 182 230 276 325
#     4   9  17  32  55  79 105 143 191 235 274 331
#     4  12  25  40  61  87 117 155 197 242 293 348
#     4  11  22  35  55  85 118 149 186 240 296 343
#     4  10  20  36  59  85 114 150 192 236 286 347
#     4  10  21  38  59  83 113 149 191 238 287 344
#
# _framework density 19.966215999999999
#
# number of rings (size 3 to 8) (size 9 to 14) (size 15 to 20)
#    0.000    1.833    0.000    4.500    0.000    8.000 
#    0.000    0.833    0.000    6.000    0.000    0.000 
#    0.000    0.000    0.000    0.000    0.000    0.000 
#
# Total GULP energy -134158.960813 kJ/mol
# GULP energy per Si atom -5589.956701 kJ/mol
# Density = 1.992077 g / cm^3
# Si number density = 19.966216 Si / 1000 Ang^3
#
#
#
# Elastic Constant Matrix: (Units=GPa)
#
#
# Indices 1 2 3 4 5 6 
#
# 1 245.4999 11.8618 150.0384 0.0000 0.0000 0.0000
# 2 11.8618 5.7169 6.5286 0.0000 0.0000 0.0000
# 3 150.0384 6.5286 240.4981 0.0000 0.0000 0.0000
# 4 0.0000 0.0000 0.0000 28.7270 0.0000 0.0000
# 5 0.0000 0.0000 0.0000 0.0000 17.9628 0.0000
# 6 0.0000 0.0000 0.0000 0.0000 0.0000 -24.6259
#
#
#
# Elastic Compliance Matrix: (Units=1/GPa)
#
#
# Indices 1 2 3 4 5 6 
#
# 1 0.007095 -0.009976 -0.004156 0.000000 0.000000 0.000000
# 2 -0.009976 0.194541 0.000942 0.000000 0.000000 0.000000
# 3 -0.004156 0.000942 0.006725 0.000000 0.000000 0.000000
# 4 0.000000 0.000000 0.000000 0.034810 0.000000 0.000000
# 5 0.000000 0.000000 0.000000 0.000000 0.055671 0.000000
# 6 0.000000 0.000000 0.000000 0.000000 0.000000 -0.040608
#
#
# Mechanical properties :
#
#
# Convention : Reuss Voigt Hill
#
# Bulk Modulus (GPa) = 5.49500 92.06362 48.77931
# Shear Modulus (GPa) = 14.48131 25.96520 20.22325
#
# Velocity S-wave (km/s) = 2.69604 3.61010 3.18602
# Velocity P-wave (km/s) = 3.52841 7.97414 6.16590
#
# Compressibility (1/GPa) = 0.18198348
#
# Stress axis : x y z
#
# Youngs Moduli (GPa) = 140.94515 5.14031 148.70048
#
# Poissons Ratio (x) = 0.05128 0.61793
# Poissons Ratio (y) = 1.40600 -0.14013
# Poissons Ratio (z) = 0.58570 -0.00484
#
# Static dielectric constant tensor:
#      x y z
#    x 1.764880 0.000000 0.000000 
#    y 0.000000 1.702800 0.000000 
#    z 0.000000 0.000000 1.671650 
# 
# From -- ./inp_files/18227.got.cif
#   From: 2010.05.17/outbox.cif.g08.bks.cpg/sg38_10_cif.got.tgz:18227.got - 2010.06.03 18:07:57.
