data_PCOD9358947
_publ_section_title
;
Structure prediction by ZEFSAII (Michael W. Deem and Ramdas Pophale) SiO2 
 PCOD9358947
Probable space group: A M M 2
;
_chemical_formula_sum "Si O2"
_cell_formula_units_Z 64
_cell_length_a 9.444722
_cell_length_b 21.519345
_cell_length_c 15.707314
_cell_angle_alpha 90.000000
_cell_angle_beta 90.000000
_cell_angle_gamma 90.000000
_cell_volume 3192.420957
_symmetry_space_group_name_H-M "A M M 2"
_symmetry_group_IT_number 38
_symmetry_cell_setting 'orthorhombic'
loop_
_space_group_symop_operation_xyz
x,y,z
-x,-y,z
-x,y,z
x,-y,z
x,1/2+y,1/2+z
-x,1/2-y,1/2+z
-x,1/2+y,1/2+z
x,1/2-y,1/2+z
loop_
_atom_site_type_symbol
_atom_site_label
_atom_site_fract_x
_atom_site_fract_y
_atom_site_fract_z
Si Si1 0.661115 0.256420 0.716150
Si Si2 0.663373 0.075354 0.960786
Si Si3 0.161142 0.575692 0.297791
Si Si4 0.830907 0.294596 0.874919
Si Si5 0.668052 0.571420 0.127596
Si Si6 0.337898 0.397994 0.651410
Si Si7 0.668037 0.691881 0.039578
Si Si8 0.169489 0.933061 0.313313
O O1 0.500000 0.238989 0.740957
O O2 0.763770 0.256172 0.796923
O O3 0.658212 0.326838 0.681207
O O4 0.702627 0.217884 0.633040
O O5 0.500000 0.095200 0.948890
O O6 0.758741 0.097402 0.882557
O O7 0.664959 0.000000 0.960793
O O8 0.711723 0.096434 0.054208
O O9 0.158129 0.500000 0.301979
O O10 0.247218 0.590020 0.212342
O O11 0.000000 0.598008 0.293879
O O12 0.792517 0.367783 0.857872
O O13 0.000000 0.288551 0.877104
O O14 0.758496 0.278864 0.964415
O O15 0.500000 0.575308 0.146502
O O16 0.702585 0.500000 0.107384
O O17 0.696299 0.618409 0.050855
O O18 0.500000 0.422100 0.653660
O O19 0.240348 0.430931 0.720357
O O20 0.500000 0.701846 0.024629
O O21 0.000000 0.931778 0.305216
O O22 0.209146 0.000000 0.353745
#
# Coordination Sequence:
#
# PCOD9358947 Si02
#       8
#     8   8   8   8   8   8   8   8
#     4   9  19  38  59  78 105 142 183 228 273 320
#     4   9  16  26  42  66  98 134 172 216 265 316
#     4   9  17  29  45  67  98 135 172 212 261 316
#     4  10  21  37  58  83 113 147 181 224 273 322
#     4   9  18  34  55  78 105 137 175 221 272 323
#     4   9  17  30  49  73 100 134 179 227 269 313
#     4  10  21  38  60  84 109 143 184 226 274 326
#     4   9  18  32  50  75 109 146 179 213 263 324
#
# _framework density 20.047481999999999
#
# number of rings (size 3 to 8) (size 9 to 14) (size 15 to 20)
#    0.000    2.750    0.000    1.125    0.000    4.750 
#    2.250    1.250    0.000    0.000    0.000    0.000 
#    0.000    0.000    0.000    0.000    0.000    0.000 
#
# Total GULP energy -178501.204923 kJ/mol
# GULP energy per Si atom -5578.162654 kJ/mol
# Density = 2.000185 g / cm^3
# Si number density = 20.047482 Si / 1000 Ang^3
#
#
#
# Elastic Constant Matrix: (Units=GPa)
#
#
# Indices 1 2 3 4 5 6 
#
# 1 52.5363 14.2561 69.4601 0.0000 0.0000 0.0000
# 2 14.2561 31.6584 16.2206 0.0000 0.0000 0.0000
# 3 69.4601 16.2206 126.1882 0.0000 0.0000 0.0000
# 4 0.0000 0.0000 0.0000 13.4142 0.0000 0.0000
# 5 0.0000 0.0000 0.0000 0.0000 -7.4969 0.0000
# 6 0.0000 0.0000 0.0000 0.0000 0.0000 13.5739
#
#
#
# Elastic Compliance Matrix: (Units=1/GPa)
#
#
# Indices 1 2 3 4 5 6 
#
# 1 0.074949 -0.013502 -0.039520 0.000000 0.000000 0.000000
# 2 -0.013502 0.036246 0.002773 0.000000 0.000000 0.000000
# 3 -0.039520 0.002773 0.029322 0.000000 0.000000 0.000000
# 4 0.000000 0.000000 0.000000 0.074548 0.000000 0.000000
# 5 0.000000 0.000000 0.000000 0.000000 -0.133389 0.000000
# 6 0.000000 0.000000 0.000000 0.000000 0.000000 0.073671
#
#
# Mechanical properties :
#
#
# Convention : Reuss Voigt Hill
#
# Bulk Modulus (GPa) = 24.98779 45.58407 35.28593
# Shear Modulus (GPa) = 18.57463 11.26133 14.91798
#
# Velocity S-wave (km/s) = 3.04720 2.37266 2.73084
# Velocity P-wave (km/s) = 4.98718 5.50395 5.25192
#
# Compressibility (1/GPa) = 0.04001954
#
# Stress axis : x y z
#
# Youngs Moduli (GPa) = 13.34240 27.58888 34.10410
#
# Poissons Ratio (x) = 0.37250 1.34779
# Poissons Ratio (y) = 0.18015 -0.09456
# Poissons Ratio (z) = 0.52729 -0.07650
#
# Static dielectric constant tensor:
#      x y z
#    x 1.678780 0.000000 0.000000 
#    y 0.000000 1.780450 0.000000 
#    z 0.000000 0.000000 1.669070 
# 
# From -- ./inp_files/12828.got.cif
#   From: 2010.05.17/outbox.cif.g08.bks.cpg/sg38_7_cif.got.tgz:12828.got - 2010.06.03 18:07:57.
