data_PCOD9358481
_publ_section_title
;
Structure prediction by ZEFSAII (Michael W. Deem and Ramdas Pophale) SiO2 
 PCOD9358481
Probable space group: A M M 2
;
_chemical_formula_sum "Si O2"
_cell_formula_units_Z 64
_cell_length_a 24.099811
_cell_length_b 7.602307
_cell_length_c 16.177488
_cell_angle_alpha 90.000000
_cell_angle_beta 90.000000
_cell_angle_gamma 90.000000
_cell_volume 2963.944905
_symmetry_space_group_name_H-M "A M M 2"
_symmetry_group_IT_number 38
_symmetry_cell_setting 'orthorhombic'
loop_
_space_group_symop_operation_xyz
x,y,z
-x,-y,z
-x,y,z
x,-y,z
x,1/2+y,1/2+z
-x,1/2-y,1/2+z
-x,1/2+y,1/2+z
x,1/2-y,1/2+z
loop_
_atom_site_type_symbol
_atom_site_label
_atom_site_fract_x
_atom_site_fract_y
_atom_site_fract_z
Si Si1 0.063458 0.289100 0.230670
Si Si2 0.561521 0.787389 0.788776
Si Si3 0.936612 0.789061 0.045027
Si Si4 0.673341 0.793603 0.060907
Si Si5 0.681035 0.202787 0.235919
Si Si6 0.262698 0.705348 0.899497
Si Si7 0.560928 0.214373 0.982800
Si Si8 0.865999 0.786146 0.887789
O O1 0.060839 0.500000 0.238390
O O2 0.083650 0.249994 0.137831
O O3 0.101966 0.225612 0.305227
O O4 0.000000 0.221684 0.237804
O O5 0.500000 0.732826 0.759958
O O6 0.614392 0.710892 0.742733
O O7 0.564316 0.000000 0.783878
O O8 0.566327 0.738730 0.885892
O O9 0.000000 0.721507 0.038172
O O10 0.939159 0.000000 0.037448
O O11 0.898501 0.725774 0.970059
O O12 0.695578 0.717500 0.146987
O O13 0.613917 0.718910 0.032462
O O14 0.663573 0.000000 0.077712
O O15 0.714925 0.783592 0.984554
O O16 0.706565 0.283732 0.318977
O O17 0.700452 0.000000 0.237144
O O18 0.277307 0.500000 0.905203
O O19 0.197282 0.726746 0.889482
O O20 0.500000 0.271734 0.012226
O O21 0.561577 0.000000 0.984775
O O22 0.865977 0.000000 0.887782
#
# Coordination Sequence:
#
# PCOD9358481 Si02
#       8
#     8   8   8   8   8   8   8   8
#     4   9  18  34  57  86 118 148 180 219 263 317
#     4   9  17  31  54  82 109 138 173 215 265 324
#     4   9  18  34  57  85 115 144 176 219 269 317
#     4  10  20  37  60  80 102 141 185 221 264 328
#     4  10  22  37  55  80 108 138 177 226 278 323
#     4  11  24  40  54  76 111 143 179 233 282 316
#     4   8  14  27  51  80 104 130 169 214 257 312
#     4  10  21  37  58  80 106 147 191 223 260 319
#
# _framework density 21.592845000000001
#
# number of rings (size 3 to 8) (size 9 to 14) (size 15 to 20)
#    0.000    2.500    1.250    1.500    0.000    5.250 
#    0.000    5.000    0.000    4.125    0.000    0.000 
#    0.000    0.000    0.000    0.000    0.000    0.000 
#
# Total GULP energy -178647.127918 kJ/mol
# GULP energy per Si atom -5582.722747 kJ/mol
# Density = 2.154370 g / cm^3
# Si number density = 21.592845 Si / 1000 Ang^3
#
#
#
# Elastic Constant Matrix: (Units=GPa)
#
#
# Indices 1 2 3 4 5 6 
#
# 1 94.8095 -10.4733 73.7165 0.0000 0.0000 0.0000
# 2 -10.4733 45.6774 -1.4637 0.0000 0.0000 0.0000
# 3 73.7165 -1.4637 171.2550 0.0000 0.0000 0.0000
# 4 0.0000 0.0000 0.0000 9.7407 0.0000 0.0000
# 5 0.0000 0.0000 0.0000 0.0000 -5.2646 0.0000
# 6 0.0000 0.0000 0.0000 0.0000 0.0000 16.8378
#
#
#
# Elastic Compliance Matrix: (Units=1/GPa)
#
#
# Indices 1 2 3 4 5 6 
#
# 1 0.016405 0.003536 -0.007031 0.000000 0.000000 0.000000
# 2 0.003536 0.022661 -0.001328 0.000000 0.000000 0.000000
# 3 -0.007031 -0.001328 0.008855 0.000000 0.000000 0.000000
# 4 0.000000 0.000000 0.000000 0.102662 0.000000 0.000000
# 5 0.000000 0.000000 0.000000 0.000000 -0.189948 0.000000
# 6 0.000000 0.000000 0.000000 0.000000 0.000000 0.059390
#
#
# Mechanical properties :
#
#
# Convention : Reuss Voigt Hill
#
# Bulk Modulus (GPa) = 26.12788 48.36676 37.24732
# Shear Modulus (GPa) = 117.84350 20.92696 69.38523
#
# Velocity S-wave (km/s) = 7.39552 3.11651 5.67479
# Velocity P-wave (km/s) = 9.22234 5.94964 7.76047
#
# Compressibility (1/GPa) = 0.03827329
#
# Stress axis : x y z
#
# Youngs Moduli (GPa) = 60.95662 44.12891 112.93667
#
# Poissons Ratio (x) = -0.15605 0.79410
# Poissons Ratio (y) = -0.21555 0.15003
# Poissons Ratio (z) = 0.42861 0.05862
#
# Static dielectric constant tensor:
#      x y z
#    x 1.747320 0.000000 0.000000 
#    y 0.000000 1.808860 0.000000 
#    z 0.000000 0.000000 1.805570 
# 
# From -- ./inp_files/15757.got.cif
#   From: 2010.05.17/outbox.cif.g08.bks.cpg/sg38_8_cif.got.tgz:15757.got - 2010.06.03 18:07:57.
