data_PCOD9358422
_publ_section_title
;
Structure prediction by ZEFSAII (Michael W. Deem and Ramdas Pophale) SiO2 
 PCOD9358422
Probable space group: A M M 2
;
_chemical_formula_sum "Si O2"
_cell_formula_units_Z 64
_cell_length_a 7.949526
_cell_length_b 31.996593
_cell_length_c 12.347315
_cell_angle_alpha 90.000000
_cell_angle_beta 90.000000
_cell_angle_gamma 90.000000
_cell_volume 3140.635237
_symmetry_space_group_name_H-M "A M M 2"
_symmetry_group_IT_number 38
_symmetry_cell_setting 'orthorhombic'
loop_
_space_group_symop_operation_xyz
x,y,z
-x,-y,z
-x,y,z
x,-y,z
x,1/2+y,1/2+z
-x,1/2-y,1/2+z
-x,1/2+y,1/2+z
x,1/2-y,1/2+z
loop_
_atom_site_type_symbol
_atom_site_label
_atom_site_fract_x
_atom_site_fract_y
_atom_site_fract_z
Si Si1 0.799585 0.372992 0.234510
Si Si2 0.799585 0.372992 0.480552
Si Si3 0.702343 0.296430 0.632155
Si Si4 0.294378 0.334263 0.857531
Si Si5 0.295086 0.431280 0.857531
Si Si6 0.296686 0.045559 0.118172
Si Si7 0.297657 0.796430 0.582906
Si Si8 0.296686 0.454441 0.096890
O O1 0.732486 0.375003 0.357531
O O2 0.739812 0.331575 0.172048
O O3 0.755085 0.414553 0.166953
O O4 0.000000 0.370766 0.239631
O O5 0.739814 0.331575 0.543013
O O6 0.755084 0.414553 0.548109
O O7 0.000000 0.370767 0.475431
O O8 0.500000 0.293730 0.639844
O O9 0.765384 0.312419 0.748277
O O10 0.766942 0.250000 0.607531
O O11 0.500000 0.333281 0.857531
O O12 0.247524 0.382691 0.857531
O O13 0.234615 0.312418 0.966785
O O14 0.500000 0.434339 0.857531
O O15 0.238614 0.450060 0.743175
O O16 0.238615 0.450060 0.971887
O O17 0.500000 0.045973 0.120189
O O18 0.241821 0.000000 0.075833
O O19 0.500000 0.793729 0.575216
O O20 0.500000 0.454027 0.094873
O O21 0.241821 0.500000 0.139229
#
# Coordination Sequence:
#
# PCOD9358422 Si02
#       8
#     8   8   8   8   8   8   8   8
#     4  11  25  42  57  78 116 160 196 234 283 341
#     4  11  25  42  57  78 116 160 196 234 283 341
#     4  10  21  37  62  91 117 147 188 239 286 334
#     4   9  16  31  56  88 119 145 178 229 292 339
#     4   9  15  30  57  88 120 144 174 229 293 345
#     4  10  20  36  61  89 114 145 189 241 292 342
#     4  10  21  37  62  91 117 147 188 239 286 334
#     4  10  20  36  61  89 114 145 189 241 292 342
#
# _framework density 20.378042000000001
#
# number of rings (size 3 to 8) (size 9 to 14) (size 15 to 20)
#    0.000    2.000    2.500    1.125    1.750    5.000 
#    0.000    5.000    0.000    1.500    0.000    0.000 
#    0.000    0.000    0.000    0.000    0.000    0.000 
#
# Total GULP energy -178676.917664 kJ/mol
# GULP energy per Si atom -5583.653677 kJ/mol
# Density = 2.033166 g / cm^3
# Si number density = 20.378042 Si / 1000 Ang^3
#
#
#
# Elastic Constant Matrix: (Units=GPa)
#
#
# Indices 1 2 3 4 5 6 
#
# 1 15.5243 3.5242 1.0026 0.0000 0.0000 0.0000
# 2 3.5242 198.1713 88.4574 0.0000 0.0000 0.0000
# 3 1.0026 88.4574 157.4874 0.0000 0.0000 0.0000
# 4 0.0000 0.0000 0.0000 56.4518 0.0000 0.0000
# 5 0.0000 0.0000 0.0000 0.0000 22.0427 0.0000
# 6 0.0000 0.0000 0.0000 0.0000 0.0000 -14.1940
#
#
#
# Elastic Compliance Matrix: (Units=1/GPa)
#
#
# Indices 1 2 3 4 5 6 
#
# 1 0.064688 -0.001290 0.000313 0.000000 0.000000 0.000000
# 2 -0.001290 0.006760 -0.003789 0.000000 0.000000 0.000000
# 3 0.000313 -0.003789 0.008476 0.000000 0.000000 0.000000
# 4 0.000000 0.000000 0.000000 0.017714 0.000000 0.000000
# 5 0.000000 0.000000 0.000000 0.000000 0.045367 0.000000
# 6 0.000000 0.000000 0.000000 0.000000 0.000000 -0.070452
#
#
# Mechanical properties :
#
#
# Convention : Reuss Voigt Hill
#
# Bulk Modulus (GPa) = 14.20624 61.90572 38.05598
# Shear Modulus (GPa) = 47.37150 31.40668 39.38909
#
# Velocity S-wave (km/s) = 4.82668 3.93007 4.40127
# Velocity P-wave (km/s) = 6.16838 7.14413 6.67411
#
# Compressibility (1/GPa) = 0.07039163
#
# Stress axis : x y z
#
# Youngs Moduli (GPa) = 15.45888 147.92155 117.98171
#
# Poissons Ratio (x) = 0.19082 -0.03690
# Poissons Ratio (y) = 0.01994 0.44702
# Poissons Ratio (z) = -0.00483 0.56046
#
# Static dielectric constant tensor:
#      x y z
#    x 1.737880 0.000000 0.000000 
#    y 0.000000 1.709850 0.000000 
#    z 0.000000 0.000000 1.719690 
# 
# From -- ./inp_files/8592.got.cif
#   From: 2010.05.17/outbox.cif.g08.bks.cpg/sg38_5_cif.got.tgz:8592.got - 2010.06.03 18:07:57.
