data_PCOD9358742
_publ_section_title
;
Structure prediction by ZEFSAII (Michael W. Deem and Ramdas Pophale) SiO2 
 PCOD9358742
Probable space group: A M M 2
;
_chemical_formula_sum "Si O2"
_cell_formula_units_Z 64
_cell_length_a 7.653331
_cell_length_b 33.652503
_cell_length_c 12.203691
_cell_angle_alpha 90.000000
_cell_angle_beta 90.000000
_cell_angle_gamma 90.000000
_cell_volume 3143.106313
_symmetry_space_group_name_H-M "A M M 2"
_symmetry_group_IT_number 38
_symmetry_cell_setting 'orthorhombic'
loop_
_space_group_symop_operation_xyz
x,y,z
-x,-y,z
-x,y,z
x,-y,z
x,1/2+y,1/2+z
-x,1/2-y,1/2+z
-x,1/2+y,1/2+z
x,1/2-y,1/2+z
loop_
_atom_site_type_symbol
_atom_site_label
_atom_site_fract_x
_atom_site_fract_y
_atom_site_fract_z
Si Si1 0.800982 0.904374 0.697640
Si Si2 0.794728 0.352883 0.006109
Si Si3 0.706771 0.225660 0.635204
Si Si4 0.286757 0.172584 0.830048
Si Si5 0.207114 0.952719 0.893214
Si Si6 0.210318 0.545659 0.633377
Si Si7 0.707496 0.123890 0.259710
Si Si8 0.714280 0.686718 0.578749
O O1 0.719446 0.887713 0.585144
O O2 0.797364 0.865468 0.774002
O O3 0.716272 0.936000 0.780247
O O4 0.000000 0.917785 0.672880
O O5 0.769191 0.363397 0.879946
O O6 0.000000 0.352024 0.029802
O O7 0.730549 0.309677 0.046492
O O8 0.500000 0.231125 0.645809
O O9 0.767544 0.209226 0.752707
O O10 0.777642 0.268722 0.604714
O O11 0.500000 0.168948 0.824060
O O12 0.234940 0.176181 0.955363
O O13 0.000000 0.942091 0.891365
O O14 0.219815 0.000000 0.893785
O O15 0.276837 0.940047 0.012902
O O16 0.270701 0.500000 0.654075
O O17 0.251790 0.578856 0.723100
O O18 0.000000 0.543516 0.625120
O O19 0.500000 0.127816 0.261439
O O20 0.775182 0.154482 0.167353
O O21 0.500000 0.686590 0.580177
#
# Coordination Sequence:
#
# PCOD9358742 Si02
#       8
#     8   8   8   8   8   8   8   8
#     4   9  17  31  51  72  98 130 165 209 254 304
#     4  10  21  36  51  72 105 141 177 219 265 316
#     4   9  18  33  54  74  96 131 171 212 261 316
#     4   9  17  30  49  72  96 125 161 206 253 304
#     4   8  14  27  51  80 103 127 163 206 256 315
#     4   9  18  34  56  81 110 141 173 215 270 326
#     4  11  22  35  54  79 106 142 185 226 265 317
#     4   9  19  32  51  78 102 129 172 219 262 315
#
# _framework density 20.362022
#
# number of rings (size 3 to 8) (size 9 to 14) (size 15 to 20)
#    0.000    2.750    0.000    2.250    1.750    0.750 
#    0.000    3.125    0.000    3.375    0.000    0.000 
#    0.000    0.000    0.000    0.000    0.000    0.000 
#
# Total GULP energy -178352.884055 kJ/mol
# GULP energy per Si atom -5573.527627 kJ/mol
# Density = 2.031568 g / cm^3
# Si number density = 20.362022 Si / 1000 Ang^3
#
#
#
# Elastic Constant Matrix: (Units=GPa)
#
#
# Indices 1 2 3 4 5 6 
#
# 1 35.0554 -10.1946 -8.8973 0.0000 0.0000 0.0000
# 2 -10.1946 63.3587 55.7011 0.0000 0.0000 0.0000
# 3 -8.8973 55.7011 159.1938 0.0000 0.0000 0.0000
# 4 0.0000 0.0000 0.0000 19.3921 0.0000 0.0000
# 5 0.0000 0.0000 0.0000 0.0000 6.4366 0.0000
# 6 0.0000 0.0000 0.0000 0.0000 0.0000 18.0886
#
#
#
# Elastic Compliance Matrix: (Units=1/GPa)
#
#
# Indices 1 2 3 4 5 6 
#
# 1 0.029927 0.004831 -0.000018 0.000000 0.000000 0.000000
# 2 0.004831 0.023575 -0.007979 0.000000 0.000000 0.000000
# 3 -0.000018 -0.007979 0.009072 0.000000 0.000000 0.000000
# 4 0.000000 0.000000 0.000000 0.051567 0.000000 0.000000
# 5 0.000000 0.000000 0.000000 0.000000 0.155361 0.000000
# 6 0.000000 0.000000 0.000000 0.000000 0.000000 0.055283
#
#
# Mechanical properties :
#
#
# Convention : Reuss Voigt Hill
#
# Bulk Modulus (GPa) = 17.78005 36.75848 27.26927
# Shear Modulus (GPa) = 14.29126 23.51672 18.90399
#
# Velocity S-wave (km/s) = 2.65214 3.40211 3.05026
# Velocity P-wave (km/s) = 4.25786 5.79001 5.08200
#
# Compressibility (1/GPa) = 0.05624280
#
# Stress axis : x y z
#
# Youngs Moduli (GPa) = 33.41501 42.41805 110.22467
#
# Poissons Ratio (x) = -0.20492 0.00195
# Poissons Ratio (y) = -0.16142 0.87945
# Poissons Ratio (z) = 0.00059 0.33844
#
# Static dielectric constant tensor:
#      x y z
#    x 1.779440 0.000000 0.000000 
#    y 0.000000 1.737680 0.000000 
#    z 0.000000 0.000000 1.756520 
# 
# From -- ./inp_files/8673.got.cif
#   From: 2010.05.17/outbox.cif.g08.bks.cpg/sg38_5_cif.got.tgz:8673.got - 2010.06.03 18:07:57.
