data_PCOD9358464
_publ_section_title
;
Structure prediction by ZEFSAII (Michael W. Deem and Ramdas Pophale) SiO2 
 PCOD9358464
Probable space group: A M M 2
;
_chemical_formula_sum "Si O2"
_cell_formula_units_Z 48
_cell_length_a 7.568478
_cell_length_b 16.683125
_cell_length_c 20.702551
_cell_angle_alpha 90.000000
_cell_angle_beta 90.000000
_cell_angle_gamma 90.000000
_cell_volume 2614.025500
_symmetry_space_group_name_H-M "A M M 2"
_symmetry_group_IT_number 38
_symmetry_cell_setting 'orthorhombic'
loop_
_space_group_symop_operation_xyz
x,y,z
-x,-y,z
-x,y,z
x,-y,z
x,1/2+y,1/2+z
-x,1/2-y,1/2+z
-x,1/2+y,1/2+z
x,1/2-y,1/2+z
loop_
_atom_site_type_symbol
_atom_site_label
_atom_site_fract_x
_atom_site_fract_y
_atom_site_fract_z
Si Si1 0.715175 0.792159 0.183940
Si Si2 0.284589 0.721974 0.916233
Si Si3 0.000000 0.091570 0.396772
Si Si4 0.000000 0.091173 0.241548
Si Si5 0.792681 0.500000 0.345697
Si Si6 0.210524 0.500000 0.492559
Si Si7 0.289941 0.173123 0.792358
Si Si8 0.291272 0.824202 0.039821
O O1 0.500000 0.802969 0.187605
O O2 0.825050 0.863230 0.217204
O O3 0.765549 0.712708 0.224688
O O4 0.771911 0.793255 0.109147
O O5 0.500000 0.711821 0.915629
O O6 0.229455 0.771173 0.851942
O O7 0.174725 0.640222 0.917700
O O8 0.227956 0.775551 0.977522
O O9 0.000000 0.091101 0.318903
O O10 0.000000 0.000000 0.419681
O O11 0.000000 0.000000 0.217640
O O12 0.714785 0.500000 0.418783
O O13 0.750725 0.418892 0.307421
O O14 0.000000 0.500000 0.355167
O O15 0.261864 0.418506 0.528649
O O16 0.000000 0.500000 0.489275
O O17 0.500000 0.178996 0.793253
O O18 0.500000 0.811246 0.040504
#
# Coordination Sequence:
#
# PCOD9358464 Si02
#       8
#     8   8   4   4   4   4   8   8
#     4  10  23  40  59  85 118 159 200 237 288 356
#     4  10  21  38  63  87 114 152 195 246 299 352
#     4  11  24  39  62  88 112 150 201 249 294 344
#     4  11  24  37  56  84 118 154 191 239 288 336
#     4  11  23  33  57  91 121 152 195 250 294 350
#     4  11  23  33  51  91 129 154 189 240 298 358
#     4  10  20  37  58  83 115 154 197 241 290 348
#     4  10  22  38  58  85 120 158 194 239 297 361
#
# _framework density 18.362483000000001
#
# number of rings (size 3 to 8) (size 9 to 14) (size 15 to 20)
#    0.000    1.667    3.333    0.500    5.833    1.333 
#    0.000    1.667    1.833    0.000    0.000    0.000 
#    0.000    0.000    0.000    0.000    0.000    0.000 
#
# Total GULP energy -133881.377622 kJ/mol
# GULP energy per Si atom -5578.390734 kJ/mol
# Density = 1.832069 g / cm^3
# Si number density = 18.362483 Si / 1000 Ang^3
#
#
#
# Elastic Constant Matrix: (Units=GPa)
#
#
# Indices 1 2 3 4 5 6 
#
# 1 52.5009 20.7503 16.3854 0.0000 0.0000 0.0000
# 2 20.7503 152.3597 73.5902 0.0000 0.0000 0.0000
# 3 16.3854 73.5902 140.2900 0.0000 0.0000 0.0000
# 4 0.0000 0.0000 0.0000 26.5323 0.0000 0.0000
# 5 0.0000 0.0000 0.0000 0.0000 13.7060 0.0000
# 6 0.0000 0.0000 0.0000 0.0000 0.0000 32.3773
#
#
#
# Elastic Compliance Matrix: (Units=1/GPa)
#
#
# Indices 1 2 3 4 5 6 
#
# 1 0.020289 -0.002168 -0.001232 0.000000 0.000000 0.000000
# 2 -0.002168 0.009022 -0.004480 0.000000 0.000000 0.000000
# 3 -0.001232 -0.004480 0.009622 0.000000 0.000000 0.000000
# 4 0.000000 0.000000 0.000000 0.037690 0.000000 0.000000
# 5 0.000000 0.000000 0.000000 0.000000 0.072961 0.000000
# 6 0.000000 0.000000 0.000000 0.000000 0.000000 0.030886
#
#
# Mechanical properties :
#
#
# Convention : Reuss Voigt Hill
#
# Bulk Modulus (GPa) = 43.15349 62.95583 53.05466
# Shear Modulus (GPa) = 24.51540 30.15142 27.33341
#
# Velocity S-wave (km/s) = 3.65784 4.05657 3.86235
# Velocity P-wave (km/s) = 6.43363 7.50337 6.98900
#
# Compressibility (1/GPa) = 0.02317310
#
# Stress axis : x y z
#
# Youngs Moduli (GPa) = 49.28837 110.83663 103.93058
#
# Poissons Ratio (x) = 0.24028 0.12809
# Poissons Ratio (y) = 0.10685 0.46556
# Poissons Ratio (z) = 0.06075 0.49649
#
# Static dielectric constant tensor:
#      x y z
#    x 1.651320 0.000000 0.000000 
#    y 0.000000 1.494150 0.000000 
#    z 0.000000 0.000000 1.669490 
# 
# From -- ./inp_files/16760.got.cif
#   From: 2010.05.17/outbox.cif.g08.bks.cpg/sg38_9_cif.got.tgz:16760.got - 2010.06.03 18:07:57.
