data_PCOD9358791
_publ_section_title
;
Structure prediction by ZEFSAII (Michael W. Deem and Ramdas Pophale) SiO2 
 PCOD9358791
Probable space group: A M M 2
;
_chemical_formula_sum "Si O2"
_cell_formula_units_Z 64
_cell_length_a 24.700886
_cell_length_b 8.744213
_cell_length_c 15.784327
_cell_angle_alpha 90.000000
_cell_angle_beta 90.000000
_cell_angle_gamma 90.000000
_cell_volume 3409.253766
_symmetry_space_group_name_H-M "A M M 2"
_symmetry_group_IT_number 38
_symmetry_cell_setting 'orthorhombic'
loop_
_space_group_symop_operation_xyz
x,y,z
-x,-y,z
-x,y,z
x,-y,z
x,1/2+y,1/2+z
-x,1/2-y,1/2+z
-x,1/2+y,1/2+z
x,1/2-y,1/2+z
loop_
_atom_site_type_symbol
_atom_site_label
_atom_site_fract_x
_atom_site_fract_y
_atom_site_fract_z
Si Si1 0.759794 0.679449 0.095980
Si Si2 0.867153 0.681838 0.858474
Si Si3 0.757045 0.179040 0.799911
Si Si4 0.870387 0.681878 0.535772
Si Si5 0.562643 0.685013 0.942037
Si Si6 0.365674 0.314781 0.292452
Si Si7 0.062240 0.813152 0.198630
Si Si8 0.637868 0.186331 0.597170
O O1 0.764776 0.500000 0.073350
O O2 0.763771 0.690767 0.198101
O O3 0.808705 0.770147 0.054939
O O4 0.699189 0.733788 0.073934
O O5 0.870282 0.500000 0.861152
O O6 0.805027 0.730165 0.843652
O O7 0.902936 0.737753 0.779406
O O8 0.887255 0.749139 0.946515
O O9 0.695701 0.230689 0.818121
O O10 0.761821 0.000000 0.822593
O O11 0.873754 0.500000 0.532004
O O12 0.907614 0.737086 0.613267
O O13 0.500000 0.732068 0.945610
O O14 0.564518 0.500000 0.939891
O O15 0.592038 0.748093 0.858638
O O16 0.595396 0.735333 0.026075
O O17 0.367523 0.500000 0.294054
O O18 0.374435 0.266736 0.194219
O O19 0.000000 0.764036 0.202301
O O20 0.062697 0.000000 0.198774
O O21 0.638711 0.000000 0.598641
#
# Coordination Sequence:
#
# PCOD9358791 Si02
#       8
#     8   8   8   8   8   8   8   8
#     4   9  17  33  57  82 112 146 183 228 278 335
#     4  11  22  36  57  85 113 149 191 229 277 335
#     4   9  18  34  56  83 117 146 178 232 287 334
#     4  11  22  36  56  85 116 148 186 230 281 331
#     4  10  21  36  54  79 111 146 188 232 272 324
#     4   9  19  36  57  81 108 143 184 227 276 332
#     4   9  20  40  61  80 111 153 192 231 276 333
#     4   8  17  35  56  78 106 145 184 220 271 332
#
# _framework density 18.772435999999999
#
# number of rings (size 3 to 8) (size 9 to 14) (size 15 to 20)
#    0.000    2.500    1.250    2.250    1.750    1.750 
#    0.000    3.750    0.000    5.250    0.000    0.000 
#    0.000    0.000    0.000    0.000    0.000    0.000 
#
# Total GULP energy -178586.804032 kJ/mol
# GULP energy per Si atom -5580.837626 kJ/mol
# Density = 1.872971 g / cm^3
# Si number density = 18.772436 Si / 1000 Ang^3
#
#
#
# Elastic Constant Matrix: (Units=GPa)
#
#
# Indices 1 2 3 4 5 6 
#
# 1 125.4421 19.6480 78.3929 0.0000 0.0000 0.0000
# 2 19.6480 18.7705 22.5390 0.0000 0.0000 0.0000
# 3 78.3929 22.5390 115.7616 0.0000 0.0000 0.0000
# 4 0.0000 0.0000 0.0000 27.9477 0.0000 0.0000
# 5 0.0000 0.0000 0.0000 0.0000 -13.3117 0.0000
# 6 0.0000 0.0000 0.0000 0.0000 0.0000 16.9039
#
#
#
# Elastic Compliance Matrix: (Units=1/GPa)
#
#
# Indices 1 2 3 4 5 6 
#
# 1 0.014081 -0.004293 -0.008700 0.000000 0.000000 0.000000
# 2 -0.004293 0.070839 -0.010885 0.000000 0.000000 0.000000
# 3 -0.008700 -0.010885 0.016649 0.000000 0.000000 0.000000
# 4 0.000000 0.000000 0.000000 0.035781 0.000000 0.000000
# 5 0.000000 0.000000 0.000000 0.000000 -0.075122 0.000000
# 6 0.000000 0.000000 0.000000 0.000000 0.000000 0.059158
#
#
# Mechanical properties :
#
#
# Convention : Reuss Voigt Hill
#
# Bulk Modulus (GPa) = 18.58269 55.68158 37.13213
# Shear Modulus (GPa) = 26.72640 15.60093 21.16366
#
# Velocity S-wave (km/s) = 3.77729 2.88593 3.36129
# Velocity P-wave (km/s) = 5.38000 6.38988 5.90656
#
# Compressibility (1/GPa) = 0.05381354
#
# Stress axis : x y z
#
# Youngs Moduli (GPa) = 71.01820 14.11642 60.06290
#
# Poissons Ratio (x) = 0.06060 0.52253
# Poissons Ratio (y) = 0.30487 0.65381
# Poissons Ratio (z) = 0.61783 0.15366
#
# Static dielectric constant tensor:
#      x y z
#    x 1.633690 0.000000 0.000000 
#    y 0.000000 1.641620 0.000000 
#    z 0.000000 0.000000 1.650500 
# 
# From -- ./inp_files/15796.got.cif
#   From: 2010.05.17/outbox.cif.g08.bks.cpg/sg38_8_cif.got.tgz:15796.got - 2010.06.03 18:07:57.
