data_PCOD9358793
_publ_section_title
;
Structure prediction by ZEFSAII (Michael W. Deem and Ramdas Pophale) SiO2 
 PCOD9358793
Probable space group: A M M 2
;
_chemical_formula_sum "Si O2"
_cell_formula_units_Z 64
_cell_length_a 14.345580
_cell_length_b 8.862809
_cell_length_c 26.671620
_cell_angle_alpha 90.000000
_cell_angle_beta 90.000000
_cell_angle_gamma 90.000000
_cell_volume 3391.086725
_symmetry_space_group_name_H-M "A M M 2"
_symmetry_group_IT_number 38
_symmetry_cell_setting 'orthorhombic'
loop_
_space_group_symop_operation_xyz
x,y,z
-x,-y,z
-x,y,z
x,-y,z
x,1/2+y,1/2+z
-x,1/2-y,1/2+z
-x,1/2+y,1/2+z
x,1/2-y,1/2+z
loop_
_atom_site_type_symbol
_atom_site_label
_atom_site_fract_x
_atom_site_fract_y
_atom_site_fract_z
Si Si1 0.607975 0.817676 0.284250
Si Si2 0.105688 0.318830 0.426632
Si Si3 0.715825 0.682000 0.683786
Si Si4 0.886781 0.827999 0.531025
Si Si5 0.387667 0.676496 0.977173
Si Si6 0.892356 0.182507 0.642117
Si Si7 0.611312 0.320468 0.581968
Si Si8 0.292508 0.819449 0.880638
O O1 0.500000 0.770243 0.283393
O O2 0.660096 0.771031 0.233300
O O3 0.658984 0.753549 0.332851
O O4 0.609699 0.000000 0.286426
O O5 0.102875 0.500000 0.426895
O O6 0.137079 0.265152 0.481842
O O7 0.184452 0.271400 0.387414
O O8 0.000000 0.263202 0.417399
O O9 0.720997 0.500000 0.683675
O O10 0.818698 0.750804 0.680513
O O11 0.661106 0.727960 0.633185
O O12 0.862316 0.766246 0.585899
O O13 0.000000 0.833872 0.532247
O O14 0.852935 0.000000 0.525933
O O15 0.500000 0.693754 0.975303
O O16 0.365736 0.500000 0.971576
O O17 0.343927 0.767655 0.931371
O O18 0.356689 0.735474 0.031776
O O19 0.000000 0.226433 0.650859
O O20 0.889155 0.000000 0.641737
O O21 0.500000 0.296687 0.587417
O O22 0.626223 0.500000 0.575105
O O23 0.296468 0.000000 0.876679
#
# Coordination Sequence:
#
# PCOD9358793 Si02
#       8
#     8   8   8   8   8   8   8   8
#     4  10  22  42  64  84 109 143 185 234 286 340
#     4   9  19  35  53  76 109 146 184 226 272 325
#     4  10  21  36  58  85 111 143 188 235 282 333
#     4   8  15  29  49  74 106 145 185 223 265 315
#     4  10  21  36  54  79 112 148 183 223 277 339
#     4   9  19  35  53  78 115 154 190 229 276 329
#     4   9  18  34  55  80 112 146 179 222 280 342
#     4  11  23  37  57  84 112 144 187 234 281 332
#
# _framework density 18.873006
#
# number of rings (size 3 to 8) (size 9 to 14) (size 15 to 20)
#    0.000    2.500    0.000    2.250    1.750    6.750 
#    0.000    1.875    0.000    4.500    0.000    0.000 
#    0.000    0.000    0.000    0.000    0.000    0.000 
#
# Total GULP energy -178618.640736 kJ/mol
# GULP energy per Si atom -5581.832523 kJ/mol
# Density = 1.883005 g / cm^3
# Si number density = 18.873006 Si / 1000 Ang^3
#
#
#
# Elastic Constant Matrix: (Units=GPa)
#
#
# Indices 1 2 3 4 5 6 
#
# 1 121.2368 30.4352 84.2649 0.0000 0.0000 0.0000
# 2 30.4352 12.1417 29.2846 0.0000 0.0000 0.0000
# 3 84.2649 29.2846 141.5753 0.0000 0.0000 0.0000
# 4 0.0000 0.0000 0.0000 31.1857 0.0000 0.0000
# 5 0.0000 0.0000 0.0000 0.0000 37.3916 0.0000
# 6 0.0000 0.0000 0.0000 0.0000 0.0000 22.7586
#
#
#
# Elastic Compliance Matrix: (Units=1/GPa)
#
#
# Indices 1 2 3 4 5 6 
#
# 1 0.023103 -0.049384 -0.003536 0.000000 0.000000 0.000000
# 2 -0.049384 0.269919 -0.026439 0.000000 0.000000 0.000000
# 3 -0.003536 -0.026439 0.014637 0.000000 0.000000 0.000000
# 4 0.000000 0.000000 0.000000 0.032066 0.000000 0.000000
# 5 0.000000 0.000000 0.000000 0.000000 0.026744 0.000000
# 6 0.000000 0.000000 0.000000 0.000000 0.000000 0.043939
#
#
# Mechanical properties :
#
#
# Convention : Reuss Voigt Hill
#
# Bulk Modulus (GPa) = 6.71405 62.54702 34.63054
# Shear Modulus (GPa) = 8.08049 26.99845 17.53947
#
# Velocity S-wave (km/s) = 2.07142 3.78634 3.05182
# Velocity P-wave (km/s) = 3.04734 7.23382 5.55042
#
# Compressibility (1/GPa) = 0.14894132
#
# Stress axis : x y z
#
# Youngs Moduli (GPa) = 43.28386 3.70481 68.32057
#
# Poissons Ratio (x) = 0.18296 0.24158
# Poissons Ratio (y) = 2.13753 1.80634
# Poissons Ratio (z) = 0.15305 0.09795
#
# Static dielectric constant tensor:
#      x y z
#    x 1.691660 0.000000 0.000000 
#    y 0.000000 1.635950 0.000000 
#    z 0.000000 0.000000 1.625620 
# 
# From -- ./inp_files/22885.got.cif
#   From: 2010.05.17/outbox.cif.g08.bks.cpg/sg38_12_cif.got.tgz:22885.got - 2010.06.03 18:07:57.
