data_PCOD9358645
_publ_section_title
;
Structure prediction by ZEFSAII (Michael W. Deem and Ramdas Pophale) SiO2 
 PCOD9358645
Probable space group: A M M 2
;
_chemical_formula_sum "Si O2"
_cell_formula_units_Z 64
_cell_length_a 17.665583
_cell_length_b 7.784429
_cell_length_c 22.382257
_cell_angle_alpha 90.000000
_cell_angle_beta 90.000000
_cell_angle_gamma 90.000000
_cell_volume 3077.929121
_symmetry_space_group_name_H-M "A M M 2"
_symmetry_group_IT_number 38
_symmetry_cell_setting 'orthorhombic'
loop_
_space_group_symop_operation_xyz
x,y,z
-x,-y,z
-x,y,z
x,-y,z
x,1/2+y,1/2+z
-x,1/2-y,1/2+z
-x,1/2+y,1/2+z
x,1/2-y,1/2+z
loop_
_atom_site_type_symbol
_atom_site_label
_atom_site_fract_x
_atom_site_fract_y
_atom_site_fract_z
Si Si1 0.220600 0.793007 0.853000
Si Si2 0.622820 0.792864 0.794929
Si Si3 0.267624 0.810156 0.483321
Si Si4 0.252222 0.304859 0.611609
Si Si5 0.915041 0.199065 0.140983
Si Si6 0.414561 0.299054 0.661519
Si Si7 0.417394 0.703807 0.427569
Si Si8 0.917375 0.294121 0.276965
O O1 0.291149 0.742821 0.811047
O O2 0.227781 0.734493 0.921004
O O3 0.145949 0.730364 0.821210
O O4 0.221689 0.000000 0.854674
O O5 0.593542 0.715552 0.733476
O O6 0.582852 0.747370 0.857546
O O7 0.617503 0.000000 0.788137
O O8 0.256322 0.691647 0.540026
O O9 0.355038 0.801399 0.464337
O O10 0.245762 0.000000 0.502707
O O11 0.249840 0.500000 0.636437
O O12 0.168454 0.225984 0.624728
O O13 0.333457 0.228902 0.635249
O O14 0.914561 0.208430 0.212616
O O15 0.000000 0.269603 0.123328
O O16 0.914511 0.000000 0.120631
O O17 0.500000 0.229793 0.646002
O O18 0.415745 0.500000 0.643908
O O19 0.500000 0.727429 0.453158
O O20 0.397911 0.500000 0.428691
O O21 0.907069 0.500000 0.267281
O O22 0.000000 0.268199 0.303411
#
# Coordination Sequence:
#
# PCOD9358645 Si02
#       8
#     8   8   8   8   8   8   8   8
#     4   9  18  34  53  73 102 138 171 203 250 315
#     4   9  17  30  50  75 101 131 166 203 247 300
#     4  11  23  36  52  75 100 129 173 223 263 299
#     4  10  21  38  55  70  98 140 179 214 257 312
#     4   9  18  33  55  82 107 133 169 213 262 315
#     4  10  21  34  49  73 103 135 170 206 248 300
#     4   9  18  34  55  76 101 136 172 206 254 315
#     4   9  17  30  52  82 110 134 163 203 253 310
#
# _framework density 20.793201
#
# number of rings (size 3 to 8) (size 9 to 14) (size 15 to 20)
#    0.000    2.500    0.000    3.000    0.000    5.000 
#    0.000    1.875    0.000    3.750    0.000    0.000 
#    0.000    0.000    0.000    0.000    0.000    0.000 
#
# Total GULP energy -178217.232586 kJ/mol
# GULP energy per Si atom -5569.288518 kJ/mol
# Density = 2.074588 g / cm^3
# Si number density = 20.793201 Si / 1000 Ang^3
#
#
#
# Elastic Constant Matrix: (Units=GPa)
#
#
# Indices 1 2 3 4 5 6 
#
# 1 171.0662 19.2021 49.5770 0.0000 0.0000 0.0000
# 2 19.2021 26.4045 0.1242 0.0000 0.0000 0.0000
# 3 49.5770 0.1242 51.9428 0.0000 0.0000 0.0000
# 4 0.0000 0.0000 0.0000 20.3391 0.0000 0.0000
# 5 0.0000 0.0000 0.0000 0.0000 -40.0912 0.0000
# 6 0.0000 0.0000 0.0000 0.0000 0.0000 8.3351
#
#
#
# Elastic Compliance Matrix: (Units=1/GPa)
#
#
# Indices 1 2 3 4 5 6 
#
# 1 0.009095 -0.006573 -0.008665 0.000000 0.000000 0.000000
# 2 -0.006573 0.042623 0.006172 0.000000 0.000000 0.000000
# 3 -0.008665 0.006172 0.027507 0.000000 0.000000 0.000000
# 4 0.000000 0.000000 0.000000 0.049166 0.000000 0.000000
# 5 0.000000 0.000000 0.000000 0.000000 -0.024943 0.000000
# 6 0.000000 0.000000 0.000000 0.000000 0.000000 0.119975
#
#
# Mechanical properties :
#
#
# Convention : Reuss Voigt Hill
#
# Bulk Modulus (GPa) = 16.36841 43.02443 29.69642
# Shear Modulus (GPa) = 19.08977 9.75060 14.42018
#
# Velocity S-wave (km/s) = 3.03327 2.16783 2.63630
# Velocity P-wave (km/s) = 4.48962 5.19639 4.85588
#
# Compressibility (1/GPa) = 0.06109330
#
# Stress axis : x y z
#
# Youngs Moduli (GPa) = 109.95479 23.46126 36.35405
#
# Poissons Ratio (x) = 0.15421 0.31500
# Poissons Ratio (y) = 0.72274 -0.22437
# Poissons Ratio (z) = 0.95272 -0.14480
#
# Static dielectric constant tensor:
#      x y z
#    x 1.830820 0.000000 0.000000 
#    y 0.000000 1.770790 0.000000 
#    z 0.000000 0.000000 1.683040 
# 
# From -- ./inp_files/21383.got.cif
#   From: 2010.05.17/outbox.cif.g08.bks.cpg/sg38_11_cif.got.tgz:21383.got - 2010.06.03 18:07:57.
