data_PCOD9358051
_publ_section_title
;
Structure prediction by ZEFSAII (Michael W. Deem and Ramdas Pophale) SiO2 
 PCOD9358051
Probable space group: A M M 2
;
_chemical_formula_sum "Si O2"
_cell_formula_units_Z 40
_cell_length_a 14.818983
_cell_length_b 8.554918
_cell_length_c 16.073137
_cell_angle_alpha 90.000000
_cell_angle_beta 90.000000
_cell_angle_gamma 90.000000
_cell_volume 2037.674907
_symmetry_space_group_name_H-M "A M M 2"
_symmetry_group_IT_number 38
_symmetry_cell_setting 'orthorhombic'
loop_
_space_group_symop_operation_xyz
x,y,z
-x,-y,z
-x,y,z
x,-y,z
x,1/2+y,1/2+z
-x,1/2-y,1/2+z
-x,1/2+y,1/2+z
x,1/2-y,1/2+z
loop_
_atom_site_type_symbol
_atom_site_label
_atom_site_fract_x
_atom_site_fract_y
_atom_site_fract_z
Si Si1 0.217851 0.689067 0.052840
Si Si2 0.103219 0.188482 0.393337
Si Si3 0.601637 0.813287 0.294353
Si Si4 0.212116 0.185799 0.736399
Si Si5 0.398849 0.813397 0.981875
O O1 0.221502 0.500000 0.050925
O O2 0.182937 0.735967 0.143847
O O3 0.156301 0.742692 0.975808
O O4 0.318216 0.753213 0.038466
O O5 0.156306 0.238360 0.310982
O O6 0.000000 0.244286 0.392233
O O7 0.102183 0.000000 0.396176
O O8 0.500000 0.768652 0.267703
O O9 0.683042 0.730748 0.247416
O O10 0.610024 0.767055 0.391559
O O11 0.610774 0.000000 0.286230
O O12 0.202435 0.000000 0.743082
O O13 0.500000 0.779350 0.013737
O O14 0.391306 0.000000 0.970917
#
# Coordination Sequence:
#
# PCOD9358051 Si02
#       5
#     8   8   8   8   8
#     4  10  22  39  60  87 120 158 196 237 291 352
#     4  10  22  42  65  86 113 153 198 245 299 357
#     4  10  20  35  57  84 118 161 202 239 288 349
#     4  11  23  38  60  91 122 154 197 246 292 346
#     4  10  20  34  56  87 121 156 196 242 289 341
#
# _framework density 19.630216999999998
#
# number of rings (size 3 to 8) (size 9 to 14) (size 15 to 20)
#    0.000    1.800    2.000    1.800    0.000    6.000 
#    0.000    6.000    0.000    0.000    0.000    0.000 
#    0.000    0.000    0.000    0.000    0.000    0.000 
#
# Total GULP energy -111721.270748 kJ/mol
# GULP energy per Si atom -5586.063537 kJ/mol
# Density = 1.958554 g / cm^3
# Si number density = 19.630217 Si / 1000 Ang^3
#
#
#
# Elastic Constant Matrix: (Units=GPa)
#
#
# Indices 1 2 3 4 5 6 
#
# 1 114.9261 12.6631 67.8126 0.0000 0.0000 0.0000
# 2 12.6631 9.8959 14.6442 0.0000 0.0000 0.0000
# 3 67.8126 14.6442 136.3614 0.0000 0.0000 0.0000
# 4 0.0000 0.0000 0.0000 24.3754 0.0000 0.0000
# 5 0.0000 0.0000 0.0000 0.0000 -1.6271 0.0000
# 6 0.0000 0.0000 0.0000 0.0000 0.0000 19.6804
#
#
#
# Elastic Compliance Matrix: (Units=1/GPa)
#
#
# Indices 1 2 3 4 5 6 
#
# 1 0.012866 -0.008317 -0.005505 0.000000 0.000000 0.000000
# 2 -0.008317 0.125523 -0.009344 0.000000 0.000000 0.000000
# 3 -0.005505 -0.009344 0.011075 0.000000 0.000000 0.000000
# 4 0.000000 0.000000 0.000000 0.041025 0.000000 0.000000
# 5 0.000000 0.000000 0.000000 0.000000 -0.614574 0.000000
# 6 0.000000 0.000000 0.000000 0.000000 0.000000 0.050812
#
#
# Mechanical properties :
#
#
# Convention : Reuss Voigt Hill
#
# Bulk Modulus (GPa) = 9.69643 50.15813 29.92728
# Shear Modulus (GPa) = -17.09022 19.55665 1.23321
#
# Velocity S-wave (km/s) = -2.95381 3.15977 0.79346
# Velocity P-wave (km/s) = 2.58516 6.23852 4.01473
#
# Compressibility (1/GPa) = 0.10313069
#
# Stress axis : x y z
#
# Youngs Moduli (GPa) = 77.72460 7.96668 90.29684
#
# Poissons Ratio (x) = 0.06626 0.49709
# Poissons Ratio (y) = 0.64645 0.84374
# Poissons Ratio (z) = 0.42788 0.07444
#
# Static dielectric constant tensor:
#      x y z
#    x 1.676830 0.000000 0.000000 
#    y 0.000000 1.665580 0.000000 
#    z 0.000000 0.000000 1.695210 
# 
# From -- ./inp_files/14265.got.cif
#   From: 2010.05.17/outbox.cif.g08.bks.cpg/sg38_8_cif.got.tgz:14265.got - 2010.06.03 18:07:57.
