data_PCOD9358970
_publ_section_title
;
Structure prediction by ZEFSAII (Michael W. Deem and Ramdas Pophale) SiO2 
 PCOD9358970
Probable space group: A M M 2
;
_chemical_formula_sum "Si O2"
_cell_formula_units_Z 56
_cell_length_a 14.955457
_cell_length_b 13.985911
_cell_length_c 13.890545
_cell_angle_alpha 90.000000
_cell_angle_beta 90.000000
_cell_angle_gamma 90.000000
_cell_volume 2905.425437
_symmetry_space_group_name_H-M "A M M 2"
_symmetry_group_IT_number 38
_symmetry_cell_setting 'orthorhombic'
loop_
_space_group_symop_operation_xyz
x,y,z
-x,-y,z
-x,y,z
x,-y,z
x,1/2+y,1/2+z
-x,1/2-y,1/2+z
-x,1/2+y,1/2+z
x,1/2-y,1/2+z
loop_
_atom_site_type_symbol
_atom_site_label
_atom_site_fract_x
_atom_site_fract_y
_atom_site_fract_z
Si Si1 0.097935 0.113015 0.654400
Si Si2 0.094942 0.886678 0.270558
Si Si3 0.605936 0.269415 0.615674
Si Si4 0.707733 0.217652 0.918645
Si Si5 0.291551 0.387454 0.767017
Si Si6 0.710260 0.889016 0.730754
Si Si7 0.902640 0.759500 0.462932
O O1 0.183894 0.134115 0.719017
O O2 0.103840 0.175145 0.558037
O O3 0.000000 0.130720 0.699868
O O4 0.101724 0.000000 0.630005
O O5 0.191380 0.868196 0.223955
O O6 0.095379 0.829005 0.370082
O O7 0.000000 0.863935 0.219666
O O8 0.094198 0.000000 0.290767
O O9 0.500000 0.259323 0.616510
O O10 0.643634 0.285792 0.509414
O O11 0.637662 0.352568 0.688627
O O12 0.654831 0.175371 0.657385
O O13 0.701462 0.319591 0.861294
O O14 0.683863 0.140405 0.837991
O O15 0.810326 0.202844 0.952786
O O16 0.299369 0.500000 0.788919
O O17 0.697542 0.000000 0.711676
O O18 0.000000 0.709259 0.465434
#
# Coordination Sequence:
#
# PCOD9358970 Si02
#       7
#     8   8   8   8   8   8   8
#     4   9  16  28  52  85 118 152 189 230 278 337
#     4   8  13  24  47  81 118 150 179 217 266 325
#     4  11  24  42  60  81 112 148 192 249 301 347
#     4  10  21  37  58  87 118 151 191 235 288 341
#     4   9  20  38  61  88 117 149 186 232 285 344
#     4  10  22  40  61  86 118 154 193 237 288 349
#     4   9  15  26  48  81 116 151 189 225 269 330
#
# _framework density 19.274287000000001
#
# number of rings (size 3 to 8) (size 9 to 14) (size 15 to 20)
#    0.000    2.571    1.429    0.429    0.000    6.857 
#    0.000    2.857    0.000    0.000    0.000    4.000 
#    0.000    0.000    0.000    0.000    0.000    0.000 
#
# Total GULP energy -156125.735267 kJ/mol
# GULP energy per Si atom -5575.919117 kJ/mol
# Density = 1.923042 g / cm^3
# Si number density = 19.274287 Si / 1000 Ang^3
#
#
#
# Elastic Constant Matrix: (Units=GPa)
#
#
# Indices 1 2 3 4 5 6 
#
# 1 129.0628 -3.1254 37.0359 0.0000 0.0000 0.0000
# 2 -3.1254 26.7235 -14.4037 0.0000 0.0000 0.0000
# 3 37.0359 -14.4037 65.7446 0.0000 0.0000 0.0000
# 4 0.0000 0.0000 0.0000 5.2083 0.0000 0.0000
# 5 0.0000 0.0000 0.0000 0.0000 17.0241 0.0000
# 6 0.0000 0.0000 0.0000 0.0000 0.0000 14.2408
#
#
#
# Elastic Compliance Matrix: (Units=1/GPa)
#
#
# Indices 1 2 3 4 5 6 
#
# 1 0.009333 -0.001976 -0.005691 0.000000 0.000000 0.000000
# 2 -0.001976 0.042849 0.010500 0.000000 0.000000 0.000000
# 3 -0.005691 0.010500 0.020717 0.000000 0.000000 0.000000
# 4 0.000000 0.000000 0.000000 0.192001 0.000000 0.000000
# 5 0.000000 0.000000 0.000000 0.000000 0.058740 0.000000
# 6 0.000000 0.000000 0.000000 0.000000 0.000000 0.070221
#
#
# Mechanical properties :
#
#
# Convention : Reuss Voigt Hill
#
# Bulk Modulus (GPa) = 12.72793 28.94940 20.83867
# Shear Modulus (GPa) = 12.06618 20.76292 16.41455
#
# Velocity S-wave (km/s) = 2.50476 3.28569 2.92144
# Velocity P-wave (km/s) = 3.87079 5.42647 4.71326
#
# Compressibility (1/GPa) = 0.07856738
#
# Stress axis : x y z
#
# Youngs Moduli (GPa) = 107.14340 23.33782 48.27064
#
# Poissons Ratio (x) = 0.04611 0.27469
# Poissons Ratio (y) = 0.21167 -0.50686
# Poissons Ratio (z) = 0.60970 -0.24506
#
# Static dielectric constant tensor:
#      x y z
#    x 1.712690 0.000000 0.000000 
#    y 0.000000 1.671050 0.000000 
#    z 0.000000 0.000000 1.643050 
# 
# From -- ./inp_files/10080.got.cif
#   From: 2010.05.17/outbox.cif.g08.bks.cpg/sg38_6_cif.got.tgz:10080.got - 2010.06.03 18:07:57.
