data_PCOD9358677
_publ_section_title
;
Structure prediction by ZEFSAII (Michael W. Deem and Ramdas Pophale) SiO2 
 PCOD9358677
Probable space group: A M M 2
;
_chemical_formula_sum "Si O2"
_cell_formula_units_Z 48
_cell_length_a 7.610872
_cell_length_b 9.718267
_cell_length_c 32.514296
_cell_angle_alpha 90.000000
_cell_angle_beta 90.000000
_cell_angle_gamma 90.000000
_cell_volume 2404.903198
_symmetry_space_group_name_H-M "A M M 2"
_symmetry_group_IT_number 38
_symmetry_cell_setting 'orthorhombic'
loop_
_space_group_symop_operation_xyz
x,y,z
-x,-y,z
-x,y,z
x,-y,z
x,1/2+y,1/2+z
-x,1/2-y,1/2+z
-x,1/2+y,1/2+z
x,1/2-y,1/2+z
loop_
_atom_site_type_symbol
_atom_site_label
_atom_site_fract_x
_atom_site_fract_y
_atom_site_fract_z
Si Si1 0.291178 0.155278 0.986100
Si Si2 0.203378 0.667563 0.152008
Si Si3 0.215266 0.840805 0.742050
Si Si4 0.791362 0.656550 0.394599
Si Si5 0.789252 0.155929 0.563406
Si Si6 0.784673 0.841858 0.319384
O O1 0.500000 0.146798 0.984875
O O2 0.234243 0.207289 0.941206
O O3 0.218808 0.000000 0.990926
O O4 0.244438 0.249363 0.024508
O O5 0.203139 0.500000 0.151218
O O6 0.278777 0.704126 0.196615
O O7 0.280079 0.708962 0.107739
O O8 0.000000 0.713908 0.152765
O O9 0.269623 0.741514 0.778744
O O10 0.000000 0.840886 0.740843
O O11 0.266805 0.000000 0.749406
O O12 0.719540 0.500000 0.391834
O O13 0.723818 0.758439 0.359630
O O14 0.000000 0.646398 0.387817
O O15 0.000000 0.147557 0.568215
O O16 0.724064 0.000000 0.556484
O O17 0.000000 0.842817 0.319628
O O18 0.727532 0.000000 0.319314
#
# Coordination Sequence:
#
# PCOD9358677 Si02
#       6
#     8   8   8   8   8   8
#     4  10  21  35  49  67  92 121 154 193 236 280
#     4   7  11  21  38  61  88 117 148 180 214 256
#     4   8  12  20  36  57  84 118 149 175 210 259
#     4   9  17  30  47  64  84 115 153 187 222 269
#     4   9  17  30  49  72  96 122 154 192 232 273
#     4   9  16  24  36  59  90 117 142 178 222 264
#
# _framework density 19.959225
#
# number of rings (size 3 to 8) (size 9 to 14) (size 15 to 20)
#    0.000    3.333    0.000    3.000    0.000    4.000 
#    0.000    2.500    0.000    3.000    0.000    1.167 
#    0.000    4.000    0.000    0.000    0.000    0.000 
#
# Total GULP energy -133716.910319 kJ/mol
# GULP energy per Si atom -5571.537930 kJ/mol
# Density = 1.991380 g / cm^3
# Si number density = 19.959225 Si / 1000 Ang^3
#
#
#
# Elastic Constant Matrix: (Units=GPa)
#
#
# Indices 1 2 3 4 5 6 
#
# 1 40.7313 4.9499 2.7248 0.0000 0.0000 0.0000
# 2 4.9499 95.3379 118.6694 0.0000 0.0000 0.0000
# 3 2.7248 118.6694 247.5003 0.0000 0.0000 0.0000
# 4 0.0000 0.0000 0.0000 45.7786 0.0000 0.0000
# 5 0.0000 0.0000 0.0000 0.0000 -40.9444 0.0000
# 6 0.0000 0.0000 0.0000 0.0000 0.0000 -11.5419
#
#
#
# Elastic Compliance Matrix: (Units=1/GPa)
#
#
# Indices 1 2 3 4 5 6 
#
# 1 0.024779 -0.002349 0.000853 0.000000 0.000000 0.000000
# 2 -0.002349 0.026238 -0.012554 0.000000 0.000000 0.000000
# 3 0.000853 -0.012554 0.010050 0.000000 0.000000 0.000000
# 4 0.000000 0.000000 0.000000 0.021844 0.000000 0.000000
# 5 0.000000 0.000000 0.000000 0.000000 -0.024423 0.000000
# 6 0.000000 0.000000 0.000000 0.000000 0.000000 -0.086641
#
#
# Mechanical properties :
#
#
# Convention : Reuss Voigt Hill
#
# Bulk Modulus (GPa) = 30.33230 70.69528 50.51379
# Shear Modulus (GPa) = 457.19863 15.80684 236.50274
#
# Velocity S-wave (km/s) = 15.15136 2.81723 10.89726
# Velocity P-wave (km/s) = 17.92526 6.78816 13.55349
#
# Compressibility (1/GPa) = 0.03296816
#
# Stress axis : x y z
#
# Youngs Moduli (GPa) = 40.35600 38.11316 99.49796
#
# Poissons Ratio (x) = 0.08952 -0.08490
# Poissons Ratio (y) = 0.09478 1.24913
# Poissons Ratio (z) = -0.03444 0.47849
#
# Static dielectric constant tensor:
#      x y z
#    x 1.736280 0.000000 0.000000 
#    y 0.000000 1.665010 0.000000 
#    z 0.000000 0.000000 1.731540 
# 
# From -- ./inp_files/24289.got.cif
#   From: 2010.05.17/outbox.cif.g08.bks.cpg/sg38_13_cif.got.tgz:24289.got - 2010.06.03 18:07:57.
