data_PCOD9358465
_publ_section_title
;
Structure prediction by ZEFSAII (Michael W. Deem and Ramdas Pophale) SiO2 
 PCOD9358465
Probable space group: A M M 2
;
_chemical_formula_sum "Si O2"
_cell_formula_units_Z 48
_cell_length_a 8.621068
_cell_length_b 19.642347
_cell_length_c 13.704502
_cell_angle_alpha 90.000000
_cell_angle_beta 90.000000
_cell_angle_gamma 90.000000
_cell_volume 2320.693085
_symmetry_space_group_name_H-M "A M M 2"
_symmetry_group_IT_number 38
_symmetry_cell_setting 'orthorhombic'
loop_
_space_group_symop_operation_xyz
x,y,z
-x,-y,z
-x,y,z
x,-y,z
x,1/2+y,1/2+z
-x,1/2-y,1/2+z
-x,1/2+y,1/2+z
x,1/2-y,1/2+z
loop_
_atom_site_type_symbol
_atom_site_label
_atom_site_fract_x
_atom_site_fract_y
_atom_site_fract_z
Si Si1 0.809851 0.219207 0.996600
Si Si2 0.813089 0.643780 0.082652
Si Si3 0.825230 0.883406 0.153962
Si Si4 0.814462 0.352619 0.296778
Si Si5 0.164793 0.500000 0.494931
Si Si6 0.326382 0.500000 0.313973
Si Si7 0.685157 0.500000 0.787983
Si Si8 0.314461 0.000000 0.513273
O O1 0.756168 0.184063 0.895511
O O2 0.000000 0.214512 0.999048
O O3 0.768183 0.298594 0.004348
O O4 0.755990 0.181047 0.096102
O O5 0.768376 0.672947 0.189570
O O6 0.000000 0.637243 0.081480
O O7 0.744448 0.569555 0.062352
O O8 0.000000 0.866435 0.189431
O O9 0.838532 0.935155 0.063087
O O10 0.743538 0.930857 0.234370
O O11 0.761369 0.430764 0.291232
O O12 0.000000 0.349094 0.302895
O O13 0.317092 0.500000 0.431270
O O14 0.000000 0.500000 0.437606
O O15 0.500000 0.500000 0.275165
O O16 0.500000 0.500000 0.783790
O O17 0.737548 0.500000 0.900114
O O18 0.500000 0.000000 0.515711
#
# Coordination Sequence:
#
# PCOD9358465 Si02
#       8
#     8   8   8   8   4   4   4   4
#     4   9  18  35  59  88 119 146 179 231 294 344
#     4  10  22  39  64  90 108 142 196 240 278 337
#     4   9  17  32  56  86 117 150 183 225 284 337
#     4  10  20  37  58  83 119 154 183 231 293 339
#     4   9  15  28  50  78 113 150 179 216 279 331
#     4  12  22  30  50  83 114 151 198 235 266 322
#     4  10  22  37  55  81 115 157 197 231 277 332
#     4  11  25  45  61  76 112 158 190 234 292 335
#
# _framework density 20.683477
#
# number of rings (size 3 to 8) (size 9 to 14) (size 15 to 20)
#    0.000    2.167    1.667    2.250    0.000    6.667 
#    0.000    5.000    0.000    0.000    0.000    0.000 
#    0.000    0.000    0.000    0.000    0.000    0.000 
#
# Total GULP energy -133682.386971 kJ/mol
# GULP energy per Si atom -5570.099457 kJ/mol
# Density = 2.063640 g / cm^3
# Si number density = 20.683477 Si / 1000 Ang^3
#
#
#
# Elastic Constant Matrix: (Units=GPa)
#
#
# Indices 1 2 3 4 5 6 
#
# 1 12.9466 9.2548 25.9733 0.0000 0.0000 0.0000
# 2 9.2548 141.4124 59.6916 0.0000 0.0000 0.0000
# 3 25.9733 59.6916 130.5326 0.0000 0.0000 0.0000
# 4 0.0000 0.0000 0.0000 -76.3444 0.0000 0.0000
# 5 0.0000 0.0000 0.0000 0.0000 13.5290 0.0000
# 6 0.0000 0.0000 0.0000 0.0000 0.0000 10.0034
#
#
#
# Elastic Compliance Matrix: (Units=1/GPa)
#
#
# Indices 1 2 3 4 5 6 
#
# 1 0.129564 0.002978 -0.027142 0.000000 0.000000 0.000000
# 2 0.002978 0.008831 -0.004631 0.000000 0.000000 0.000000
# 3 -0.027142 -0.004631 0.015179 0.000000 0.000000 0.000000
# 4 0.000000 0.000000 0.000000 -0.013099 0.000000 0.000000
# 5 0.000000 0.000000 0.000000 0.000000 0.073915 0.000000
# 6 0.000000 0.000000 0.000000 0.000000 0.000000 0.099966
#
#
# Mechanical properties :
#
#
# Convention : Reuss Voigt Hill
#
# Bulk Modulus (GPa) = 10.41844 52.74789 31.58317
# Shear Modulus (GPa) = 12.37798 2.10242 7.24020
#
# Velocity S-wave (km/s) = 2.44897 1.00930 1.87299
# Velocity P-wave (km/s) = 3.61174 5.18807 4.46994
#
# Compressibility (1/GPa) = 0.09598362
#
# Stress axis : x y z
#
# Youngs Moduli (GPa) = 7.71819 113.23171 65.87876
#
# Poissons Ratio (x) = -0.33716 1.78810
# Poissons Ratio (y) = -0.02298 0.30509
# Poissons Ratio (z) = 0.20949 0.52438
#
# Static dielectric constant tensor:
#      x y z
#    x 1.720060 0.000000 0.000000 
#    y 0.000000 1.798540 0.000000 
#    z 0.000000 0.000000 1.792900 
# 
# From -- ./inp_files/12181.got.cif
#   From: 2010.05.17/outbox.cif.g08.bks.cpg/sg38_7_cif.got.tgz:12181.got - 2010.06.03 18:07:57.
