data_PCOD9358866
_publ_section_title
;
Structure prediction by ZEFSAII (Michael W. Deem and Ramdas Pophale) SiO2 
 PCOD9358866
Probable space group: A M M 2
;
_chemical_formula_sum "Si O2"
_cell_formula_units_Z 56
_cell_length_a 22.757874
_cell_length_b 7.733355
_cell_length_c 15.462288
_cell_angle_alpha 90.000000
_cell_angle_beta 90.000000
_cell_angle_gamma 90.000000
_cell_volume 2721.281027
_symmetry_space_group_name_H-M "A M M 2"
_symmetry_group_IT_number 38
_symmetry_cell_setting 'orthorhombic'
loop_
_space_group_symop_operation_xyz
x,y,z
-x,-y,z
-x,y,z
x,-y,z
x,1/2+y,1/2+z
-x,1/2-y,1/2+z
-x,1/2+y,1/2+z
x,1/2-y,1/2+z
loop_
_atom_site_type_symbol
_atom_site_label
_atom_site_fract_x
_atom_site_fract_y
_atom_site_fract_z
Si Si1 0.786802 0.205062 0.908060
Si Si2 0.566316 0.292055 0.059527
Si Si3 0.000000 0.800582 0.760735
Si Si4 0.871576 0.287111 0.258015
Si Si5 0.126692 0.292936 0.060253
Si Si6 0.566333 0.707909 0.757749
Si Si7 0.650160 0.791850 0.408621
Si Si8 0.000000 0.199335 0.549669
O O1 0.822312 0.273576 0.824637
O O2 0.718621 0.251303 0.908713
O O3 0.790591 0.000000 0.903250
O O4 0.821218 0.258759 0.994310
O O5 0.500000 0.227842 0.040533
O O6 0.564367 0.500000 0.051941
O O7 0.580146 0.250045 0.158643
O O8 0.614782 0.227181 0.992620
O O9 0.936882 0.726109 0.786139
O O10 0.000000 0.802470 0.655281
O O11 0.000000 0.000000 0.789950
O O12 0.872725 0.500000 0.257957
O O13 0.861717 0.232447 0.158486
O O14 0.119140 0.500000 0.066566
O O15 0.063422 0.222237 0.026879
O O16 0.500000 0.772097 0.776767
O O17 0.564371 0.500000 0.765395
O O18 0.614853 0.772882 0.824572
O O19 0.645884 0.000000 0.408730
O O20 0.000000 0.000000 0.518724
#
# Coordination Sequence:
#
# PCOD9358866 Si02
#       8
#     8   8   4   8   8   8   8   4
#     4  11  23  35  48  74 106 136 173 214 254 296
#     4   9  18  34  57  82 104 129 166 209 252 301
#     4   7  10  23  48  73  92 119 162 205 247 298
#     4   8  16  31  51  72  97 129 165 206 251 301
#     4   9  17  34  56  75  98 132 171 209 253 308
#     4   9  18  34  57  83 107 131 164 208 257 304
#     4  10  21  37  54  72 101 142 177 204 243 301
#     4   7  12  25  51  79  96 119 164 213 251 298
#
# _framework density 20.578541999999999
#
# number of rings (size 3 to 8) (size 9 to 14) (size 15 to 20)
#    0.000    3.000    0.000    2.571    0.000    4.571 
#    0.000    6.786    0.000    4.286    0.000    2.000 
#    0.000    0.000    0.000    0.000    0.000    0.000 
#
# Total GULP energy -156160.547403 kJ/mol
# GULP energy per Si atom -5577.162407 kJ/mol
# Density = 2.053170 g / cm^3
# Si number density = 20.578542 Si / 1000 Ang^3
#
#
#
# Elastic Constant Matrix: (Units=GPa)
#
#
# Indices 1 2 3 4 5 6 
#
# 1 215.0106 3.9781 134.5801 0.0000 0.0000 0.0000
# 2 3.9781 30.2370 4.4751 0.0000 0.0000 0.0000
# 3 134.5801 4.4751 133.3303 0.0000 0.0000 0.0000
# 4 0.0000 0.0000 0.0000 17.1858 0.0000 0.0000
# 5 0.0000 0.0000 0.0000 0.0000 61.9013 0.0000
# 6 0.0000 0.0000 0.0000 0.0000 0.0000 -14.8027
#
#
#
# Elastic Compliance Matrix: (Units=1/GPa)
#
#
# Indices 1 2 3 4 5 6 
#
# 1 0.012633 0.000226 -0.012759 0.000000 0.000000 0.000000
# 2 0.000226 0.033241 -0.001344 0.000000 0.000000 0.000000
# 3 -0.012759 -0.001344 0.020424 0.000000 0.000000 0.000000
# 4 0.000000 0.000000 0.000000 0.058188 0.000000 0.000000
# 5 0.000000 0.000000 0.000000 0.000000 0.016155 0.000000
# 6 0.000000 0.000000 0.000000 0.000000 0.000000 -0.067555
#
#
# Mechanical properties :
#
#
# Convention : Reuss Voigt Hill
#
# Bulk Modulus (GPa) = 25.94406 73.84940 49.89673
# Shear Modulus (GPa) = 43.98073 28.55985 36.27029
#
# Velocity S-wave (km/s) = 4.62802 3.72942 4.20280
# Velocity P-wave (km/s) = 6.41816 7.38304 6.91744
#
# Compressibility (1/GPa) = 0.03854447
#
# Stress axis : x y z
#
# Youngs Moduli (GPa) = 79.15934 30.08308 48.96285
#
# Poissons Ratio (x) = -0.00681 0.62471
# Poissons Ratio (y) = -0.01791 0.06581
# Poissons Ratio (z) = 1.00998 0.04044
#
# Static dielectric constant tensor:
#      x y z
#    x 1.764070 0.000000 0.000000 
#    y 0.000000 1.773630 0.000000 
#    z 0.000000 0.000000 1.732380 
# 
# From -- ./inp_files/15534.got.cif
#   From: 2010.05.17/outbox.cif.g08.bks.cpg/sg38_8_cif.got.tgz:15534.got - 2010.06.03 18:07:57.
