data_PCOD9358727
_publ_section_title
;
Structure prediction by ZEFSAII (Michael W. Deem and Ramdas Pophale) SiO2 
 PCOD9358727
Probable space group: A M M 2
;
_chemical_formula_sum "Si O2"
_cell_formula_units_Z 58
_cell_length_a 26.413141
_cell_length_b 7.577682
_cell_length_c 14.816293
_cell_angle_alpha 90.000000
_cell_angle_beta 90.000000
_cell_angle_gamma 90.000000
_cell_volume 2965.486720
_symmetry_space_group_name_H-M "A M M 2"
_symmetry_group_IT_number 38
_symmetry_cell_setting 'orthorhombic'
loop_
_space_group_symop_operation_xyz
x,y,z
-x,-y,z
-x,y,z
x,-y,z
x,1/2+y,1/2+z
-x,1/2-y,1/2+z
-x,1/2+y,1/2+z
x,1/2-y,1/2+z
loop_
_atom_site_type_symbol
_atom_site_label
_atom_site_fract_x
_atom_site_fract_y
_atom_site_fract_z
Si Si1 0.590354 0.209445 0.470850
Si Si2 0.136521 0.703492 0.955169
Si Si3 0.500000 0.000000 0.966662
Si Si4 0.748691 0.796232 0.977611
Si Si5 0.943486 0.286667 0.604208
Si Si6 0.328885 0.295601 0.121493
Si Si7 0.943698 0.715414 0.813488
Si Si8 0.673560 0.785444 0.825013
O O1 0.544080 0.343454 0.466747
O O2 0.627614 0.269092 0.553098
O O3 0.624031 0.227310 0.380093
O O4 0.577409 0.000000 0.481948
O O5 0.146339 0.500000 0.932985
O O6 0.191263 0.784032 0.970953
O O7 0.101675 0.781243 0.875570
O O8 0.100818 0.714986 0.042478
O O9 0.720914 0.726591 0.887355
O O10 0.734308 0.000000 0.985264
O O11 0.723565 0.712413 0.066103
O O12 0.942094 0.500000 0.599634
O O13 0.937414 0.236842 0.708901
O O14 0.000000 0.229680 0.574863
O O15 0.341718 0.500000 0.134249
O O16 0.325544 0.218877 0.222032
O O17 0.943722 0.500000 0.818181
O O18 0.000000 0.773120 0.843195
O O19 0.674657 0.000000 0.822507
#
# Coordination Sequence:
#
# PCOD9358727 Si02
#       8
#     8   8   2   8   8   8   8   8
#     4  10  21  38  63  90 121 164 199 236 291 341
#     4  11  21  33  51  75 109 137 175 229 280 327
#     4  12  22  40  64  86 136 158 198 248 286 326
#     4  10  21  35  54  81 110 147 188 231 285 341
#     4   9  18  34  54  74  99 135 177 219 272 340
#     4   9  19  37  63  87 115 149 192 236 286 341
#     4   8  16  32  52  72  97 136 177 216 271 338
#     4   9  18  38  63  85 115 152 190 241 289 343
#
# _framework density 19.558340000000001
#
# number of rings (size 3 to 8) (size 9 to 14) (size 15 to 20)
#    0.000    2.483    0.690    2.276    0.966    3.034 
#    0.000    4.828    0.000    1.655    0.000    0.000 
#    0.000    0.000    0.000    0.000    0.000    0.000 
#
# Total GULP energy -161463.810504 kJ/mol
# GULP energy per Si atom -5567.717604 kJ/mol
# Density = 1.951382 g / cm^3
# Si number density = 19.558340 Si / 1000 Ang^3
#
#
#
# Elastic Constant Matrix: (Units=GPa)
#
#
# Indices 1 2 3 4 5 6 
#
# 1 158.5758 20.5027 71.0757 0.0000 0.0000 0.0000
# 2 20.5027 65.4409 13.6870 0.0000 0.0000 0.0000
# 3 71.0757 13.6870 137.9485 0.0000 0.0000 0.0000
# 4 0.0000 0.0000 0.0000 10.8646 0.0000 0.0000
# 5 0.0000 0.0000 0.0000 0.0000 -4.6291 0.0000
# 6 0.0000 0.0000 0.0000 0.0000 0.0000 23.9379
#
#
#
# Elastic Compliance Matrix: (Units=1/GPa)
#
#
# Indices 1 2 3 4 5 6 
#
# 1 0.008394 -0.001762 -0.004150 0.000000 0.000000 0.000000
# 2 -0.001762 0.015975 -0.000677 0.000000 0.000000 0.000000
# 3 -0.004150 -0.000677 0.009455 0.000000 0.000000 0.000000
# 4 0.000000 0.000000 0.000000 0.092042 0.000000 0.000000
# 5 0.000000 0.000000 0.000000 0.000000 -0.216027 0.000000
# 6 0.000000 0.000000 0.000000 0.000000 0.000000 0.041775
#
#
# Mechanical properties :
#
#
# Convention : Reuss Voigt Hill
#
# Bulk Modulus (GPa) = 48.43815 63.61067 56.02441
# Shear Modulus (GPa) = -176.51021 23.14801 -76.68110
#
# Velocity S-wave (km/s) = -9.51020 3.44399 -6.26829
# Velocity P-wave (km/s) = 9.78633 6.95765 4.86638
#
# Compressibility (1/GPa) = 0.02064489
#
# Stress axis : x y z
#
# Youngs Moduli (GPa) = 119.13195 62.59936 105.76930
#
# Poissons Ratio (x) = 0.11029 0.43895
# Poissons Ratio (y) = 0.20990 0.07163
# Poissons Ratio (z) = 0.49441 0.04239
#
# Static dielectric constant tensor:
#      x y z
#    x 1.651010 0.000000 0.000000 
#    y 0.000000 1.730080 0.000000 
#    z 0.000000 0.000000 1.699880 
# 
# From -- ./inp_files/15679.got.cif
#   From: 2010.05.17/outbox.cif.g08.bks.cpg/sg38_8_cif.got.tgz:15679.got - 2010.06.03 18:07:57.
