data_PCOD9358207
_publ_section_title
;
Structure prediction by ZEFSAII (Michael W. Deem and Ramdas Pophale) SiO2 
 PCOD9358207
Probable space group: A M M 2
;
_chemical_formula_sum "Si O2"
_cell_formula_units_Z 64
_cell_length_a 9.045271
_cell_length_b 28.590471
_cell_length_c 12.878371
_cell_angle_alpha 90.000000
_cell_angle_beta 90.000000
_cell_angle_gamma 90.000000
_cell_volume 3330.456956
_symmetry_space_group_name_H-M "A M M 2"
_symmetry_group_IT_number 38
_symmetry_cell_setting 'orthorhombic'
loop_
_space_group_symop_operation_xyz
x,y,z
-x,-y,z
-x,y,z
x,-y,z
x,1/2+y,1/2+z
-x,1/2-y,1/2+z
-x,1/2+y,1/2+z
x,1/2-y,1/2+z
loop_
_atom_site_type_symbol
_atom_site_label
_atom_site_fract_x
_atom_site_fract_y
_atom_site_fract_z
Si Si1 0.669128 0.571200 0.820830
Si Si2 0.828783 0.947370 0.110299
Si Si3 0.321970 0.445335 0.240709
Si Si4 0.175847 0.198449 0.465651
Si Si5 0.323188 0.617118 0.441064
Si Si6 0.177505 0.092909 0.530775
Si Si7 0.175654 0.299526 0.544418
Si Si8 0.667329 0.819854 0.258610
O O1 0.500000 0.554167 0.824401
O O2 0.762527 0.551147 0.725741
O O3 0.663143 0.626147 0.792796
O O4 0.749450 0.567438 0.931411
O O5 0.000000 0.932172 0.113643
O O6 0.822482 0.000000 0.067086
O O7 0.734599 0.913501 0.037882
O O8 0.500000 0.442667 0.227172
O O9 0.285581 0.500000 0.261661
O O10 0.282674 0.411343 0.336893
O O11 0.242731 0.427704 0.136584
O O12 0.214385 0.148498 0.517726
O O13 0.208054 0.244551 0.531642
O O14 0.258418 0.204696 0.356701
O O15 0.000000 0.196637 0.445807
O O16 0.500000 0.621118 0.445847
O O17 0.250635 0.667903 0.456975
O O18 0.000000 0.088147 0.527941
O O19 0.238159 0.315043 0.655231
O O20 0.000000 0.306163 0.539536
O O21 0.500000 0.803799 0.239666
#
# Coordination Sequence:
#
# PCOD9358207 Si02
#       8
#     8   8   8   8   8   8   8   8
#     4  10  20  36  59  85 115 152 193 240 297 359
#     4  11  23  37  57  87 119 152 193 242 297 358
#     4  10  23  43  64  86 119 164 208 254 313 377
#     4   9  21  39  58  85 119 160 202 245 305 368
#     4  11  23  40  61  87 119 158 205 254 307 366
#     4  10  21  39  63  88 119 156 202 255 304 362
#     4  11  22  37  60  87 120 161 203 250 306 371
#     4  10  20  35  57  84 114 150 192 244 299 355
#
# _framework density 19.216583
#
# number of rings (size 3 to 8) (size 9 to 14) (size 15 to 20)
#    0.000    1.750    1.250    2.625    0.000    6.750 
#    0.000    3.750    0.000    0.000    0.000    0.000 
#    0.000    0.000    0.000    0.000    0.000    0.000 
#
# Total GULP energy -178696.446493 kJ/mol
# GULP energy per Si atom -5584.263953 kJ/mol
# Density = 1.917285 g / cm^3
# Si number density = 19.216583 Si / 1000 Ang^3
#
#
#
# Elastic Constant Matrix: (Units=GPa)
#
#
# Indices 1 2 3 4 5 6 
#
# 1 50.8118 21.4140 33.8703 0.0000 0.0000 0.0000
# 2 21.4140 54.2071 18.7228 0.0000 0.0000 0.0000
# 3 33.8703 18.7228 102.7296 0.0000 0.0000 0.0000
# 4 0.0000 0.0000 0.0000 21.8364 0.0000 0.0000
# 5 0.0000 0.0000 0.0000 0.0000 76.8647 0.0000
# 6 0.0000 0.0000 0.0000 0.0000 0.0000 17.9559
#
#
#
# Elastic Compliance Matrix: (Units=1/GPa)
#
#
# Indices 1 2 3 4 5 6 
#
# 1 0.028513 -0.008555 -0.007842 0.000000 0.000000 0.000000
# 2 -0.008555 0.022254 -0.001235 0.000000 0.000000 0.000000
# 3 -0.007842 -0.001235 0.012545 0.000000 0.000000 0.000000
# 4 0.000000 0.000000 0.000000 0.045795 0.000000 0.000000
# 5 0.000000 0.000000 0.000000 0.000000 0.013010 0.000000
# 6 0.000000 0.000000 0.000000 0.000000 0.000000 0.055692
#
#
# Mechanical properties :
#
#
# Convention : Reuss Voigt Hill
#
# Bulk Modulus (GPa) = 35.65352 39.52919 37.59136
# Shear Modulus (GPa) = 22.47973 32.24749 27.36361
#
# Velocity S-wave (km/s) = 3.42396 4.10092 3.77763
# Velocity P-wave (km/s) = 5.85022 6.56036 6.21544
#
# Compressibility (1/GPa) = 0.02804772
#
# Stress axis : x y z
#
# Youngs Moduli (GPa) = 35.07156 44.93550 79.71431
#
# Poissons Ratio (x) = 0.38444 0.62509
# Poissons Ratio (y) = 0.30005 0.09846
# Poissons Ratio (z) = 0.27502 0.05550
#
# Static dielectric constant tensor:
#      x y z
#    x 1.650690 0.000000 0.000000 
#    y 0.000000 1.700040 0.000000 
#    z 0.000000 0.000000 1.629720 
# 
# From -- ./inp_files/8599.got.cif
#   From: 2010.05.17/outbox.cif.g08.bks.cpg/sg38_5_cif.got.tgz:8599.got - 2010.06.03 18:07:57.
