data_PCOD9358806
_publ_section_title
;
Structure prediction by ZEFSAII (Michael W. Deem and Ramdas Pophale) SiO2 
 PCOD9358806
Probable space group: A M M 2
;
_chemical_formula_sum "Si O2"
_cell_formula_units_Z 56
_cell_length_a 14.374660
_cell_length_b 7.975778
_cell_length_c 22.172472
_cell_angle_alpha 90.000000
_cell_angle_beta 90.000000
_cell_angle_gamma 90.000000
_cell_volume 2542.053893
_symmetry_space_group_name_H-M "A M M 2"
_symmetry_group_IT_number 38
_symmetry_cell_setting 'orthorhombic'
loop_
_space_group_symop_operation_xyz
x,y,z
-x,-y,z
-x,y,z
x,-y,z
x,1/2+y,1/2+z
-x,1/2-y,1/2+z
-x,1/2+y,1/2+z
x,1/2-y,1/2+z
loop_
_atom_site_type_symbol
_atom_site_label
_atom_site_fract_x
_atom_site_fract_y
_atom_site_fract_z
Si Si1 0.893616 0.296923 0.527370
Si Si2 0.706111 0.307371 0.836604
Si Si3 0.893400 0.194796 0.791040
Si Si4 0.287638 0.201392 0.467010
Si Si5 0.605682 0.299969 0.216380
Si Si6 0.389213 0.202464 0.585943
Si Si7 0.887103 0.692340 0.659249
O O1 0.894042 0.500000 0.529928
O O2 0.820688 0.237975 0.478350
O O3 0.859273 0.237968 0.593907
O O4 0.000000 0.242263 0.517140
O O5 0.677387 0.500000 0.836619
O O6 0.817153 0.293107 0.828518
O O7 0.681236 0.231835 0.901778
O O8 0.661930 0.231321 0.776828
O O9 0.866309 0.209582 0.720196
O O10 0.000000 0.254768 0.796972
O O11 0.890097 0.000000 0.808424
O O12 0.340716 0.270017 0.525821
O O13 0.300168 0.000000 0.465174
O O14 0.500000 0.235506 0.223327
O O15 0.600168 0.500000 0.209347
O O16 0.644540 0.235628 0.151908
O O17 0.500000 0.233413 0.583765
O O18 0.376564 0.000000 0.584319
O O19 0.855220 0.500000 0.666656
O O20 0.000000 0.687431 0.655074
#
# Coordination Sequence:
#
# PCOD9358806 Si02
#       7
#     8   8   8   8   8   8   8
#     4   9  19  35  54  78 112 152 188 228 283 340
#     4  11  24  38  54  82 120 157 191 234 288 340
#     4  10  21  36  55  79 108 148 198 245 285 333
#     4  10  22  37  55  83 114 149 193 235 277 328
#     4   9  19  38  64  90 114 143 184 236 289 341
#     4   8  16  35  62  87 110 139 179 228 280 333
#     4   8  15  30  51  76 106 139 177 225 285 341
#
# _framework density 22.029430999999999
#
# number of rings (size 3 to 8) (size 9 to 14) (size 15 to 20)
#    0.000    2.714    0.000    2.571    2.000    4.286 
#    0.000    5.714    0.000    1.286    0.000    0.000 
#    0.000    0.000    0.000    0.000    0.000    0.000 
#
# Total GULP energy -156249.168162 kJ/mol
# GULP energy per Si atom -5580.327434 kJ/mol
# Density = 2.197929 g / cm^3
# Si number density = 22.029431 Si / 1000 Ang^3
#
#
#
# Elastic Constant Matrix: (Units=GPa)
#
#
# Indices 1 2 3 4 5 6 
#
# 1 57.0399 -2.4254 64.6095 0.0000 0.0000 0.0000
# 2 -2.4254 18.9307 8.3791 0.0000 0.0000 0.0000
# 3 64.6095 8.3791 184.8727 0.0000 0.0000 0.0000
# 4 0.0000 0.0000 0.0000 18.1808 0.0000 0.0000
# 5 0.0000 0.0000 0.0000 0.0000 15.5741 0.0000
# 6 0.0000 0.0000 0.0000 0.0000 0.0000 6.4138
#
#
#
# Elastic Compliance Matrix: (Units=1/GPa)
#
#
# Indices 1 2 3 4 5 6 
#
# 1 0.030381 0.008768 -0.011015 0.000000 0.000000 0.000000
# 2 0.008768 0.056436 -0.005622 0.000000 0.000000 0.000000
# 3 -0.011015 -0.005622 0.009514 0.000000 0.000000 0.000000
# 4 0.000000 0.000000 0.000000 0.055003 0.000000 0.000000
# 5 0.000000 0.000000 0.000000 0.000000 0.064209 0.000000
# 6 0.000000 0.000000 0.000000 0.000000 0.000000 0.155914
#
#
# Mechanical properties :
#
#
# Convention : Reuss Voigt Hill
#
# Bulk Modulus (GPa) = 12.40816 44.66330 28.53573
# Shear Modulus (GPa) = 12.07556 20.71907 16.39732
#
# Velocity S-wave (km/s) = 2.34381 3.07011 2.73121
# Velocity P-wave (km/s) = 3.60130 5.73462 4.78828
#
# Compressibility (1/GPa) = 0.08059213
#
# Stress axis : x y z
#
# Youngs Moduli (GPa) = 32.91503 17.71921 105.11378
#
# Poissons Ratio (x) = -0.15536 1.15784
# Poissons Ratio (y) = -0.28860 0.59096
# Poissons Ratio (z) = 0.36256 0.09962
#
# Static dielectric constant tensor:
#      x y z
#    x 1.815630 0.000000 0.000000 
#    y 0.000000 1.787940 0.000000 
#    z 0.000000 0.000000 1.854180 
# 
# From -- ./inp_files/21037.got.cif
#   From: 2010.05.17/outbox.cif.g08.bks.cpg/sg38_11_cif.got.tgz:21037.got - 2010.06.03 18:07:57.
