data_PCOD9358956
_publ_section_title
;
Structure prediction by ZEFSAII (Michael W. Deem and Ramdas Pophale) SiO2 
 PCOD9358956
Probable space group: A M M 2
;
_chemical_formula_sum "Si O2"
_cell_formula_units_Z 56
_cell_length_a 9.236452
_cell_length_b 14.134133
_cell_length_c 19.989045
_cell_angle_alpha 90.000000
_cell_angle_beta 90.000000
_cell_angle_gamma 90.000000
_cell_volume 2609.554653
_symmetry_space_group_name_H-M "A M M 2"
_symmetry_group_IT_number 38
_symmetry_cell_setting 'orthorhombic'
loop_
_space_group_symop_operation_xyz
x,y,z
-x,-y,z
-x,y,z
x,-y,z
x,1/2+y,1/2+z
-x,1/2-y,1/2+z
-x,1/2+y,1/2+z
x,1/2-y,1/2+z
loop_
_atom_site_type_symbol
_atom_site_label
_atom_site_fract_x
_atom_site_fract_y
_atom_site_fract_z
Si Si1 0.175031 0.889772 0.536430
Si Si2 0.845210 0.612288 0.409784
Si Si3 0.829100 0.290996 0.174917
Si Si4 0.665045 0.394386 0.675707
Si Si5 0.348296 0.390062 0.516486
Si Si6 0.329343 0.283119 0.306114
Si Si7 0.824741 0.888305 0.381505
O O1 0.220929 0.827973 0.601453
O O2 0.218085 0.866568 0.459562
O O3 0.000000 0.885553 0.535956
O O4 0.215750 0.000000 0.548337
O O5 0.859125 0.500000 0.406572
O O6 0.798903 0.645318 0.483771
O O7 0.716449 0.645448 0.363971
O O8 0.000000 0.654193 0.389783
O O9 0.790264 0.180864 0.185945
O O10 0.739174 0.327917 0.238481
O O11 0.000000 0.309472 0.181225
O O12 0.500000 0.369206 0.698099
O O13 0.696811 0.500000 0.699704
O O14 0.656367 0.394428 0.595475
O O15 0.500000 0.342170 0.496533
O O16 0.355923 0.500000 0.494777
O O17 0.500000 0.274050 0.300878
O O18 0.256896 0.183797 0.331669
O O19 0.000000 0.878528 0.375603
O O20 0.791766 0.000000 0.369970
#
# Coordination Sequence:
#
# PCOD9358956 Si02
#       7
#     8   8   8   8   8   8   8
#     4   8  17  37  65  94 121 151 193 251 315 369
#     4  10  21  37  58  84 115 152 195 243 293 349
#     4  11  23  38  59  89 120 156 203 253 305 365
#     4   9  19  36  56  80 116 158 193 231 287 353
#     4   8  15  30  52  79 111 146 183 223 276 342
#     4  12  26  41  58  85 123 166 206 250 306 370
#     4   9  19  40  69  96 122 155 201 260 319 373
#
# _framework density 21.459602
#
# number of rings (size 3 to 8) (size 9 to 14) (size 15 to 20)
#    0.000    2.429    0.000    3.857    2.000    3.143 
#    0.000    3.571    0.000    3.000    0.000    0.000 
#    0.000    0.000    0.000    0.000    0.000    0.000 
#
# Total GULP energy -155913.101984 kJ/mol
# GULP energy per Si atom -5568.325071 kJ/mol
# Density = 2.141076 g / cm^3
# Si number density = 21.459602 Si / 1000 Ang^3
#
#
#
# Elastic Constant Matrix: (Units=GPa)
#
#
# Indices 1 2 3 4 5 6 
#
# 1 72.3822 14.7450 35.3812 0.0000 0.0000 0.0000
# 2 14.7450 60.8520 9.8831 0.0000 0.0000 0.0000
# 3 35.3812 9.8831 103.5702 0.0000 0.0000 0.0000
# 4 0.0000 0.0000 0.0000 74.3978 0.0000 0.0000
# 5 0.0000 0.0000 0.0000 0.0000 13.8093 0.0000
# 6 0.0000 0.0000 0.0000 0.0000 0.0000 41.1313
#
#
#
# Elastic Compliance Matrix: (Units=1/GPa)
#
#
# Indices 1 2 3 4 5 6 
#
# 1 0.017200 -0.003264 -0.005564 0.000000 0.000000 0.000000
# 2 -0.003264 0.017311 -0.000537 0.000000 0.000000 0.000000
# 3 -0.005564 -0.000537 0.011607 0.000000 0.000000 0.000000
# 4 0.000000 0.000000 0.000000 0.013441 0.000000 0.000000
# 5 0.000000 0.000000 0.000000 0.000000 0.072415 0.000000
# 6 0.000000 0.000000 0.000000 0.000000 0.000000 0.024312
#
#
# Mechanical properties :
#
#
# Convention : Reuss Voigt Hill
#
# Bulk Modulus (GPa) = 36.51173 39.64700 38.07936
# Shear Modulus (GPa) = 27.15203 37.65403 32.40303
#
# Velocity S-wave (km/s) = 3.56091 4.19340 3.89003
# Velocity P-wave (km/s) = 5.82734 6.47776 6.16114
#
# Compressibility (1/GPa) = 0.02738846
#
# Stress axis : x y z
#
# Youngs Moduli (GPa) = 58.13806 57.76530 86.15181
#
# Poissons Ratio (x) = 0.18855 0.47939
# Poissons Ratio (y) = 0.18977 0.04625
# Poissons Ratio (z) = 0.32351 0.03101
#
# Static dielectric constant tensor:
#      x y z
#    x 1.811460 0.000000 0.000000 
#    y 0.000000 1.744690 0.000000 
#    z 0.000000 0.000000 1.877200 
# 
# From -- ./inp_files/19792.got.cif
#   From: 2010.05.17/outbox.cif.g08.bks.cpg/sg38_10_cif.got.tgz:19792.got - 2010.06.03 18:07:57.
