data_PCOD9358709
_publ_section_title
;
Structure prediction by ZEFSAII (Michael W. Deem and Ramdas Pophale) SiO2 
 PCOD9358709
Probable space group: A M M 2
;
_chemical_formula_sum "Si O2"
_cell_formula_units_Z 64
_cell_length_a 8.963177
_cell_length_b 28.847559
_cell_length_c 14.460266
_cell_angle_alpha 90.000000
_cell_angle_beta 90.000000
_cell_angle_gamma 90.000000
_cell_volume 3738.929919
_symmetry_space_group_name_H-M "A M M 2"
_symmetry_group_IT_number 38
_symmetry_cell_setting 'orthorhombic'
loop_
_space_group_symop_operation_xyz
x,y,z
-x,-y,z
-x,y,z
x,-y,z
x,1/2+y,1/2+z
-x,1/2-y,1/2+z
-x,1/2+y,1/2+z
x,1/2-y,1/2+z
loop_
_atom_site_type_symbol
_atom_site_label
_atom_site_fract_x
_atom_site_fract_y
_atom_site_fract_z
Si Si1 0.320828 0.446175 0.229720
Si Si2 0.177862 0.198752 0.745939
Si Si3 0.321346 0.875706 0.389249
Si Si4 0.178589 0.945585 0.246508
Si Si5 0.178498 0.376053 0.090349
Si Si6 0.679841 0.620032 0.597498
Si Si7 0.320878 0.371761 0.384270
Si Si8 0.322203 0.298920 0.737836
O O1 0.500000 0.443011 0.216060
O O2 0.280777 0.500000 0.237890
O O3 0.239265 0.420726 0.145399
O O4 0.284579 0.416759 0.321902
O O5 0.217246 0.167773 0.655887
O O6 0.247161 0.171844 0.833360
O O7 0.239039 0.250414 0.737496
O O8 0.000000 0.199057 0.754238
O O9 0.500000 0.880683 0.392875
O O10 0.251957 0.918509 0.332418
O O11 0.253461 0.872448 0.490745
O O12 0.287638 0.829930 0.328206
O O13 0.242188 0.920689 0.154989
O O14 0.000000 0.940198 0.250104
O O15 0.214403 0.000000 0.247825
O O16 0.000000 0.378380 0.081547
O O17 0.500000 0.613730 0.603272
O O18 0.724233 0.622220 0.490559
O O19 0.714808 0.667960 0.650909
O O20 0.500000 0.365784 0.382434
O O21 0.500000 0.290599 0.736466
#
# Coordination Sequence:
#
# PCOD9358709 Si02
#       8
#     8   8   8   8   8   8   8   8
#     4   9  18  33  53  77 104 136 175 216 258 305
#     4  10  21  35  52  76 105 138 174 211 256 309
#     4  10  21  37  57  79 102 134 175 216 259 306
#     4  10  21  36  54  78 108 140 172 209 256 307
#     4  10  21  36  53  76 106 138 172 212 259 309
#     4   9  19  35  55  79 105 136 174 214 257 304
#     4   9  18  34  55  78 105 136 172 216 260 302
#     4   9  19  35  53  75 103 134 170 212 259 308
#
# _framework density 17.117197000000001
#
# number of rings (size 3 to 8) (size 9 to 14) (size 15 to 20)
#    0.000    2.500    0.000    2.250    0.000    7.750 
#    0.000    5.000    0.000    0.000    0.000    0.000 
#    0.000    0.000    0.000    0.000    0.000    0.000 
#
# Total GULP energy -178554.106448 kJ/mol
# GULP energy per Si atom -5579.815826 kJ/mol
# Density = 1.707824 g / cm^3
# Si number density = 17.117197 Si / 1000 Ang^3
#
#
#
# Elastic Constant Matrix: (Units=GPa)
#
#
# Indices 1 2 3 4 5 6 
#
# 1 44.7113 62.6771 58.5680 0.0000 0.0000 0.0000
# 2 62.6771 156.8536 80.2769 0.0000 0.0000 0.0000
# 3 58.5680 80.2769 170.6163 0.0000 0.0000 0.0000
# 4 0.0000 0.0000 0.0000 5.2406 0.0000 0.0000
# 5 0.0000 0.0000 0.0000 0.0000 23.0926 0.0000
# 6 0.0000 0.0000 0.0000 0.0000 0.0000 27.7436
#
#
#
# Elastic Compliance Matrix: (Units=1/GPa)
#
#
# Indices 1 2 3 4 5 6 
#
# 1 0.070182 -0.020698 -0.014353 0.000000 0.000000 0.000000
# 2 -0.020698 0.014502 0.000282 0.000000 0.000000 0.000000
# 3 -0.014353 0.000282 0.010655 0.000000 0.000000 0.000000
# 4 0.000000 0.000000 0.000000 0.190819 0.000000 0.000000
# 5 0.000000 0.000000 0.000000 0.000000 0.043304 0.000000
# 6 0.000000 0.000000 0.000000 0.000000 0.000000 0.036044
#
#
# Mechanical properties :
#
#
# Convention : Reuss Voigt Hill
#
# Bulk Modulus (GPa) = 38.75849 86.13612 62.44731
# Shear Modulus (GPa) = 11.27026 22.59264 16.93145
#
# Velocity S-wave (km/s) = 2.56875 3.63696 3.14849
# Velocity P-wave (km/s) = 5.61161 8.25029 7.05540
#
# Compressibility (1/GPa) = 0.02580080
#
# Stress axis : x y z
#
# Youngs Moduli (GPa) = 14.24871 68.95628 93.84902
#
# Poissons Ratio (x) = 1.42727 1.34699
# Poissons Ratio (y) = 0.29492 -0.02645
# Poissons Ratio (z) = 0.20451 -0.01943
#
# Static dielectric constant tensor:
#      x y z
#    x 1.569880 0.000000 0.000000 
#    y 0.000000 1.553420 0.000000 
#    z 0.000000 0.000000 1.561220 
# 
# From -- ./inp_files/12786.got.cif
#   From: 2010.05.17/outbox.cif.g08.bks.cpg/sg38_7_cif.got.tgz:12786.got - 2010.06.03 18:07:57.
