data_PCOD9358487
_publ_section_title
;
Structure prediction by ZEFSAII (Michael W. Deem and Ramdas Pophale) SiO2 
 PCOD9358487
Probable space group: A M M 2
;
_chemical_formula_sum "Si O2"
_cell_formula_units_Z 64
_cell_length_a 25.745480
_cell_length_b 8.072934
_cell_length_c 14.931366
_cell_angle_alpha 90.000000
_cell_angle_beta 90.000000
_cell_angle_gamma 90.000000
_cell_volume 3103.358415
_symmetry_space_group_name_H-M "A M M 2"
_symmetry_group_IT_number 38
_symmetry_cell_setting 'orthorhombic'
loop_
_space_group_symop_operation_xyz
x,y,z
-x,-y,z
-x,y,z
x,-y,z
x,1/2+y,1/2+z
-x,1/2-y,1/2+z
-x,1/2+y,1/2+z
x,1/2-y,1/2+z
loop_
_atom_site_type_symbol
_atom_site_label
_atom_site_fract_x
_atom_site_fract_y
_atom_site_fract_z
Si Si1 0.942164 0.199686 0.669880
Si Si2 0.256383 0.810384 0.302474
Si Si3 0.444047 0.305574 0.182950
Si Si4 0.057849 0.800419 0.965031
Si Si5 0.669115 0.694519 0.453255
Si Si6 0.138236 0.799181 0.817742
Si Si7 0.332993 0.694253 0.156237
Si Si8 0.444098 0.700291 0.477017
O O1 0.934695 0.251116 0.567617
O O2 0.895679 0.257551 0.732649
O O3 0.000000 0.257046 0.698344
O O4 0.942768 0.000000 0.674799
O O5 0.288478 0.785124 0.393873
O O6 0.196949 0.760148 0.315676
O O7 0.285649 0.712063 0.224065
O O8 0.258854 0.000000 0.274902
O O9 0.500000 0.233546 0.213134
O O10 0.444874 0.500000 0.208291
O O11 0.386267 0.240196 0.203483
O O12 0.444445 0.284239 0.074736
O O13 0.000000 0.742129 0.936964
O O14 0.057074 0.000000 0.958933
O O15 0.104632 0.741696 0.903001
O O16 0.673683 0.500000 0.432791
O O17 0.675457 0.720893 0.560011
O O18 0.609782 0.748069 0.431038
O O19 0.139376 0.000000 0.818134
O O20 0.341479 0.500000 0.137270
O O21 0.500000 0.737024 0.433561
O O22 0.441647 0.500000 0.490034
#
# Coordination Sequence:
#
# PCOD9358487 Si02
#       8
#     8   8   8   8   8   8   8   8
#     4   9  18  34  58  87 116 145 177 216 266 324
#     4  12  26  41  56  78 110 149 197 242 279 326
#     4   8  14  26  48  78 107 135 170 215 271 335
#     4   9  18  34  58  87 116 145 177 216 266 324
#     4  10  20  37  60  83 110 145 184 229 283 338
#     4  10  21  38  58  79 109 148 187 227 273 324
#     4  10  20  37  60  83 110 145 184 229 283 338
#     4   8  14  26  48  78 107 135 170 215 271 335
#
# _framework density 20.622820000000001
#
# number of rings (size 3 to 8) (size 9 to 14) (size 15 to 20)
#    0.000    2.500    0.000    2.250    0.000    4.500 
#    0.000    3.125    0.000    7.500    0.000    0.000 
#    0.000    0.000    0.000    0.000    0.000    0.000 
#
# Total GULP energy -178487.309484 kJ/mol
# GULP energy per Si atom -5577.728421 kJ/mol
# Density = 2.057588 g / cm^3
# Si number density = 20.622820 Si / 1000 Ang^3
#
#
#
# Elastic Constant Matrix: (Units=GPa)
#
#
# Indices 1 2 3 4 5 6 
#
# 1 198.1726 9.2815 63.3094 0.0000 0.0000 0.0000
# 2 9.2815 22.1493 -4.1327 0.0000 0.0000 0.0000
# 3 63.3094 -4.1327 68.6858 0.0000 0.0000 0.0000
# 4 0.0000 0.0000 0.0000 20.4511 0.0000 0.0000
# 5 0.0000 0.0000 0.0000 0.0000 44.6458 0.0000
# 6 0.0000 0.0000 0.0000 0.0000 0.0000 17.6127
#
#
#
# Elastic Compliance Matrix: (Units=1/GPa)
#
#
# Indices 1 2 3 4 5 6 
#
# 1 0.007576 -0.004529 -0.007256 0.000000 0.000000 0.000000
# 2 -0.004529 0.048368 0.007084 0.000000 0.000000 0.000000
# 3 -0.007256 0.007084 0.021673 0.000000 0.000000 0.000000
# 4 0.000000 0.000000 0.000000 0.048897 0.000000 0.000000
# 5 0.000000 0.000000 0.000000 0.000000 0.022399 0.000000
# 6 0.000000 0.000000 0.000000 0.000000 0.000000 0.056777
#
#
# Mechanical properties :
#
#
# Convention : Reuss Voigt Hill
#
# Bulk Modulus (GPa) = 14.65909 47.32490 30.99199
# Shear Modulus (GPa) = 21.02357 31.24521 26.13439
#
# Velocity S-wave (km/s) = 3.19632 3.89662 3.56372
# Velocity P-wave (km/s) = 4.55473 6.57591 5.65633
#
# Compressibility (1/GPa) = 0.06821707
#
# Stress axis : x y z
#
# Youngs Moduli (GPa) = 131.99403 20.67496 46.14054
#
# Poissons Ratio (x) = 0.09363 0.33477
# Poissons Ratio (y) = 0.59774 -0.32687
# Poissons Ratio (z) = 0.95769 -0.14647
#
# Static dielectric constant tensor:
#      x y z
#    x 1.760940 0.000000 0.000000 
#    y 0.000000 1.726590 0.000000 
#    z 0.000000 0.000000 1.715920 
# 
# From -- ./inp_files/15840.got.cif
#   From: 2010.05.17/outbox.cif.g08.bks.cpg/sg38_8_cif.got.tgz:15840.got - 2010.06.03 18:07:57.
