data_PCOD9358978
_publ_section_title
;
Structure prediction by ZEFSAII (Michael W. Deem and Ramdas Pophale) SiO2 
 PCOD9358978
Probable space group: A M M 2
;
_chemical_formula_sum "Si O2"
_cell_formula_units_Z 48
_cell_length_a 8.553159
_cell_length_b 17.136508
_cell_length_c 17.552064
_cell_angle_alpha 90.000000
_cell_angle_beta 90.000000
_cell_angle_gamma 90.000000
_cell_volume 2572.628446
_symmetry_space_group_name_H-M "A M M 2"
_symmetry_group_IT_number 38
_symmetry_cell_setting 'orthorhombic'
loop_
_space_group_symop_operation_xyz
x,y,z
-x,-y,z
-x,y,z
x,-y,z
x,1/2+y,1/2+z
-x,1/2-y,1/2+z
-x,1/2+y,1/2+z
x,1/2-y,1/2+z
loop_
_atom_site_type_symbol
_atom_site_label
_atom_site_fract_x
_atom_site_fract_y
_atom_site_fract_z
Si Si1 0.689177 0.909544 0.804490
Si Si2 0.687396 0.644583 0.618309
Si Si3 0.311418 0.821511 0.651567
Si Si4 0.188557 0.647589 0.987971
Si Si5 0.808993 0.500000 0.889269
Si Si6 0.187464 0.000000 0.214109
Si Si7 0.187488 0.324106 0.454183
O O1 0.500000 0.907583 0.805936
O O2 0.741415 0.864911 0.727925
O O3 0.750762 0.866765 0.879509
O O4 0.738114 0.000000 0.803056
O O5 0.500000 0.641373 0.617802
O O6 0.736407 0.730412 0.648433
O O7 0.752908 0.576311 0.670491
O O8 0.748309 0.638031 0.531860
O O9 0.500000 0.823882 0.649583
O O10 0.249005 0.859902 0.574104
O O11 0.242164 0.577273 0.934336
O O12 0.237347 0.732921 0.957339
O O13 0.000000 0.646696 0.989745
O O14 0.758116 0.500000 0.801765
O O15 0.000000 0.500000 0.889285
O O16 0.000000 0.000000 0.213525
O O17 0.000000 0.326905 0.455354
#
# Coordination Sequence:
#
# PCOD9358978 Si02
#       7
#     8   8   8   8   4   4   8
#     4  10  22  38  57  82 115 150 185 230 284 334
#     4  10  21  39  60  82 114 150 187 231 285 337
#     4   9  20  38  59  84 112 148 188 230 280 337
#     4   9  19  37  59  83 112 148 185 228 281 336
#     4   9  20  37  57  84 117 148 181 227 284 335
#     4  11  23  37  59  86 115 148 189 233 278 333
#     4  10  21  37  59  85 112 146 191 234 279 335
#
# _framework density 18.657961
#
# number of rings (size 3 to 8) (size 9 to 14) (size 15 to 20)
#    0.000    2.333    0.000    1.250    4.667    2.333 
#    0.000    1.667    0.000    0.000    0.000    0.000 
#    0.000    0.000    0.000    0.000    0.000    0.000 
#
# Total GULP energy -134011.977058 kJ/mol
# GULP energy per Si atom -5583.832377 kJ/mol
# Density = 1.861549 g / cm^3
# Si number density = 18.657961 Si / 1000 Ang^3
#
#
#
# Elastic Constant Matrix: (Units=GPa)
#
#
# Indices 1 2 3 4 5 6 
#
# 1 18.4960 29.0499 35.0757 0.0000 0.0000 0.0000
# 2 29.0499 131.1381 138.9449 0.0000 0.0000 0.0000
# 3 35.0757 138.9449 222.2022 0.0000 0.0000 0.0000
# 4 0.0000 0.0000 0.0000 31.9627 0.0000 0.0000
# 5 0.0000 0.0000 0.0000 0.0000 31.4739 0.0000
# 6 0.0000 0.0000 0.0000 0.0000 0.0000 18.4674
#
#
#
# Elastic Compliance Matrix: (Units=1/GPa)
#
#
# Indices 1 2 3 4 5 6 
#
# 1 0.084641 -0.013611 -0.004850 0.000000 0.000000 0.000000
# 2 -0.013611 0.024785 -0.013350 0.000000 0.000000 0.000000
# 3 -0.004850 -0.013350 0.013614 0.000000 0.000000 0.000000
# 4 0.000000 0.000000 0.000000 0.031287 0.000000 0.000000
# 5 0.000000 0.000000 0.000000 0.000000 0.031772 0.000000
# 6 0.000000 0.000000 0.000000 0.000000 0.000000 0.054150
#
#
# Mechanical properties :
#
#
# Convention : Reuss Voigt Hill
#
# Bulk Modulus (GPa) = 16.82995 86.44195 51.63595
# Shear Modulus (GPa) = 15.44755 27.63183 21.53969
#
# Velocity S-wave (km/s) = 2.88050 3.85251 3.40141
# Velocity P-wave (km/s) = 4.48363 8.13753 6.56972
#
# Compressibility (1/GPa) = 0.05941789
#
# Stress axis : x y z
#
# Youngs Moduli (GPa) = 11.81467 40.34635 73.45517
#
# Poissons Ratio (x) = 0.54917 0.35623
# Poissons Ratio (y) = 0.16081 0.98062
# Poissons Ratio (z) = 0.05730 0.53862
#
# Static dielectric constant tensor:
#      x y z
#    x 1.634840 0.000000 0.000000 
#    y 0.000000 1.640000 0.000000 
#    z 0.000000 0.000000 1.604490 
# 
# From -- ./inp_files/12075.got.cif
#   From: 2010.05.17/outbox.cif.g08.bks.cpg/sg38_7_cif.got.tgz:12075.got - 2010.06.03 18:07:57.
