data_PCOD9358920
_publ_section_title
;
Structure prediction by ZEFSAII (Michael W. Deem and Ramdas Pophale) SiO2 
 PCOD9358920
Probable space group: A M M 2
;
_chemical_formula_sum "Si O2"
_cell_formula_units_Z 56
_cell_length_a 13.870262
_cell_length_b 23.187297
_cell_length_c 9.279411
_cell_angle_alpha 90.000000
_cell_angle_beta 90.000000
_cell_angle_gamma 90.000000
_cell_volume 2984.387417
_symmetry_space_group_name_H-M "A M M 2"
_symmetry_group_IT_number 38
_symmetry_cell_setting 'orthorhombic'
loop_
_space_group_symop_operation_xyz
x,y,z
-x,-y,z
-x,y,z
x,-y,z
x,1/2+y,1/2+z
-x,1/2-y,1/2+z
-x,1/2+y,1/2+z
x,1/2-y,1/2+z
loop_
_atom_site_type_symbol
_atom_site_label
_atom_site_fract_x
_atom_site_fract_y
_atom_site_fract_z
Si Si1 0.111207 0.172627 0.569810
Si Si2 0.385288 0.880165 0.877335
Si Si3 0.725044 0.173626 0.111230
Si Si4 0.888944 0.291812 0.401455
Si Si5 0.388352 0.000000 0.769067
Si Si6 0.387675 0.500000 0.924244
Si Si7 0.716287 0.121113 0.418328
Si Si8 0.386166 0.706218 0.126752
O O1 0.119696 0.225737 0.456500
O O2 0.129230 0.197765 0.731355
O O3 0.190449 0.125665 0.523096
O O4 0.000000 0.152362 0.566032
O O5 0.500000 0.882742 0.864534
O O6 0.343347 0.940522 0.822441
O O7 0.358582 0.827218 0.773185
O O8 0.353299 0.867469 0.037343
O O9 0.745455 0.150770 0.269014
O O10 0.677281 0.236845 0.113569
O O11 0.815980 0.174322 0.004432
O O12 0.000000 0.308708 0.427875
O O13 0.500000 0.000000 0.820476
O O14 0.391657 0.000000 0.597905
O O15 0.500000 0.500000 0.872629
O O16 0.329554 0.441459 0.889003
O O17 0.637608 0.161762 0.498187
O O18 0.500000 0.720016 0.127662
#
# Coordination Sequence:
#
# PCOD9358920 Si02
#       8
#     8   8   8   8   4   4   8   8
#     4  10  21  39  63  92 125 161 203 251 306 369
#     4  10  21  37  57  81 114 158 204 247 293 347
#     4  12  24  35  56  91 126 156 195 245 311 369
#     4  10  21  37  60  92 128 163 198 244 306 377
#     4   9  18  37  61  80 103 153 210 250 285 338
#     4  11  24  43  64  86 119 167 217 256 296 356
#     4  12  24  39  62  90 121 165 206 252 306 366
#     4  11  22  37  56  82 121 162 200 245 301 362
#
# _framework density 18.764319
#
# number of rings (size 3 to 8) (size 9 to 14) (size 15 to 20)
#    0.000    1.286    2.857    3.429    0.000    5.714 
#    0.000    1.071    0.000    0.000    0.000    1.500 
#    0.000    0.000    0.000    0.000    0.000    0.000 
#
# Total GULP energy -156308.104114 kJ/mol
# GULP energy per Si atom -5582.432290 kJ/mol
# Density = 1.872161 g / cm^3
# Si number density = 18.764319 Si / 1000 Ang^3
#
#
#
# Elastic Constant Matrix: (Units=GPa)
#
#
# Indices 1 2 3 4 5 6 
#
# 1 101.8152 48.3153 35.8823 0.0000 0.0000 0.0000
# 2 48.3153 83.4101 31.5293 0.0000 0.0000 0.0000
# 3 35.8823 31.5293 103.9989 0.0000 0.0000 0.0000
# 4 0.0000 0.0000 0.0000 -7.1101 0.0000 0.0000
# 5 0.0000 0.0000 0.0000 0.0000 29.8816 0.0000
# 6 0.0000 0.0000 0.0000 0.0000 0.0000 18.1861
#
#
#
# Elastic Compliance Matrix: (Units=1/GPa)
#
#
# Indices 1 2 3 4 5 6 
#
# 1 0.014193 -0.007195 -0.002716 0.000000 0.000000 0.000000
# 2 -0.007195 0.017188 -0.002728 0.000000 0.000000 0.000000
# 3 -0.002716 -0.002728 0.011380 0.000000 0.000000 0.000000
# 4 0.000000 0.000000 0.000000 -0.140644 0.000000 0.000000
# 5 0.000000 0.000000 0.000000 0.000000 0.033465 0.000000
# 6 0.000000 0.000000 0.000000 0.000000 0.000000 0.054987
#
#
# Mechanical properties :
#
#
# Convention : Reuss Voigt Hill
#
# Bulk Modulus (GPa) = 57.19948 57.85311 57.52630
# Shear Modulus (GPa) = 230.69098 19.75800 125.22449
#
# Velocity S-wave (km/s) = 11.09992 3.24845 8.17804
# Velocity P-wave (km/s) = 13.95804 6.70584 10.94978
#
# Compressibility (1/GPa) = 0.01748268
#
# Stress axis : x y z
#
# Youngs Moduli (GPa) = 70.45724 58.18044 87.87595
#
# Poissons Ratio (x) = 0.41859 0.23865
# Poissons Ratio (y) = 0.50692 0.23977
# Poissons Ratio (z) = 0.19134 0.15874
#
# Static dielectric constant tensor:
#      x y z
#    x 1.676930 0.000000 0.000000 
#    y 0.000000 1.667450 0.000000 
#    z 0.000000 0.000000 1.656670 
# 
# From -- ./inp_files/5755.got.cif
#   From: 2010.05.17/outbox.cif.g08.bks.cpg/sg38_3_cif.got.tgz:5755.got - 2010.06.03 18:07:57.
