data_PCOD9358672
_publ_section_title
;
Structure prediction by ZEFSAII (Michael W. Deem and Ramdas Pophale) SiO2 
 PCOD9358672
Probable space group: A M M 2
;
_chemical_formula_sum "Si O2"
_cell_formula_units_Z 64
_cell_length_a 7.401745
_cell_length_b 14.645105
_cell_length_c 29.462560
_cell_angle_alpha 90.000000
_cell_angle_beta 90.000000
_cell_angle_gamma 90.000000
_cell_volume 3193.721844
_symmetry_space_group_name_H-M "A M M 2"
_symmetry_group_IT_number 38
_symmetry_cell_setting 'orthorhombic'
loop_
_space_group_symop_operation_xyz
x,y,z
-x,-y,z
-x,y,z
x,-y,z
x,1/2+y,1/2+z
-x,1/2-y,1/2+z
-x,1/2+y,1/2+z
x,1/2-y,1/2+z
loop_
_atom_site_type_symbol
_atom_site_label
_atom_site_fract_x
_atom_site_fract_y
_atom_site_fract_z
Si Si1 0.779469 0.756596 0.437550
Si Si2 0.714536 0.396542 0.110689
Si Si3 0.215686 0.247284 0.687769
Si Si4 0.778525 0.104989 0.115549
Si Si5 0.779904 0.396255 0.366837
Si Si6 0.209995 0.741516 0.539356
Si Si7 0.779534 0.256562 0.290574
Si Si8 0.779711 0.603910 0.861313
O O1 0.726595 0.666303 0.409505
O O2 0.713775 0.755262 0.489169
O O3 0.723171 0.842755 0.406889
O O4 0.000000 0.759325 0.437981
O O5 0.500000 0.400595 0.105445
O O6 0.785127 0.500000 0.110625
O O7 0.751643 0.342207 0.157253
O O8 0.782329 0.332780 0.069786
O O9 0.280683 0.334113 0.658516
O O10 0.285058 0.241428 0.738943
O O11 0.000000 0.257545 0.691026
O O12 0.716024 0.160186 0.070898
O O13 0.000000 0.106178 0.115403
O O14 0.722280 0.000000 0.116922
O O15 0.717326 0.500000 0.368983
O O16 0.724223 0.342690 0.321325
O O17 0.000000 0.397535 0.366780
O O18 0.000000 0.718402 0.532575
O O19 0.725661 0.166269 0.318548
O O20 0.000000 0.257396 0.289908
O O21 0.717885 0.500000 0.859177
O O22 0.000000 0.602861 0.861311
#
# Coordination Sequence:
#
# PCOD9358672 Si02
#       8
#     8   8   8   8   8   8   8   8
#     4   8  14  23  35  56  85 113 142 173 208 253
#     4  10  21  35  48  63  86 115 145 180 224 270
#     4   9  17  29  46  67  89 115 148 185 220 255
#     4   8  14  24  38  59  86 111 139 180 224 258
#     4   8  13  21  33  53  85 118 141 168 210 254
#     4   9  17  29  46  67  89 115 148 185 220 255
#     4   8  14  23  35  56  85 113 142 173 208 253
#     4   8  13  21  33  53  85 118 141 168 210 254
#
# _framework density 20.039315999999999
#
# number of rings (size 3 to 8) (size 9 to 14) (size 15 to 20)
#    0.000    3.500    0.000    2.625    0.000    3.000 
#    0.000    7.500    0.000    6.000    0.000    3.500 
#    0.000    2.000    0.000    0.000    0.000    0.000 
#
# Total GULP energy -178424.514770 kJ/mol
# GULP energy per Si atom -5575.766087 kJ/mol
# Density = 1.999371 g / cm^3
# Si number density = 20.039316 Si / 1000 Ang^3
#
#
#
# Elastic Constant Matrix: (Units=GPa)
#
#
# Indices 1 2 3 4 5 6 
#
# 1 64.0571 -7.9542 -2.4814 0.0000 0.0000 0.0000
# 2 -7.9542 182.5149 79.3238 0.0000 0.0000 0.0000
# 3 -2.4814 79.3238 173.9360 0.0000 0.0000 0.0000
# 4 0.0000 0.0000 0.0000 12.3923 0.0000 0.0000
# 5 0.0000 0.0000 0.0000 0.0000 -31.6296 0.0000
# 6 0.0000 0.0000 0.0000 0.0000 0.0000 427.6224
#
#
#
# Elastic Compliance Matrix: (Units=1/GPa)
#
#
# Indices 1 2 3 4 5 6 
#
# 1 0.015698 0.000732 -0.000110 0.000000 0.000000 0.000000
# 2 0.000732 0.006868 -0.003122 0.000000 0.000000 0.000000
# 3 -0.000110 -0.003122 0.007171 0.000000 0.000000 0.000000
# 4 0.000000 0.000000 0.000000 0.080695 0.000000 0.000000
# 5 0.000000 0.000000 0.000000 0.000000 -0.031616 0.000000
# 6 0.000000 0.000000 0.000000 0.000000 0.000000 0.002339
#
#
# Mechanical properties :
#
#
# Convention : Reuss Voigt Hill
#
# Bulk Modulus (GPa) = 40.42443 62.03162 51.22802
# Shear Modulus (GPa) = 52.96654 105.11833 79.04243
#
# Velocity S-wave (km/s) = 5.14672 7.25051 6.28723
# Velocity P-wave (km/s) = 7.45215 10.05561 8.85014
#
# Compressibility (1/GPa) = 0.02473752
#
# Stress axis : x y z
#
# Youngs Moduli (GPa) = 63.70366 145.61204 139.44571
#
# Poissons Ratio (x) = -0.10657 0.01531
# Poissons Ratio (y) = -0.04662 0.43528
# Poissons Ratio (z) = 0.00700 0.45453
#
# Static dielectric constant tensor:
#      x y z
#    x 1.750430 0.000000 0.000000 
#    y 0.000000 1.673400 0.000000 
#    z 0.000000 0.000000 1.693400 
# 
# From -- ./inp_files/24785.got.cif
#   From: 2010.05.17/outbox.cif.g08.bks.cpg/sg38_13_cif.got.tgz:24785.got - 2010.06.03 18:07:57.
