data_PCOD9358052
_publ_section_title
;
Structure prediction by ZEFSAII (Michael W. Deem and Ramdas Pophale) SiO2 
 PCOD9358052
Probable space group: A M M 2
;
_chemical_formula_sum "Si O2"
_cell_formula_units_Z 40
_cell_length_a 8.154160
_cell_length_b 12.001578
_cell_length_c 20.742610
_cell_angle_alpha 90.000000
_cell_angle_beta 90.000000
_cell_angle_gamma 90.000000
_cell_volume 2029.929630
_symmetry_space_group_name_H-M "A M M 2"
_symmetry_group_IT_number 38
_symmetry_cell_setting 'orthorhombic'
loop_
_space_group_symop_operation_xyz
x,y,z
-x,-y,z
-x,y,z
x,-y,z
x,1/2+y,1/2+z
-x,1/2-y,1/2+z
-x,1/2+y,1/2+z
x,1/2-y,1/2+z
loop_
_atom_site_type_symbol
_atom_site_label
_atom_site_fract_x
_atom_site_fract_y
_atom_site_fract_z
Si Si1 0.799061 0.871627 0.677050
Si Si2 0.196717 0.255364 0.803528
Si Si3 0.800556 0.000000 0.329215
Si Si4 0.695455 0.500000 0.977332
Si Si5 0.305617 0.874002 0.929973
Si Si6 0.193855 0.226388 0.544486
O O1 0.742897 0.821842 0.745174
O O2 0.746111 0.794229 0.617363
O O3 0.000000 0.872904 0.676294
O O4 0.746452 0.000000 0.668313
O O5 0.254533 0.383225 0.798472
O O6 0.237334 0.203626 0.873021
O O7 0.000000 0.257627 0.798444
O O8 0.737423 0.000000 0.402179
O O9 0.000000 0.000000 0.330333
O O10 0.500000 0.500000 0.986582
O O11 0.771727 0.390529 0.009063
O O12 0.500000 0.877310 0.921084
O O13 0.239634 0.000000 0.924794
O O14 0.270390 0.821024 0.999670
O O15 0.000000 0.246809 0.546611
#
# Coordination Sequence:
#
# PCOD9358052 Si02
#       6
#     8   8   4   4   8   8
#     4   9  18  34  57  85 115 147 188 240 287 331
#     4  10  20  36  60  86 115 150 190 237 287 339
#     4  10  20  34  56  88 118 147 188 235 284 337
#     4  12  22  34  58  88 118 149 188 233 290 347
#     4  11  24  40  57  82 118 153 190 238 290 345
#     4  11  21  37  61  87 116 148 192 242 287 337
#
# _framework density 19.705117000000001
#
# number of rings (size 3 to 8) (size 9 to 14) (size 15 to 20)
#    0.000    1.600    3.000    2.700    0.000    2.400 
#    1.800    2.000    0.000    0.000    0.000    0.000 
#    0.000    0.000    0.000    0.000    0.000    0.000 
#
# Total GULP energy -111678.897355 kJ/mol
# GULP energy per Si atom -5583.944868 kJ/mol
# Density = 1.966027 g / cm^3
# Si number density = 19.705117 Si / 1000 Ang^3
#
#
#
# Elastic Constant Matrix: (Units=GPa)
#
#
# Indices 1 2 3 4 5 6 
#
# 1 5.7783 1.5914 -1.0170 0.0000 0.0000 0.0000
# 2 1.5914 123.9938 41.9712 0.0000 0.0000 0.0000
# 3 -1.0170 41.9712 114.2931 0.0000 0.0000 0.0000
# 4 0.0000 0.0000 0.0000 41.0948 0.0000 0.0000
# 5 0.0000 0.0000 0.0000 0.0000 -39.3258 0.0000
# 6 0.0000 0.0000 0.0000 0.0000 0.0000 16.2853
#
#
#
# Elastic Compliance Matrix: (Units=1/GPa)
#
#
# Indices 1 2 3 4 5 6 
#
# 1 0.174409 -0.003156 0.002711 0.000000 0.000000 0.000000
# 2 -0.003156 0.009267 -0.003431 0.000000 0.000000 0.000000
# 3 0.002711 -0.003431 0.010034 0.000000 0.000000 0.000000
# 4 0.000000 0.000000 0.000000 0.024334 0.000000 0.000000
# 5 0.000000 0.000000 0.000000 0.000000 -0.025429 0.000000
# 6 0.000000 0.000000 0.000000 0.000000 0.000000 0.061405
#
#
# Mechanical properties :
#
#
# Convention : Reuss Voigt Hill
#
# Bulk Modulus (GPa) = 5.37760 36.57294 20.97527
# Shear Modulus (GPa) = 15.44367 17.04549 16.24458
#
# Velocity S-wave (km/s) = 2.80257 2.94433 2.87432
# Velocity P-wave (km/s) = 3.63421 5.49174 4.65654
#
# Compressibility (1/GPa) = 0.18595649
#
# Stress axis : x y z
#
# Youngs Moduli (GPa) = 5.73366 107.91172 99.66574
#
# Poissons Ratio (x) = 0.34058 -0.27019
# Poissons Ratio (y) = 0.01810 0.34196
# Poissons Ratio (z) = -0.01554 0.37026
#
# Static dielectric constant tensor:
#      x y z
#    x 1.687060 0.000000 0.000000 
#    y 0.000000 1.689920 0.000000 
#    z 0.000000 0.000000 1.678200 
# 
# From -- ./inp_files/19479.got.cif
#   From: 2010.05.17/outbox.cif.g08.bks.cpg/sg38_10_cif.got.tgz:19479.got - 2010.06.03 18:07:57.
