data_PCOD9358336
_publ_section_title
;
Structure prediction by ZEFSAII (Michael W. Deem and Ramdas Pophale) SiO2 
 PCOD9358336
Probable space group: A M M 2
;
_chemical_formula_sum "Si O2"
_cell_formula_units_Z 56
_cell_length_a 21.070707
_cell_length_b 7.775350
_cell_length_c 15.483885
_cell_angle_alpha 90.000000
_cell_angle_beta 90.000000
_cell_angle_gamma 90.000000
_cell_volume 2536.757731
_symmetry_space_group_name_H-M "A M M 2"
_symmetry_group_IT_number 38
_symmetry_cell_setting 'orthorhombic'
loop_
_space_group_symop_operation_xyz
x,y,z
-x,-y,z
-x,y,z
x,-y,z
x,1/2+y,1/2+z
-x,1/2-y,1/2+z
-x,1/2+y,1/2+z
x,1/2-y,1/2+z
loop_
_atom_site_type_symbol
_atom_site_label
_atom_site_fract_x
_atom_site_fract_y
_atom_site_fract_z
Si Si1 0.158832 0.707384 0.738110
Si Si2 0.703795 0.302482 0.786600
Si Si3 0.298499 0.194026 0.979350
Si Si4 0.834899 0.703950 0.047300
Si Si5 0.568060 0.705869 0.002019
Si Si6 0.567935 0.209013 0.295675
Si Si7 0.072557 0.210686 0.395413
O O1 0.161942 0.500000 0.746148
O O2 0.230041 0.776296 0.756088
O O3 0.140338 0.754740 0.641884
O O4 0.108788 0.767146 0.809061
O O5 0.703101 0.500000 0.755737
O O6 0.705408 0.304955 0.891650
O O7 0.635376 0.224821 0.761348
O O8 0.300988 0.000000 0.947200
O O9 0.235138 0.219753 0.033833
O O10 0.363531 0.227789 0.031356
O O11 0.828162 0.500000 0.036580
O O12 0.883739 0.767032 0.975051
O O13 0.500000 0.729009 0.260308
O O14 0.568542 0.500000 0.010789
O O15 0.567674 0.745221 0.898802
O O16 0.500000 0.270688 0.537035
O O17 0.568665 0.000000 0.288257
O O18 0.000000 0.268602 0.400266
O O19 0.071516 0.000000 0.396161
#
# Coordination Sequence:
#
# PCOD9358336 Si02
#       7
#     8   8   8   8   8   8   8
#     4  10  20  36  58  85 114 147 187 235 285 339
#     4   9  16  30  51  74 105 146 187 228 284 346
#     4  11  20  30  50  79 112 148 192 244 290 335
#     4  11  22  38  59  84 115 154 195 234 283 345
#     4   8  14  26  45  70 103 145 191 236 287 346
#     4   7  10  18  37  66  96 129 174 221 263 319
#     4   9  19  38  63  87 114 150 188 229 285 350
#
# _framework density 22.075424000000002
#
# number of rings (size 3 to 8) (size 9 to 14) (size 15 to 20)
#    0.000    2.714    1.429    3.429    0.000    1.429 
#    0.000    0.000    0.000    3.857    0.000    2.000 
#    0.000    0.000    0.000    0.000    0.000    0.143 
#
# Total GULP energy -156209.151964 kJ/mol
# GULP energy per Si atom -5578.898284 kJ/mol
# Density = 2.202518 g / cm^3
# Si number density = 22.075424 Si / 1000 Ang^3
#
#
#
# Elastic Constant Matrix: (Units=GPa)
#
#
# Indices 1 2 3 4 5 6 
#
# 1 210.9400 25.9195 68.4845 0.0000 0.0000 0.0000
# 2 25.9195 39.5582 -1.9676 0.0000 0.0000 0.0000
# 3 68.4845 -1.9676 94.2519 0.0000 0.0000 0.0000
# 4 0.0000 0.0000 0.0000 8.6989 0.0000 0.0000
# 5 0.0000 0.0000 0.0000 0.0000 -17.9171 0.0000
# 6 0.0000 0.0000 0.0000 0.0000 0.0000 -4.6357
#
#
#
# Elastic Compliance Matrix: (Units=1/GPa)
#
#
# Indices 1 2 3 4 5 6 
#
# 1 0.007030 -0.004865 -0.005210 0.000000 0.000000 0.000000
# 2 -0.004865 0.028673 0.004134 0.000000 0.000000 0.000000
# 3 -0.005210 0.004134 0.014481 0.000000 0.000000 0.000000
# 4 0.000000 0.000000 0.000000 0.114957 0.000000 0.000000
# 5 0.000000 0.000000 0.000000 0.000000 -0.055813 0.000000
# 6 0.000000 0.000000 0.000000 0.000000 0.000000 -0.215719
#
#
# Mechanical properties :
#
#
# Convention : Reuss Voigt Hill
#
# Bulk Modulus (GPa) = 26.10838 58.84698 42.47768
# Shear Modulus (GPa) = -61.16903 14.05014 -23.55945
#
# Velocity S-wave (km/s) = -5.26965 2.52555 -3.27039
# Velocity P-wave (km/s) = 5.01728 5.93462 2.24127
#
# Compressibility (1/GPa) = 0.03830188
#
# Stress axis : x y z
#
# Youngs Moduli (GPa) = 142.25036 34.87640 69.05375
#
# Poissons Ratio (x) = 0.16968 0.35974
# Poissons Ratio (y) = 0.69209 -0.28545
# Poissons Ratio (z) = 0.74106 -0.14417
#
# Static dielectric constant tensor:
#      x y z
#    x 1.849970 0.000000 0.000000 
#    y 0.000000 1.800120 0.000000 
#    z 0.000000 0.000000 1.787220 
# 
# From -- ./inp_files/15487.got.cif
#   From: 2010.05.17/outbox.cif.g08.bks.cpg/sg38_8_cif.got.tgz:15487.got - 2010.06.03 18:07:57.
