data_PCOD9358856
_publ_section_title
;
Structure prediction by ZEFSAII (Michael W. Deem and Ramdas Pophale) SiO2 
 PCOD9358856
Probable space group: A M M 2
;
_chemical_formula_sum "Si O2"
_cell_formula_units_Z 56
_cell_length_a 15.562469
_cell_length_b 15.892806
_cell_length_c 11.190029
_cell_angle_alpha 90.000000
_cell_angle_beta 90.000000
_cell_angle_gamma 90.000000
_cell_volume 2767.644427
_symmetry_space_group_name_H-M "A M M 2"
_symmetry_group_IT_number 38
_symmetry_cell_setting 'orthorhombic'
loop_
_space_group_symop_operation_xyz
x,y,z
-x,-y,z
-x,y,z
x,-y,z
x,1/2+y,1/2+z
-x,1/2-y,1/2+z
-x,1/2+y,1/2+z
x,1/2-y,1/2+z
loop_
_atom_site_type_symbol
_atom_site_label
_atom_site_fract_x
_atom_site_fract_y
_atom_site_fract_z
Si Si1 0.774854 0.898262 0.457460
Si Si2 0.196959 0.823202 0.713609
Si Si3 0.650575 0.267341 0.842792
Si Si4 0.406593 0.814448 0.088094
Si Si5 0.094118 0.902675 0.893288
Si Si6 0.898287 0.650014 0.766248
Si Si7 0.774525 0.906494 0.073989
O O1 0.769876 0.851561 0.585186
O O2 0.701422 0.853839 0.375599
O O3 0.866003 0.870391 0.399483
O O4 0.767099 0.000000 0.464181
O O5 0.276984 0.799409 0.798927
O O6 0.137827 0.896770 0.765549
O O7 0.134913 0.741778 0.723785
O O8 0.594971 0.274614 0.721642
O O9 0.604297 0.240093 0.965915
O O10 0.500000 0.857998 0.077073
O O11 0.316569 0.864126 0.091345
O O12 0.000000 0.863634 0.897753
O O13 0.086081 0.000000 0.928952
O O14 0.162123 0.860399 0.981276
O O15 0.836108 0.590576 0.688423
O O16 0.000000 0.639177 0.749050
O O17 0.755617 0.000000 0.029498
#
# Coordination Sequence:
#
# PCOD9358856 Si02
#       7
#     8   8   8   8   8   8   8
#     4  11  23  40  65  94 132 178 220 271 336 398
#     4  11  21  39  63  89 129 169 218 267 317 387
#     4  11  22  43  67 100 129 168 216 273 333 395
#     4  12  24  43  71  99 126 164 217 273 331 403
#     4  10  21  36  58  88 122 163 208 258 317 378
#     4  11  24  38  60  90 126 172 221 271 320 379
#     4  11  22  39  60  87 124 162 205 261 324 386
#
# _framework density 20.233812
#
# number of rings (size 3 to 8) (size 9 to 14) (size 15 to 20)
#    0.000    1.000    5.714    2.143    2.000    3.143 
#    0.000    0.000    0.000    1.286    0.000    0.000 
#    0.000    0.000    0.000    0.000    0.000    0.000 
#
# Total GULP energy -155884.202197 kJ/mol
# GULP energy per Si atom -5567.292936 kJ/mol
# Density = 2.018776 g / cm^3
# Si number density = 20.233812 Si / 1000 Ang^3
#
#
#
# Elastic Constant Matrix: (Units=GPa)
#
#
# Indices 1 2 3 4 5 6 
#
# 1 158.4797 24.2190 41.7533 0.0000 0.0000 0.0000
# 2 24.2190 68.5790 28.2762 0.0000 0.0000 0.0000
# 3 41.7533 28.2762 129.6391 0.0000 0.0000 0.0000
# 4 0.0000 0.0000 0.0000 24.3080 0.0000 0.0000
# 5 0.0000 0.0000 0.0000 0.0000 5.4754 0.0000
# 6 0.0000 0.0000 0.0000 0.0000 0.0000 1.6783
#
#
#
# Elastic Compliance Matrix: (Units=1/GPa)
#
#
# Indices 1 2 3 4 5 6 
#
# 1 0.007073 -0.001713 -0.001905 0.000000 0.000000 0.000000
# 2 -0.001713 0.016437 -0.003034 0.000000 0.000000 0.000000
# 3 -0.001905 -0.003034 0.008989 0.000000 0.000000 0.000000
# 4 0.000000 0.000000 0.000000 0.041139 0.000000 0.000000
# 5 0.000000 0.000000 0.000000 0.000000 0.182634 0.000000
# 6 0.000000 0.000000 0.000000 0.000000 0.000000 0.595848
#
#
# Mechanical properties :
#
#
# Convention : Reuss Voigt Hill
#
# Bulk Modulus (GPa) = 52.08934 60.57722 56.33328
# Shear Modulus (GPa) = 5.73512 23.78895 14.76203
#
# Velocity S-wave (km/s) = 1.68540 3.43257 2.70399
# Velocity P-wave (km/s) = 5.43940 6.76119 6.13599
#
# Compressibility (1/GPa) = 0.01919779
#
# Stress axis : x y z
#
# Youngs Moduli (GPa) = 141.37295 60.83686 111.24928
#
# Poissons Ratio (x) = 0.10420 0.21189
# Poissons Ratio (y) = 0.24213 0.33749
# Poissons Ratio (z) = 0.26926 0.18456
#
# Static dielectric constant tensor:
#      x y z
#    x 1.745540 0.000000 0.000000 
#    y 0.000000 1.773830 0.000000 
#    z 0.000000 0.000000 1.842900 
# 
# From -- ./inp_files/10124.got.cif
#   From: 2010.05.17/outbox.cif.g08.bks.cpg/sg38_6_cif.got.tgz:10124.got - 2010.06.03 18:07:57.
