data_PCOD9358524
_publ_section_title
;
Structure prediction by ZEFSAII (Michael W. Deem and Ramdas Pophale) SiO2 
 PCOD9358524
Probable space group: A M M 2
;
_chemical_formula_sum "Si O2"
_cell_formula_units_Z 40
_cell_length_a 7.903470
_cell_length_b 9.169092
_cell_length_c 29.710135
_cell_angle_alpha 90.000000
_cell_angle_beta 90.000000
_cell_angle_gamma 90.000000
_cell_volume 2153.023473
_symmetry_space_group_name_H-M "A M M 2"
_symmetry_group_IT_number 38
_symmetry_cell_setting 'orthorhombic'
loop_
_space_group_symop_operation_xyz
x,y,z
-x,-y,z
-x,y,z
x,-y,z
x,1/2+y,1/2+z
-x,1/2-y,1/2+z
-x,1/2+y,1/2+z
x,1/2-y,1/2+z
loop_
_atom_site_type_symbol
_atom_site_label
_atom_site_fract_x
_atom_site_fract_y
_atom_site_fract_z
Si Si1 0.000000 0.676131 0.344851
Si Si2 0.699423 0.324113 0.790074
Si Si3 0.313174 0.824749 0.010013
Si Si4 0.000000 0.677430 0.449527
Si Si5 0.703751 0.666550 0.686547
Si Si6 0.800461 0.166376 0.598154
O O1 0.832564 0.741754 0.321347
O O2 0.000000 0.718972 0.397461
O O3 0.000000 0.500000 0.341373
O O4 0.500000 0.288101 0.797734
O O5 0.715234 0.500000 0.795052
O O6 0.742788 0.289860 0.737821
O O7 0.500000 0.787373 0.992885
O O8 0.288614 0.759485 0.059521
O O9 0.301272 0.000000 0.013457
O O10 0.165636 0.773271 0.976762
O O11 0.000000 0.500000 0.450367
O O12 0.500000 0.665919 0.683237
O O13 0.763143 0.500000 0.679649
O O14 0.772903 0.767687 0.647456
O O15 0.000000 0.169557 0.588236
O O16 0.740375 0.000000 0.596821
#
# Coordination Sequence:
#
# PCOD9358524 Si02
#       6
#     4   8   8   4   8   8
#     4  11  23  37  60  91 120 149 186 239 302 355
#     4   9  20  40  62  85 116 155 199 241 282 337
#     4  10  20  37  62  84 105 143 192 233 274 329
#     4   9  20  39  58  83 114 143 182 235 286 335
#     4   9  19  36  57  80 107 146 195 235 269 321
#     4  11  23  35  50  80 120 153 182 223 280 339
#
# _framework density 18.578523000000001
#
# number of rings (size 3 to 8) (size 9 to 14) (size 15 to 20)
#    0.000    2.200    1.000    2.700    1.400    6.400 
#    0.000    6.000    0.000    0.000    0.000    0.000 
#    0.000    0.000    0.000    0.000    0.000    0.000 
#
# Total GULP energy -111635.765001 kJ/mol
# GULP energy per Si atom -5581.788250 kJ/mol
# Density = 1.853624 g / cm^3
# Si number density = 18.578523 Si / 1000 Ang^3
#
#
#
# Elastic Constant Matrix: (Units=GPa)
#
#
# Indices 1 2 3 4 5 6 
#
# 1 123.1241 46.6629 82.7226 0.0000 0.0000 0.0000
# 2 46.6629 34.4206 45.9470 0.0000 0.0000 0.0000
# 3 82.7226 45.9470 130.1868 0.0000 0.0000 0.0000
# 4 0.0000 0.0000 0.0000 26.5236 0.0000 0.0000
# 5 0.0000 0.0000 0.0000 0.0000 -8.8725 0.0000
# 6 0.0000 0.0000 0.0000 0.0000 0.0000 12.4991
#
#
#
# Elastic Compliance Matrix: (Units=1/GPa)
#
#
# Indices 1 2 3 4 5 6 
#
# 1 0.018587 -0.017835 -0.005516 0.000000 0.000000 0.000000
# 2 -0.017835 0.072044 -0.014094 0.000000 0.000000 0.000000
# 3 -0.005516 -0.014094 0.016161 0.000000 0.000000 0.000000
# 4 0.000000 0.000000 0.000000 0.037702 0.000000 0.000000
# 5 0.000000 0.000000 0.000000 0.000000 -0.112708 0.000000
# 6 0.000000 0.000000 0.000000 0.000000 0.000000 0.080006
#
#
# Mechanical properties :
#
#
# Convention : Reuss Voigt Hill
#
# Bulk Modulus (GPa) = 31.34607 70.93297 51.13952
# Shear Modulus (GPa) = 25.34002 13.52331 19.43166
#
# Velocity S-wave (km/s) = 3.69716 2.70089 3.23758
# Velocity P-wave (km/s) = 5.92741 6.92744 6.44684
#
# Compressibility (1/GPa) = 0.03190193
#
# Stress axis : x y z
#
# Youngs Moduli (GPa) = 53.80058 13.88031 61.87881
#
# Poissons Ratio (x) = 0.24755 0.34133
# Poissons Ratio (y) = 0.95952 0.87214
# Poissons Ratio (z) = 0.29677 0.19563
#
# Static dielectric constant tensor:
#      x y z
#    x 1.657640 0.000000 0.000000 
#    y 0.000000 1.627720 0.000000 
#    z 0.000000 0.000000 1.607760 
# 
# From -- ./inp_files/23264.got.cif
#   From: 2010.05.17/outbox.cif.g08.bks.cpg/sg38_12_cif.got.tgz:23264.got - 2010.06.03 18:07:57.
