data_PCOD9358490
_publ_section_title
;
Structure prediction by ZEFSAII (Michael W. Deem and Ramdas Pophale) SiO2 
 PCOD9358490
Probable space group: A M M 2
;
_chemical_formula_sum "Si O2"
_cell_formula_units_Z 64
_cell_length_a 25.628051
_cell_length_b 8.062830
_cell_length_c 14.800931
_cell_angle_alpha 90.000000
_cell_angle_beta 90.000000
_cell_angle_gamma 90.000000
_cell_volume 3058.384730
_symmetry_space_group_name_H-M "A M M 2"
_symmetry_group_IT_number 38
_symmetry_cell_setting 'orthorhombic'
loop_
_space_group_symop_operation_xyz
x,y,z
-x,-y,z
-x,y,z
x,-y,z
x,1/2+y,1/2+z
-x,1/2-y,1/2+z
-x,1/2+y,1/2+z
x,1/2-y,1/2+z
loop_
_atom_site_type_symbol
_atom_site_label
_atom_site_fract_x
_atom_site_fract_y
_atom_site_fract_z
Si Si1 0.941173 0.299692 0.730820
Si Si2 0.256525 0.813263 0.348848
Si Si3 0.443716 0.694389 0.233848
Si Si4 0.057908 0.798005 0.020184
Si Si5 0.669612 0.694167 0.500634
Si Si6 0.140252 0.805716 0.876616
Si Si7 0.332526 0.693247 0.204336
Si Si8 0.443870 0.700468 0.526172
O O1 0.937516 0.500000 0.738694
O O2 0.935492 0.257182 0.625280
O O3 0.896775 0.218067 0.790271
O O4 0.000000 0.250654 0.759057
O O5 0.287773 0.787012 0.441830
O O6 0.195966 0.776637 0.363291
O O7 0.284353 0.705736 0.271881
O O8 0.263176 0.000000 0.317098
O O9 0.500000 0.766823 0.263837
O O10 0.444612 0.500000 0.260093
O O11 0.385453 0.759183 0.253791
O O12 0.444164 0.715195 0.124625
O O13 0.000000 0.740904 0.991015
O O14 0.057537 0.000000 0.013860
O O15 0.105070 0.736981 0.958763
O O16 0.674293 0.500000 0.478591
O O17 0.676028 0.718473 0.608355
O O18 0.610001 0.748239 0.479039
O O19 0.149846 0.000000 0.892663
O O20 0.342069 0.500000 0.183184
O O21 0.500000 0.736881 0.482391
O O22 0.441266 0.500000 0.539536
#
# Coordination Sequence:
#
# PCOD9358490 Si02
#       8
#     8   8   8   8   8   8   8   8
#     4   9  18  35  59  87 119 152 184 219 267 332
#     4  12  26  42  57  77 110 152 200 246 287 336
#     4   8  14  26  48  78 108 137 171 217 277 342
#     4   8  16  33  58  86 115 147 179 213 262 326
#     4  10  20  37  60  84 112 147 186 231 287 345
#     4  11  22  37  58  83 112 146 189 239 286 332
#     4  10  20  37  60  84 111 145 187 234 286 344
#     4   8  14  26  48  78 108 138 174 218 272 337
#
# _framework density 20.926079000000001
#
# number of rings (size 3 to 8) (size 9 to 14) (size 15 to 20)
#    0.000    2.500    0.000    3.375    0.000    2.750 
#    0.000    5.625    0.000    5.250    0.000    0.000 
#    0.000    0.000    0.000    0.000    0.000    0.000 
#
# Total GULP energy -178517.719199 kJ/mol
# GULP energy per Si atom -5578.678725 kJ/mol
# Density = 2.087845 g / cm^3
# Si number density = 20.926079 Si / 1000 Ang^3
#
#
#
# Elastic Constant Matrix: (Units=GPa)
#
#
# Indices 1 2 3 4 5 6 
#
# 1 153.0601 4.1025 40.5339 0.0000 0.0000 0.0000
# 2 4.1025 26.3255 -5.8601 0.0000 0.0000 0.0000
# 3 40.5339 -5.8601 62.0487 0.0000 0.0000 0.0000
# 4 0.0000 0.0000 0.0000 19.3964 0.0000 0.0000
# 5 0.0000 0.0000 0.0000 0.0000 96.0527 0.0000
# 6 0.0000 0.0000 0.0000 0.0000 0.0000 20.9814
#
#
#
# Elastic Compliance Matrix: (Units=1/GPa)
#
#
# Indices 1 2 3 4 5 6 
#
# 1 0.008055 -0.002479 -0.005496 0.000000 0.000000 0.000000
# 2 -0.002479 0.039565 0.005356 0.000000 0.000000 0.000000
# 3 -0.005496 0.005356 0.020213 0.000000 0.000000 0.000000
# 4 0.000000 0.000000 0.000000 0.051556 0.000000 0.000000
# 5 0.000000 0.000000 0.000000 0.000000 0.010411 0.000000
# 6 0.000000 0.000000 0.000000 0.000000 0.000000 0.047661
#
#
# Mechanical properties :
#
#
# Convention : Reuss Voigt Hill
#
# Bulk Modulus (GPa) = 15.97592 35.44298 25.70945
# Shear Modulus (GPa) = 24.56229 40.79664 32.67947
#
# Velocity S-wave (km/s) = 3.42974 4.42017 3.95607
# Velocity P-wave (km/s) = 4.83065 6.55931 5.76020
#
# Compressibility (1/GPa) = 0.06259420
#
# Stress axis : x y z
#
# Youngs Moduli (GPa) = 124.14060 25.27513 49.47374
#
# Poissons Ratio (x) = 0.06265 0.27193
# Poissons Ratio (y) = 0.30772 -0.26498
# Poissons Ratio (z) = 0.68232 -0.13537
#
# Static dielectric constant tensor:
#      x y z
#    x 1.765410 0.000000 0.000000 
#    y 0.000000 1.752110 0.000000 
#    z 0.000000 0.000000 1.736320 
# 
# From -- ./inp_files/15841.got.cif
#   From: 2010.05.17/outbox.cif.g08.bks.cpg/sg38_8_cif.got.tgz:15841.got - 2010.06.03 18:07:57.
