data_PCOD9358875
_publ_section_title
;
Structure prediction by ZEFSAII (Michael W. Deem and Ramdas Pophale) SiO2 
 PCOD9358875
Probable space group: A M M 2
;
_chemical_formula_sum "Si O2"
_cell_formula_units_Z 48
_cell_length_a 16.091048
_cell_length_b 7.875777
_cell_length_c 18.459702
_cell_angle_alpha 90.000000
_cell_angle_beta 90.000000
_cell_angle_gamma 90.000000
_cell_volume 2339.388911
_symmetry_space_group_name_H-M "A M M 2"
_symmetry_group_IT_number 38
_symmetry_cell_setting 'orthorhombic'
loop_
_space_group_symop_operation_xyz
x,y,z
-x,-y,z
-x,y,z
x,-y,z
x,1/2+y,1/2+z
-x,1/2-y,1/2+z
-x,1/2+y,1/2+z
x,1/2-y,1/2+z
loop_
_atom_site_type_symbol
_atom_site_label
_atom_site_fract_x
_atom_site_fract_y
_atom_site_fract_z
Si Si1 0.500000 0.689768 0.261770
Si Si2 0.000000 0.697777 0.411977
Si Si3 0.649696 0.299651 0.661578
Si Si4 0.000000 0.802115 0.735741
Si Si5 0.819345 0.208577 0.908504
Si Si6 0.336679 0.299303 0.499284
Si Si7 0.818063 0.206661 0.739720
Si Si8 0.500000 0.807936 0.419053
O O1 0.500000 0.500000 0.291680
O O2 0.581055 0.716351 0.212823
O O3 0.500000 0.805483 0.332387
O O4 0.089436 0.769804 0.433590
O O5 0.000000 0.500000 0.434202
O O6 0.000000 0.700325 0.323868
O O7 0.629926 0.500000 0.660357
O O8 0.647540 0.230489 0.579695
O O9 0.741433 0.272790 0.693574
O O10 0.090284 0.731551 0.714515
O O11 0.000000 0.000000 0.713781
O O12 0.806768 0.255456 0.824251
O O13 0.820933 0.000000 0.909208
O O14 0.744308 0.269819 0.958283
O O15 0.321382 0.500000 0.508775
O O16 0.417232 0.276976 0.449859
O O17 0.818272 0.000000 0.737199
O O18 0.500000 0.000000 0.445918
#
# Coordination Sequence:
#
# PCOD9358875 Si02
#       8
#     4   4   8   4   8   8   8   4
#     4  12  25  42  63  81 101 137 183 224 269 330
#     4   7  10  20  43  75 103 125 166 225 266 299
#     4  11  23  37  53  79 115 147 179 226 276 319
#     4   7  12  24  46  77 105 133 180 237 278 315
#     4   8  14  27  50  77 101 132 176 222 265 310
#     4  10  21  37  55  78 112 149 179 213 264 323
#     4   9  16  30  54  79 104 140 188 235 278 328
#     4  12  25  40  61  87 109 131 169 222 273 322
#
# _framework density 20.518177999999999
#
# number of rings (size 3 to 8) (size 9 to 14) (size 15 to 20)
#    0.000    2.500    0.000    5.500    0.000    4.667 
#    0.000    1.250    0.000    2.000    0.000    1.750 
#    0.000    0.000    0.000    0.000    0.000    0.000 
#
# Total GULP energy -133897.845783 kJ/mol
# GULP energy per Si atom -5579.076908 kJ/mol
# Density = 2.047148 g / cm^3
# Si number density = 20.518178 Si / 1000 Ang^3
#
#
#
# Elastic Constant Matrix: (Units=GPa)
#
#
# Indices 1 2 3 4 5 6 
#
# 1 161.6758 -14.1434 58.9659 0.0000 0.0000 0.0000
# 2 -14.1434 26.3110 -7.4859 0.0000 0.0000 0.0000
# 3 58.9659 -7.4859 93.6100 0.0000 0.0000 0.0000
# 4 0.0000 0.0000 0.0000 3.1815 0.0000 0.0000
# 5 0.0000 0.0000 0.0000 0.0000 -30.7594 0.0000
# 6 0.0000 0.0000 0.0000 0.0000 0.0000 -205.4081
#
#
#
# Elastic Compliance Matrix: (Units=1/GPa)
#
#
# Indices 1 2 3 4 5 6 
#
# 1 0.008259 0.003028 -0.004960 0.000000 0.000000 0.000000
# 2 0.003028 0.040002 0.001291 0.000000 0.000000 0.000000
# 3 -0.004960 0.001291 0.013911 0.000000 0.000000 0.000000
# 4 0.000000 0.000000 0.000000 0.314316 0.000000 0.000000
# 5 0.000000 0.000000 0.000000 0.000000 -0.032510 0.000000
# 6 0.000000 0.000000 0.000000 0.000000 0.000000 -0.004868
#
#
# Mechanical properties :
#
#
# Convention : Reuss Voigt Hill
#
# Bulk Modulus (GPa) = 16.42288 39.58555 28.00421
# Shear Modulus (GPa) = 13.86240 -30.31319 -8.22540
#
# Velocity S-wave (km/s) = 2.60208 -3.84784 -2.00438
# Velocity P-wave (km/s) = 4.12907 0.63749 2.88468
#
# Compressibility (1/GPa) = 0.06089067
#
# Stress axis : x y z
#
# Youngs Moduli (GPa) = 121.07562 24.99860 71.88807
#
# Poissons Ratio (x) = -0.07571 0.35660
# Poissons Ratio (y) = -0.36667 -0.09283
# Poissons Ratio (z) = 0.60059 -0.03228
#
# Static dielectric constant tensor:
#      x y z
#    x 1.758950 0.000000 0.000000 
#    y 0.000000 1.756660 0.000000 
#    z 0.000000 0.000000 1.697840 
# 
# From -- ./inp_files/18222.got.cif
#   From: 2010.05.17/outbox.cif.g08.bks.cpg/sg38_10_cif.got.tgz:18222.got - 2010.06.03 18:07:57.
