data_PCOD9358411
_publ_section_title
;
Structure prediction by ZEFSAII (Michael W. Deem and Ramdas Pophale) SiO2 
 PCOD9358411
Probable space group: A M M 2
;
_chemical_formula_sum "Si O2"
_cell_formula_units_Z 64
_cell_length_a 15.755365
_cell_length_b 8.902406
_cell_length_c 24.394306
_cell_angle_alpha 90.000000
_cell_angle_beta 90.000000
_cell_angle_gamma 90.000000
_cell_volume 3421.561360
_symmetry_space_group_name_H-M "A M M 2"
_symmetry_group_IT_number 38
_symmetry_cell_setting 'orthorhombic'
loop_
_space_group_symop_operation_xyz
x,y,z
-x,-y,z
-x,y,z
x,-y,z
x,1/2+y,1/2+z
-x,1/2-y,1/2+z
-x,1/2+y,1/2+z
x,1/2-y,1/2+z
loop_
_atom_site_type_symbol
_atom_site_label
_atom_site_fract_x
_atom_site_fract_y
_atom_site_fract_z
Si Si1 0.596384 0.320952 0.111880
Si Si2 0.904271 0.680778 0.341705
Si Si3 0.096044 0.820635 0.612538
Si Si4 0.750401 0.819730 0.044646
Si Si5 0.252817 0.681045 0.417377
Si Si6 0.403803 0.818907 0.347321
Si Si7 0.351003 0.822856 0.224663
Si Si8 0.146954 0.676775 0.726439
O O1 0.500000 0.282499 0.095481
O O2 0.607017 0.500000 0.108133
O O3 0.666950 0.241207 0.075006
O O4 0.611052 0.268932 0.174390
O O5 0.898778 0.500000 0.335193
O O6 0.832053 0.727612 0.384700
O O7 0.886239 0.756226 0.283278
O O8 0.000000 0.717108 0.359865
O O9 0.167290 0.744866 0.575171
O O10 0.108996 0.761749 0.674328
O O11 0.000000 0.784451 0.594676
O O12 0.106837 0.000000 0.611731
O O13 0.751815 0.000000 0.048508
O O14 0.750052 0.774653 0.980920
O O15 0.257430 0.500000 0.415282
O O16 0.333838 0.747770 0.386439
O O17 0.500000 0.776588 0.361994
O O18 0.385342 0.776169 0.284127
O O19 0.396660 0.000000 0.349904
O O20 0.249111 0.806554 0.224759
O O21 0.370717 0.000000 0.216947
O O22 0.127171 0.500000 0.723009
#
# Coordination Sequence:
#
# PCOD9358411 Si02
#       8
#     8   8   8   8   8   8   8   8
#     4  11  24  40  61  90 121 156 197 243 297 354
#     4  10  21  38  60  86 118 156 194 237 292 349
#     4  11  24  41  62  89 121 157 195 241 298 354
#     4  11  24  42  63  87 115 156 203 248 297 346
#     4  10  23  41  61  85 115 152 198 247 292 341
#     4  10  21  38  61  88 119 155 192 234 289 349
#     4  10  20  36  60  89 121 157 194 237 294 353
#     4  11  21  35  60  92 122 155 193 237 291 349
#
# _framework density 18.704910999999999
#
# number of rings (size 3 to 8) (size 9 to 14) (size 15 to 20)
#    0.000    1.500    2.500    2.250    0.000    7.500 
#    0.000    3.750    0.000    0.000    0.000    0.000 
#    0.000    0.000    0.000    0.000    0.000    0.000 
#
# Total GULP energy -178881.005230 kJ/mol
# GULP energy per Si atom -5590.031413 kJ/mol
# Density = 1.866234 g / cm^3
# Si number density = 18.704911 Si / 1000 Ang^3
#
#
#
# Elastic Constant Matrix: (Units=GPa)
#
#
# Indices 1 2 3 4 5 6 
#
# 1 173.9284 63.6153 98.6245 0.0000 0.0000 0.0000
# 2 63.6153 45.0734 48.6381 0.0000 0.0000 0.0000
# 3 98.6245 48.6381 159.0338 0.0000 0.0000 0.0000
# 4 0.0000 0.0000 0.0000 20.7561 0.0000 0.0000
# 5 0.0000 0.0000 0.0000 0.0000 -4.4224 0.0000
# 6 0.0000 0.0000 0.0000 0.0000 0.0000 5.8572
#
#
#
# Elastic Compliance Matrix: (Units=1/GPa)
#
#
# Indices 1 2 3 4 5 6 
#
# 1 0.013208 -0.014632 -0.003716 0.000000 0.000000 0.000000
# 2 -0.014632 0.049323 -0.006011 0.000000 0.000000 0.000000
# 3 -0.003716 -0.006011 0.010431 0.000000 0.000000 0.000000
# 4 0.000000 0.000000 0.000000 0.048179 0.000000 0.000000
# 5 0.000000 0.000000 0.000000 0.000000 -0.226123 0.000000
# 6 0.000000 0.000000 0.000000 0.000000 0.000000 0.170731
#
#
# Mechanical properties :
#
#
# Convention : Reuss Voigt Hill
#
# Bulk Modulus (GPa) = 41.24623 88.86569 65.05596
# Shear Modulus (GPa) = 40.80005 15.58203 28.19104
#
# Velocity S-wave (km/s) = 4.67545 2.88938 3.88641
# Velocity P-wave (km/s) = 7.15858 7.66445 7.41583
#
# Compressibility (1/GPa) = 0.02424464
#
# Stress axis : x y z
#
# Youngs Moduli (GPa) = 75.70919 20.27447 95.86872
#
# Poissons Ratio (x) = 0.29665 0.35627
# Poissons Ratio (y) = 1.10776 0.57625
# Poissons Ratio (z) = 0.28136 0.12187
#
# Static dielectric constant tensor:
#      x y z
#    x 1.644340 0.000000 0.000000 
#    y 0.000000 1.627300 0.000000 
#    z 0.000000 0.000000 1.609400 
# 
# From -- ./inp_files/22881.got.cif
#   From: 2010.05.17/outbox.cif.g08.bks.cpg/sg38_12_cif.got.tgz:22881.got - 2010.06.03 18:07:57.
