data_PCOD9358068
_publ_section_title
;
Structure prediction by ZEFSAII (Michael W. Deem and Ramdas Pophale) SiO2 
 PCOD9358068
Probable space group: A M M 2
;
_chemical_formula_sum "Si O2"
_cell_formula_units_Z 58
_cell_length_a 18.563474
_cell_length_b 33.441006
_cell_length_c 4.976380
_cell_angle_alpha 90.000000
_cell_angle_beta 90.000000
_cell_angle_gamma 90.000000
_cell_volume 3089.243374
_symmetry_space_group_name_H-M "A M M 2"
_symmetry_group_IT_number 38
_symmetry_cell_setting 'orthorhombic'
loop_
_space_group_symop_operation_xyz
x,y,z
-x,-y,z
-x,y,z
x,-y,z
x,1/2+y,1/2+z
-x,1/2-y,1/2+z
-x,1/2+y,1/2+z
x,1/2-y,1/2+z
loop_
_atom_site_type_symbol
_atom_site_label
_atom_site_fract_x
_atom_site_fract_y
_atom_site_fract_z
Si Si1 0.233137 0.632555 0.487780
Si Si2 0.215330 0.455138 0.489630
Si Si3 0.581590 0.723065 0.807412
Si Si4 0.000000 0.000000 0.351158
Si Si5 0.082081 0.855638 0.712407
Si Si6 0.123545 0.060955 0.491841
Si Si7 0.866800 0.275304 0.939765
Si Si8 0.721918 0.679373 0.989146
O O1 0.253892 0.586790 0.418338
O O2 0.148082 0.640135 0.424587
O O3 0.250455 0.644691 0.789906
O O4 0.274218 0.662669 0.289299
O O5 0.246883 0.500000 0.469836
O O6 0.146934 0.453905 0.287401
O O7 0.189894 0.446412 0.792608
O O8 0.500000 0.707672 0.845487
O O9 0.589193 0.738555 0.503928
O O10 0.644379 0.693630 0.894768
O O11 0.061670 0.965672 0.370690
O O12 0.097100 0.893828 0.522692
O O13 0.093548 0.814680 0.548221
O O14 0.000000 0.857708 0.816833
O O15 0.883681 0.238665 0.139955
O O16 0.781732 0.285745 0.961483
#
# Coordination Sequence:
#
# PCOD9358068 Si02
#       8
#     8   8   8   2   8   8   8   8
#     4  10  22  36  55  77 104 141 183 216 273 326
#     4  11  20  36  51  74 102 133 170 222 268 323
#     4  10  20  34  57  90 121 146 172 207 257 314
#     4  12  20  38  52  82  92 130 172 206 282 386
#     4  10  22  40  53  73 101 134 176 239 283 314
#     4  11  23  35  54  75 101 128 167 216 288 352
#     4  11  22  36  54  71  93 132 181 215 256 305
#     4  11  20  38  57  79 110 141 175 217 256 314
#
# _framework density 18.774825
#
# number of rings (size 3 to 8) (size 9 to 14) (size 15 to 20)
#    0.000    1.379    2.069    5.793    0.000    2.759 
#    1.241    8.276    0.000    0.000    0.000    0.000 
#    0.000    3.310    0.000    0.000    0.000    0.000 
#
# Total GULP energy -161650.340710 kJ/mol
# GULP energy per Si atom -5574.149680 kJ/mol
# Density = 1.873209 g / cm^3
# Si number density = 18.774825 Si / 1000 Ang^3
#
#
#
# Elastic Constant Matrix: (Units=GPa)
#
#
# Indices 1 2 3 4 5 6 
#
# 1 65.7043 21.4175 -3.6130 0.0000 0.0000 0.0000
# 2 21.4175 90.1240 -0.3725 0.0000 0.0000 0.0000
# 3 -3.6130 -0.3725 52.6043 0.0000 0.0000 0.0000
# 4 0.0000 0.0000 0.0000 -1.7030 0.0000 0.0000
# 5 0.0000 0.0000 0.0000 0.0000 39.3184 0.0000
# 6 0.0000 0.0000 0.0000 0.0000 0.0000 16.6068
#
#
#
# Elastic Compliance Matrix: (Units=1/GPa)
#
#
# Indices 1 2 3 4 5 6 
#
# 1 0.016562 -0.003931 0.001110 0.000000 0.000000 0.000000
# 2 -0.003931 0.012029 -0.000185 0.000000 0.000000 0.000000
# 3 0.001110 -0.000185 0.019085 0.000000 0.000000 0.000000
# 4 0.000000 0.000000 0.000000 -0.587184 0.000000 0.000000
# 5 0.000000 0.000000 0.000000 0.000000 0.025433 0.000000
# 6 0.000000 0.000000 0.000000 0.000000 0.000000 0.060216
#
#
# Mechanical properties :
#
#
# Convention : Reuss Voigt Hill
#
# Bulk Modulus (GPa) = 24.00191 27.03295 25.51743
# Shear Modulus (GPa) = -11.52188 23.57781 6.02797
#
# Velocity S-wave (km/s) = -2.47996 3.54760 1.79378
# Velocity P-wave (km/s) = 2.14746 5.58663 4.23214
#
# Compressibility (1/GPa) = 0.04166336
#
# Stress axis : x y z
#
# Youngs Moduli (GPa) = 60.37844 83.13021 52.39778
#
# Poissons Ratio (x) = 0.32681 -0.05815
# Poissons Ratio (y) = 0.23737 0.00968
# Poissons Ratio (z) = -0.06700 0.01536
#
# Static dielectric constant tensor:
#      x y z
#    x 1.576440 0.000000 0.000000 
#    y 0.000000 1.714730 0.000000 
#    z 0.000000 0.000000 1.677230 
# 
# From -- ./inp_files/1725.got.cif
#   From: 2010.05.17/outbox.cif.g08.bks.cpg/sg38_1_cif.got.tgz:1725.got - 2010.06.03 18:07:57.
