data_PCOD9358094
_publ_section_title
;
Structure prediction by ZEFSAII (Michael W. Deem and Ramdas Pophale) SiO2 
 PCOD9358094
Probable space group: A M M 2
;
_chemical_formula_sum "Si O2"
_cell_formula_units_Z 56
_cell_length_a 9.573263
_cell_length_b 21.160914
_cell_length_c 11.651790
_cell_angle_alpha 90.000000
_cell_angle_beta 90.000000
_cell_angle_gamma 90.000000
_cell_volume 2360.407909
_symmetry_space_group_name_H-M "A M M 2"
_symmetry_group_IT_number 38
_symmetry_cell_setting 'orthorhombic'
loop_
_space_group_symop_operation_xyz
x,y,z
-x,-y,z
-x,y,z
x,-y,z
x,1/2+y,1/2+z
-x,1/2-y,1/2+z
-x,1/2+y,1/2+z
x,1/2-y,1/2+z
loop_
_atom_site_type_symbol
_atom_site_label
_atom_site_fract_x
_atom_site_fract_y
_atom_site_fract_z
Si Si1 0.332844 0.571814 0.452320
Si Si2 0.665889 0.375161 0.109847
Si Si3 0.290310 0.608064 0.715790
Si Si4 0.849308 0.831971 0.396013
Si Si5 0.347008 0.737081 0.633312
Si Si6 0.838398 0.308776 0.425855
Si Si7 0.831110 0.500000 0.104478
Si Si8 0.645855 0.000000 0.386720
O O1 0.500000 0.579604 0.438436
O O2 0.296160 0.500000 0.418363
O O3 0.297607 0.580675 0.588215
O O4 0.250729 0.629459 0.394415
O O5 0.500000 0.389535 0.107285
O O6 0.730598 0.355037 0.984975
O O7 0.756282 0.435636 0.149373
O O8 0.678930 0.307967 0.175248
O O9 0.149244 0.625430 0.782356
O O10 0.358434 0.677411 0.716292
O O11 0.354778 0.558346 0.801311
O O12 0.833971 0.758394 0.360842
O O13 0.000000 0.837423 0.456641
O O14 0.500000 0.740288 0.572385
O O15 0.226414 0.714822 0.547166
O O16 0.000000 0.327476 0.434963
O O17 0.777616 0.500000 0.971282
O O18 0.000000 0.500000 0.115297
O O19 0.500000 0.000000 0.454824
#
# Coordination Sequence:
#
# PCOD9358094 Si02
#       8
#     8   8   8   8   8   8   4   4
#     4  10  20  35  53  76 107 141 175 217 266 318
#     4  10  20  35  56  77 102 139 185 225 265 315
#     4  11  20  31  53  79 111 143 175 209 262 317
#     4  10  21  35  50  73 108 143 178 220 265 311
#     4   9  19  35  53  75 102 138 182 224 262 311
#     4   9  18  33  51  72 100 137 179 221 261 309
#     4  12  24  36  52  78 114 143 174 219 270 323
#     4  12  22  32  50  78 112 149 180 207 258 323
#
# _framework density 23.724712
#
# number of rings (size 3 to 8) (size 9 to 14) (size 15 to 20)
#    0.000    1.857    2.143    3.643    0.000    4.857 
#    0.000    0.000    0.000    0.000    1.857    0.000 
#    0.000    0.000    0.000    0.000    0.000    0.000 
#
# Total GULP energy -156043.894515 kJ/mol
# GULP energy per Si atom -5572.996233 kJ/mol
# Density = 2.367071 g / cm^3
# Si number density = 23.724712 Si / 1000 Ang^3
#
#
#
# Elastic Constant Matrix: (Units=GPa)
#
#
# Indices 1 2 3 4 5 6 
#
# 1 156.6942 78.8638 25.4196 0.0000 0.0000 0.0000
# 2 78.8638 235.2200 32.5374 0.0000 0.0000 0.0000
# 3 25.4196 32.5374 41.9763 0.0000 0.0000 0.0000
# 4 0.0000 0.0000 0.0000 49.2937 0.0000 0.0000
# 5 0.0000 0.0000 0.0000 0.0000 2.3610 0.0000
# 6 0.0000 0.0000 0.0000 0.0000 0.0000 25.0831
#
#
#
# Elastic Compliance Matrix: (Units=1/GPa)
#
#
# Indices 1 2 3 4 5 6 
#
# 1 0.008023 -0.002260 -0.003107 0.000000 0.000000 0.000000
# 2 -0.002260 0.005399 -0.002816 0.000000 0.000000 0.000000
# 3 -0.003107 -0.002816 0.027887 0.000000 0.000000 0.000000
# 4 0.000000 0.000000 0.000000 0.020287 0.000000 0.000000
# 5 0.000000 0.000000 0.000000 0.000000 0.423556 0.000000
# 6 0.000000 0.000000 0.000000 0.000000 0.000000 0.039867
#
#
# Mechanical properties :
#
#
# Convention : Reuss Voigt Hill
#
# Bulk Modulus (GPa) = 40.09101 78.61467 59.35284
# Shear Modulus (GPa) = 9.09588 35.15222 22.12405
#
# Velocity S-wave (km/s) = 1.96017 3.85342 3.05705
# Velocity P-wave (km/s) = 4.69661 7.28057 6.12637
#
# Compressibility (1/GPa) = 0.02494325
#
# Stress axis : x y z
#
# Youngs Moduli (GPa) = 124.63457 185.22978 35.85896
#
# Poissons Ratio (x) = 0.41868 0.11140
# Poissons Ratio (y) = 0.28172 0.10098
# Poissons Ratio (z) = 0.38720 0.52160
#
# Static dielectric constant tensor:
#      x y z
#    x 1.913860 0.000000 0.000000 
#    y 0.000000 1.953530 0.000000 
#    z 0.000000 0.000000 1.944650 
# 
# From -- ./inp_files/12508.got.cif
#   From: 2010.05.17/outbox.cif.g08.bks.cpg/sg38_7_cif.got.tgz:12508.got - 2010.06.03 18:07:57.
