data_PCOD9358818
_publ_section_title
;
Structure prediction by ZEFSAII (Michael W. Deem and Ramdas Pophale) SiO2 
 PCOD9358818
Probable space group: A M M 2
;
_chemical_formula_sum "Si O2"
_cell_formula_units_Z 48
_cell_length_a 8.039939
_cell_length_b 23.413103
_cell_length_c 12.069391
_cell_angle_alpha 90.000000
_cell_angle_beta 90.000000
_cell_angle_gamma 90.000000
_cell_volume 2271.941195
_symmetry_space_group_name_H-M "A M M 2"
_symmetry_group_IT_number 38
_symmetry_cell_setting 'orthorhombic'
loop_
_space_group_symop_operation_xyz
x,y,z
-x,-y,z
-x,y,z
x,-y,z
x,1/2+y,1/2+z
-x,1/2-y,1/2+z
-x,1/2+y,1/2+z
x,1/2-y,1/2+z
loop_
_atom_site_type_symbol
_atom_site_label
_atom_site_fract_x
_atom_site_fract_y
_atom_site_fract_z
Si Si1 0.195533 0.065865 0.130010
Si Si2 0.311025 0.354391 0.817850
Si Si3 0.803331 0.658598 0.452010
Si Si4 0.195677 0.359830 0.207479
Si Si5 0.199400 0.564540 0.013798
Si Si6 0.697061 0.739207 0.648935
O O1 0.302897 0.098994 0.219761
O O2 0.000000 0.071144 0.163769
O O3 0.237727 0.000000 0.123525
O O4 0.212419 0.098123 0.014177
O O5 0.500000 0.340430 0.848527
O O6 0.238641 0.298514 0.754599
O O7 0.233093 0.387410 0.921073
O O8 0.731929 0.652094 0.329241
O O9 0.725170 0.704193 0.535961
O O10 0.000000 0.672870 0.445362
O O11 0.264630 0.410226 0.130366
O O12 0.215942 0.300010 0.144240
O O13 0.000000 0.372217 0.224071
O O14 0.261196 0.500000 0.988191
O O15 0.000000 0.560591 0.021621
O O16 0.500000 0.747038 0.663709
#
# Coordination Sequence:
#
# PCOD9358818 Si02
#       6
#     8   8   8   8   8   8
#     4   9  17  31  54  82 110 142 180 225 277 329
#     4  10  21  36  55  82 113 148 188 233 280 328
#     4   9  19  36  56  81 110 141 182 228 278 336
#     4  10  22  38  58  83 111 147 187 231 282 339
#     4  10  22  39  58  83 116 153 191 232 282 339
#     4  10  22  38  57  82 113 146 186 235 287 337
#
# _framework density 21.127306000000001
#
# number of rings (size 3 to 8) (size 9 to 14) (size 15 to 20)
#    0.000    2.333    0.000    1.500    2.333    6.667 
#    0.000    3.333    0.000    0.000    0.000    4.667 
#    0.000    0.000    0.000    0.000    0.000    0.000 
#
# Total GULP energy -133874.651555 kJ/mol
# GULP energy per Si atom -5578.110481 kJ/mol
# Density = 2.107922 g / cm^3
# Si number density = 21.127306 Si / 1000 Ang^3
#
#
#
# Elastic Constant Matrix: (Units=GPa)
#
#
# Indices 1 2 3 4 5 6 
#
# 1 16.1763 -0.1343 5.4645 0.0000 0.0000 0.0000
# 2 -0.1343 51.2701 10.1861 0.0000 0.0000 0.0000
# 3 5.4645 10.1861 99.6333 0.0000 0.0000 0.0000
# 4 0.0000 0.0000 0.0000 12.4819 0.0000 0.0000
# 5 0.0000 0.0000 0.0000 0.0000 -76.9910 0.0000
# 6 0.0000 0.0000 0.0000 0.0000 0.0000 -0.6120
#
#
#
# Elastic Compliance Matrix: (Units=1/GPa)
#
#
# Indices 1 2 3 4 5 6 
#
# 1 0.063024 0.000869 -0.003546 0.000000 0.000000 0.000000
# 2 0.000869 0.019921 -0.002084 0.000000 0.000000 0.000000
# 3 -0.003546 -0.002084 0.010444 0.000000 0.000000 0.000000
# 4 0.000000 0.000000 0.000000 0.080116 0.000000 0.000000
# 5 0.000000 0.000000 0.000000 0.000000 -0.012989 0.000000
# 6 0.000000 0.000000 0.000000 0.000000 0.000000 -1.634031
#
#
# Mechanical properties :
#
#
# Convention : Reuss Voigt Hill
#
# Bulk Modulus (GPa) = 11.92345 22.01250 16.96797
# Shear Modulus (GPa) = -3.48180 -2.92001 -3.20091
#
# Velocity S-wave (km/s) = -1.28514 -1.17690 -1.23221
# Velocity P-wave (km/s) = 1.85843 2.93169 2.45444
#
# Compressibility (1/GPa) = 0.08386838
#
# Stress axis : x y z
#
# Youngs Moduli (GPa) = 15.86699 50.19849 95.74546
#
# Poissons Ratio (x) = -0.04364 0.33947
# Poissons Ratio (y) = -0.01380 0.19956
# Poissons Ratio (z) = 0.05626 0.10463
#
# Static dielectric constant tensor:
#      x y z
#    x 1.868230 0.000000 0.000000 
#    y 0.000000 1.758180 0.000000 
#    z 0.000000 0.000000 1.785960 
# 
# From -- ./inp_files/8128.got.cif
#   From: 2010.05.17/outbox.cif.g08.bks.cpg/sg38_5_cif.got.tgz:8128.got - 2010.06.03 18:07:57.
