data_PCOD9358694
_publ_section_title
;
Structure prediction by ZEFSAII (Michael W. Deem and Ramdas Pophale) SiO2 
 PCOD9358694
Probable space group: A M M 2
;
_chemical_formula_sum "Si O2"
_cell_formula_units_Z 58
_cell_length_a 15.501300
_cell_length_b 8.006845
_cell_length_c 25.687835
_cell_angle_alpha 90.000000
_cell_angle_beta 90.000000
_cell_angle_gamma 90.000000
_cell_volume 3188.284337
_symmetry_space_group_name_H-M "A M M 2"
_symmetry_group_IT_number 38
_symmetry_cell_setting 'orthorhombic'
loop_
_space_group_symop_operation_xyz
x,y,z
-x,-y,z
-x,y,z
x,-y,z
x,1/2+y,1/2+z
-x,1/2-y,1/2+z
-x,1/2+y,1/2+z
x,1/2-y,1/2+z
loop_
_atom_site_type_symbol
_atom_site_label
_atom_site_fract_x
_atom_site_fract_y
_atom_site_fract_z
Si Si1 0.403400 0.305194 0.988310
Si Si2 0.229912 0.305475 0.532746
Si Si3 0.500000 0.000000 0.347947
Si Si4 0.900855 0.298328 0.240683
Si Si5 0.904379 0.701552 0.945298
Si Si6 0.901701 0.798311 0.621903
Si Si7 0.191008 0.303727 0.843514
Si Si8 0.623407 0.687152 0.372831
O O1 0.500000 0.264654 0.008369
O O2 0.405136 0.500000 0.972443
O O3 0.387030 0.203889 0.935375
O O4 0.322793 0.281475 0.026489
O O5 0.247885 0.500000 0.534444
O O6 0.170789 0.265020 0.482693
O O7 0.170910 0.257232 0.581772
O O8 0.426475 0.151780 0.350326
O O9 0.895883 0.500000 0.242205
O O10 0.882043 0.245963 0.181263
O O11 0.840625 0.227116 0.285265
O O12 0.000000 0.250356 0.251569
O O13 0.904913 0.500000 0.950080
O O14 0.881572 0.744807 0.885864
O O15 0.000000 0.762344 0.959851
O O16 0.000000 0.742041 0.608669
O O17 0.903864 0.000000 0.620983
O O18 0.207592 0.500000 0.851453
O O19 0.277277 0.206347 0.857281
O O20 0.595037 0.500000 0.357389
#
# Coordination Sequence:
#
# PCOD9358694 Si02
#       8
#     8   8   2   8   8   8   8   8
#     4  11  21  38  58  82 111 148 193 239 290 351
#     4  12  24  34  52  83 115 148 188 236 294 351
#     4  12  22  40  56  86 114 156 198 244 300 354
#     4   9  19  36  58  83 111 148 198 247 290 344
#     4  10  21  35  51  72 109 158 193 222 273 345
#     4   9  19  38  60  80 108 151 198 243 293 348
#     4  11  21  35  54  83 118 154 195 235 290 356
#     4  12  22  36  58  84 118 154 194 244 294 353
#
# _framework density 18.191600999999999
#
# number of rings (size 3 to 8) (size 9 to 14) (size 15 to 20)
#    0.000    1.379    3.448    3.931    0.000    4.966 
#    0.000    1.379    0.000    0.000    1.793    0.000 
#    0.000    0.000    0.000    0.000    0.000    0.000 
#
# Total GULP energy -161612.814888 kJ/mol
# GULP energy per Si atom -5572.855686 kJ/mol
# Density = 1.815020 g / cm^3
# Si number density = 18.191601 Si / 1000 Ang^3
#
#
#
# Elastic Constant Matrix: (Units=GPa)
#
#
# Indices 1 2 3 4 5 6 
#
# 1 136.4644 28.6262 52.0556 0.0000 0.0000 0.0000
# 2 28.6262 83.8783 12.4694 0.0000 0.0000 0.0000
# 3 52.0556 12.4694 73.3318 0.0000 0.0000 0.0000
# 4 0.0000 0.0000 0.0000 23.4232 0.0000 0.0000
# 5 0.0000 0.0000 0.0000 0.0000 33.5617 0.0000
# 6 0.0000 0.0000 0.0000 0.0000 0.0000 8.0001
#
#
#
# Elastic Compliance Matrix: (Units=1/GPa)
#
#
# Indices 1 2 3 4 5 6 
#
# 1 0.010556 -0.002553 -0.007059 0.000000 0.000000 0.000000
# 2 -0.002553 0.012849 -0.000372 0.000000 0.000000 0.000000
# 3 -0.007059 -0.000372 0.018711 0.000000 0.000000 0.000000
# 4 0.000000 0.000000 0.000000 0.042693 0.000000 0.000000
# 5 0.000000 0.000000 0.000000 0.000000 0.029796 0.000000
# 6 0.000000 0.000000 0.000000 0.000000 0.000000 0.124999
#
#
# Mechanical properties :
#
#
# Convention : Reuss Voigt Hill
#
# Bulk Modulus (GPa) = 45.15434 53.33077 49.24256
# Shear Modulus (GPa) = 18.72965 26.36521 22.54743
#
# Velocity S-wave (km/s) = 3.21218 3.81111 3.52439
# Velocity P-wave (km/s) = 6.21554 6.98182 6.60979
#
# Compressibility (1/GPa) = 0.02214626
#
# Stress axis : x y z
#
# Youngs Moduli (GPa) = 94.72909 77.82849 53.44383
#
# Poissons Ratio (x) = 0.19872 0.37728
# Poissons Ratio (y) = 0.24187 0.01990
# Poissons Ratio (z) = 0.66874 0.02898
#
# Static dielectric constant tensor:
#      x y z
#    x 1.644380 0.000000 0.000000 
#    y 0.000000 1.653110 0.000000 
#    z 0.000000 0.000000 1.608500 
# 
# From -- ./inp_files/22791.got.cif
#   From: 2010.05.17/outbox.cif.g08.bks.cpg/sg38_12_cif.got.tgz:22791.got - 2010.06.03 18:07:57.
