data_PCOD9358614
_publ_section_title
;
Structure prediction by ZEFSAII (Michael W. Deem and Ramdas Pophale) SiO2 
 PCOD9358614
Probable space group: A M M 2
;
_chemical_formula_sum "Si O2"
_cell_formula_units_Z 58
_cell_length_a 7.878942
_cell_length_b 18.466308
_cell_length_c 17.604550
_cell_angle_alpha 90.000000
_cell_angle_beta 90.000000
_cell_angle_gamma 90.000000
_cell_volume 2561.373469
_symmetry_space_group_name_H-M "A M M 2"
_symmetry_group_IT_number 38
_symmetry_cell_setting 'orthorhombic'
loop_
_space_group_symop_operation_xyz
x,y,z
-x,-y,z
-x,y,z
x,-y,z
x,1/2+y,1/2+z
-x,1/2-y,1/2+z
-x,1/2+y,1/2+z
x,1/2-y,1/2+z
loop_
_atom_site_type_symbol
_atom_site_label
_atom_site_fract_x
_atom_site_fract_y
_atom_site_fract_z
Si Si1 0.699641 0.917084 0.995030
Si Si2 0.188889 0.108125 0.249034
Si Si3 0.500000 0.500000 0.722852
Si Si4 0.199432 0.198023 0.115346
Si Si5 0.306735 0.654453 0.903807
Si Si6 0.792381 0.919235 0.731966
Si Si7 0.205556 0.856396 0.573012
Si Si8 0.803615 0.186053 0.862548
O O1 0.500000 0.918315 0.976476
O O2 0.793270 0.874619 0.928163
O O3 0.756762 0.000000 0.005309
O O4 0.722781 0.869065 0.070199
O O5 0.211854 0.184212 0.204976
O O6 0.195077 0.118104 0.338906
O O7 0.000000 0.082400 0.226191
O O8 0.348440 0.061120 0.225341
O O9 0.268788 0.275074 0.090655
O O10 0.000000 0.198453 0.095251
O O11 0.500000 0.635486 0.886624
O O12 0.284007 0.741228 0.893609
O O13 0.263985 0.627711 0.988041
O O14 0.742200 0.905017 0.644611
O O15 0.734620 0.854907 0.787773
O O16 0.000000 0.917737 0.734983
O O17 0.738888 0.000000 0.756477
O O18 0.000000 0.856527 0.572635
O O19 0.000000 0.205897 0.849126
#
# Coordination Sequence:
#
# PCOD9358614 Si02
#       8
#     8   8   2   8   8   8   8   8
#     4  11  24  37  56  89 131 172 213 270 337 402
#     4  11  25  46  71  98 133 179 226 279 340 403
#     4  12  26  48  68 102 136 172 226 284 340 410
#     4  10  22  39  63  93 126 170 222 271 329 403
#     4  12  24  42  64  96 131 170 225 280 338 396
#     4   9  19  37  63  95 128 165 214 272 336 408
#     4  10  20  39  65  95 129 168 220 277 334 401
#     4  11  21  38  65  93 126 170 220 272 334 408
#
# _framework density 22.644100000000002
#
# number of rings (size 3 to 8) (size 9 to 14) (size 15 to 20)
#    0.000    1.379    2.069    3.517    1.931    3.862 
#    1.241    1.379    0.000    1.655    0.000    0.000 
#    0.000    0.000    0.000    0.000    0.000    0.000 
#
# Total GULP energy -161806.206776 kJ/mol
# GULP energy per Si atom -5579.524372 kJ/mol
# Density = 2.259256 g / cm^3
# Si number density = 22.644100 Si / 1000 Ang^3
#
#
#
# Elastic Constant Matrix: (Units=GPa)
#
#
# Indices 1 2 3 4 5 6 
#
# 1 88.2793 5.9633 -0.5164 0.0000 0.0000 0.0000
# 2 5.9633 33.4486 -13.3803 0.0000 0.0000 0.0000
# 3 -0.5164 -13.3803 102.0379 0.0000 0.0000 0.0000
# 4 0.0000 0.0000 0.0000 -8.9138 0.0000 0.0000
# 5 0.0000 0.0000 0.0000 0.0000 -18.0526 0.0000
# 6 0.0000 0.0000 0.0000 0.0000 0.0000 19.6874
#
#
#
# Elastic Compliance Matrix: (Units=1/GPa)
#
#
# Indices 1 2 3 4 5 6 
#
# 1 0.011471 -0.002134 -0.000222 0.000000 0.000000 0.000000
# 2 -0.002134 0.031949 0.004179 0.000000 0.000000 0.000000
# 3 -0.000222 0.004179 0.010347 0.000000 0.000000 0.000000
# 4 0.000000 0.000000 0.000000 -0.112186 0.000000 0.000000
# 5 0.000000 0.000000 0.000000 0.000000 -0.055394 0.000000
# 6 0.000000 0.000000 0.000000 0.000000 0.000000 0.050794
#
#
# Mechanical properties :
#
#
# Convention : Reuss Voigt Hill
#
# Bulk Modulus (GPa) = 17.41778 23.09990 20.25884
# Shear Modulus (GPa) = -105.19993 13.99083 -45.60455
#
# Velocity S-wave (km/s) = -6.82340 2.48837 -4.49260
# Velocity P-wave (km/s) = 7.37359 4.29877 4.23618
#
# Compressibility (1/GPa) = 0.05741259
#
# Stress axis : x y z
#
# Youngs Moduli (GPa) = 87.18007 31.30033 96.64533
#
# Poissons Ratio (x) = 0.06679 0.02143
# Poissons Ratio (y) = 0.18602 -0.40385
# Poissons Ratio (z) = 0.01933 -0.13079
#
# Static dielectric constant tensor:
#      x y z
#    x 1.821640 0.000000 0.000000 
#    y 0.000000 1.836810 0.000000 
#    z 0.000000 0.000000 1.850690 
# 
# From -- ./inp_files/16998.got.cif
#   From: 2010.05.17/outbox.cif.g08.bks.cpg/sg38_9_cif.got.tgz:16998.got - 2010.06.03 18:07:57.
