data_PCOD9358889
_publ_section_title
;
Structure prediction by ZEFSAII (Michael W. Deem and Ramdas Pophale) SiO2 
 PCOD9358889
Probable space group: A M M 2
;
_chemical_formula_sum "Si O2"
_cell_formula_units_Z 56
_cell_length_a 21.766308
_cell_length_b 7.970654
_cell_length_c 15.993535
_cell_angle_alpha 90.000000
_cell_angle_beta 90.000000
_cell_angle_gamma 90.000000
_cell_volume 2774.745735
_symmetry_space_group_name_H-M "A M M 2"
_symmetry_group_IT_number 38
_symmetry_cell_setting 'orthorhombic'
loop_
_space_group_symop_operation_xyz
x,y,z
-x,-y,z
-x,y,z
x,-y,z
x,1/2+y,1/2+z
-x,1/2-y,1/2+z
-x,1/2+y,1/2+z
x,1/2-y,1/2+z
loop_
_atom_site_type_symbol
_atom_site_label
_atom_site_fract_x
_atom_site_fract_y
_atom_site_fract_z
Si Si1 0.352289 0.299916 0.658800
Si Si2 0.429483 0.297708 0.815716
Si Si3 0.000000 0.795863 0.551697
Si Si4 0.000000 0.702119 0.247201
Si Si5 0.570489 0.202278 0.001772
Si Si6 0.865860 0.801607 0.301829
Si Si7 0.132607 0.294183 0.987840
Si Si8 0.787155 0.696711 0.143857
O O1 0.362099 0.500000 0.659071
O O2 0.385521 0.233902 0.742271
O O3 0.385892 0.233930 0.575523
O O4 0.279949 0.270972 0.656995
O O5 0.500000 0.238118 0.804422
O O6 0.430872 0.500000 0.811902
O O7 0.408905 0.250286 0.908793
O O8 0.062918 0.739782 0.508388
O O9 0.000000 0.747992 0.649293
O O10 0.000000 0.000000 0.549557
O O11 0.061816 0.769210 0.288980
O O12 0.000000 0.500000 0.251004
O O13 0.500000 0.261766 0.012932
O O14 0.569198 0.000000 0.005497
O O15 0.848626 0.741014 0.394791
O O16 0.829093 0.720755 0.225599
O O17 0.854183 0.000000 0.297666
O O18 0.132185 0.500000 0.988567
O O19 0.176888 0.235903 0.062402
O O20 0.778772 0.500000 0.129808
#
# Coordination Sequence:
#
# PCOD9358889 Si02
#       8
#     8   8   4   4   8   8   8   8
#     4  10  21  37  56  79 111 149 187 226 276 332
#     4   9  18  34  57  83 111 145 185 226 272 333
#     4   9  15  31  59  82 105 139 178 216 265 324
#     4  11  20  35  61  88 117 147 180 226 281 332
#     4   9  18  34  57  84 113 144 181 230 283 327
#     4  11  22  38  61  86 111 143 188 233 277 329
#     4   9  19  36  59  81 105 145 185 221 272 336
#     4  11  23  40  58  79 110 150 191 230 277 330
#
# _framework density 20.182027999999999
#
# number of rings (size 3 to 8) (size 9 to 14) (size 15 to 20)
#    0.000    2.143    1.429    1.929    0.000    5.143 
#    0.000    7.143    0.000    4.286    0.000    0.000 
#    0.000    0.000    0.000    0.000    0.000    0.000 
#
# Total GULP energy -156362.008924 kJ/mol
# GULP energy per Si atom -5584.357462 kJ/mol
# Density = 2.013609 g / cm^3
# Si number density = 20.182028 Si / 1000 Ang^3
#
#
#
# Elastic Constant Matrix: (Units=GPa)
#
#
# Indices 1 2 3 4 5 6 
#
# 1 105.2663 -9.5975 79.0086 0.0000 0.0000 0.0000
# 2 -9.5975 14.7195 -4.4088 0.0000 0.0000 0.0000
# 3 79.0086 -4.4088 166.8325 0.0000 0.0000 0.0000
# 4 0.0000 0.0000 0.0000 22.8114 0.0000 0.0000
# 5 0.0000 0.0000 0.0000 0.0000 -8.3646 0.0000
# 6 0.0000 0.0000 0.0000 0.0000 0.0000 17.2468
#
#
#
# Elastic Compliance Matrix: (Units=1/GPa)
#
#
# Indices 1 2 3 4 5 6 
#
# 1 0.015628 0.008037 -0.007189 0.000000 0.000000 0.000000
# 2 0.008037 0.072612 -0.001887 0.000000 0.000000 0.000000
# 3 -0.007189 -0.001887 0.009349 0.000000 0.000000 0.000000
# 4 0.000000 0.000000 0.000000 0.043838 0.000000 0.000000
# 5 0.000000 0.000000 0.000000 0.000000 -0.119551 0.000000
# 6 0.000000 0.000000 0.000000 0.000000 0.000000 0.057982
#
#
# Mechanical properties :
#
#
# Convention : Reuss Voigt Hill
#
# Bulk Modulus (GPa) = 10.47010 46.31365 28.39187
# Shear Modulus (GPa) = 43.94760 21.12645 32.53702
#
# Velocity S-wave (km/s) = 4.67150 3.23893 4.01955
# Velocity P-wave (km/s) = 5.85630 6.08156 5.96999
#
# Compressibility (1/GPa) = 0.09551011
#
# Stress axis : x y z
#
# Youngs Moduli (GPa) = 63.98762 13.77186 106.96778
#
# Poissons Ratio (x) = -0.11068 0.76896
# Poissons Ratio (y) = -0.51425 0.20186
# Poissons Ratio (z) = 0.45999 0.02599
#
# Static dielectric constant tensor:
#      x y z
#    x 1.688690 0.000000 0.000000 
#    y 0.000000 1.731290 0.000000 
#    z 0.000000 0.000000 1.716330 
# 
# From -- ./inp_files/15549.got.cif
#   From: 2010.05.17/outbox.cif.g08.bks.cpg/sg38_8_cif.got.tgz:15549.got - 2010.06.03 18:07:57.
