data_PCOD9358805
_publ_section_title
;
Structure prediction by ZEFSAII (Michael W. Deem and Ramdas Pophale) SiO2 
 PCOD9358805
Probable space group: A M M 2
;
_chemical_formula_sum "Si O2"
_cell_formula_units_Z 48
_cell_length_a 11.338087
_cell_length_b 7.316149
_cell_length_c 24.678538
_cell_angle_alpha 90.000000
_cell_angle_beta 90.000000
_cell_angle_gamma 90.000000
_cell_volume 2047.112709
_symmetry_space_group_name_H-M "A M M 2"
_symmetry_group_IT_number 38
_symmetry_cell_setting 'orthorhombic'
loop_
_space_group_symop_operation_xyz
x,y,z
-x,-y,z
-x,y,z
x,-y,z
x,1/2+y,1/2+z
-x,1/2-y,1/2+z
-x,1/2+y,1/2+z
x,1/2-y,1/2+z
loop_
_atom_site_type_symbol
_atom_site_label
_atom_site_fract_x
_atom_site_fract_y
_atom_site_fract_z
Si Si1 0.867173 0.277242 0.196930
Si Si2 0.500000 0.278142 0.088471
Si Si3 0.712117 0.722098 0.290344
Si Si4 0.634208 0.717608 0.408780
Si Si5 0.756833 0.776969 0.584881
Si Si6 0.500000 0.778615 0.712928
Si Si7 0.871157 0.218671 0.477952
O O1 0.861801 0.500000 0.196857
O O2 0.827835 0.220475 0.257236
O O3 0.787194 0.219011 0.145959
O O4 0.000000 0.222201 0.185585
O O5 0.500000 0.500000 0.085769
O O6 0.625956 0.218195 0.066242
O O7 0.500000 0.220349 0.151284
O O8 0.714708 0.500000 0.294183
O O9 0.675560 0.787885 0.349539
O O10 0.611839 0.774850 0.247679
O O11 0.500000 0.785022 0.423058
O O12 0.621846 0.500000 0.404535
O O13 0.748673 0.745000 0.446608
O O14 0.849899 0.719529 0.539770
O O15 0.756652 0.000000 0.585963
O O16 0.500000 0.000000 0.710549
O O17 0.000000 0.285436 0.457438
O O18 0.878618 0.000000 0.478445
#
# Coordination Sequence:
#
# PCOD9358805 Si02
#       7
#     8   4   8   8   8   4   8
#     4   9  15  22  36  62  96 130 160 196 248 308
#     4   9  14  20  37  66  95 127 161 196 251 316
#     4   9  15  25  42  65  96 129 159 197 249 307
#     4  10  21  36  55  79 106 138 177 221 266 310
#     4   9  16  26  42  66  98 130 163 206 256 309
#     4   9  12  20  37  60  93 127 153 184 241 308
#     4  10  22  38  54  74 104 143 182 219 261 309
#
# _framework density 23.447658000000001
#
# number of rings (size 3 to 8) (size 9 to 14) (size 15 to 20)
#    0.000    2.667    2.500    0.500    1.167    3.333 
#    0.000    1.667    0.000    0.000    0.000    1.167 
#    0.000    2.667    0.000    0.000    0.000    0.000 
#
# Total GULP energy -133829.821645 kJ/mol
# GULP energy per Si atom -5576.242569 kJ/mol
# Density = 2.339429 g / cm^3
# Si number density = 23.447658 Si / 1000 Ang^3
#
#
#
# Elastic Constant Matrix: (Units=GPa)
#
#
# Indices 1 2 3 4 5 6 
#
# 1 190.0504 4.7314 67.4930 0.0000 0.0000 0.0000
# 2 4.7314 94.1556 1.4132 0.0000 0.0000 0.0000
# 3 67.4930 1.4132 90.5237 0.0000 0.0000 0.0000
# 4 0.0000 0.0000 0.0000 -6.4908 0.0000 0.0000
# 5 0.0000 0.0000 0.0000 0.0000 15.9967 0.0000
# 6 0.0000 0.0000 0.0000 0.0000 0.0000 -0.7873
#
#
#
# Elastic Compliance Matrix: (Units=1/GPa)
#
#
# Indices 1 2 3 4 5 6 
#
# 1 0.007164 -0.000280 -0.005337 0.000000 0.000000 0.000000
# 2 -0.000280 0.010634 0.000043 0.000000 0.000000 0.000000
# 3 -0.005337 0.000043 0.015025 0.000000 0.000000 0.000000
# 4 0.000000 0.000000 0.000000 -0.154064 0.000000 0.000000
# 5 0.000000 0.000000 0.000000 0.000000 0.062513 0.000000
# 6 0.000000 0.000000 0.000000 0.000000 0.000000 -1.270132
#
#
# Mechanical properties :
#
#
# Convention : Reuss Voigt Hill
#
# Bulk Modulus (GPa) = 46.13597 58.00052 52.06825
# Shear Modulus (GPa) = -3.81538 21.81653 9.00058
#
# Velocity S-wave (km/s) = -1.27700 3.05361 1.96136
# Velocity P-wave (km/s) = 4.18862 6.10103 5.23293
#
# Compressibility (1/GPa) = 0.02167506
#
# Stress axis : x y z
#
# Youngs Moduli (GPa) = 139.58511 94.03676 66.55405
#
# Poissons Ratio (x) = 0.02632 0.35520
# Poissons Ratio (y) = 0.03907 -0.00284
# Poissons Ratio (z) = 0.74497 -0.00401
#
# Static dielectric constant tensor:
#      x y z
#    x 2.156780 0.000000 0.000000 
#    y 0.000000 1.963160 0.000000 
#    z 0.000000 0.000000 1.837350 
# 
# From -- ./inp_files/22494.got.cif
#   From: 2010.05.17/outbox.cif.g08.bks.cpg/sg38_12_cif.got.tgz:22494.got - 2010.06.03 18:07:57.
