data_PCOD9358192
_publ_section_title
;
Structure prediction by ZEFSAII (Michael W. Deem and Ramdas Pophale) SiO2 
 PCOD9358192
Probable space group: A M M 2
;
_chemical_formula_sum "Si O2"
_cell_formula_units_Z 40
_cell_length_a 9.417157
_cell_length_b 8.315447
_cell_length_c 26.474216
_cell_angle_alpha 90.000000
_cell_angle_beta 90.000000
_cell_angle_gamma 90.000000
_cell_volume 2073.139463
_symmetry_space_group_name_H-M "A M M 2"
_symmetry_group_IT_number 38
_symmetry_cell_setting 'orthorhombic'
loop_
_space_group_symop_operation_xyz
x,y,z
-x,-y,z
-x,y,z
x,-y,z
x,1/2+y,1/2+z
-x,1/2-y,1/2+z
-x,1/2+y,1/2+z
x,1/2-y,1/2+z
loop_
_atom_site_type_symbol
_atom_site_label
_atom_site_fract_x
_atom_site_fract_y
_atom_site_fract_z
Si Si1 0.335957 0.192129 0.627230
Si Si2 0.836666 0.803289 0.336755
Si Si3 0.837707 0.691914 0.531539
Si Si4 0.662421 0.805963 0.435015
Si Si5 0.664417 0.694253 0.738415
O O1 0.500000 0.247900 0.620373
O O2 0.236444 0.261996 0.584027
O O3 0.291415 0.241750 0.683654
O O4 0.335049 0.000000 0.623249
O O5 0.746719 0.749852 0.385314
O O6 0.761810 0.751971 0.284799
O O7 0.000000 0.751579 0.339869
O O8 0.835775 0.000000 0.336907
O O9 0.840422 0.500000 0.527430
O O10 0.746047 0.758785 0.485257
O O11 0.000000 0.752412 0.529397
O O12 0.500000 0.747215 0.435822
O O13 0.657759 0.000000 0.432751
O O14 0.500000 0.742414 0.747013
O O15 0.668257 0.500000 0.736739
#
# Coordination Sequence:
#
# PCOD9358192 Si02
#       5
#     8   8   8   8   8
#     4  10  21  37  57  81 108 140 180 223 267 318
#     4   9  17  30  51  79 109 141 178 220 265 313
#     4  11  24  39  55  78 108 141 178 221 270 323
#     4  10  20  35  57  83 109 140 180 222 264 315
#     4   9  17  31  52  77 106 141 180 221 264 312
#
# _framework density 19.294408000000001
#
# number of rings (size 3 to 8) (size 9 to 14) (size 15 to 20)
#    0.000    2.200    0.000    3.000    0.000    9.600 
#    0.000    3.000    0.000    3.600    0.000    0.000 
#    0.000    0.000    0.000    0.000    0.000    0.000 
#
# Total GULP energy -111704.974794 kJ/mol
# GULP energy per Si atom -5585.248740 kJ/mol
# Density = 1.925049 g / cm^3
# Si number density = 19.294408 Si / 1000 Ang^3
#
#
#
# Elastic Constant Matrix: (Units=GPa)
#
#
# Indices 1 2 3 4 5 6 
#
# 1 175.0318 17.5577 128.2865 0.0000 0.0000 0.0000
# 2 17.5577 8.9804 11.6839 0.0000 0.0000 0.0000
# 3 128.2865 11.6839 175.3036 0.0000 0.0000 0.0000
# 4 0.0000 0.0000 0.0000 29.9177 0.0000 0.0000
# 5 0.0000 0.0000 0.0000 0.0000 -82.3887 0.0000
# 6 0.0000 0.0000 0.0000 0.0000 0.0000 17.8659
#
#
#
# Elastic Compliance Matrix: (Units=1/GPa)
#
#
# Indices 1 2 3 4 5 6 
#
# 1 0.014033 -0.015412 -0.009242 0.000000 0.000000 0.000000
# 2 -0.015412 0.138853 0.002024 0.000000 0.000000 0.000000
# 3 -0.009242 0.002024 0.012333 0.000000 0.000000 0.000000
# 4 0.000000 0.000000 0.000000 0.033425 0.000000 0.000000
# 5 0.000000 0.000000 0.000000 0.000000 -0.012138 0.000000
# 6 0.000000 0.000000 0.000000 0.000000 0.000000 0.055972
#
#
# Mechanical properties :
#
#
# Convention : Reuss Voigt Hill
#
# Bulk Modulus (GPa) = 8.33623 74.93022 41.63322
# Shear Modulus (GPa) = 15.25669 6.53151 10.89410
#
# Velocity S-wave (km/s) = 2.81505 1.84188 2.37876
# Velocity P-wave (km/s) = 3.85952 6.59112 5.40087
#
# Compressibility (1/GPa) = 0.11995828
#
# Stress axis : x y z
#
# Youngs Moduli (GPa) = 71.25979 7.20188 81.08384
#
# Poissons Ratio (x) = 0.11099 0.74939
# Poissons Ratio (y) = 1.09825 -0.16411
# Poissons Ratio (z) = 0.65860 -0.01458
#
# Static dielectric constant tensor:
#      x y z
#    x 1.666270 0.000000 0.000000 
#    y 0.000000 1.673980 0.000000 
#    z 0.000000 0.000000 1.631900 
# 
# From -- ./inp_files/21661.got.cif
#   From: 2010.05.17/outbox.cif.g08.bks.cpg/sg38_11_cif.got.tgz:21661.got - 2010.06.03 18:07:57.
