data_PCOD9358459
_publ_section_title
;
Structure prediction by ZEFSAII (Michael W. Deem and Ramdas Pophale) SiO2 
 PCOD9358459
Probable space group: A M M 2
;
_chemical_formula_sum "Si O2"
_cell_formula_units_Z 64
_cell_length_a 15.351561
_cell_length_b 7.460557
_cell_length_c 25.138378
_cell_angle_alpha 90.000000
_cell_angle_beta 90.000000
_cell_angle_gamma 90.000000
_cell_volume 2879.128495
_symmetry_space_group_name_H-M "A M M 2"
_symmetry_group_IT_number 38
_symmetry_cell_setting 'orthorhombic'
loop_
_space_group_symop_operation_xyz
x,y,z
-x,-y,z
-x,y,z
x,-y,z
x,1/2+y,1/2+z
-x,1/2-y,1/2+z
-x,1/2+y,1/2+z
x,1/2-y,1/2+z
loop_
_atom_site_type_symbol
_atom_site_label
_atom_site_fract_x
_atom_site_fract_y
_atom_site_fract_z
Si Si1 0.636917 0.216903 0.929970
Si Si2 0.594702 0.218680 0.048747
Si Si3 0.228454 0.203975 0.765299
Si Si4 0.093467 0.707485 0.848449
Si Si5 0.789799 0.783385 0.072857
Si Si6 0.833592 0.715340 0.456273
Si Si7 0.405329 0.719487 0.311644
Si Si8 0.901032 0.211723 0.677215
O O1 0.738299 0.263297 0.934094
O O2 0.601468 0.278340 0.873351
O O3 0.628904 0.000000 0.929915
O O4 0.597556 0.274068 0.986429
O O5 0.500000 0.274739 0.071076
O O6 0.687744 0.276188 0.073802
O O7 0.596064 0.000000 0.049898
O O8 0.173953 0.199300 0.820030
O O9 0.322297 0.284862 0.778538
O O10 0.163214 0.288223 0.722422
O O11 0.245480 0.000000 0.747313
O O12 0.097940 0.500000 0.833262
O O13 0.100475 0.718326 0.912027
O O14 0.000000 0.781417 0.830690
O O15 0.849675 0.730741 0.121946
O O16 0.786985 0.000000 0.071309
O O17 0.833252 0.722662 0.017188
O O18 0.840628 0.500000 0.457110
O O19 0.500000 0.769913 0.290353
O O20 0.400631 0.500000 0.312629
O O21 0.000000 0.284186 0.676013
O O22 0.909261 0.000000 0.688607
#
# Coordination Sequence:
#
# PCOD9358459 Si02
#       8
#     8   8   8   8   8   8   8   8
#     4   8  12  21  41  72 105 135 167 203 241 289
#     4   8  13  23  43  74 110 141 169 204 249 304
#     4  10  20  37  58  78 103 136 177 221 261 310
#     4  11  23  35  50  77 109 140 173 213 267 322
#     4   9  19  34  55  82 107 133 175 225 265 303
#     4   9  17  32  52  76 107 141 174 211 257 310
#     4   9  15  24  46  80 109 132 165 210 255 300
#     4  10  22  39  57  75  98 136 182 224 272 324
#
# _framework density 22.228947999999999
#
# number of rings (size 3 to 8) (size 9 to 14) (size 15 to 20)
#    0.000    2.750    1.250    2.625    0.000    4.750 
#    0.000    3.125    0.000    1.500    0.000    0.000 
#    0.000    0.000    0.000    0.000    0.000    0.000 
#
# Total GULP energy -178488.198503 kJ/mol
# GULP energy per Si atom -5577.756203 kJ/mol
# Density = 2.217835 g / cm^3
# Si number density = 22.228948 Si / 1000 Ang^3
#
#
#
# Elastic Constant Matrix: (Units=GPa)
#
#
# Indices 1 2 3 4 5 6 
#
# 1 191.0175 7.6657 77.4905 0.0000 0.0000 0.0000
# 2 7.6657 64.0393 -3.3914 0.0000 0.0000 0.0000
# 3 77.4905 -3.3914 107.5194 0.0000 0.0000 0.0000
# 4 0.0000 0.0000 0.0000 11.1223 0.0000 0.0000
# 5 0.0000 0.0000 0.0000 0.0000 9.3659 0.0000
# 6 0.0000 0.0000 0.0000 0.0000 0.0000 9.8292
#
#
#
# Elastic Compliance Matrix: (Units=1/GPa)
#
#
# Indices 1 2 3 4 5 6 
#
# 1 0.007487 -0.001184 -0.005433 0.000000 0.000000 0.000000
# 2 -0.001184 0.015829 0.001353 0.000000 0.000000 0.000000
# 3 -0.005433 0.001353 0.013259 0.000000 0.000000 0.000000
# 4 0.000000 0.000000 0.000000 0.089910 0.000000 0.000000
# 5 0.000000 0.000000 0.000000 0.000000 0.106771 0.000000
# 6 0.000000 0.000000 0.000000 0.000000 0.000000 0.101738
#
#
# Mechanical properties :
#
#
# Convention : Reuss Voigt Hill
#
# Bulk Modulus (GPa) = 38.39432 58.45621 48.42527
# Shear Modulus (GPa) = 14.11617 24.78421 19.45019
#
# Velocity S-wave (km/s) = 2.52272 3.34271 2.96124
# Velocity P-wave (km/s) = 5.07890 6.42283 5.78999
#
# Compressibility (1/GPa) = 0.02604552
#
# Stress axis : x y z
#
# Youngs Moduli (GPa) = 133.57032 63.17612 75.42042
#
# Poissons Ratio (x) = 0.07479 0.40977
# Poissons Ratio (y) = 0.15814 -0.10201
# Poissons Ratio (z) = 0.72570 -0.08545
#
# Static dielectric constant tensor:
#      x y z
#    x 1.837050 0.000000 0.000000 
#    y 0.000000 1.893660 0.000000 
#    z 0.000000 0.000000 1.799720 
# 
# From -- ./inp_files/22887.got.cif
#   From: 2010.05.17/outbox.cif.g08.bks.cpg/sg38_12_cif.got.tgz:22887.got - 2010.06.03 18:07:57.
