data_PCOD9358738
_publ_section_title
;
Structure prediction by ZEFSAII (Michael W. Deem and Ramdas Pophale) SiO2 
 PCOD9358738
Probable space group: A M M 2
;
_chemical_formula_sum "Si O2"
_cell_formula_units_Z 64
_cell_length_a 13.275398
_cell_length_b 27.772098
_cell_length_c 6.980932
_cell_angle_alpha 90.000000
_cell_angle_beta 90.000000
_cell_angle_gamma 90.000000
_cell_volume 2573.769482
_symmetry_space_group_name_H-M "A M M 2"
_symmetry_group_IT_number 38
_symmetry_cell_setting 'orthorhombic'
loop_
_space_group_symop_operation_xyz
x,y,z
-x,-y,z
-x,y,z
x,-y,z
x,1/2+y,1/2+z
-x,1/2-y,1/2+z
-x,1/2+y,1/2+z
x,1/2-y,1/2+z
loop_
_atom_site_type_symbol
_atom_site_label
_atom_site_fract_x
_atom_site_fract_y
_atom_site_fract_z
Si Si1 0.325859 0.814936 0.132660
Si Si2 0.777683 0.137270 0.666681
Si Si3 0.113218 0.846662 0.262228
Si Si4 0.883737 0.053018 0.783200
Si Si5 0.384036 0.292470 0.060351
Si Si6 0.165180 0.554373 0.831574
Si Si7 0.389693 0.554227 0.753635
Si Si8 0.388934 0.095651 0.866981
O O1 0.204283 0.820126 0.151812
O O2 0.369158 0.815449 0.349774
O O3 0.362506 0.764186 0.049755
O O4 0.368358 0.859130 0.009739
O O5 0.846552 0.150793 0.484609
O O6 0.845803 0.108121 0.819953
O O7 0.706480 0.184365 0.685698
O O8 0.686355 0.097968 0.690937
O O9 0.108951 0.903926 0.219529
O O10 0.000000 0.826595 0.245947
O O11 0.871430 0.052912 0.550391
O O12 0.000000 0.051122 0.832496
O O13 0.838918 0.000000 0.840902
O O14 0.500000 0.299607 0.124775
O O15 0.156285 0.500000 0.758984
O O16 0.280817 0.572381 0.816813
O O17 0.500000 0.576567 0.795421
O O18 0.392982 0.500000 0.829748
O O19 0.380788 0.553596 0.521648
O O20 0.500000 0.096905 0.788820
#
# Coordination Sequence:
#
# PCOD9358738 Si02
#       8
#     8   8   8   8   8   8   8   8
#     4  11  23  41  63  92 118 155 198 245 299 361
#     4  10  21  35  58  89 122 158 199 243 297 351
#     4  10  21  40  61  88 123 159 203 253 301 351
#     4   9  18  35  59  84 114 156 204 253 299 342
#     4  11  22  38  61  90 123 154 192 244 298 361
#     4   9  15  29  55  85 116 155 202 250 298 352
#     4   9  18  31  49  78 119 163 200 242 300 361
#     4  11  21  36  57  85 122 163 201 244 298 362
#
# _framework density 24.866250999999998
#
# number of rings (size 3 to 8) (size 9 to 14) (size 15 to 20)
#    0.000    2.000    1.250    3.750    0.000    1.250 
#    0.000    6.875    0.000    1.875    0.000    0.000 
#    0.000    0.000    0.000    0.000    0.000    0.000 
#
# Total GULP energy -178193.532431 kJ/mol
# GULP energy per Si atom -5568.547888 kJ/mol
# Density = 2.480965 g / cm^3
# Si number density = 24.866251 Si / 1000 Ang^3
#
#
#
# Elastic Constant Matrix: (Units=GPa)
#
#
# Indices 1 2 3 4 5 6 
#
# 1 167.0417 19.0532 -0.3781 0.0000 0.0000 0.0000
# 2 19.0532 105.3582 6.8311 0.0000 0.0000 0.0000
# 3 -0.3781 6.8311 74.4072 0.0000 0.0000 0.0000
# 4 0.0000 0.0000 0.0000 13.0195 0.0000 0.0000
# 5 0.0000 0.0000 0.0000 0.0000 28.0078 0.0000
# 6 0.0000 0.0000 0.0000 0.0000 0.0000 34.9201
#
#
#
# Elastic Compliance Matrix: (Units=1/GPa)
#
#
# Indices 1 2 3 4 5 6 
#
# 1 0.006114 -0.001114 0.000133 0.000000 0.000000 0.000000
# 2 -0.001114 0.009751 -0.000901 0.000000 0.000000 0.000000
# 3 0.000133 -0.000901 0.013523 0.000000 0.000000 0.000000
# 4 0.000000 0.000000 0.000000 0.076808 0.000000 0.000000
# 5 0.000000 0.000000 0.000000 0.000000 0.035704 0.000000
# 6 0.000000 0.000000 0.000000 0.000000 0.000000 0.028637
#
#
# Mechanical properties :
#
#
# Convention : Reuss Voigt Hill
#
# Bulk Modulus (GPa) = 39.02510 44.20220 41.61365
# Shear Modulus (GPa) = 27.34597 36.60954 31.97776
#
# Velocity S-wave (km/s) = 3.31980 3.84116 3.58996
# Velocity P-wave (km/s) = 5.51569 6.12269 5.82710
#
# Compressibility (1/GPa) = 0.02562454
#
# Stress axis : x y z
#
# Youngs Moduli (GPa) = 163.56091 102.54985 73.94839
#
# Poissons Ratio (x) = 0.11427 -0.00986
# Poissons Ratio (y) = 0.18226 0.06662
# Poissons Ratio (z) = -0.02181 0.09239
#
# Static dielectric constant tensor:
#      x y z
#    x 2.075590 0.000000 0.000000 
#    y 0.000000 2.080620 0.000000 
#    z 0.000000 0.000000 2.056680 
# 
# From -- ./inp_files/4935.got.cif
#   From: 2010.05.17/outbox.cif.g08.bks.cpg/sg38_3_cif.got.tgz:4935.got - 2010.06.03 18:07:57.
