data_PCOD9358112
_publ_section_title
;
Structure prediction by ZEFSAII (Michael W. Deem and Ramdas Pophale) SiO2 
 PCOD9358112
Probable space group: A M M 2
;
_chemical_formula_sum "Si O2"
_cell_formula_units_Z 58
_cell_length_a 7.437418
_cell_length_b 16.066693
_cell_length_c 19.693718
_cell_angle_alpha 90.000000
_cell_angle_beta 90.000000
_cell_angle_gamma 90.000000
_cell_volume 2353.295155
_symmetry_space_group_name_H-M "A M M 2"
_symmetry_group_IT_number 38
_symmetry_cell_setting 'orthorhombic'
loop_
_space_group_symop_operation_xyz
x,y,z
-x,-y,z
-x,y,z
x,-y,z
x,1/2+y,1/2+z
-x,1/2-y,1/2+z
-x,1/2+y,1/2+z
x,1/2-y,1/2+z
loop_
_atom_site_type_symbol
_atom_site_label
_atom_site_fract_x
_atom_site_fract_y
_atom_site_fract_z
Si Si1 0.284111 0.685868 0.821930
Si Si2 0.209755 0.909599 0.190401
Si Si3 0.716637 0.375663 0.313032
Si Si4 0.713910 0.908503 0.447547
Si Si5 0.795435 0.591073 0.101913
Si Si6 0.715308 0.406510 0.471928
Si Si7 0.000000 0.000000 0.752456
Si Si8 0.214525 0.225568 0.088797
O O1 0.500000 0.680020 0.824522
O O2 0.219558 0.620175 0.767266
O O3 0.239684 0.779041 0.802198
O O4 0.219792 0.661110 0.896577
O O5 0.289755 0.839160 0.143172
O O6 0.000000 0.914077 0.171188
O O7 0.290806 0.000000 0.181014
O O8 0.500000 0.388655 0.304870
O O9 0.762784 0.396205 0.392228
O O10 0.839990 0.428985 0.264257
O O11 0.500000 0.897316 0.460315
O O12 0.804886 0.909142 0.519922
O O13 0.736711 0.000000 0.415628
O O14 0.713316 0.500000 0.119944
O O15 0.711863 0.682816 0.109370
O O16 0.000000 0.586944 0.129475
O O17 0.500000 0.408958 0.474364
O O18 0.779884 0.500000 0.494675
O O19 0.763714 0.325616 0.517704
O O20 0.000000 0.237523 0.095406
#
# Coordination Sequence:
#
# PCOD9358112 Si02
#       8
#     8   8   8   8   8   8   2   8
#     4  10  21  37  58  80 112 149 189 241 287 345
#     4  10  22  39  56  79 113 149 188 246 297 347
#     4  10  22  38  57  89 124 154 198 250 296 354
#     4   9  17  31  52  80 110 143 180 221 279 344
#     4   9  18  33  53  78 110 142 177 224 283 340
#     4  10  20  35  54  80 118 152 182 235 293 347
#     4  12  22  36  64  86 114 172 194 236 304 372
#     4  10  21  35  55  80 109 148 195 241 288 348
#
# _framework density 24.646293
#
# number of rings (size 3 to 8) (size 9 to 14) (size 15 to 20)
#    0.000    2.207    0.690    1.862    1.931    4.414 
#    0.000    1.379    1.517    0.000    0.000    0.000 
#    0.000    0.000    0.000    0.000    0.000    0.000 
#
# Total GULP energy -161717.261863 kJ/mol
# GULP energy per Si atom -5576.457306 kJ/mol
# Density = 2.459020 g / cm^3
# Si number density = 24.646293 Si / 1000 Ang^3
#
#
#
# Elastic Constant Matrix: (Units=GPa)
#
#
# Indices 1 2 3 4 5 6 
#
# 1 89.8493 29.1351 -1.4918 0.0000 0.0000 0.0000
# 2 29.1351 216.4768 33.4716 0.0000 0.0000 0.0000
# 3 -1.4918 33.4716 68.3801 0.0000 0.0000 0.0000
# 4 0.0000 0.0000 0.0000 -193.2450 0.0000 0.0000
# 5 0.0000 0.0000 0.0000 0.0000 26.3521 0.0000
# 6 0.0000 0.0000 0.0000 0.0000 0.0000 13.9082
#
#
#
# Elastic Compliance Matrix: (Units=1/GPa)
#
#
# Indices 1 2 3 4 5 6 
#
# 1 0.011715 -0.001749 0.001112 0.000000 0.000000 0.000000
# 2 -0.001749 0.005259 -0.002612 0.000000 0.000000 0.000000
# 3 0.001112 -0.002612 0.015927 0.000000 0.000000 0.000000
# 4 0.000000 0.000000 0.000000 -0.005175 0.000000 0.000000
# 5 0.000000 0.000000 0.000000 0.000000 0.037948 0.000000
# 6 0.000000 0.000000 0.000000 0.000000 0.000000 0.071900
#
#
# Mechanical properties :
#
#
# Convention : Reuss Voigt Hill
#
# Bulk Modulus (GPa) = 37.87547 55.21513 46.54530
# Shear Modulus (GPa) = 32.70688 -9.69085 11.50802
#
# Velocity S-wave (km/s) = 3.64682 -1.98507 2.16319
# Velocity P-wave (km/s) = 5.75616 4.14700 5.01652
#
# Compressibility (1/GPa) = 0.02640231
#
# Stress axis : x y z
#
# Youngs Moduli (GPa) = 85.35916 190.16201 62.78620
#
# Poissons Ratio (x) = 0.33251 -0.06979
# Poissons Ratio (y) = 0.14926 0.16401
# Poissons Ratio (z) = -0.09488 0.49675
#
# Static dielectric constant tensor:
#      x y z
#    x 1.942010 0.000000 0.000000 
#    y 0.000000 2.064890 0.000000 
#    z 0.000000 0.000000 1.977010 
# 
# From -- ./inp_files/22033.got.cif
#   From: 2010.05.17/outbox.cif.g08.bks.cpg/sg38_12_cif.got.tgz:22033.got - 2010.06.03 18:07:57.
