data_PCOD9358619
_publ_section_title
;
Structure prediction by ZEFSAII (Michael W. Deem and Ramdas Pophale) SiO2 
 PCOD9358619
Probable space group: A M M 2
;
_chemical_formula_sum "Si O2"
_cell_formula_units_Z 28
_cell_length_a 9.996644
_cell_length_b 11.434411
_cell_length_c 13.234472
_cell_angle_alpha 90.000000
_cell_angle_beta 90.000000
_cell_angle_gamma 90.000000
_cell_volume 1512.776064
_symmetry_space_group_name_H-M "A M M 2"
_symmetry_group_IT_number 38
_symmetry_cell_setting 'orthorhombic'
loop_
_space_group_symop_operation_xyz
x,y,z
-x,-y,z
-x,y,z
x,-y,z
x,1/2+y,1/2+z
-x,1/2-y,1/2+z
-x,1/2+y,1/2+z
x,1/2-y,1/2+z
loop_
_atom_site_type_symbol
_atom_site_label
_atom_site_fract_x
_atom_site_fract_y
_atom_site_fract_z
Si Si1 0.285988 0.728845 0.514410
Si Si2 0.000000 0.500000 0.782798
Si Si3 0.000000 0.000000 0.924400
Si Si4 0.500000 0.858507 0.858355
Si Si5 0.786040 0.000000 0.105809
Si Si6 0.500000 0.364016 0.131046
Si Si7 0.000000 0.262551 0.917405
O O1 0.369094 0.687678 0.416569
O O2 0.291449 0.620211 0.592487
O O3 0.370033 0.828842 0.567918
O O4 0.135345 0.763064 0.484474
O O5 0.125760 0.500000 0.706150
O O6 0.000000 0.621749 0.846764
O O7 0.000000 0.872055 0.870629
O O8 0.876527 0.000000 0.003034
O O9 0.500000 0.813778 0.743999
O O10 0.500000 0.000000 0.864242
O O11 0.500000 0.500000 0.146101
#
# Coordination Sequence:
#
# PCOD9358619 Si02
#       7
#     8   2   2   4   4   4   4
#     4  10  21  41  65  86 125 159 207 257 314 362
#     4  11  24  34  62  99 134 148 205 256 330 373
#     4   7  16  38  58  81 120 160 197 244 298 355
#     4  10  20  40  63  89 112 162 212 250 305 372
#     4   9  18  37  62  86 115 160 204 254 295 365
#     4  10  24  39  60  88 127 160 203 259 312 375
#     4  10  22  38  64  95 125 165 204 256 315 372
#
# _framework density 18.509018000000001
#
# number of rings (size 3 to 8) (size 9 to 14) (size 15 to 20)
#    0.000    2.286    1.429    0.857    6.000    0.000 
#    0.000    0.000    0.000    5.143    0.000    0.000 
#    0.000    0.000    0.000    0.000    0.000    0.000 
#
# Total GULP energy -77960.256243 kJ/mol
# GULP energy per Si atom -5568.589732 kJ/mol
# Density = 1.846689 g / cm^3
# Si number density = 18.509018 Si / 1000 Ang^3
#
#
#
# Elastic Constant Matrix: (Units=GPa)
#
#
# Indices 1 2 3 4 5 6 
#
# 1 128.5734 22.1477 49.2238 0.0000 0.0000 0.0000
# 2 22.1477 98.0113 48.1057 0.0000 0.0000 0.0000
# 3 49.2238 48.1057 98.5714 0.0000 0.0000 0.0000
# 4 0.0000 0.0000 0.0000 12.9771 0.0000 0.0000
# 5 0.0000 0.0000 0.0000 0.0000 29.2081 0.0000
# 6 0.0000 0.0000 0.0000 0.0000 0.0000 12.2159
#
#
#
# Elastic Compliance Matrix: (Units=1/GPa)
#
#
# Indices 1 2 3 4 5 6 
#
# 1 0.009620 0.000242 -0.004922 0.000000 0.000000 0.000000
# 2 0.000242 0.013423 -0.006672 0.000000 0.000000 0.000000
# 3 -0.004922 -0.006672 0.015859 0.000000 0.000000 0.000000
# 4 0.000000 0.000000 0.000000 0.077059 0.000000 0.000000
# 5 0.000000 0.000000 0.000000 0.000000 0.034237 0.000000
# 6 0.000000 0.000000 0.000000 0.000000 0.000000 0.081860
#
#
# Mechanical properties :
#
#
# Convention : Reuss Voigt Hill
#
# Bulk Modulus (GPa) = 61.73438 62.67894 62.20666
# Shear Modulus (GPa) = 19.21887 24.59216 21.90551
#
# Velocity S-wave (km/s) = 3.22584 3.64903 3.44394
# Velocity P-wave (km/s) = 6.87756 7.18967 7.03535
#
# Compressibility (1/GPa) = 0.01619843
#
# Stress axis : x y z
#
# Youngs Moduli (GPa) = 103.94528 74.50057 63.05618
#
# Poissons Ratio (x) = -0.01803 0.31038
# Poissons Ratio (y) = -0.02515 0.42068
# Poissons Ratio (z) = 0.51165 0.49703
#
# Static dielectric constant tensor:
#      x y z
#    x 1.651690 0.000000 0.000000 
#    y 0.000000 1.681090 0.000000 
#    z 0.000000 0.000000 1.609860 
# 
# From -- ./inp_files/8867.got.cif
#   From: 2010.05.17/outbox.cif.g08.bks.cpg/sg38_5_cif.got.tgz:8867.got - 2010.06.03 18:07:57.
