data_PCOD9358013
_publ_section_title
;
Structure prediction by ZEFSAII (Michael W. Deem and Ramdas Pophale) SiO2 
 PCOD9358013
Probable space group: A M M 2
;
_chemical_formula_sum "Si O2"
_cell_formula_units_Z 48
_cell_length_a 8.927092
_cell_length_b 28.690218
_cell_length_c 10.495130
_cell_angle_alpha 90.000000
_cell_angle_beta 90.000000
_cell_angle_gamma 90.000000
_cell_volume 2688.014958
_symmetry_space_group_name_H-M "A M M 2"
_symmetry_group_IT_number 38
_symmetry_cell_setting 'orthorhombic'
loop_
_space_group_symop_operation_xyz
x,y,z
-x,-y,z
-x,y,z
x,-y,z
x,1/2+y,1/2+z
-x,1/2-y,1/2+z
-x,1/2+y,1/2+z
x,1/2-y,1/2+z
loop_
_atom_site_type_symbol
_atom_site_label
_atom_site_fract_x
_atom_site_fract_y
_atom_site_fract_z
Si Si1 0.820278 0.802698 0.824400
Si Si2 0.677780 0.553480 0.183833
Si Si3 0.821277 0.446247 0.462747
Si Si4 0.179359 0.140696 0.567631
Si Si5 0.180179 0.306563 0.807005
Si Si6 0.678365 0.144053 0.063293
O O1 0.784514 0.827523 0.690583
O O2 0.782690 0.748103 0.817801
O O3 0.000000 0.806761 0.845024
O O4 0.737543 0.828093 0.939665
O O5 0.500000 0.559045 0.202323
O O6 0.706763 0.500000 0.144359
O O7 0.759455 0.560840 0.319424
O O8 0.739119 0.591647 0.086812
O O9 0.788947 0.500000 0.497979
O O10 0.744788 0.407968 0.551186
O O11 0.000000 0.439611 0.462123
O O12 0.218981 0.167201 0.438034
O O13 0.000000 0.133402 0.568092
O O14 0.260365 0.330280 0.688103
O O15 0.000000 0.309701 0.788984
O O16 0.500000 0.142551 0.063029
#
# Coordination Sequence:
#
# PCOD9358013 Si02
#       6
#     8   8   8   8   8   8
#     4  10  20  38  63  86 110 149 199 243 283 335
#     4  10  20  34  55  84 116 148 183 231 291 346
#     4  10  20  36  60  86 111 145 193 243 284 334
#     4  10  20  35  59  87 112 147 194 239 282 333
#     4  10  22  40  60  83 115 156 199 240 282 335
#     4  12  24  37  57  88 122 155 188 234 296 351
#
# _framework density 17.857043000000001
#
# number of rings (size 3 to 8) (size 9 to 14) (size 15 to 20)
#    0.000    1.667    1.667    3.500    0.000    6.000 
#    0.000    2.500    0.000    1.000    0.000    0.000 
#    0.000    0.000    0.000    0.000    0.000    0.000 
#
# Total GULP energy -134103.722026 kJ/mol
# GULP energy per Si atom -5587.655084 kJ/mol
# Density = 1.781640 g / cm^3
# Si number density = 17.857043 Si / 1000 Ang^3
#
#
#
# Elastic Constant Matrix: (Units=GPa)
#
#
# Indices 1 2 3 4 5 6 
#
# 1 65.8133 71.9853 62.7966 0.0000 0.0000 0.0000
# 2 71.9853 154.2231 73.9282 0.0000 0.0000 0.0000
# 3 62.7966 73.9282 118.1988 0.0000 0.0000 0.0000
# 4 0.0000 0.0000 0.0000 -2.6540 0.0000 0.0000
# 5 0.0000 0.0000 0.0000 0.0000 -9.7849 0.0000
# 6 0.0000 0.0000 0.0000 0.0000 0.0000 17.5162
#
#
#
# Elastic Compliance Matrix: (Units=1/GPa)
#
#
# Indices 1 2 3 4 5 6 
#
# 1 0.044359 -0.013437 -0.015163 0.000000 0.000000 0.000000
# 2 -0.013437 0.013331 -0.001199 0.000000 0.000000 0.000000
# 3 -0.015163 -0.001199 0.017266 0.000000 0.000000 0.000000
# 4 0.000000 0.000000 0.000000 -0.376795 0.000000 0.000000
# 5 0.000000 0.000000 0.000000 0.000000 -0.102199 0.000000
# 6 0.000000 0.000000 0.000000 0.000000 0.000000 0.057090
#
#
# Mechanical properties :
#
#
# Convention : Reuss Voigt Hill
#
# Bulk Modulus (GPa) = 65.11126 83.96172 74.53649
# Shear Modulus (GPa) = -17.71604 9.65049 -4.03278
#
# Velocity S-wave (km/s) = -3.15319 2.32724 -1.50442
# Velocity P-wave (km/s) = 4.82544 7.37172 6.23006
#
# Compressibility (1/GPa) = 0.01535833
#
# Stress axis : x y z
#
# Youngs Moduli (GPa) = 22.54316 75.01549 57.91650
#
# Poissons Ratio (x) = 1.00795 0.87820
# Poissons Ratio (y) = 0.30290 0.06945
# Poissons Ratio (z) = 0.34183 0.08995
#
# Static dielectric constant tensor:
#      x y z
#    x 1.594040 0.000000 0.000000 
#    y 0.000000 1.610590 0.000000 
#    z 0.000000 0.000000 1.573650 
# 
# From -- ./inp_files/3727.got.cif
#   From: 2010.05.17/outbox.cif.g08.bks.cpg/sg38_2_cif.got.tgz:3727.got - 2010.06.03 18:07:57.
