data_PCOD9358026
_publ_section_title
;
Structure prediction by ZEFSAII (Michael W. Deem and Ramdas Pophale) SiO2 
 PCOD9358026
Probable space group: A M M 2
;
_chemical_formula_sum "Si O2"
_cell_formula_units_Z 32
_cell_length_a 7.615324
_cell_length_b 8.029313
_cell_length_c 24.546764
_cell_angle_alpha 90.000000
_cell_angle_beta 90.000000
_cell_angle_gamma 90.000000
_cell_volume 1500.932013
_symmetry_space_group_name_H-M "A M M 2"
_symmetry_group_IT_number 38
_symmetry_cell_setting 'orthorhombic'
loop_
_space_group_symop_operation_xyz
x,y,z
-x,-y,z
-x,y,z
x,-y,z
x,1/2+y,1/2+z
-x,1/2-y,1/2+z
-x,1/2+y,1/2+z
x,1/2-y,1/2+z
loop_
_atom_site_type_symbol
_atom_site_label
_atom_site_fract_x
_atom_site_fract_y
_atom_site_fract_z
Si Si1 0.215009 0.309067 0.535500
Si Si2 0.787587 0.818461 0.297856
Si Si3 0.201915 0.500000 0.103171
Si Si4 0.700359 0.000000 0.724964
Si Si5 0.787038 0.305788 0.413271
O O1 0.272917 0.500000 0.545407
O O2 0.277092 0.170544 0.578091
O O3 0.268581 0.257146 0.474045
O O4 0.000000 0.316017 0.536292
O O5 0.735265 0.663123 0.261029
O O6 0.725684 0.791603 0.360103
O O7 0.000000 0.817865 0.298881
O O8 0.729535 0.000000 0.277747
O O9 0.199613 0.500000 0.168077
O O10 0.000000 0.500000 0.084041
O O11 0.500000 0.000000 0.708136
O O12 0.741177 0.500000 0.405779
O O13 0.000000 0.295328 0.413290
#
# Coordination Sequence:
#
# PCOD9358026 Si02
#       5
#     8   8   4   4   8
#     4   8  15  27  47  82 116 138 166 218 283 338
#     4  10  20  35  60  90 115 144 186 238 291 340
#     4  10  20  34  56  80 106 142 191 238 279 328
#     4  12  26  42  56  74 114 162 203 238 277 334
#     4   8  13  25  49  83 119 141 165 217 285 344
#
# _framework density 21.320087000000001
#
# number of rings (size 3 to 8) (size 9 to 14) (size 15 to 20)
#    0.000    2.750    1.250    2.625    1.750    1.500 
#    0.000    2.500    0.000    1.500    0.000    0.000 
#    0.000    0.000    0.000    0.000    0.000    0.000 
#
# Total GULP energy -89254.927952 kJ/mol
# GULP energy per Si atom -5578.432997 kJ/mol
# Density = 2.127156 g / cm^3
# Si number density = 21.320087 Si / 1000 Ang^3
#
#
#
# Elastic Constant Matrix: (Units=GPa)
#
#
# Indices 1 2 3 4 5 6 
#
# 1 42.7325 1.5465 -10.0819 0.0000 0.0000 0.0000
# 2 1.5465 159.4329 91.0162 0.0000 0.0000 0.0000
# 3 -10.0819 91.0162 119.0833 0.0000 0.0000 0.0000
# 4 0.0000 0.0000 0.0000 14.3133 0.0000 0.0000
# 5 0.0000 0.0000 0.0000 0.0000 -47.2936 0.0000
# 6 0.0000 0.0000 0.0000 0.0000 0.0000 -22.7211
#
#
#
# Elastic Compliance Matrix: (Units=1/GPa)
#
#
# Indices 1 2 3 4 5 6 
#
# 1 0.024434 -0.002516 0.003991 0.000000 0.000000 0.000000
# 2 -0.002516 0.011386 -0.008916 0.000000 0.000000 0.000000
# 3 0.003991 -0.008916 0.015550 0.000000 0.000000 0.000000
# 4 0.000000 0.000000 0.000000 0.069865 0.000000 0.000000
# 5 0.000000 0.000000 0.000000 0.000000 -0.021144 0.000000
# 6 0.000000 0.000000 0.000000 0.000000 0.000000 -0.044012
#
#
# Mechanical properties :
#
#
# Convention : Reuss Voigt Hill
#
# Bulk Modulus (GPa) = 27.40449 54.02337 40.71393
# Shear Modulus (GPa) = 60.15237 4.77755 32.46496
#
# Velocity S-wave (km/s) = 5.31744 1.49858 3.90646
# Velocity P-wave (km/s) = 7.11210 5.32809 6.28373
#
# Compressibility (1/GPa) = 0.03649037
#
# Stress axis : x y z
#
# Youngs Moduli (GPa) = 40.92638 87.82457 64.31007
#
# Poissons Ratio (x) = 0.22093 -0.25668
# Poissons Ratio (y) = 0.10295 0.57336
# Poissons Ratio (z) = -0.16335 0.78301
#
# Static dielectric constant tensor:
#      x y z
#    x 1.811930 0.000000 0.000000 
#    y 0.000000 1.777270 0.000000 
#    z 0.000000 0.000000 1.739310 
# 
# From -- ./inp_files/21605.got.cif
#   From: 2010.05.17/outbox.cif.g08.bks.cpg/sg38_11_cif.got.tgz:21605.got - 2010.06.03 18:07:57.
