data_PCOD9358341
_publ_section_title
;
Structure prediction by ZEFSAII (Michael W. Deem and Ramdas Pophale) SiO2 
 PCOD9358341
Probable space group: A M M 2
;
_chemical_formula_sum "Si O2"
_cell_formula_units_Z 64
_cell_length_a 24.638746
_cell_length_b 8.587644
_cell_length_c 15.822334
_cell_angle_alpha 90.000000
_cell_angle_beta 90.000000
_cell_angle_gamma 90.000000
_cell_volume 3347.828336
_symmetry_space_group_name_H-M "A M M 2"
_symmetry_group_IT_number 38
_symmetry_cell_setting 'orthorhombic'
loop_
_space_group_symop_operation_xyz
x,y,z
-x,-y,z
-x,y,z
x,-y,z
x,1/2+y,1/2+z
-x,1/2-y,1/2+z
-x,1/2+y,1/2+z
x,1/2-y,1/2+z
loop_
_atom_site_type_symbol
_atom_site_label
_atom_site_fract_x
_atom_site_fract_y
_atom_site_fract_z
Si Si1 0.240518 0.687566 0.495120
Si Si2 0.636844 0.687495 0.480556
Si Si3 0.062088 0.810003 0.085126
Si Si4 0.246776 0.816084 0.683081
Si Si5 0.873788 0.687489 0.417615
Si Si6 0.562242 0.688180 0.831230
Si Si7 0.135665 0.185427 0.241761
Si Si8 0.364469 0.312383 0.675824
O O1 0.239347 0.500000 0.508444
O O2 0.300184 0.727089 0.460281
O O3 0.235353 0.766730 0.586276
O O4 0.188681 0.728807 0.439417
O O5 0.632024 0.500000 0.478295
O O6 0.596465 0.757528 0.412136
O O7 0.626757 0.738811 0.578170
O O8 0.099454 0.758426 0.163031
O O9 0.000000 0.757967 0.092304
O O10 0.062069 0.000000 0.086563
O O11 0.089479 0.764273 0.996814
O O12 0.195780 0.756001 0.735660
O O13 0.304819 0.741637 0.704342
O O14 0.251064 0.000000 0.691222
O O15 0.876636 0.500000 0.409670
O O16 0.890018 0.764925 0.330191
O O17 0.500000 0.741980 0.835367
O O18 0.562160 0.500000 0.830258
O O19 0.591619 0.740757 0.744552
O O20 0.140152 0.000000 0.235982
O O21 0.364775 0.500000 0.673847
#
# Coordination Sequence:
#
# PCOD9358341 Si02
#       8
#     8   8   8   8   8   8   8   8
#     4   9  18  36  58  82 116 153 186 231 292 349
#     4   9  19  35  57  83 112 145 186 229 280 343
#     4   9  19  38  62  83 112 157 198 234 284 344
#     4  11  21  34  57  87 118 149 191 240 288 341
#     4  10  20  36  58  86 117 150 191 239 287 338
#     4  10  22  39  58  82 113 148 190 235 279 335
#     4  11  22  37  57  85 119 155 193 234 287 345
#     4   9  20  39  59  81 112 153 191 229 285 344
#
# _framework density 19.116869000000001
#
# number of rings (size 3 to 8) (size 9 to 14) (size 15 to 20)
#    0.000    2.250    1.250    2.250    1.750    4.250 
#    0.000    1.250    0.000    2.625    0.000    0.000 
#    0.000    0.000    0.000    0.000    0.000    0.000 
#
# Total GULP energy -178636.194429 kJ/mol
# GULP energy per Si atom -5582.381076 kJ/mol
# Density = 1.907336 g / cm^3
# Si number density = 19.116869 Si / 1000 Ang^3
#
#
#
# Elastic Constant Matrix: (Units=GPa)
#
#
# Indices 1 2 3 4 5 6 
#
# 1 102.9512 10.9840 46.2954 0.0000 0.0000 0.0000
# 2 10.9840 3.0734 9.7068 0.0000 0.0000 0.0000
# 3 46.2954 9.7068 84.0557 0.0000 0.0000 0.0000
# 4 0.0000 0.0000 0.0000 28.9472 0.0000 0.0000
# 5 0.0000 0.0000 0.0000 0.0000 4.5715 0.0000
# 6 0.0000 0.0000 0.0000 0.0000 0.0000 11.2777
#
#
#
# Elastic Compliance Matrix: (Units=1/GPa)
#
#
# Indices 1 2 3 4 5 6 
#
# 1 0.016347 -0.047202 -0.003552 0.000000 0.000000 0.000000
# 2 -0.047202 0.648469 -0.048888 0.000000 0.000000 0.000000
# 3 -0.003552 -0.048888 0.019499 0.000000 0.000000 0.000000
# 4 0.000000 0.000000 0.000000 0.034546 0.000000 0.000000
# 5 0.000000 0.000000 0.000000 0.000000 0.218749 0.000000
# 6 0.000000 0.000000 0.000000 0.000000 0.000000 0.088670
#
#
# Mechanical properties :
#
#
# Convention : Reuss Voigt Hill
#
# Bulk Modulus (GPa) = 2.06173 36.00587 19.03380
# Shear Modulus (GPa) = 3.60427 17.16556 10.38492
#
# Velocity S-wave (km/s) = 1.37458 2.99979 2.33326
# Velocity P-wave (km/s) = 1.89740 5.55642 4.15175
#
# Compressibility (1/GPa) = 0.48502981
#
# Stress axis : x y z
#
# Youngs Moduli (GPa) = 61.17380 1.54209 51.28443
#
# Poissons Ratio (x) = 0.07279 0.18219
# Poissons Ratio (y) = 2.88753 2.50721
# Poissons Ratio (z) = 0.21732 0.07539
#
# Static dielectric constant tensor:
#      x y z
#    x 1.656440 0.000000 0.000000 
#    y 0.000000 1.654070 0.000000 
#    z 0.000000 0.000000 1.668730 
# 
# From -- ./inp_files/15740.got.cif
#   From: 2010.05.17/outbox.cif.g08.bks.cpg/sg38_8_cif.got.tgz:15740.got - 2010.06.03 18:07:57.
