data_PCOD9358883
_publ_section_title
;
Structure prediction by ZEFSAII (Michael W. Deem and Ramdas Pophale) SiO2 
 PCOD9358883
Probable space group: A M M 2
;
_chemical_formula_sum "Si O2"
_cell_formula_units_Z 56
_cell_length_a 14.540080
_cell_length_b 8.103196
_cell_length_c 22.086403
_cell_angle_alpha 90.000000
_cell_angle_beta 90.000000
_cell_angle_gamma 90.000000
_cell_volume 2602.244696
_symmetry_space_group_name_H-M "A M M 2"
_symmetry_group_IT_number 38
_symmetry_cell_setting 'orthorhombic'
loop_
_space_group_symop_operation_xyz
x,y,z
-x,-y,z
-x,y,z
x,-y,z
x,1/2+y,1/2+z
-x,1/2-y,1/2+z
-x,1/2+y,1/2+z
x,1/2-y,1/2+z
loop_
_atom_site_type_symbol
_atom_site_label
_atom_site_fract_x
_atom_site_fract_y
_atom_site_fract_z
Si Si1 0.109210 0.800763 0.832040
Si Si2 0.603601 0.697932 0.390693
Si Si3 0.611568 0.688008 0.758353
Si Si4 0.215399 0.703076 0.450722
Si Si5 0.208994 0.190875 0.082168
Si Si6 0.605808 0.307392 0.126853
Si Si7 0.104990 0.697372 0.200545
O O1 0.157840 0.738971 0.892654
O O2 0.142128 0.740136 0.765745
O O3 0.000000 0.769352 0.834520
O O4 0.121734 0.000000 0.833131
O O5 0.500000 0.764137 0.399013
O O6 0.598560 0.500000 0.394082
O O7 0.639119 0.740063 0.323111
O O8 0.679424 0.754615 0.438200
O O9 0.500000 0.687434 0.760967
O O10 0.643173 0.500000 0.751173
O O11 0.633116 0.787666 0.697739
O O12 0.213296 0.500000 0.451872
O O13 0.182205 0.760536 0.516442
O O14 0.318865 0.210029 0.089076
O O15 0.163067 0.267247 0.141181
O O16 0.183637 0.000000 0.083186
O O17 0.500000 0.249736 0.120119
O O18 0.609813 0.500000 0.111215
O O19 0.100266 0.500000 0.206540
O O20 0.000000 0.758780 0.193060
#
# Coordination Sequence:
#
# PCOD9358883 Si02
#       7
#     8   8   8   8   8   8   8
#     4   8  15  31  56  82 105 135 182 234 275 319
#     4   9  17  30  49  74 105 143 186 226 267 325
#     4   9  17  30  49  76 107 136 173 227 286 331
#     4   9  19  33  50  77 110 146 187 228 275 331
#     4  11  23  36  54  85 121 152 185 235 295 342
#     4  10  21  37  56  77 106 150 199 239 277 332
#     4   9  19  37  61  86 112 147 192 239 285 339
#
# _framework density 21.519881999999999
#
# number of rings (size 3 to 8) (size 9 to 14) (size 15 to 20)
#    0.000    2.714    0.000    2.143    2.000    4.000 
#    0.000    4.286    0.000    3.429    0.000    0.000 
#    0.000    0.000    0.000    0.000    0.000    0.000 
#
# Total GULP energy -156214.628866 kJ/mol
# GULP energy per Si atom -5579.093888 kJ/mol
# Density = 2.147090 g / cm^3
# Si number density = 21.519882 Si / 1000 Ang^3
#
#
#
# Elastic Constant Matrix: (Units=GPa)
#
#
# Indices 1 2 3 4 5 6 
#
# 1 55.9656 -0.4062 64.0579 0.0000 0.0000 0.0000
# 2 -0.4062 13.8316 2.7892 0.0000 0.0000 0.0000
# 3 64.0579 2.7892 175.0290 0.0000 0.0000 0.0000
# 4 0.0000 0.0000 0.0000 15.0557 0.0000 0.0000
# 5 0.0000 0.0000 0.0000 0.0000 18.9130 0.0000
# 6 0.0000 0.0000 0.0000 0.0000 0.0000 8.7426
#
#
#
# Elastic Compliance Matrix: (Units=1/GPa)
#
#
# Indices 1 2 3 4 5 6 
#
# 1 0.030889 0.003197 -0.011356 0.000000 0.000000 0.000000
# 2 0.003197 0.072862 -0.002331 0.000000 0.000000 0.000000
# 3 -0.011356 -0.002331 0.009907 0.000000 0.000000 0.000000
# 4 0.000000 0.000000 0.000000 0.066420 0.000000 0.000000
# 5 0.000000 0.000000 0.000000 0.000000 0.052874 0.000000
# 6 0.000000 0.000000 0.000000 0.000000 0.000000 0.114382
#
#
# Mechanical properties :
#
#
# Convention : Reuss Voigt Hill
#
# Bulk Modulus (GPa) = 10.79004 41.96757 26.37881
# Shear Modulus (GPa) = 12.52484 20.43461 16.47973
#
# Velocity S-wave (km/s) = 2.41511 3.08485 2.77029
# Velocity P-wave (km/s) = 3.57797 5.67737 4.74523
#
# Compressibility (1/GPa) = 0.09267809
#
# Stress axis : x y z
#
# Youngs Moduli (GPa) = 32.37370 13.72451 100.94285
#
# Poissons Ratio (x) = -0.04388 1.14630
# Poissons Ratio (y) = -0.10350 0.23532
# Poissons Ratio (z) = 0.36763 0.03199
#
# Static dielectric constant tensor:
#      x y z
#    x 1.802900 0.000000 0.000000 
#    y 0.000000 1.768020 0.000000 
#    z 0.000000 0.000000 1.800720 
# 
# From -- ./inp_files/21020.got.cif
#   From: 2010.05.17/outbox.cif.g08.bks.cpg/sg38_11_cif.got.tgz:21020.got - 2010.06.03 18:07:57.
