data_PCOD9358059
_publ_section_title
;
Structure prediction by ZEFSAII (Michael W. Deem and Ramdas Pophale) SiO2 
 PCOD9358059
Probable space group: A M M 2
;
_chemical_formula_sum "Si O2"
_cell_formula_units_Z 48
_cell_length_a 10.477650
_cell_length_b 7.631128
_cell_length_c 28.109328
_cell_angle_alpha 90.000000
_cell_angle_beta 90.000000
_cell_angle_gamma 90.000000
_cell_volume 2247.517533
_symmetry_space_group_name_H-M "A M M 2"
_symmetry_group_IT_number 38
_symmetry_cell_setting 'orthorhombic'
loop_
_space_group_symop_operation_xyz
x,y,z
-x,-y,z
-x,y,z
x,-y,z
x,1/2+y,1/2+z
-x,1/2-y,1/2+z
-x,1/2+y,1/2+z
x,1/2-y,1/2+z
loop_
_atom_site_type_symbol
_atom_site_label
_atom_site_fract_x
_atom_site_fract_y
_atom_site_fract_z
Si Si1 0.500000 0.703410 0.022071
Si Si2 0.273729 0.711376 0.449572
Si Si3 0.228301 0.715191 0.664063
Si Si4 0.142746 0.289812 0.768709
Si Si5 0.500000 0.202178 0.130096
Si Si6 0.000000 0.286254 0.595850
Si Si7 0.000000 0.785390 0.986446
Si Si8 0.641826 0.710456 0.345659
O O1 0.500000 0.500000 0.033454
O O2 0.500000 0.796704 0.072899
O O3 0.624165 0.744659 0.990332
O O4 0.269272 0.500000 0.447340
O O5 0.321490 0.776256 0.398304
O O6 0.131184 0.772798 0.461872
O O7 0.228294 0.500000 0.663672
O O8 0.185561 0.772390 0.716482
O O9 0.368634 0.778725 0.649951
O O10 0.124682 0.769483 0.624942
O O11 0.135192 0.500000 0.765575
O O12 0.248723 0.250066 0.807874
O O13 0.000000 0.224323 0.780397
O O14 0.500000 0.000000 0.146029
O O15 0.000000 0.229404 0.541405
O O16 0.000000 0.500000 0.595341
O O17 0.000000 0.000000 0.985740
O O18 0.500000 0.774567 0.332114
O O19 0.634969 0.500000 0.348881
#
# Coordination Sequence:
#
# PCOD9358059 Si02
#       8
#     4   8   8   8   4   4   4   8
#     4  12  24  38  57  84 119 157 190 227 285 348
#     4  10  20  39  62  85 113 147 192 240 283 333
#     4   9  17  31  53  81 111 144 185 234 278 325
#     4  10  21  37  58  87 120 150 186 235 290 344
#     4  10  20  34  57  84 109 145 194 241 281 326
#     4   9  14  26  47  77 111 135 169 227 282 319
#     4   9  18  30  58  93 109 135 187 241 282 325
#     4  10  22  39  59  83 113 150 192 239 287 338
#
# _framework density 21.356895999999999
#
# number of rings (size 3 to 8) (size 9 to 14) (size 15 to 20)
#    0.000    2.167    1.667    1.750    2.333    4.000 
#    0.000    1.250    0.000    0.000    0.000    0.000 
#    0.000    0.000    0.000    0.000    0.000    0.000 
#
# Total GULP energy -134101.889557 kJ/mol
# GULP energy per Si atom -5587.578732 kJ/mol
# Density = 2.130829 g / cm^3
# Si number density = 21.356896 Si / 1000 Ang^3
#
#
#
# Elastic Constant Matrix: (Units=GPa)
#
#
# Indices 1 2 3 4 5 6 
#
# 1 235.4727 8.4671 83.2348 0.0000 0.0000 0.0000
# 2 8.4671 43.0578 0.4525 0.0000 0.0000 0.0000
# 3 83.2348 0.4525 104.8402 0.0000 0.0000 0.0000
# 4 0.0000 0.0000 0.0000 12.3099 0.0000 0.0000
# 5 0.0000 0.0000 0.0000 0.0000 44.1130 0.0000
# 6 0.0000 0.0000 0.0000 0.0000 0.0000 -9.0355
#
#
#
# Elastic Compliance Matrix: (Units=1/GPa)
#
#
# Indices 1 2 3 4 5 6 
#
# 1 0.005957 -0.001122 -0.004725 0.000000 0.000000 0.000000
# 2 -0.001122 0.023437 0.000789 0.000000 0.000000 0.000000
# 3 -0.004725 0.000789 0.013286 0.000000 0.000000 0.000000
# 4 0.000000 0.000000 0.000000 0.081235 0.000000 0.000000
# 5 0.000000 0.000000 0.000000 0.000000 0.022669 0.000000
# 6 0.000000 0.000000 0.000000 0.000000 0.000000 -0.110674
#
#
# Mechanical properties :
#
#
# Convention : Reuss Voigt Hill
#
# Bulk Modulus (GPa) = 30.70689 63.07550 46.89120
# Shear Modulus (GPa) = 87.90543 28.89190 58.39867
#
# Velocity S-wave (km/s) = 6.42258 3.68205 5.23484
# Velocity P-wave (km/s) = 8.33118 6.90469 7.65126
#
# Compressibility (1/GPa) = 0.03256598
#
# Stress axis : x y z
#
# Youngs Moduli (GPa) = 167.86405 42.66777 75.26745
#
# Poissons Ratio (x) = 0.04786 0.35562
# Poissons Ratio (y) = 0.18831 -0.05942
# Poissons Ratio (z) = 0.79311 -0.03368
#
# Static dielectric constant tensor:
#      x y z
#    x 1.774790 0.000000 0.000000 
#    y 0.000000 1.816880 0.000000 
#    z 0.000000 0.000000 1.722960 
# 
# From -- ./inp_files/24486.got.cif
#   From: 2010.05.17/outbox.cif.g08.bks.cpg/sg38_13_cif.got.tgz:24486.got - 2010.06.03 18:07:57.
