data_PCOD9358025
_publ_section_title
;
Structure prediction by ZEFSAII (Michael W. Deem and Ramdas Pophale) SiO2 
 PCOD9358025
Probable space group: A M M 2
;
_chemical_formula_sum "Si O2"
_cell_formula_units_Z 58
_cell_length_a 9.080500
_cell_length_b 14.940024
_cell_length_c 24.779146
_cell_angle_alpha 90.000000
_cell_angle_beta 90.000000
_cell_angle_gamma 90.000000
_cell_volume 3361.610507
_symmetry_space_group_name_H-M "A M M 2"
_symmetry_group_IT_number 38
_symmetry_cell_setting 'orthorhombic'
loop_
_space_group_symop_operation_xyz
x,y,z
-x,-y,z
-x,y,z
x,-y,z
x,1/2+y,1/2+z
-x,1/2-y,1/2+z
-x,1/2+y,1/2+z
x,1/2-y,1/2+z
loop_
_atom_site_type_symbol
_atom_site_label
_atom_site_fract_x
_atom_site_fract_y
_atom_site_fract_z
Si Si1 0.322413 0.273548 0.506750
Si Si2 0.674251 0.106327 0.802572
Si Si3 0.663233 0.314192 0.627887
Si Si4 0.676509 0.897528 0.439532
Si Si5 0.823349 0.896470 0.326039
Si Si6 0.176137 0.254361 0.734405
Si Si7 0.500000 0.500000 0.632273
Si Si8 0.172858 0.107130 0.916055
O O1 0.500000 0.286140 0.503943
O O2 0.278973 0.290827 0.568418
O O3 0.286626 0.174298 0.485280
O O4 0.246770 0.342073 0.465695
O O5 0.500000 0.124068 0.804432
O O6 0.750803 0.163898 0.756319
O O7 0.747096 0.131075 0.860030
O O8 0.696301 0.000000 0.794917
O O9 0.500000 0.270071 0.633679
O O10 0.765061 0.282012 0.676089
O O11 0.626103 0.419749 0.631279
O O12 0.500000 0.896080 0.432548
O O13 0.750061 0.871265 0.382804
O O14 0.720643 0.000000 0.451864
O O15 0.779928 0.831420 0.277577
O O16 0.000000 0.892160 0.331887
O O17 0.782686 0.000000 0.314500
O O18 0.000000 0.246857 0.734753
O O19 0.000000 0.129028 0.912073
O O20 0.187476 0.000000 0.923163
#
# Coordination Sequence:
#
# PCOD9358025 Si02
#       8
#     8   8   8   8   8   8   2   8
#     4  10  20  34  56  77 105 144 186 230 272 324
#     4  10  21  38  58  81 108 145 186 228 274 332
#     4   9  21  37  56  78 106 142 188 225 274 323
#     4   9  18  33  51  77 105 134 171 216 265 314
#     4   9  19  33  50  75 107 141 175 211 263 327
#     4  11  22  36  56  81 111 143 180 230 282 335
#     4   8  20  40  58  76 106 152 186 236 268 322
#     4  10  21  34  52  81 114 144 177 223 284 341
#
# _framework density 17.253634999999999
#
# number of rings (size 3 to 8) (size 9 to 14) (size 15 to 20)
#    0.414    1.931    0.000    2.069    1.931    6.069 
#    0.000    0.690    0.000    2.483    0.000    0.000 
#    0.000    0.000    0.000    0.000    0.000    0.000 
#
# Total GULP energy -161484.738730 kJ/mol
# GULP energy per Si atom -5568.439267 kJ/mol
# Density = 1.721437 g / cm^3
# Si number density = 17.253635 Si / 1000 Ang^3
#
#
#
# Elastic Constant Matrix: (Units=GPa)
#
#
# Indices 1 2 3 4 5 6 
#
# 1 53.7092 53.1124 63.2874 0.0000 0.0000 0.0000
# 2 53.1124 79.9466 83.0206 0.0000 0.0000 0.0000
# 3 63.2874 83.0206 151.7290 0.0000 0.0000 0.0000
# 4 0.0000 0.0000 0.0000 5.8114 0.0000 0.0000
# 5 0.0000 0.0000 0.0000 0.0000 82.8899 0.0000
# 6 0.0000 0.0000 0.0000 0.0000 0.0000 24.4624
#
#
#
# Elastic Compliance Matrix: (Units=1/GPa)
#
#
# Indices 1 2 3 4 5 6 
#
# 1 0.057423 -0.030747 -0.007128 0.000000 0.000000 0.000000
# 2 -0.030747 0.045431 -0.012034 0.000000 0.000000 0.000000
# 3 -0.007128 -0.012034 0.016148 0.000000 0.000000 0.000000
# 4 0.000000 0.000000 0.000000 0.172076 0.000000 0.000000
# 5 0.000000 0.000000 0.000000 0.000000 0.012064 0.000000
# 6 0.000000 0.000000 0.000000 0.000000 0.000000 0.040879
#
#
# Mechanical properties :
#
#
# Convention : Reuss Voigt Hill
#
# Bulk Modulus (GPa) = 52.12223 76.02507 64.07365
# Shear Modulus (GPa) = 11.10532 28.36369 19.73450
#
# Velocity S-wave (km/s) = 2.53978 4.05893 3.38566
# Velocity P-wave (km/s) = 6.23503 8.13176 7.24573
#
# Compressibility (1/GPa) = 0.01918567
#
# Stress axis : x y z
#
# Youngs Moduli (GPa) = 17.41451 22.01135 61.92621
#
# Poissons Ratio (x) = 0.67678 0.44143
# Poissons Ratio (y) = 0.53544 0.74519
# Poissons Ratio (z) = 0.12413 0.26487
#
# Static dielectric constant tensor:
#      x y z
#    x 1.580460 0.000000 0.000000 
#    y 0.000000 1.594800 0.000000 
#    z 0.000000 0.000000 1.557150 
# 
# From -- ./inp_files/22037.got.cif
#   From: 2010.05.17/outbox.cif.g08.bks.cpg/sg38_12_cif.got.tgz:22037.got - 2010.06.03 18:07:57.
