data_PCOD9358394
_publ_section_title
;
Structure prediction by ZEFSAII (Michael W. Deem and Ramdas Pophale) SiO2 
 PCOD9358394
Probable space group: A M M 2
;
_chemical_formula_sum "Si O2"
_cell_formula_units_Z 48
_cell_length_a 8.564128
_cell_length_b 23.375907
_cell_length_c 11.886113
_cell_angle_alpha 90.000000
_cell_angle_beta 90.000000
_cell_angle_gamma 90.000000
_cell_volume 2379.531592
_symmetry_space_group_name_H-M "A M M 2"
_symmetry_group_IT_number 38
_symmetry_cell_setting 'orthorhombic'
loop_
_space_group_symop_operation_xyz
x,y,z
-x,-y,z
-x,y,z
x,-y,z
x,1/2+y,1/2+z
-x,1/2-y,1/2+z
-x,1/2+y,1/2+z
x,1/2-y,1/2+z
loop_
_atom_site_type_symbol
_atom_site_label
_atom_site_fract_x
_atom_site_fract_y
_atom_site_fract_z
Si Si1 0.821800 0.932726 0.902410
Si Si2 0.319691 0.355195 0.220486
Si Si3 0.188399 0.434129 0.023622
Si Si4 0.814377 0.229461 0.895070
Si Si5 0.187562 0.145270 0.324846
Si Si6 0.316551 0.856825 0.076786
O O1 0.703050 0.902073 0.818973
O O2 0.000000 0.916148 0.871512
O O3 0.809782 0.000000 0.894775
O O4 0.781399 0.909289 0.024885
O O5 0.500000 0.341265 0.201781
O O6 0.249351 0.387643 0.113157
O O7 0.234414 0.300541 0.276710
O O8 0.241515 0.500000 0.042494
O O9 0.000000 0.434483 0.032096
O O10 0.230420 0.409307 0.900845
O O11 0.775950 0.296235 0.891411
O O12 0.000000 0.223024 0.909036
O O13 0.731447 0.196614 0.997504
O O14 0.271047 0.149543 0.205754
O O15 0.000000 0.144274 0.307023
O O16 0.500000 0.866738 0.064795
#
# Coordination Sequence:
#
# PCOD9358394 Si02
#       6
#     8   8   8   8   8   8
#     4  10  20  36  60  86 114 154 202 246 289 344
#     4  11  22  36  58  90 124 156 194 247 308 361
#     4  10  22  41  63  88 120 161 208 251 297 358
#     4  10  21  39  63  87 116 155 205 252 297 356
#     4  10  23  41  62  86 115 158 205 248 296 356
#     4  11  23  38  58  87 122 153 190 242 304 364
#
# _framework density 20.172039000000002
#
# number of rings (size 3 to 8) (size 9 to 14) (size 15 to 20)
#    0.000    1.667    0.000    6.500    2.333    6.333 
#    0.000    1.667    0.000    0.000    0.000    0.000 
#    0.000    0.000    0.000    0.000    0.000    0.000 
#
# Total GULP energy -134032.125259 kJ/mol
# GULP energy per Si atom -5584.671886 kJ/mol
# Density = 2.012613 g / cm^3
# Si number density = 20.172039 Si / 1000 Ang^3
#
#
#
# Elastic Constant Matrix: (Units=GPa)
#
#
# Indices 1 2 3 4 5 6 
#
# 1 40.3094 2.7354 10.3843 0.0000 0.0000 0.0000
# 2 2.7354 56.5633 3.8897 0.0000 0.0000 0.0000
# 3 10.3843 3.8897 81.5960 0.0000 0.0000 0.0000
# 4 0.0000 0.0000 0.0000 16.7790 0.0000 0.0000
# 5 0.0000 0.0000 0.0000 0.0000 -83.3036 0.0000
# 6 0.0000 0.0000 0.0000 0.0000 0.0000 -16.1894
#
#
#
# Elastic Compliance Matrix: (Units=1/GPa)
#
#
# Indices 1 2 3 4 5 6 
#
# 1 0.025708 -0.001022 -0.003223 0.000000 0.000000 0.000000
# 2 -0.001022 0.017778 -0.000717 0.000000 0.000000 0.000000
# 3 -0.003223 -0.000717 0.012700 0.000000 0.000000 0.000000
# 4 0.000000 0.000000 0.000000 0.059598 0.000000 0.000000
# 5 0.000000 0.000000 0.000000 0.000000 -0.012004 0.000000
# 6 0.000000 0.000000 0.000000 0.000000 0.000000 -0.061769
#
#
# Mechanical properties :
#
#
# Convention : Reuss Voigt Hill
#
# Bulk Modulus (GPa) = 21.61623 23.60973 22.61298
# Shear Modulus (GPa) = 74.23296 -5.77886 34.22705
#
# Velocity S-wave (km/s) = 6.07288 -1.69440 4.12364
# Velocity P-wave (km/s) = 7.74030 2.81098 5.82297
#
# Compressibility (1/GPa) = 0.04626153
#
# Stress axis : x y z
#
# Youngs Moduli (GPa) = 38.89880 56.24911 78.74091
#
# Poissons Ratio (x) = 0.05746 0.25378
# Poissons Ratio (y) = 0.03974 0.05649
# Poissons Ratio (z) = 0.12537 0.04036
#
# Static dielectric constant tensor:
#      x y z
#    x 1.699330 0.000000 0.000000 
#    y 0.000000 1.716600 0.000000 
#    z 0.000000 0.000000 1.718850 
# 
# From -- ./inp_files/8142.got.cif
#   From: 2010.05.17/outbox.cif.g08.bks.cpg/sg38_5_cif.got.tgz:8142.got - 2010.06.03 18:07:57.
