data_PCOD9358720
_publ_section_title
;
Structure prediction by ZEFSAII (Michael W. Deem and Ramdas Pophale) SiO2 
 PCOD9358720
Probable space group: A M M 2
;
_chemical_formula_sum "Si O2"
_cell_formula_units_Z 40
_cell_length_a 9.050685
_cell_length_b 7.571481
_cell_length_c 30.456289
_cell_angle_alpha 90.000000
_cell_angle_beta 90.000000
_cell_angle_gamma 90.000000
_cell_volume 2087.080843
_symmetry_space_group_name_H-M "A M M 2"
_symmetry_group_IT_number 38
_symmetry_cell_setting 'orthorhombic'
loop_
_space_group_symop_operation_xyz
x,y,z
-x,-y,z
-x,y,z
x,-y,z
x,1/2+y,1/2+z
-x,1/2-y,1/2+z
-x,1/2+y,1/2+z
x,1/2-y,1/2+z
loop_
_atom_site_type_symbol
_atom_site_label
_atom_site_fract_x
_atom_site_fract_y
_atom_site_fract_z
Si Si1 0.333024 0.711690 0.248120
Si Si2 0.179270 0.500000 0.906357
Si Si3 0.166892 0.211298 0.157895
Si Si4 0.675670 0.289010 0.568300
Si Si5 0.822537 0.292739 0.337590
Si Si6 0.821700 0.500000 0.007600
O O1 0.500000 0.780729 0.244889
O O2 0.340114 0.500000 0.251593
O O3 0.242829 0.750000 0.204161
O O4 0.252632 0.771363 0.292558
O O5 0.224237 0.328353 0.878338
O O6 0.000000 0.500000 0.907240
O O7 0.226722 0.500000 0.956720
O O8 0.262556 0.268222 0.116014
O O9 0.000000 0.282515 0.156118
O O10 0.158304 0.000000 0.154589
O O11 0.500000 0.260242 0.566449
O O12 0.702636 0.500000 0.562752
O O13 0.757975 0.171554 0.532284
O O14 0.788184 0.500000 0.344619
O O15 0.000000 0.278288 0.332480
O O16 0.000000 0.500000 0.009930
#
# Coordination Sequence:
#
# PCOD9358720 Si02
#       6
#     8   4   8   8   8   4
#     4  10  21  35  52  79 115 153 190 231 285 348
#     4   9  20  37  59  87 113 145 195 245 296 351
#     4  10  21  36  56  83 113 149 193 239 288 346
#     4  10  22  41  62  85 119 159 198 246 301 357
#     4   9  18  35  57  80 111 149 190 240 290 339
#     4  11  23  39  63  93 121 155 199 251 306 363
#
# _framework density 19.165527000000001
#
# number of rings (size 3 to 8) (size 9 to 14) (size 15 to 20)
#    0.000    2.200    0.000    2.100    2.800    4.400 
#    0.000    4.000    0.000    2.400    0.000    0.000 
#    0.000    0.000    0.000    0.000    0.000    0.000 
#
# Total GULP energy -111668.607317 kJ/mol
# GULP energy per Si atom -5583.430366 kJ/mol
# Density = 1.912191 g / cm^3
# Si number density = 19.165527 Si / 1000 Ang^3
#
#
#
# Elastic Constant Matrix: (Units=GPa)
#
#
# Indices 1 2 3 4 5 6 
#
# 1 104.3629 49.6125 78.3915 0.0000 0.0000 0.0000
# 2 49.6125 79.5000 66.8671 0.0000 0.0000 0.0000
# 3 78.3915 66.8671 208.3712 0.0000 0.0000 0.0000
# 4 0.0000 0.0000 0.0000 33.8999 0.0000 0.0000
# 5 0.0000 0.0000 0.0000 0.0000 -67.9452 0.0000
# 6 0.0000 0.0000 0.0000 0.0000 0.0000 31.7690
#
#
#
# Elastic Compliance Matrix: (Units=1/GPa)
#
#
# Indices 1 2 3 4 5 6 
#
# 1 0.015488 -0.006526 -0.003733 0.000000 0.000000 0.000000
# 2 -0.006526 0.019979 -0.003956 0.000000 0.000000 0.000000
# 3 -0.003733 -0.003956 0.007473 0.000000 0.000000 0.000000
# 4 0.000000 0.000000 0.000000 0.029499 0.000000 0.000000
# 5 0.000000 0.000000 0.000000 0.000000 -0.014718 0.000000
# 6 0.000000 0.000000 0.000000 0.000000 0.000000 0.031477
#
#
# Mechanical properties :
#
#
# Convention : Reuss Voigt Hill
#
# Bulk Modulus (GPa) = 68.91646 86.88625 77.90136
# Shear Modulus (GPa) = 40.82851 12.70227 26.76539
#
# Velocity S-wave (km/s) = 4.62054 2.57722 3.74108
# Velocity P-wave (km/s) = 8.03134 7.36812 7.70687
#
# Compressibility (1/GPa) = 0.01451032
#
# Stress axis : x y z
#
# Youngs Moduli (GPa) = 64.56637 50.05350 133.81736
#
# Poissons Ratio (x) = 0.32665 0.49948
# Poissons Ratio (y) = 0.42136 0.52939
# Poissons Ratio (z) = 0.24100 0.19802
#
# Static dielectric constant tensor:
#      x y z
#    x 1.663650 0.000000 0.000000 
#    y 0.000000 1.687610 0.000000 
#    z 0.000000 0.000000 1.631250 
# 
# From -- ./inp_files/23225.got.cif
#   From: 2010.05.17/outbox.cif.g08.bks.cpg/sg38_12_cif.got.tgz:23225.got - 2010.06.03 18:07:57.
