data_PCOD9358311
_publ_section_title
;
Structure prediction by ZEFSAII (Michael W. Deem and Ramdas Pophale) SiO2 
 PCOD9358311
Probable space group: A M M 2
;
_chemical_formula_sum "Si O2"
_cell_formula_units_Z 64
_cell_length_a 19.367282
_cell_length_b 7.676940
_cell_length_c 20.639014
_cell_angle_alpha 90.000000
_cell_angle_beta 90.000000
_cell_angle_gamma 90.000000
_cell_volume 3068.638773
_symmetry_space_group_name_H-M "A M M 2"
_symmetry_group_IT_number 38
_symmetry_cell_setting 'orthorhombic'
loop_
_space_group_symop_operation_xyz
x,y,z
-x,-y,z
-x,y,z
x,-y,z
x,1/2+y,1/2+z
-x,1/2-y,1/2+z
-x,1/2+y,1/2+z
x,1/2-y,1/2+z
loop_
_atom_site_type_symbol
_atom_site_label
_atom_site_fract_x
_atom_site_fract_y
_atom_site_fract_z
Si Si1 0.668934 0.711788 0.816950
Si Si2 0.653157 0.296510 0.565779
Si Si3 0.919875 0.712574 0.373608
Si Si4 0.816872 0.204009 0.764946
Si Si5 0.421588 0.287363 0.694238
Si Si6 0.920144 0.210703 0.019393
Si Si7 0.800124 0.295450 0.118194
Si Si8 0.578701 0.296450 0.935653
O O1 0.674174 0.500000 0.819077
O O2 0.745168 0.780113 0.803413
O O3 0.622902 0.763433 0.755674
O O4 0.628433 0.777454 0.879998
O O5 0.636776 0.500000 0.560064
O O6 0.614583 0.225566 0.629036
O O7 0.734471 0.279928 0.579738
O O8 0.620570 0.214187 0.502251
O O9 0.915966 0.500000 0.373631
O O10 0.874506 0.778096 0.313651
O O11 0.898310 0.767427 0.446515
O O12 0.000000 0.759472 0.365738
O O13 0.808491 0.277010 0.691729
O O14 0.833926 0.000000 0.755846
O O15 0.500000 0.228846 0.698841
O O16 0.421702 0.500000 0.693128
O O17 0.868441 0.271070 0.075129
O O18 0.000000 0.265334 0.029457
O O19 0.919448 0.000000 0.019772
O O20 0.785432 0.500000 0.124505
O O21 0.500000 0.225014 0.939701
O O22 0.570956 0.500000 0.919064
#
# Coordination Sequence:
#
# PCOD9358311 Si02
#       8
#     8   8   8   8   8   8   8   8
#     4  10  20  36  57  81 111 148 186 227 277 337
#     4  11  22  37  58  82 111 149 193 239 280 332
#     4   8  16  34  59  84 109 142 185 227 270 325
#     4  10  21  36  56  83 114 148 187 232 278 330
#     4   9  17  32  56  81 103 137 187 232 271 323
#     4   9  19  37  61  87 114 147 190 235 278 332
#     4  11  23  37  55  83 120 154 188 235 288 338
#     4  10  22  39  58  83 116 149 182 230 293 349
#
# _framework density 20.856152999999999
#
# number of rings (size 3 to 8) (size 9 to 14) (size 15 to 20)
#    0.000    2.250    1.250    2.250    1.750    4.000 
#    0.000    1.250    0.000    3.000    0.000    0.000 
#    0.000    0.000    0.000    0.000    0.000    0.000 
#
# Total GULP energy -178613.692086 kJ/mol
# GULP energy per Si atom -5581.677878 kJ/mol
# Density = 2.080868 g / cm^3
# Si number density = 20.856153 Si / 1000 Ang^3
#
#
#
# Elastic Constant Matrix: (Units=GPa)
#
#
# Indices 1 2 3 4 5 6 
#
# 1 102.6984 -16.8021 68.1142 0.0000 0.0000 0.0000
# 2 -16.8021 33.3064 -10.4280 0.0000 0.0000 0.0000
# 3 68.1142 -10.4280 154.1242 0.0000 0.0000 0.0000
# 4 0.0000 0.0000 0.0000 -4.2749 0.0000 0.0000
# 5 0.0000 0.0000 0.0000 0.0000 42.6593 0.0000
# 6 0.0000 0.0000 0.0000 0.0000 0.0000 11.7810
#
#
#
# Elastic Compliance Matrix: (Units=1/GPa)
#
#
# Indices 1 2 3 4 5 6 
#
# 1 0.014698 0.005498 -0.006124 0.000000 0.000000 0.000000
# 2 0.005498 0.032730 -0.000215 0.000000 0.000000 0.000000
# 3 -0.006124 -0.000215 0.009180 0.000000 0.000000 0.000000
# 4 0.000000 0.000000 0.000000 -0.233922 0.000000 0.000000
# 5 0.000000 0.000000 0.000000 0.000000 0.023442 0.000000
# 6 0.000000 0.000000 0.000000 0.000000 0.000000 0.084883
#
#
# Mechanical properties :
#
#
# Convention : Reuss Voigt Hill
#
# Bulk Modulus (GPa) = 18.20637 41.32192 29.76415
# Shear Modulus (GPa) = -102.04458 26.64940 -37.69759
#
# Velocity S-wave (km/s) = -7.00243 3.57847 -4.25609
# Velocity P-wave (km/s) = 7.52531 6.07699 3.13851
#
# Compressibility (1/GPa) = 0.05492583
#
# Stress axis : x y z
#
# Youngs Moduli (GPa) = 68.03507 30.55280 108.93101
#
# Poissons Ratio (x) = -0.16796 0.66708
# Poissons Ratio (y) = -0.37402 0.02343
# Poissons Ratio (z) = 0.41664 0.00657
#
# Static dielectric constant tensor:
#      x y z
#    x 1.721250 0.000000 0.000000 
#    y 0.000000 1.792090 0.000000 
#    z 0.000000 0.000000 1.783420 
# 
# From -- ./inp_files/18987.got.cif
#   From: 2010.05.17/outbox.cif.g08.bks.cpg/sg38_10_cif.got.tgz:18987.got - 2010.06.03 18:07:57.
