data_PCOD9358442
_publ_section_title
;
Structure prediction by ZEFSAII (Michael W. Deem and Ramdas Pophale) SiO2 
 PCOD9358442
Probable space group: A M M 2
;
_chemical_formula_sum "Si O2"
_cell_formula_units_Z 48
_cell_length_a 7.773524
_cell_length_b 17.923762
_cell_length_c 17.735707
_cell_angle_alpha 90.000000
_cell_angle_beta 90.000000
_cell_angle_gamma 90.000000
_cell_volume 2471.130140
_symmetry_space_group_name_H-M "A M M 2"
_symmetry_group_IT_number 38
_symmetry_cell_setting 'orthorhombic'
loop_
_space_group_symop_operation_xyz
x,y,z
-x,-y,z
-x,y,z
x,-y,z
x,1/2+y,1/2+z
-x,1/2-y,1/2+z
-x,1/2+y,1/2+z
x,1/2-y,1/2+z
loop_
_atom_site_type_symbol
_atom_site_label
_atom_site_fract_x
_atom_site_fract_y
_atom_site_fract_z
Si Si1 0.000000 0.410804 0.041371
Si Si2 0.206489 0.323479 0.609546
Si Si3 0.706581 0.585582 0.298028
Si Si4 0.000000 0.409045 0.869179
Si Si5 0.304123 0.589900 0.759316
Si Si6 0.794832 0.085098 0.965810
Si Si7 0.301396 0.844051 0.640988
O O1 0.169388 0.382842 0.084306
O O2 0.000000 0.500000 0.041108
O O3 0.000000 0.383055 0.955110
O O4 0.248538 0.377565 0.679049
O O5 0.269317 0.361376 0.531992
O O6 0.289065 0.243858 0.626552
O O7 0.000000 0.312845 0.605281
O O8 0.500000 0.583443 0.299335
O O9 0.769756 0.500000 0.288006
O O10 0.763112 0.611852 0.380615
O O11 0.755532 0.634815 0.226132
O O12 0.831502 0.385461 0.822677
O O13 0.000000 0.500000 0.870466
O O14 0.500000 0.612501 0.776311
O O15 0.298018 0.500000 0.755587
O O16 0.000000 0.080443 0.976249
O O17 0.725626 0.000000 0.971831
O O18 0.500000 0.868902 0.631446
#
# Coordination Sequence:
#
# PCOD9358442 Si02
#       7
#     4   8   8   4   8   8   8
#     4  11  24  43  68  91 114 157 208 255 310 361
#     4  11  21  38  59  86 128 166 202 249 304 364
#     4   9  19  37  60  86 117 153 197 251 304 358
#     4   9  20  39  60  87 119 147 196 259 301 353
#     4  10  20  36  62  91 120 161 205 247 301 362
#     4   9  19  34  58  90 120 157 202 248 298 355
#     4  11  24  42  61  90 126 159 202 253 310 369
#
# _framework density 19.424310999999999
#
# number of rings (size 3 to 8) (size 9 to 14) (size 15 to 20)
#    0.000    2.000    1.667    1.500    1.167    3.667 
#    3.000    3.333    0.000    0.000    0.000    0.000 
#    0.000    0.000    0.000    0.000    0.000    0.000 
#
# Total GULP energy -134005.359025 kJ/mol
# GULP energy per Si atom -5583.556626 kJ/mol
# Density = 1.938010 g / cm^3
# Si number density = 19.424311 Si / 1000 Ang^3
#
#
#
# Elastic Constant Matrix: (Units=GPa)
#
#
# Indices 1 2 3 4 5 6 
#
# 1 85.2137 19.2310 49.8096 0.0000 0.0000 0.0000
# 2 19.2310 53.9186 67.5998 0.0000 0.0000 0.0000
# 3 49.8096 67.5998 204.9660 0.0000 0.0000 0.0000
# 4 0.0000 0.0000 0.0000 8.6816 0.0000 0.0000
# 5 0.0000 0.0000 0.0000 0.0000 -44.9854 0.0000
# 6 0.0000 0.0000 0.0000 0.0000 0.0000 15.0166
#
#
#
# Elastic Compliance Matrix: (Units=1/GPa)
#
#
# Indices 1 2 3 4 5 6 
#
# 1 0.013725 -0.001217 -0.002934 0.000000 0.000000 0.000000
# 2 -0.001217 0.031730 -0.010169 0.000000 0.000000 0.000000
# 3 -0.002934 -0.010169 0.008946 0.000000 0.000000 0.000000
# 4 0.000000 0.000000 0.000000 0.115187 0.000000 0.000000
# 5 0.000000 0.000000 0.000000 0.000000 -0.022229 0.000000
# 6 0.000000 0.000000 0.000000 0.000000 0.000000 0.066593
#
#
# Mechanical properties :
#
#
# Convention : Reuss Voigt Hill
#
# Bulk Modulus (GPa) = 38.81883 68.59769 53.70826
# Shear Modulus (GPa) = 19.90627 9.57308 14.73967
#
# Velocity S-wave (km/s) = 3.20474 2.22241 2.75767
# Velocity P-wave (km/s) = 5.80705 6.47901 6.15221
#
# Compressibility (1/GPa) = 0.02576069
#
# Stress axis : x y z
#
# Youngs Moduli (GPa) = 72.86079 31.51605 111.78482
#
# Poissons Ratio (x) = 0.03834 0.32798
# Poissons Ratio (y) = 0.08865 1.13676
# Poissons Ratio (z) = 0.21378 0.32049
#
# Static dielectric constant tensor:
#      x y z
#    x 1.698160 0.000000 0.000000 
#    y 0.000000 1.652530 0.000000 
#    z 0.000000 0.000000 1.656480 
# 
# From -- ./inp_files/12125.got.cif
#   From: 2010.05.17/outbox.cif.g08.bks.cpg/sg38_7_cif.got.tgz:12125.got - 2010.06.03 18:07:57.
