data_PCOD9358594
_publ_section_title
;
Structure prediction by ZEFSAII (Michael W. Deem and Ramdas Pophale) SiO2 
 PCOD9358594
Probable space group: A M M 2
;
_chemical_formula_sum "Si O2"
_cell_formula_units_Z 26
_cell_length_a 7.839359
_cell_length_b 7.727195
_cell_length_c 22.237757
_cell_angle_alpha 90.000000
_cell_angle_beta 90.000000
_cell_angle_gamma 90.000000
_cell_volume 1347.080054
_symmetry_space_group_name_H-M "A M M 2"
_symmetry_group_IT_number 38
_symmetry_cell_setting 'orthorhombic'
loop_
_space_group_symop_operation_xyz
x,y,z
-x,-y,z
-x,y,z
x,-y,z
x,1/2+y,1/2+z
-x,1/2-y,1/2+z
-x,1/2+y,1/2+z
x,1/2-y,1/2+z
loop_
_atom_site_type_symbol
_atom_site_label
_atom_site_fract_x
_atom_site_fract_y
_atom_site_fract_z
Si Si1 0.500000 0.500000 0.082350
Si Si2 0.191429 0.500000 0.175474
Si Si3 0.500000 0.690276 0.488468
Si Si4 0.294450 0.701912 0.766218
Si Si5 0.806701 0.790938 0.402599
O O1 0.334112 0.500000 0.124381
O O2 0.500000 0.334457 0.039319
O O3 0.219239 0.332219 0.217587
O O4 0.000000 0.500000 0.150932
O O5 0.500000 0.500000 0.515624
O O6 0.664822 0.713591 0.445987
O O7 0.500000 0.714964 0.764887
O O8 0.248420 0.500000 0.755872
O O9 0.232714 0.751033 0.833087
O O10 0.000000 0.739324 0.417427
O O11 0.793859 0.000000 0.407414
#
# Coordination Sequence:
#
# PCOD9358594 Si02
#       5
#     2   4   4   8   8
#     4  12  28  50  62  90 130 176 234 268 312 378
#     4  12  26  44  70  96 128 174 219 270 322 385
#     4  12  26  43  67  91 125 174 224 267 320 378
#     4  10  20  38  67 101 135 167 205 260 331 392
#     4  10  20  38  66  99 137 169 202 263 329 388
#
# _framework density 19.301006000000001
#
# number of rings (size 3 to 8) (size 9 to 14) (size 15 to 20)
#    0.000    1.231    4.615    0.923    2.154    4.923 
#    0.000    0.000    0.000    0.000    0.000    0.000 
#    0.000    0.000    0.000    0.000    0.000    0.000 
#
# Total GULP energy -72718.097666 kJ/mol
# GULP energy per Si atom -5593.699820 kJ/mol
# Density = 1.925708 g / cm^3
# Si number density = 19.301006 Si / 1000 Ang^3
#
#
#
# Elastic Constant Matrix: (Units=GPa)
#
#
# Indices 1 2 3 4 5 6 
#
# 1 160.8898 51.0104 65.7698 0.0000 0.0000 0.0000
# 2 51.0104 113.1420 71.5229 0.0000 0.0000 0.0000
# 3 65.7698 71.5229 114.9393 0.0000 0.0000 0.0000
# 4 0.0000 0.0000 0.0000 291.0699 0.0000 0.0000
# 5 0.0000 0.0000 0.0000 0.0000 -10.5637 0.0000
# 6 0.0000 0.0000 0.0000 0.0000 0.0000 2.3936
#
#
#
# Elastic Compliance Matrix: (Units=1/GPa)
#
#
# Indices 1 2 3 4 5 6 
#
# 1 0.008212 -0.001207 -0.003948 0.000000 0.000000 0.000000
# 2 -0.001207 0.014747 -0.008486 0.000000 0.000000 0.000000
# 3 -0.003948 -0.008486 0.016240 0.000000 0.000000 0.000000
# 4 0.000000 0.000000 0.000000 0.003436 0.000000 0.000000
# 5 0.000000 0.000000 0.000000 0.000000 -0.094664 0.000000
# 6 0.000000 0.000000 0.000000 0.000000 0.000000 0.417785
#
#
# Mechanical properties :
#
#
# Convention : Reuss Voigt Hill
#
# Bulk Modulus (GPa) = 83.91196 85.06415 84.48805
# Shear Modulus (GPa) = 12.59416 69.95783 41.27600
#
# Velocity S-wave (km/s) = 2.55721 6.02697 4.62945
# Velocity P-wave (km/s) = 7.23110 9.62292 8.51145
#
# Compressibility (1/GPa) = 0.01191725
#
# Stress axis : x y z
#
# Youngs Moduli (GPa) = 121.77392 67.81069 61.57601
#
# Poissons Ratio (x) = 0.08181 0.24311
# Poissons Ratio (y) = 0.14692 0.52254
# Poissons Ratio (z) = 0.48079 0.57545
#
# Static dielectric constant tensor:
#      x y z
#    x 1.668090 0.000000 0.000000 
#    y 0.000000 1.658120 0.000000 
#    z 0.000000 0.000000 1.617180 
# 
# From -- ./inp_files/16095.got.cif
#   From: 2010.05.17/outbox.cif.g08.bks.cpg/sg38_9_cif.got.tgz:16095.got - 2010.06.03 18:07:57.
