data_PCOD9358269
_publ_section_title
;
Structure prediction by ZEFSAII (Michael W. Deem and Ramdas Pophale) SiO2 
 PCOD9358269
Probable space group: A M M 2
;
_chemical_formula_sum "Si O2"
_cell_formula_units_Z 48
_cell_length_a 8.719182
_cell_length_b 14.783716
_cell_length_c 20.849579
_cell_angle_alpha 90.000000
_cell_angle_beta 90.000000
_cell_angle_gamma 90.000000
_cell_volume 2687.550565
_symmetry_space_group_name_H-M "A M M 2"
_symmetry_group_IT_number 38
_symmetry_cell_setting 'orthorhombic'
loop_
_space_group_symop_operation_xyz
x,y,z
-x,-y,z
-x,y,z
x,-y,z
x,1/2+y,1/2+z
-x,1/2-y,1/2+z
-x,1/2+y,1/2+z
x,1/2-y,1/2+z
loop_
_atom_site_type_symbol
_atom_site_label
_atom_site_fract_x
_atom_site_fract_y
_atom_site_fract_z
Si Si1 0.682719 0.310509 0.781680
Si Si2 0.816198 0.000000 0.857149
Si Si3 0.317815 0.000000 0.466811
Si Si4 0.815907 0.698273 0.400705
Si Si5 0.317183 0.500000 0.214863
Si Si6 0.183098 0.000000 0.323087
Si Si7 0.816231 0.190020 0.668616
Si Si8 0.815814 0.683218 0.022326
O O1 0.500000 0.316332 0.780488
O O2 0.735224 0.251964 0.843263
O O3 0.754189 0.409663 0.789853
O O4 0.743446 0.259310 0.718869
O O5 0.780254 0.907805 0.894616
O O6 0.728742 0.000000 0.789726
O O7 0.000000 0.000000 0.843797
O O8 0.264300 0.089346 0.504067
O O9 0.500000 0.000000 0.458960
O O10 0.240750 0.000000 0.396664
O O11 0.774622 0.743143 0.468447
O O12 0.000000 0.708638 0.392230
O O13 0.500000 0.500000 0.207666
O O14 0.246416 0.409929 0.184103
O O15 0.000000 0.000000 0.322770
O O16 0.778958 0.211637 0.594732
O O17 0.000000 0.190192 0.676752
O O18 0.000000 0.669026 0.019119
#
# Coordination Sequence:
#
# PCOD9358269 Si02
#       8
#     8   4   4   8   4   4   8   8
#     4  12  24  39  61  91 122 156 200 253 304 356
#     4  10  20  35  60  89 118 151 196 245 300 360
#     4  12  23  35  58  92 127 157 194 250 313 361
#     4  10  20  37  61  87 118 158 200 249 298 354
#     4  12  23  35  56  88 123 155 198 256 306 353
#     4  12  24  41  64  89 120 159 204 249 297 362
#     4  11  23  40  60  86 122 166 207 246 299 367
#     4  10  22  39  60  86 120 162 206 247 296 361
#
# _framework density 17.860130000000002
#
# number of rings (size 3 to 8) (size 9 to 14) (size 15 to 20)
#    0.000    1.000    3.333    4.750    0.000    3.333 
#    0.000    0.833    0.000    3.000    0.000    0.000 
#    0.000    0.000    0.000    0.000    0.000    0.000 
#
# Total GULP energy -134205.755862 kJ/mol
# GULP energy per Si atom -5591.906494 kJ/mol
# Density = 1.781948 g / cm^3
# Si number density = 17.860130 Si / 1000 Ang^3
#
#
#
# Elastic Constant Matrix: (Units=GPa)
#
#
# Indices 1 2 3 4 5 6 
#
# 1 90.0843 70.0637 78.6739 0.0000 0.0000 0.0000
# 2 70.0637 155.9378 92.4897 0.0000 0.0000 0.0000
# 3 78.6739 92.4897 168.0512 0.0000 0.0000 0.0000
# 4 0.0000 0.0000 0.0000 -68.0474 0.0000 0.0000
# 5 0.0000 0.0000 0.0000 0.0000 -24.7094 0.0000
# 6 0.0000 0.0000 0.0000 0.0000 0.0000 33.4211
#
#
#
# Elastic Compliance Matrix: (Units=1/GPa)
#
#
# Indices 1 2 3 4 5 6 
#
# 1 0.021536 -0.005488 -0.007062 0.000000 0.000000 0.000000
# 2 -0.005488 0.010919 -0.003440 0.000000 0.000000 0.000000
# 3 -0.007062 -0.003440 0.011150 0.000000 0.000000 0.000000
# 4 0.000000 0.000000 0.000000 -0.014696 0.000000 0.000000
# 5 0.000000 0.000000 0.000000 0.000000 -0.040470 0.000000
# 6 0.000000 0.000000 0.000000 0.000000 0.000000 0.029921
#
#
# Mechanical properties :
#
#
# Convention : Reuss Voigt Hill
#
# Bulk Modulus (GPa) = 86.01987 99.61422 92.81704
# Shear Modulus (GPa) = 92.22314 -0.34408 45.93953
#
# Velocity S-wave (km/s) = 7.19364 -0.43940 5.07717
# Velocity P-wave (km/s) = 10.82892 7.45911 9.29795
#
# Compressibility (1/GPa) = 0.01162522
#
# Stress axis : x y z
#
# Youngs Moduli (GPa) = 46.43290 91.58316 89.68485
#
# Poissons Ratio (x) = 0.50259 0.63336
# Poissons Ratio (y) = 0.25481 0.30855
# Poissons Ratio (z) = 0.32791 0.31508
#
# Static dielectric constant tensor:
#      x y z
#    x 1.596600 0.000000 0.000000 
#    y 0.000000 1.586430 0.000000 
#    z 0.000000 0.000000 1.593830 
# 
# From -- ./inp_files/16751.got.cif
#   From: 2010.05.17/outbox.cif.g08.bks.cpg/sg38_9_cif.got.tgz:16751.got - 2010.06.03 18:07:57.
