data_PCOD9358309
_publ_section_title
;
Structure prediction by ZEFSAII (Michael W. Deem and Ramdas Pophale) SiO2 
 PCOD9358309
Probable space group: A M M 2
;
_chemical_formula_sum "Si O2"
_cell_formula_units_Z 48
_cell_length_a 8.635626
_cell_length_b 30.480760
_cell_length_c 10.363051
_cell_angle_alpha 90.000000
_cell_angle_beta 90.000000
_cell_angle_gamma 90.000000
_cell_volume 2727.766881
_symmetry_space_group_name_H-M "A M M 2"
_symmetry_group_IT_number 38
_symmetry_cell_setting 'orthorhombic'
loop_
_space_group_symop_operation_xyz
x,y,z
-x,-y,z
-x,y,z
x,-y,z
x,1/2+y,1/2+z
-x,1/2-y,1/2+z
-x,1/2+y,1/2+z
x,1/2-y,1/2+z
loop_
_atom_site_type_symbol
_atom_site_label
_atom_site_fract_x
_atom_site_fract_y
_atom_site_fract_z
Si Si1 0.312138 0.784643 0.586210
Si Si2 0.815462 0.115883 0.872240
Si Si3 0.314624 0.051289 0.087811
Si Si4 0.686185 0.885085 0.587676
Si Si5 0.814550 0.948900 0.369469
Si Si6 0.312028 0.787232 0.880673
O O1 0.500000 0.784025 0.582079
O O2 0.265161 0.834750 0.557465
O O3 0.267464 0.774758 0.733991
O O4 0.258351 0.748806 0.483569
O O5 0.747520 0.104778 0.731009
O O6 0.753853 0.164494 0.906407
O O7 0.000000 0.116245 0.865692
O O8 0.758330 0.081569 0.978505
O O9 0.500000 0.055335 0.084637
O O10 0.254149 0.063573 0.230072
O O11 0.273972 0.000000 0.067154
O O12 0.500000 0.886583 0.589366
O O13 0.750115 0.918218 0.481741
O O14 0.000000 0.945857 0.364663
O O15 0.772467 0.000000 0.392922
O O16 0.500000 0.789896 0.884778
#
# Coordination Sequence:
#
# PCOD9358309 Si02
#       6
#     8   8   8   8   8   8
#     4   8  16  30  51  76 101 133 174 220 263 307
#     4  11  22  36  54  79 111 144 178 221 274 321
#     4  10  21  38  59  81 105 138 181 224 265 316
#     4  10  20  36  57  81 108 142 185 225 263 313
#     4  10  21  37  56  81 113 144 174 215 269 322
#     4   9  17  33  53  74 102 136 176 218 262 315
#
# _framework density 17.596810999999999
#
# number of rings (size 3 to 8) (size 9 to 14) (size 15 to 20)
#    0.000    2.333    0.000    4.000    0.000    4.000 
#    0.000    7.500    0.000    0.000    0.000    0.000 
#    0.000    0.000    0.000    0.000    0.000    0.000 
#
# Total GULP energy -133945.012041 kJ/mol
# GULP energy per Si atom -5581.042168 kJ/mol
# Density = 1.755676 g / cm^3
# Si number density = 17.596811 Si / 1000 Ang^3
#
#
#
# Elastic Constant Matrix: (Units=GPa)
#
#
# Indices 1 2 3 4 5 6 
#
# 1 56.4668 42.3391 47.9687 0.0000 0.0000 0.0000
# 2 42.3391 115.3363 122.6623 0.0000 0.0000 0.0000
# 3 47.9687 122.6623 157.4198 0.0000 0.0000 0.0000
# 4 0.0000 0.0000 0.0000 44.4154 0.0000 0.0000
# 5 0.0000 0.0000 0.0000 0.0000 23.0726 0.0000
# 6 0.0000 0.0000 0.0000 0.0000 0.0000 18.3671
#
#
#
# Elastic Compliance Matrix: (Units=1/GPa)
#
#
# Indices 1 2 3 4 5 6 
#
# 1 0.024628 -0.006185 -0.002685 0.000000 0.000000 0.000000
# 2 -0.006185 0.052168 -0.038765 0.000000 0.000000 0.000000
# 3 -0.002685 -0.038765 0.037376 0.000000 0.000000 0.000000
# 4 0.000000 0.000000 0.000000 0.022515 0.000000 0.000000
# 5 0.000000 0.000000 0.000000 0.000000 0.043341 0.000000
# 6 0.000000 0.000000 0.000000 0.000000 0.000000 0.054445
#
#
# Mechanical properties :
#
#
# Convention : Reuss Voigt Hill
#
# Bulk Modulus (GPa) = 52.90341 83.90699 68.40520
# Shear Modulus (GPa) = 14.87901 24.92121 19.90011
#
# Velocity S-wave (km/s) = 2.91099 3.76737 3.36652
# Velocity P-wave (km/s) = 6.43646 8.16766 7.35319
#
# Compressibility (1/GPa) = 0.01890237
#
# Stress axis : x y z
#
# Youngs Moduli (GPa) = 40.60390 19.16900 26.75492
#
# Poissons Ratio (x) = 0.11856 0.07185
# Poissons Ratio (y) = 0.25113 1.03714
# Poissons Ratio (z) = 0.10904 0.74308
#
# Static dielectric constant tensor:
#      x y z
#    x 1.588400 0.000000 0.000000 
#    y 0.000000 1.584260 0.000000 
#    z 0.000000 0.000000 1.573250 
# 
# From -- ./inp_files/3717.got.cif
#   From: 2010.05.17/outbox.cif.g08.bks.cpg/sg38_2_cif.got.tgz:3717.got - 2010.06.03 18:07:57.
