data_PCOD9358597
_publ_section_title
;
Structure prediction by ZEFSAII (Michael W. Deem and Ramdas Pophale) SiO2 
 PCOD9358597
Probable space group: A M M 2
;
_chemical_formula_sum "Si O2"
_cell_formula_units_Z 48
_cell_length_a 16.279065
_cell_length_b 15.027220
_cell_length_c 10.444780
_cell_angle_alpha 90.000000
_cell_angle_beta 90.000000
_cell_angle_gamma 90.000000
_cell_volume 2555.097039
_symmetry_space_group_name_H-M "A M M 2"
_symmetry_group_IT_number 38
_symmetry_cell_setting 'orthorhombic'
loop_
_space_group_symop_operation_xyz
x,y,z
-x,-y,z
-x,y,z
x,-y,z
x,1/2+y,1/2+z
-x,1/2-y,1/2+z
-x,1/2+y,1/2+z
x,1/2-y,1/2+z
loop_
_atom_site_type_symbol
_atom_site_label
_atom_site_fract_x
_atom_site_fract_y
_atom_site_fract_z
Si Si1 0.825685 0.648419 0.248930
Si Si2 0.000000 0.605680 0.140877
Si Si3 0.181862 0.640638 0.755784
Si Si4 0.596858 0.000000 0.596889
Si Si5 0.726218 0.140084 0.997700
Si Si6 0.401886 0.500000 0.405459
Si Si7 0.281242 0.143144 0.506834
Si Si8 0.000000 0.895596 0.349797
O O1 0.920045 0.631625 0.220098
O O2 0.812636 0.753412 0.251995
O O3 0.787892 0.616382 0.381457
O O4 0.775444 0.615841 0.126650
O O5 0.000000 0.500000 0.129925
O O6 0.000000 0.645069 0.994997
O O7 0.227426 0.610762 0.627109
O O8 0.084973 0.623210 0.775748
O O9 0.233468 0.612383 0.879885
O O10 0.612275 0.000000 0.751095
O O11 0.636586 0.912370 0.532122
O O12 0.500000 0.000000 0.578876
O O13 0.643486 0.085667 0.967425
O O14 0.710924 0.248168 0.002396
O O15 0.500000 0.500000 0.426671
O O16 0.000000 0.000000 0.369230
#
# Coordination Sequence:
#
# PCOD9358597 Si02
#       8
#     8   4   8   4   8   4   8   4
#     4  10  20  39  59  86 121 166 213 251 300 369
#     4  11  23  33  57  89 118 161 214 266 299 348
#     4  10  22  39  60  85 126 169 203 256 313 363
#     4  11  24  41  71 100 123 161 210 262 313 383
#     4  10  23  40  65  95 124 167 207 256 320 373
#     4  11  24  43  69  96 127 163 202 262 327 385
#     4  10  21  40  67  91 125 165 209 255 308 377
#     4  11  23  35  53  87 122 161 210 262 311 354
#
# _framework density 18.785979999999999
#
# number of rings (size 3 to 8) (size 9 to 14) (size 15 to 20)
#    0.000    1.667    3.333    0.500    4.667    1.333 
#    0.000    2.500    0.000    0.000    0.000    0.000 
#    0.000    0.000    0.000    0.000    0.000    0.000 
#
# Total GULP energy -133844.207292 kJ/mol
# GULP energy per Si atom -5576.841970 kJ/mol
# Density = 1.874322 g / cm^3
# Si number density = 18.785980 Si / 1000 Ang^3
#
#
#
# Elastic Constant Matrix: (Units=GPa)
#
#
# Indices 1 2 3 4 5 6 
#
# 1 177.6055 39.5395 95.3585 0.0000 0.0000 0.0000
# 2 39.5395 61.8422 41.3616 0.0000 0.0000 0.0000
# 3 95.3585 41.3616 168.2996 0.0000 0.0000 0.0000
# 4 0.0000 0.0000 0.0000 -0.9707 0.0000 0.0000
# 5 0.0000 0.0000 0.0000 0.0000 21.5073 0.0000
# 6 0.0000 0.0000 0.0000 0.0000 0.0000 39.9428
#
#
#
# Elastic Compliance Matrix: (Units=1/GPa)
#
#
# Indices 1 2 3 4 5 6 
#
# 1 0.008435 -0.002629 -0.004133 0.000000 0.000000 0.000000
# 2 -0.002629 0.020170 -0.003468 0.000000 0.000000 0.000000
# 3 -0.004133 -0.003468 0.009136 0.000000 0.000000 0.000000
# 4 0.000000 0.000000 0.000000 -1.030176 0.000000 0.000000
# 5 0.000000 0.000000 0.000000 0.000000 0.046496 0.000000
# 6 0.000000 0.000000 0.000000 0.000000 0.000000 0.025036
#
#
# Mechanical properties :
#
#
# Convention : Reuss Voigt Hill
#
# Bulk Modulus (GPa) = 57.86391 84.47409 71.16900
# Shear Modulus (GPa) = -5.58856 27.52838 10.96991
#
# Velocity S-wave (km/s) = -1.72665 3.83217 2.41911
# Velocity P-wave (km/s) = 5.18589 8.04020 6.76529
#
# Compressibility (1/GPa) = 0.01728193
#
# Stress axis : x y z
#
# Youngs Moduli (GPa) = 118.55688 49.57841 109.45875
#
# Poissons Ratio (x) = 0.13032 0.45241
# Poissons Ratio (y) = 0.31163 0.37957
# Poissons Ratio (z) = 0.49001 0.17192
#
# Static dielectric constant tensor:
#      x y z
#    x 1.814540 0.000000 0.000000 
#    y 0.000000 1.668150 0.000000 
#    z 0.000000 0.000000 1.687330 
# 
# From -- ./inp_files/5543.got.cif
#   From: 2010.05.17/outbox.cif.g08.bks.cpg/sg38_3_cif.got.tgz:5543.got - 2010.06.03 18:07:57.
