data_PCOD9358409
_publ_section_title
;
Structure prediction by ZEFSAII (Michael W. Deem and Ramdas Pophale) SiO2 
 PCOD9358409
Probable space group: A M M 2
;
_chemical_formula_sum "Si O2"
_cell_formula_units_Z 48
_cell_length_a 8.007366
_cell_length_b 9.000378
_cell_length_c 34.542718
_cell_angle_alpha 90.000000
_cell_angle_beta 90.000000
_cell_angle_gamma 90.000000
_cell_volume 2489.470224
_symmetry_space_group_name_H-M "A M M 2"
_symmetry_group_IT_number 38
_symmetry_cell_setting 'orthorhombic'
loop_
_space_group_symop_operation_xyz
x,y,z
-x,-y,z
-x,y,z
x,-y,z
x,1/2+y,1/2+z
-x,1/2-y,1/2+z
-x,1/2+y,1/2+z
x,1/2-y,1/2+z
loop_
_atom_site_type_symbol
_atom_site_label
_atom_site_fract_x
_atom_site_fract_y
_atom_site_fract_z
Si Si1 0.500000 0.319426 0.723421
Si Si2 0.500000 0.178083 0.808050
Si Si3 0.810323 0.677202 0.852961
Si Si4 0.184166 0.321492 0.671199
Si Si5 0.698135 0.328106 0.093917
Si Si6 0.301854 0.325606 0.429654
Si Si7 0.799776 0.828032 0.015218
O O1 0.500000 0.500000 0.728119
O O2 0.500000 0.240970 0.764646
O O3 0.335712 0.276021 0.698975
O O4 0.334412 0.240038 0.829290
O O5 0.500000 0.000000 0.809320
O O6 0.785178 0.500000 0.850208
O O7 0.790133 0.730578 0.897257
O O8 0.000000 0.710844 0.839863
O O9 0.189459 0.500000 0.669095
O O10 0.212100 0.259335 0.628265
O O11 0.000000 0.276831 0.685426
O O12 0.500000 0.316489 0.100698
O O13 0.747483 0.500000 0.095359
O O14 0.737257 0.262996 0.051831
O O15 0.500000 0.317048 0.422487
O O16 0.251759 0.500000 0.426751
O O17 0.265249 0.275999 0.473471
O O18 0.000000 0.824103 0.014496
O O19 0.745569 0.000000 0.019766
#
# Coordination Sequence:
#
# PCOD9358409 Si02
#       7
#     4   4   8   8   8   8   8
#     4  10  22  42  66  93 126 159 196 248 303 364
#     4  12  26  44  68  97 130 165 204 254 311 374
#     4  11  24  42  66  95 128 168 211 257 311 372
#     4  10  21  39  65  93 120 157 202 245 298 363
#     4  11  23  37  55  82 118 160 206 254 306 359
#     4  10  20  36  60  89 120 160 207 257 312 368
#     4  10  21  36  55  82 117 159 208 256 303 361
#
# _framework density 19.281210999999999
#
# number of rings (size 3 to 8) (size 9 to 14) (size 15 to 20)
#    0.000    1.500    1.667    3.250    0.000    8.333 
#    0.000    1.667    0.000    0.000    0.000    0.000 
#    0.000    0.000    0.000    0.000    0.000    0.000 
#
# Total GULP energy -134145.474072 kJ/mol
# GULP energy per Si atom -5589.394753 kJ/mol
# Density = 1.923733 g / cm^3
# Si number density = 19.281211 Si / 1000 Ang^3
#
#
#
# Elastic Constant Matrix: (Units=GPa)
#
#
# Indices 1 2 3 4 5 6 
#
# 1 129.7625 54.5943 70.0144 0.0000 0.0000 0.0000
# 2 54.5943 48.0525 43.7456 0.0000 0.0000 0.0000
# 3 70.0144 43.7456 128.9137 0.0000 0.0000 0.0000
# 4 0.0000 0.0000 0.0000 34.9017 0.0000 0.0000
# 5 0.0000 0.0000 0.0000 0.0000 3.2021 0.0000
# 6 0.0000 0.0000 0.0000 0.0000 0.0000 11.9478
#
#
#
# Elastic Compliance Matrix: (Units=1/GPa)
#
#
# Indices 1 2 3 4 5 6 
#
# 1 0.015847 -0.014715 -0.003613 0.000000 0.000000 0.000000
# 2 -0.014715 0.043777 -0.006864 0.000000 0.000000 0.000000
# 3 -0.003613 -0.006864 0.012049 0.000000 0.000000 0.000000
# 4 0.000000 0.000000 0.000000 0.028652 0.000000 0.000000
# 5 0.000000 0.000000 0.000000 0.000000 0.312298 0.000000
# 6 0.000000 0.000000 0.000000 0.000000 0.000000 0.083698
#
#
# Mechanical properties :
#
#
# Convention : Reuss Voigt Hill
#
# Bulk Modulus (GPa) = 46.97213 71.49304 59.23259
# Shear Modulus (GPa) = 9.02853 19.23527 14.13190
#
# Velocity S-wave (km/s) = 2.16627 3.16193 2.71022
# Velocity P-wave (km/s) = 5.53818 7.10564 6.37030
#
# Compressibility (1/GPa) = 0.02128922
#
# Stress axis : x y z
#
# Youngs Moduli (GPa) = 63.10418 22.84309 82.99715
#
# Poissons Ratio (x) = 0.33613 0.29989
# Poissons Ratio (y) = 0.92856 0.56965
# Poissons Ratio (z) = 0.22801 0.15678
#
# Static dielectric constant tensor:
#      x y z
#    x 1.687300 0.000000 0.000000 
#    y 0.000000 1.650440 0.000000 
#    z 0.000000 0.000000 1.637510 
# 
# From -- ./inp_files/24422.got.cif
#   From: 2010.05.17/outbox.cif.g08.bks.cpg/sg38_13_cif.got.tgz:24422.got - 2010.06.03 18:07:57.
