data_PCOD9358486
_publ_section_title
;
Structure prediction by ZEFSAII (Michael W. Deem and Ramdas Pophale) SiO2 
 PCOD9358486
Probable space group: A M M 2
;
_chemical_formula_sum "Si O2"
_cell_formula_units_Z 48
_cell_length_a 8.534532
_cell_length_b 15.628362
_cell_length_c 19.494074
_cell_angle_alpha 90.000000
_cell_angle_beta 90.000000
_cell_angle_gamma 90.000000
_cell_volume 2600.134320
_symmetry_space_group_name_H-M "A M M 2"
_symmetry_group_IT_number 38
_symmetry_cell_setting 'orthorhombic'
loop_
_space_group_symop_operation_xyz
x,y,z
-x,-y,z
-x,y,z
x,-y,z
x,1/2+y,1/2+z
-x,1/2-y,1/2+z
-x,1/2+y,1/2+z
x,1/2-y,1/2+z
loop_
_atom_site_type_symbol
_atom_site_label
_atom_site_fract_x
_atom_site_fract_y
_atom_site_fract_z
Si Si1 0.813345 0.652356 0.059460
Si Si2 0.689744 0.158000 0.062612
Si Si3 0.688261 0.000000 0.652275
Si Si4 0.308143 0.000000 0.810382
Si Si5 0.690263 0.154578 0.905619
Si Si6 0.688328 0.650449 0.906639
Si Si7 0.186246 0.000000 0.311885
Si Si8 0.310293 0.000000 0.157548
O O1 0.757407 0.748288 0.077397
O O2 0.749285 0.583395 0.112796
O O3 0.000000 0.649006 0.057318
O O4 0.747396 0.631799 0.983560
O O5 0.500000 0.164017 0.064003
O O6 0.738468 0.084492 0.115314
O O7 0.735357 0.134752 0.984280
O O8 0.740398 0.000000 0.731453
O O9 0.500000 0.000000 0.650549
O O10 0.255204 0.916135 0.851990
O O11 0.500000 0.000000 0.811095
O O12 0.500000 0.153326 0.904211
O O13 0.738212 0.251976 0.890131
O O14 0.500000 0.647128 0.906904
O O15 0.752467 0.582673 0.852905
O O16 0.247445 0.000000 0.234312
O O17 0.000000 0.000000 0.312293
O O18 0.500000 0.000000 0.159580
#
# Coordination Sequence:
#
# PCOD9358486 Si02
#       8
#     8   8   4   4   8   8   4   4
#     4  11  22  37  57  81 111 146 184 229 282 335
#     4   9  18  35  60  86 110 141 186 234 275 323
#     4  11  22  35  53  79 111 147 186 227 270 326
#     4   9  17  30  52  83 112 136 168 215 270 320
#     4   8  15  30  55  84 108 132 169 221 272 315
#     4  10  20  37  60  83 107 139 183 230 273 326
#     4  12  25  38  53  79 115 150 183 226 286 344
#     4  10  21  37  58  83 112 149 191 232 276 330
#
# _framework density 18.460584999999998
#
# number of rings (size 3 to 8) (size 9 to 14) (size 15 to 20)
#    0.000    2.167    0.000    5.000    0.000    4.000 
#    0.000    3.333    0.000    9.000    0.000    0.000 
#    0.000    0.000    0.000    0.000    0.000    0.000 
#
# Total GULP energy -134020.799159 kJ/mol
# GULP energy per Si atom -5584.199965 kJ/mol
# Density = 1.841857 g / cm^3
# Si number density = 18.460585 Si / 1000 Ang^3
#
#
#
# Elastic Constant Matrix: (Units=GPa)
#
#
# Indices 1 2 3 4 5 6 
#
# 1 56.3447 43.6872 45.5455 0.0000 0.0000 0.0000
# 2 43.6872 165.6726 151.2502 0.0000 0.0000 0.0000
# 3 45.5455 151.2502 185.0747 0.0000 0.0000 0.0000
# 4 0.0000 0.0000 0.0000 -16.2839 0.0000 0.0000
# 5 0.0000 0.0000 0.0000 0.0000 1.1249 0.0000
# 6 0.0000 0.0000 0.0000 0.0000 0.0000 -14.0585
#
#
#
# Elastic Compliance Matrix: (Units=1/GPa)
#
#
# Indices 1 2 3 4 5 6 
#
# 1 0.022654 -0.003482 -0.002729 0.000000 0.000000 0.000000
# 2 -0.003482 0.024308 -0.019008 0.000000 0.000000 0.000000
# 3 -0.002729 -0.019008 0.021609 0.000000 0.000000 0.000000
# 4 0.000000 0.000000 0.000000 -0.061410 0.000000 0.000000
# 5 0.000000 0.000000 0.000000 0.000000 0.888966 0.000000
# 6 0.000000 0.000000 0.000000 0.000000 0.000000 -0.071131
#
#
# Mechanical properties :
#
#
# Convention : Reuss Voigt Hill
#
# Bulk Modulus (GPa) = 55.15243 98.67309 76.91276
# Shear Modulus (GPa) = 5.67228 5.26377 5.46803
#
# Velocity S-wave (km/s) = 1.75480 1.69043 1.72291
# Velocity P-wave (km/s) = 5.83493 7.57475 6.76103
#
# Compressibility (1/GPa) = 0.01813157
#
# Stress axis : x y z
#
# Youngs Moduli (GPa) = 44.14246 41.13886 46.27628
#
# Poissons Ratio (x) = 0.14325 0.12630
# Poissons Ratio (y) = 0.15371 0.87964
# Poissons Ratio (z) = 0.12048 0.78199
#
# Static dielectric constant tensor:
#      x y z
#    x 1.617960 0.000000 0.000000 
#    y 0.000000 1.626240 0.000000 
#    z 0.000000 0.000000 1.606640 
# 
# From -- ./inp_files/16759.got.cif
#   From: 2010.05.17/outbox.cif.g08.bks.cpg/sg38_9_cif.got.tgz:16759.got - 2010.06.03 18:07:57.
