data_PCOD9358609
_publ_section_title
;
Structure prediction by ZEFSAII (Michael W. Deem and Ramdas Pophale) SiO2 
 PCOD9358609
Probable space group: A M M 2
;
_chemical_formula_sum "Si O2"
_cell_formula_units_Z 48
_cell_length_a 16.924781
_cell_length_b 14.596366
_cell_length_c 9.834038
_cell_angle_alpha 90.000000
_cell_angle_beta 90.000000
_cell_angle_gamma 90.000000
_cell_volume 2429.403678
_symmetry_space_group_name_H-M "A M M 2"
_symmetry_group_IT_number 38
_symmetry_cell_setting 'orthorhombic'
loop_
_space_group_symop_operation_xyz
x,y,z
-x,-y,z
-x,y,z
x,-y,z
x,1/2+y,1/2+z
-x,1/2-y,1/2+z
-x,1/2+y,1/2+z
x,1/2-y,1/2+z
loop_
_atom_site_type_symbol
_atom_site_label
_atom_site_fract_x
_atom_site_fract_y
_atom_site_fract_z
Si Si1 0.225604 0.500000 0.302980
Si Si2 0.177320 0.804658 0.912001
Si Si3 0.411573 0.795999 0.810764
Si Si4 0.411021 0.500000 0.322767
Si Si5 0.088832 0.200683 0.179617
Si Si6 0.677666 0.690369 0.025882
Si Si7 0.088319 0.500000 0.801057
Si Si8 0.232839 0.000000 0.507694
O O1 0.199394 0.409182 0.380666
O O2 0.320133 0.500000 0.270613
O O3 0.189424 0.500000 0.153245
O O4 0.151020 0.754659 0.773653
O O5 0.252606 0.759326 0.984433
O O6 0.108381 0.790683 0.021358
O O7 0.500000 0.781518 0.758176
O O8 0.410865 0.896903 0.883328
O O9 0.389528 0.718778 0.918786
O O10 0.353340 0.799640 0.680440
O O11 0.500000 0.500000 0.250725
O O12 0.093357 0.093166 0.215405
O O13 0.000000 0.233342 0.208892
O O14 0.713018 0.590077 0.999714
O O15 0.163231 0.500000 0.899040
O O16 0.000000 0.500000 0.866396
#
# Coordination Sequence:
#
# PCOD9358609 Si02
#       8
#     4   8   8   4   8   8   4   4
#     4  12  23  44  63  97 128 167 225 265 316 395
#     4  12  24  41  68  96 128 170 217 269 319 384
#     4  11  23  41  64  93 128 168 213 264 322 388
#     4  10  20  39  63  89 126 170 206 253 317 380
#     4  11  24  44  65  95 132 171 212 263 326 388
#     4  12  22  40  64  94 126 166 215 265 324 381
#     4  10  23  41  63  91 131 169 205 262 331 382
#     4  12  22  40  65  97 129 164 220 274 322 383
#
# _framework density 19.757933999999999
#
# number of rings (size 3 to 8) (size 9 to 14) (size 15 to 20)
#    0.000    0.667    5.000    3.500    0.000    0.000 
#    0.000    4.167    0.000    0.000    0.000    0.000 
#    0.000    0.000    0.000    0.000    0.000    0.000 
#
# Total GULP energy -133794.939003 kJ/mol
# GULP energy per Si atom -5574.789125 kJ/mol
# Density = 1.971296 g / cm^3
# Si number density = 19.757934 Si / 1000 Ang^3
#
#
#
# Elastic Constant Matrix: (Units=GPa)
#
#
# Indices 1 2 3 4 5 6 
#
# 1 63.0593 16.9394 15.1340 0.0000 0.0000 0.0000
# 2 16.9394 136.5096 36.0511 0.0000 0.0000 0.0000
# 3 15.1340 36.0511 80.2285 0.0000 0.0000 0.0000
# 4 0.0000 0.0000 0.0000 24.2649 0.0000 0.0000
# 5 0.0000 0.0000 0.0000 0.0000 32.3883 0.0000
# 6 0.0000 0.0000 0.0000 0.0000 0.0000 12.4472
#
#
#
# Elastic Compliance Matrix: (Units=1/GPa)
#
#
# Indices 1 2 3 4 5 6 
#
# 1 0.016849 -0.001420 -0.002540 0.000000 0.000000 0.000000
# 2 -0.001420 0.008432 -0.003521 0.000000 0.000000 0.000000
# 3 -0.002540 -0.003521 0.014526 0.000000 0.000000 0.000000
# 4 0.000000 0.000000 0.000000 0.041212 0.000000 0.000000
# 5 0.000000 0.000000 0.000000 0.000000 0.030875 0.000000
# 6 0.000000 0.000000 0.000000 0.000000 0.000000 0.080340
#
#
# Mechanical properties :
#
#
# Convention : Reuss Voigt Hill
#
# Bulk Modulus (GPa) = 40.25090 46.22737 43.23913
# Shear Modulus (GPa) = 23.20434 27.93159 25.56797
#
# Velocity S-wave (km/s) = 3.43072 3.76399 3.60121
# Velocity P-wave (km/s) = 6.00910 6.50675 6.26287
#
# Compressibility (1/GPa) = 0.02484417
#
# Stress axis : x y z
#
# Youngs Moduli (GPa) = 59.35005 118.60244 68.84334
#
# Poissons Ratio (x) = 0.16841 0.17488
# Poissons Ratio (y) = 0.08427 0.24239
# Poissons Ratio (z) = 0.15077 0.41759
#
# Static dielectric constant tensor:
#      x y z
#    x 1.754330 0.000000 0.000000 
#    y 0.000000 1.690830 0.000000 
#    z 0.000000 0.000000 1.672650 
# 
# From -- ./inp_files/6262.got.cif
#   From: 2010.05.17/outbox.cif.g08.bks.cpg/sg38_4_cif.got.tgz:6262.got - 2010.06.03 18:07:57.
