data_PCOD9358302
_publ_section_title
;
Structure prediction by ZEFSAII (Michael W. Deem and Ramdas Pophale) SiO2 
 PCOD9358302
Probable space group: A M M 2
;
_chemical_formula_sum "Si O2"
_cell_formula_units_Z 64
_cell_length_a 25.934606
_cell_length_b 7.663039
_cell_length_c 14.818764
_cell_angle_alpha 90.000000
_cell_angle_beta 90.000000
_cell_angle_gamma 90.000000
_cell_volume 2945.049997
_symmetry_space_group_name_H-M "A M M 2"
_symmetry_group_IT_number 38
_symmetry_cell_setting 'orthorhombic'
loop_
_space_group_symop_operation_xyz
x,y,z
-x,-y,z
-x,y,z
x,-y,z
x,1/2+y,1/2+z
-x,1/2-y,1/2+z
-x,1/2+y,1/2+z
x,1/2-y,1/2+z
loop_
_atom_site_type_symbol
_atom_site_label
_atom_site_fract_x
_atom_site_fract_y
_atom_site_fract_z
Si Si1 0.746021 0.200508 0.490600
Si Si2 0.444625 0.787929 0.161925
Si Si3 0.138433 0.714179 0.013376
Si Si4 0.942953 0.709600 0.867112
Si Si5 0.665140 0.796406 0.843384
Si Si6 0.555672 0.202892 0.873419
Si Si7 0.057123 0.291116 0.157495
Si Si8 0.667003 0.201800 0.136910
O O1 0.802836 0.275561 0.507662
O O2 0.712864 0.282954 0.410391
O O3 0.711713 0.208197 0.580898
O O4 0.752685 0.000000 0.463573
O O5 0.500000 0.741707 0.120108
O O6 0.444936 0.715524 0.263898
O O7 0.391104 0.730844 0.117828
O O8 0.442413 0.000000 0.168250
O O9 0.140174 0.500000 0.016119
O O10 0.104931 0.773782 0.099054
O O11 0.104080 0.770091 0.928131
O O12 0.944205 0.500000 0.875729
O O13 0.935886 0.754298 0.762759
O O14 0.000000 0.774196 0.895089
O O15 0.612909 0.724587 0.891667
O O16 0.673729 0.712740 0.745229
O O17 0.655158 0.000000 0.824886
O O18 0.500000 0.279492 0.902015
O O19 0.555125 0.000000 0.903150
O O20 0.055388 0.500000 0.144798
O O21 0.000000 0.223799 0.131096
O O22 0.668561 0.000000 0.108725
#
# Coordination Sequence:
#
# PCOD9358302 Si02
#       8
#     8   8   8   8   8   8   8   8
#     4  11  23  38  54  75 106 143 186 227 260 304
#     4   8  14  26  47  74 100 127 162 207 261 319
#     4   9  19  35  54  75 101 138 178 213 252 300
#     4   9  17  32  55  81 107 134 166 206 254 307
#     4  10  20  36  57  79 105 138 176 219 269 321
#     4   8  14  26  47  74 100 127 162 207 261 319
#     4   9  17  32  55  81 107 134 166 206 254 307
#     4  10  20  36  57  79 105 138 176 219 269 321
#
# _framework density 21.731380000000001
#
# number of rings (size 3 to 8) (size 9 to 14) (size 15 to 20)
#    0.000    2.750    0.000    1.500    0.000    3.500 
#    0.000    6.250    0.000    6.750    0.000    0.000 
#    0.000    0.000    0.000    0.000    0.000    0.000 
#
# Total GULP energy -178481.127565 kJ/mol
# GULP energy per Si atom -5577.535236 kJ/mol
# Density = 2.168192 g / cm^3
# Si number density = 21.731380 Si / 1000 Ang^3
#
#
#
# Elastic Constant Matrix: (Units=GPa)
#
#
# Indices 1 2 3 4 5 6 
#
# 1 229.6628 5.5720 72.9302 0.0000 0.0000 0.0000
# 2 5.5720 42.6352 -7.6772 0.0000 0.0000 0.0000
# 3 72.9302 -7.6772 78.8978 0.0000 0.0000 0.0000
# 4 0.0000 0.0000 0.0000 19.0351 0.0000 0.0000
# 5 0.0000 0.0000 0.0000 0.0000 27.3579 0.0000
# 6 0.0000 0.0000 0.0000 0.0000 0.0000 13.8737
#
#
#
# Elastic Compliance Matrix: (Units=1/GPa)
#
#
# Indices 1 2 3 4 5 6 
#
# 1 0.006312 -0.001909 -0.006021 0.000000 0.000000 0.000000
# 2 -0.001909 0.024451 0.004144 0.000000 0.000000 0.000000
# 3 -0.006021 0.004144 0.018643 0.000000 0.000000 0.000000
# 4 0.000000 0.000000 0.000000 0.052535 0.000000 0.000000
# 5 0.000000 0.000000 0.000000 0.000000 0.036553 0.000000
# 6 0.000000 0.000000 0.000000 0.000000 0.000000 0.072079
#
#
# Mechanical properties :
#
#
# Convention : Reuss Voigt Hill
#
# Bulk Modulus (GPa) = 23.90388 54.76063 39.33226
# Shear Modulus (GPa) = 21.54346 30.74471 26.14409
#
# Velocity S-wave (km/s) = 3.15199 3.76541 3.47227
# Velocity P-wave (km/s) = 4.92649 6.64515 5.84929
#
# Compressibility (1/GPa) = 0.04183420
#
# Stress axis : x y z
#
# Youngs Moduli (GPa) = 158.41743 40.89895 53.63888
#
# Poissons Ratio (x) = 0.07808 0.32295
# Poissons Ratio (y) = 0.30244 -0.22227
# Poissons Ratio (z) = 0.95379 -0.16948
#
# Static dielectric constant tensor:
#      x y z
#    x 1.829560 0.000000 0.000000 
#    y 0.000000 1.840220 0.000000 
#    z 0.000000 0.000000 1.763700 
# 
# From -- ./inp_files/15863.got.cif
#   From: 2010.05.17/outbox.cif.g08.bks.cpg/sg38_8_cif.got.tgz:15863.got - 2010.06.03 18:07:57.
