data_PCOD9358257
_publ_section_title
;
Structure prediction by ZEFSAII (Michael W. Deem and Ramdas Pophale) SiO2 
 PCOD9358257
Probable space group: A M M 2
;
_chemical_formula_sum "Si O2"
_cell_formula_units_Z 48
_cell_length_a 8.784324
_cell_length_b 28.686266
_cell_length_c 10.476966
_cell_angle_alpha 90.000000
_cell_angle_beta 90.000000
_cell_angle_gamma 90.000000
_cell_volume 2640.084951
_symmetry_space_group_name_H-M "A M M 2"
_symmetry_group_IT_number 38
_symmetry_cell_setting 'orthorhombic'
loop_
_space_group_symop_operation_xyz
x,y,z
-x,-y,z
-x,y,z
x,-y,z
x,1/2+y,1/2+z
-x,1/2-y,1/2+z
-x,1/2+y,1/2+z
x,1/2-y,1/2+z
loop_
_atom_site_type_symbol
_atom_site_label
_atom_site_fract_x
_atom_site_fract_y
_atom_site_fract_z
Si Si1 0.680953 0.353704 0.830590
Si Si2 0.181463 0.446558 0.917812
Si Si3 0.317870 0.647763 0.325821
Si Si4 0.818857 0.692235 0.579208
Si Si5 0.181750 0.697322 0.077634
Si Si6 0.681790 0.447297 0.198745
O O1 0.500000 0.351362 0.841805
O O2 0.735786 0.407219 0.836176
O O3 0.736798 0.329072 0.702149
O O4 0.755819 0.328043 0.951995
O O5 0.220771 0.500000 0.883505
O O6 0.000000 0.440928 0.908464
O O7 0.232443 0.439869 0.065018
O O8 0.500000 0.652116 0.337831
O O9 0.238907 0.667267 0.451618
O O10 0.261113 0.676202 0.202464
O O11 0.280017 0.593694 0.296477
O O12 0.788298 0.747495 0.569704
O O13 0.000000 0.686124 0.593095
O O14 0.000000 0.690182 0.086516
O O15 0.500000 0.444124 0.172958
O O16 0.714429 0.500000 0.243267
#
# Coordination Sequence:
#
# PCOD9358257 Si02
#       6
#     8   8   8   8   8   8
#     4  12  24  39  61  89 120 156 197 246 298 350
#     4  10  20  35  59  89 118 151 194 242 291 347
#     4  11  22  37  60  90 119 153 194 241 295 349
#     4  11  25  42  59  82 118 161 199 244 298 351
#     4  11  23  40  62  86 115 155 201 246 295 349
#     4   9  18  34  57  86 118 150 188 236 290 346
#
# _framework density 18.181234
#
# number of rings (size 3 to 8) (size 9 to 14) (size 15 to 20)
#    0.000    1.333    1.667    4.500    0.000    8.333 
#    0.000    0.833    0.000    3.000    0.000    0.000 
#    0.000    0.000    0.000    0.000    0.000    0.000 
#
# Total GULP energy -134164.672657 kJ/mol
# GULP energy per Si atom -5590.194694 kJ/mol
# Density = 1.813985 g / cm^3
# Si number density = 18.181234 Si / 1000 Ang^3
#
#
#
# Elastic Constant Matrix: (Units=GPa)
#
#
# Indices 1 2 3 4 5 6 
#
# 1 49.2832 47.5492 9.3276 0.0000 0.0000 0.0000
# 2 47.5492 115.3357 30.8846 0.0000 0.0000 0.0000
# 3 9.3276 30.8846 74.1640 0.0000 0.0000 0.0000
# 4 0.0000 0.0000 0.0000 -37.5971 0.0000 0.0000
# 5 0.0000 0.0000 0.0000 0.0000 35.2692 0.0000
# 6 0.0000 0.0000 0.0000 0.0000 0.0000 29.6808
#
#
#
# Elastic Compliance Matrix: (Units=1/GPa)
#
#
# Indices 1 2 3 4 5 6 
#
# 1 0.033893 -0.014442 0.001751 0.000000 0.000000 0.000000
# 2 -0.014442 0.015912 -0.004810 0.000000 0.000000 0.000000
# 3 0.001751 -0.004810 0.015266 0.000000 0.000000 0.000000
# 4 0.000000 0.000000 0.000000 -0.026598 0.000000 0.000000
# 5 0.000000 0.000000 0.000000 0.000000 0.028353 0.000000
# 6 0.000000 0.000000 0.000000 0.000000 0.000000 0.033692
#
#
# Mechanical properties :
#
#
# Convention : Reuss Voigt Hill
#
# Bulk Modulus (GPa) = 33.25502 46.03399 39.64451
# Shear Modulus (GPa) = 34.35363 15.53867 24.94615
#
# Velocity S-wave (km/s) = 4.35157 2.92662 3.70818
# Velocity P-wave (km/s) = 6.60142 6.06586 6.33929
#
# Compressibility (1/GPa) = 0.03007064
#
# Stress axis : x y z
#
# Youngs Moduli (GPa) = 29.50423 62.84387 65.50309
#
# Poissons Ratio (x) = 0.90760 -0.11473
# Poissons Ratio (y) = 0.42611 0.31508
# Poissons Ratio (z) = -0.05168 0.30229
#
# Static dielectric constant tensor:
#      x y z
#    x 1.606150 0.000000 0.000000 
#    y 0.000000 1.640100 0.000000 
#    z 0.000000 0.000000 1.570050 
# 
# From -- ./inp_files/3728.got.cif
#   From: 2010.05.17/outbox.cif.g08.bks.cpg/sg38_2_cif.got.tgz:3728.got - 2010.06.03 18:07:57.
