data_PCOD9358234
_publ_section_title
;
Structure prediction by ZEFSAII (Michael W. Deem and Ramdas Pophale) SiO2 
 PCOD9358234
Probable space group: A M M 2
;
_chemical_formula_sum "Si O2"
_cell_formula_units_Z 64
_cell_length_a 8.171838
_cell_length_b 18.379963
_cell_length_c 21.173833
_cell_angle_alpha 90.000000
_cell_angle_beta 90.000000
_cell_angle_gamma 90.000000
_cell_volume 3180.269065
_symmetry_space_group_name_H-M "A M M 2"
_symmetry_group_IT_number 38
_symmetry_cell_setting 'orthorhombic'
loop_
_space_group_symop_operation_xyz
x,y,z
-x,-y,z
-x,y,z
x,-y,z
x,1/2+y,1/2+z
-x,1/2-y,1/2+z
-x,1/2+y,1/2+z
x,1/2-y,1/2+z
loop_
_atom_site_type_symbol
_atom_site_label
_atom_site_fract_x
_atom_site_fract_y
_atom_site_fract_z
Si Si1 0.200217 0.169551 0.458700
Si Si2 0.306885 0.162238 0.707820
Si Si3 0.698275 0.084543 0.835672
Si Si4 0.694311 0.583723 0.589837
Si Si5 0.800007 0.416144 0.833045
Si Si6 0.196063 0.917427 0.581972
Si Si7 0.804818 0.337158 0.463476
Si Si8 0.193599 0.673060 0.710126
O O1 0.251819 0.127674 0.395362
O O2 0.256747 0.126916 0.521049
O O3 0.252919 0.253447 0.460201
O O4 0.000000 0.169691 0.458609
O O5 0.500000 0.148733 0.705152
O O6 0.244516 0.126178 0.772728
O O7 0.231980 0.124848 0.646276
O O8 0.274849 0.248083 0.707959
O O9 0.500000 0.087512 0.837595
O O10 0.763257 0.122710 0.898446
O O11 0.746707 0.000000 0.833394
O O12 0.500000 0.583875 0.600709
O O13 0.752065 0.500000 0.589681
O O14 0.729290 0.620853 0.522756
O O15 0.775490 0.629217 0.645929
O O16 0.745850 0.500000 0.834050
O O17 0.747385 0.374382 0.769792
O O18 0.000000 0.417126 0.832875
O O19 0.000000 0.921640 0.575230
O O20 0.260432 0.000000 0.583923
O O21 0.000000 0.336498 0.472295
O O22 0.000000 0.684789 0.717792
#
# Coordination Sequence:
#
# PCOD9358234 Si02
#       8
#     8   8   8   8   8   8   8   8
#     4   9  18  33  53  81 116 148 180 225 283 343
#     4  11  23  39  59  82 113 155 197 237 290 352
#     4  10  22  40  59  80 111 152 195 240 293 352
#     4  11  24  41  60  83 115 155 195 236 288 352
#     4   9  17  31  54  83 113 145 181 225 280 338
#     4  10  20  35  58  86 114 147 189 238 290 343
#     4  11  22  36  58  87 117 150 191 241 293 344
#     4  11  22  37  59  87 117 148 190 243 293 342
#
# _framework density 20.124084
#
# number of rings (size 3 to 8) (size 9 to 14) (size 15 to 20)
#    0.000    1.750    0.000    4.500    0.000    8.500 
#    0.000    0.625    0.000    1.500    0.000    0.000 
#    0.000    0.000    0.000    0.000    0.000    0.000 
#
# Total GULP energy -178903.957688 kJ/mol
# GULP energy per Si atom -5590.748678 kJ/mol
# Density = 2.007828 g / cm^3
# Si number density = 20.124084 Si / 1000 Ang^3
#
#
#
# Elastic Constant Matrix: (Units=GPa)
#
#
# Indices 1 2 3 4 5 6 
#
# 1 9.3079 -10.6734 -14.0905 0.0000 0.0000 0.0000
# 2 -10.6734 153.4760 57.9673 0.0000 0.0000 0.0000
# 3 -14.0905 57.9673 143.8608 0.0000 0.0000 0.0000
# 4 0.0000 0.0000 0.0000 45.0335 0.0000 0.0000
# 5 0.0000 0.0000 0.0000 0.0000 16.3670 0.0000
# 6 0.0000 0.0000 0.0000 0.0000 0.0000 -3.9246
#
#
#
# Elastic Compliance Matrix: (Units=1/GPa)
#
#
# Indices 1 2 3 4 5 6 
#
# 1 0.129266 0.004963 0.010661 0.000000 0.000000 0.000000
# 2 0.004963 0.007876 -0.002687 0.000000 0.000000 0.000000
# 3 0.010661 -0.002687 0.009078 0.000000 0.000000 0.000000
# 4 0.000000 0.000000 0.000000 0.022206 0.000000 0.000000
# 5 0.000000 0.000000 0.000000 0.000000 0.061099 0.000000
# 6 0.000000 0.000000 0.000000 0.000000 0.000000 -0.254803
#
#
# Mechanical properties :
#
#
# Convention : Reuss Voigt Hill
#
# Bulk Modulus (GPa) = 5.81077 41.45016 23.63047
# Shear Modulus (GPa) = 804.83996 29.72460 417.28228
#
# Velocity S-wave (km/s) = 20.02016 3.84743 14.41544
# Velocity P-wave (km/s) = 23.17980 6.35445 16.99532
#
# Compressibility (1/GPa) = 0.17209414
#
# Stress axis : x y z
#
# Youngs Moduli (GPa) = 7.73597 126.97052 110.15359
#
# Poissons Ratio (x) = -0.63016 -1.17437
# Poissons Ratio (y) = -0.03839 0.29603
# Poissons Ratio (z) = -0.08247 0.34122
#
# Static dielectric constant tensor:
#      x y z
#    x 1.725170 0.000000 0.000000 
#    y 0.000000 1.680730 0.000000 
#    z 0.000000 0.000000 1.666860 
# 
# From -- ./inp_files/20090.got.cif
#   From: 2010.05.17/outbox.cif.g08.bks.cpg/sg38_11_cif.got.tgz:20090.got - 2010.06.03 18:07:57.
