data_PCOD9358289
_publ_section_title
;
Structure prediction by ZEFSAII (Michael W. Deem and Ramdas Pophale) SiO2 
 PCOD9358289
Probable space group: A M M 2
;
_chemical_formula_sum "Si O2"
_cell_formula_units_Z 40
_cell_length_a 8.076333
_cell_length_b 26.427128
_cell_length_c 9.734492
_cell_angle_alpha 90.000000
_cell_angle_beta 90.000000
_cell_angle_gamma 90.000000
_cell_volume 2077.674349
_symmetry_space_group_name_H-M "A M M 2"
_symmetry_group_IT_number 38
_symmetry_cell_setting 'orthorhombic'
loop_
_space_group_symop_operation_xyz
x,y,z
-x,-y,z
-x,y,z
x,-y,z
x,1/2+y,1/2+z
-x,1/2-y,1/2+z
-x,1/2+y,1/2+z
x,1/2-y,1/2+z
loop_
_atom_site_type_symbol
_atom_site_label
_atom_site_fract_x
_atom_site_fract_y
_atom_site_fract_z
Si Si1 0.807037 0.292325 0.350700
Si Si2 0.797835 0.093785 0.861279
Si Si3 0.797210 0.500000 0.176426
Si Si4 0.309340 0.294711 0.654856
Si Si5 0.799899 0.406045 0.676700
Si Si6 0.202874 0.000000 0.360726
O O1 0.744411 0.349429 0.322727
O O2 0.790701 0.285081 0.514540
O O3 0.717825 0.249090 0.265132
O O4 0.000000 0.290100 0.312993
O O5 0.000000 0.094269 0.860867
O O6 0.743427 0.049947 0.758810
O O7 0.747601 0.083576 0.018994
O O8 0.000000 0.500000 0.177224
O O9 0.743773 0.500000 0.018613
O O10 0.500000 0.296950 0.613906
O O11 0.257988 0.349607 0.712216
O O12 0.743245 0.449933 0.778803
O O13 0.000000 0.405934 0.677902
O O14 0.000000 0.000000 0.359843
#
# Coordination Sequence:
#
# PCOD9358289 Si02
#       6
#     8   8   4   8   8   4
#     4  10  20  36  56  79 106 143 185 224 267 325
#     4   8  15  27  46  69  98 132 167 206 254 309
#     4   9  15  25  43  75 106 124 154 213 272 309
#     4  11  22  36  54  80 110 142 179 226 279 329
#     4   9  17  32  51  73 101 138 178 216 261 322
#     4   9  17  27  46  75 104 132 172 223 270 313
#
# _framework density 19.252293999999999
#
# number of rings (size 3 to 8) (size 9 to 14) (size 15 to 20)
#    0.000    2.600    0.000    4.200    0.000    4.000 
#    0.000    4.500    0.000    0.000    0.000    9.100 
#    0.000    0.000    0.000    0.000    0.000    0.000 
#
# Total GULP energy -111600.314411 kJ/mol
# GULP energy per Si atom -5580.015721 kJ/mol
# Density = 1.920848 g / cm^3
# Si number density = 19.252294 Si / 1000 Ang^3
#
#
#
# Elastic Constant Matrix: (Units=GPa)
#
#
# Indices 1 2 3 4 5 6 
#
# 1 22.0486 5.4469 2.0457 0.0000 0.0000 0.0000
# 2 5.4469 180.2464 117.5386 0.0000 0.0000 0.0000
# 3 2.0457 117.5386 109.6272 0.0000 0.0000 0.0000
# 4 0.0000 0.0000 0.0000 37.7291 0.0000 0.0000
# 5 0.0000 0.0000 0.0000 0.0000 8.4034 0.0000
# 6 0.0000 0.0000 0.0000 0.0000 0.0000 -10.0474
#
#
#
# Elastic Compliance Matrix: (Units=1/GPa)
#
#
# Indices 1 2 3 4 5 6 
#
# 1 0.045840 -0.002750 0.002093 0.000000 0.000000 0.000000
# 2 -0.002750 0.018607 -0.019898 0.000000 0.000000 0.000000
# 3 0.002093 -0.019898 0.030417 0.000000 0.000000 0.000000
# 4 0.000000 0.000000 0.000000 0.026505 0.000000 0.000000
# 5 0.000000 0.000000 0.000000 0.000000 0.118999 0.000000
# 6 0.000000 0.000000 0.000000 0.000000 0.000000 -0.099528
#
#
# Mechanical properties :
#
#
# Convention : Reuss Voigt Hill
#
# Bulk Modulus (GPa) = 18.60359 62.44273 40.52316
# Shear Modulus (GPa) = 25.01677 19.67642 22.34659
#
# Velocity S-wave (km/s) = 3.60865 3.20039 3.41064
# Velocity P-wave (km/s) = 5.20069 6.79419 6.05013
#
# Compressibility (1/GPa) = 0.05375307
#
# Stress axis : x y z
#
# Youngs Moduli (GPa) = 21.81519 53.74444 32.87660
#
# Poissons Ratio (x) = 0.14782 -0.06883
# Poissons Ratio (y) = 0.06000 0.65418
# Poissons Ratio (z) = -0.04567 1.06941
#
# Static dielectric constant tensor:
#      x y z
#    x 1.653660 0.000000 0.000000 
#    y 0.000000 1.656150 0.000000 
#    z 0.000000 0.000000 1.636730 
# 
# From -- ./inp_files/3472.got.cif
#   From: 2010.05.17/outbox.cif.g08.bks.cpg/sg38_2_cif.got.tgz:3472.got - 2010.06.03 18:07:57.
