data_PCOD9358166
_publ_section_title
;
Structure prediction by ZEFSAII (Michael W. Deem and Ramdas Pophale) SiO2 
 PCOD9358166
Probable space group: A M M 2
;
_chemical_formula_sum "Si O2"
_cell_formula_units_Z 58
_cell_length_a 24.887386
_cell_length_b 12.894154
_cell_length_c 7.618794
_cell_angle_alpha 90.000000
_cell_angle_beta 90.000000
_cell_angle_gamma 90.000000
_cell_volume 2444.884615
_symmetry_space_group_name_H-M "A M M 2"
_symmetry_group_IT_number 38
_symmetry_cell_setting 'orthorhombic'
loop_
_space_group_symop_operation_xyz
x,y,z
-x,-y,z
-x,y,z
x,-y,z
x,1/2+y,1/2+z
-x,1/2-y,1/2+z
-x,1/2+y,1/2+z
x,1/2-y,1/2+z
loop_
_atom_site_type_symbol
_atom_site_label
_atom_site_fract_x
_atom_site_fract_y
_atom_site_fract_z
Si Si1 0.936049 0.838591 0.567390
Si Si2 0.399567 0.884236 0.330844
Si Si3 0.716352 0.116827 0.149001
Si Si4 0.835343 0.114296 0.785918
Si Si5 0.775026 0.711541 0.965158
Si Si6 0.935714 0.108954 0.171348
Si Si7 0.558290 0.829076 0.687098
Si Si8 0.500000 0.500000 0.375737
O O1 0.895686 0.882587 0.710897
O O2 0.920768 0.879141 0.375492
O O3 0.926737 0.715459 0.572997
O O4 0.000000 0.858527 0.599661
O O5 0.430334 0.785877 0.251675
O O6 0.422637 0.000000 0.295340
O O7 0.340918 0.879705 0.245103
O O8 0.399976 0.868377 0.541858
O O9 0.760252 0.141830 0.299240
O O10 0.722260 0.000000 0.077956
O O11 0.725429 0.211769 0.014723
O O12 0.821272 0.205554 0.919479
O O13 0.795585 0.141917 0.623818
O O14 0.822875 0.000000 0.850780
O O15 0.000000 0.101904 0.171983
O O16 0.913580 0.000000 0.102687
O O17 0.500000 0.665963 0.091846
O O18 0.546839 0.908514 0.846551
#
# Coordination Sequence:
#
# PCOD9358166 Si02
#       8
#     8   8   8   8   8   8   8   2
#     4  10  20  35  56  83 111 144 183 224 269 328
#     4  11  21  38  60  89 115 153 198 244 293 339
#     4  10  21  38  63  85 114 145 186 242 292 337
#     4  11  22  37  59  81 111 146 183 225 277 340
#     4  10  22  40  58  84 111 144 186 231 287 345
#     4   9  18  34  53  73 105 139 171 215 262 307
#     4  10  20  37  58  80 124 160 193 237 279 332
#     4   8  20  36  58  78 124 168 192 236 284 324
#
# _framework density 23.723002000000001
#
# number of rings (size 3 to 8) (size 9 to 14) (size 15 to 20)
#    0.414    1.517    0.690    3.310    0.000    1.655 
#    1.241    6.207    3.034    8.276    0.000    0.000 
#    0.000    0.000    0.000    0.000    0.000    0.000 
#
# Total GULP energy -161749.440747 kJ/mol
# GULP energy per Si atom -5577.566922 kJ/mol
# Density = 2.366901 g / cm^3
# Si number density = 23.723002 Si / 1000 Ang^3
#
#
#
# Elastic Constant Matrix: (Units=GPa)
#
#
# Indices 1 2 3 4 5 6 
#
# 1 35.5060 20.2763 -13.2415 0.0000 0.0000 0.0000
# 2 20.2763 162.6157 6.3802 0.0000 0.0000 0.0000
# 3 -13.2415 6.3802 21.3452 0.0000 0.0000 0.0000
# 4 0.0000 0.0000 0.0000 -4.1343 0.0000 0.0000
# 5 0.0000 0.0000 0.0000 0.0000 25.3640 0.0000
# 6 0.0000 0.0000 0.0000 0.0000 0.0000 96.6337
#
#
#
# Elastic Compliance Matrix: (Units=1/GPa)
#
#
# Indices 1 2 3 4 5 6 
#
# 1 0.042306 -0.006380 0.028152 0.000000 0.000000 0.000000
# 2 -0.006380 0.007184 -0.006105 0.000000 0.000000 0.000000
# 3 0.028152 -0.006105 0.066138 0.000000 0.000000 0.000000
# 4 0.000000 0.000000 0.000000 -0.241880 0.000000 0.000000
# 5 0.000000 0.000000 0.000000 0.000000 0.039426 0.000000
# 6 0.000000 0.000000 0.000000 0.000000 0.000000 0.010348
#
#
# Mechanical properties :
#
#
# Convention : Reuss Voigt Hill
#
# Bulk Modulus (GPa) = 6.80448 27.36632 17.08540
# Shear Modulus (GPa) = -84.99956 37.30948 -23.84504
#
# Velocity S-wave (km/s) = -5.99231 3.97005 -3.17384
# Velocity P-wave (km/s) = 6.70839 5.70753 2.49266
#
# Compressibility (1/GPa) = 0.14696206
#
# Stress axis : x y z
#
# Youngs Moduli (GPa) = 23.63720 139.18922 15.11999
#
# Poissons Ratio (x) = 0.88797 -0.42565
# Poissons Ratio (y) = 0.15080 0.09231
# Poissons Ratio (z) = -0.66542 0.84976
#
# Static dielectric constant tensor:
#      x y z
#    x 1.936460 0.000000 0.000000 
#    y 0.000000 1.890320 0.000000 
#    z 0.000000 0.000000 1.937360 
# 
# From -- ./inp_files/7022.got.cif
#   From: 2010.05.17/outbox.cif.g08.bks.cpg/sg38_4_cif.got.tgz:7022.got - 2010.06.03 18:07:57.
