data_PCOD9358275
_publ_section_title
;
Structure prediction by ZEFSAII (Michael W. Deem and Ramdas Pophale) SiO2 
 PCOD9358275
Probable space group: A M M 2
;
_chemical_formula_sum "Si O2"
_cell_formula_units_Z 64
_cell_length_a 18.065751
_cell_length_b 14.282784
_cell_length_c 12.388073
_cell_angle_alpha 90.000000
_cell_angle_beta 90.000000
_cell_angle_gamma 90.000000
_cell_volume 3196.484805
_symmetry_space_group_name_H-M "A M M 2"
_symmetry_group_IT_number 38
_symmetry_cell_setting 'orthorhombic'
loop_
_space_group_symop_operation_xyz
x,y,z
-x,-y,z
-x,y,z
x,-y,z
x,1/2+y,1/2+z
-x,1/2-y,1/2+z
-x,1/2+y,1/2+z
x,1/2-y,1/2+z
loop_
_atom_site_type_symbol
_atom_site_label
_atom_site_fract_x
_atom_site_fract_y
_atom_site_fract_z
Si Si1 0.370999 0.104981 0.846340
Si Si2 0.748950 0.603378 0.537254
Si Si3 0.415827 0.305480 0.921472
Si Si4 0.915902 0.105831 0.770862
Si Si5 0.859307 0.895627 0.539000
Si Si6 0.686305 0.390388 0.103303
Si Si7 0.295043 0.609559 0.782878
Si Si8 0.177226 0.748245 0.896168
O O1 0.415203 0.197522 0.881342
O O2 0.333191 0.123049 0.729494
O O3 0.405913 0.000000 0.840325
O O4 0.310447 0.099146 0.941001
O O5 0.785051 0.500000 0.543134
O O6 0.713805 0.621164 0.654455
O O7 0.799248 0.687706 0.497666
O O8 0.500000 0.334031 0.943205
O O9 0.375997 0.365282 0.827538
O O10 0.364200 0.325474 0.026452
O O11 0.910756 0.110334 0.642223
O O12 0.859120 0.181047 0.814099
O O13 0.000000 0.120772 0.807346
O O14 0.892679 0.000000 0.801824
O O15 0.773689 0.878502 0.578595
O O16 0.879627 0.824877 0.445828
O O17 0.860593 0.000000 0.495881
O O18 0.669331 0.500000 0.078213
O O19 0.278275 0.500000 0.808436
O O20 0.241201 0.684314 0.842349
#
# Coordination Sequence:
#
# PCOD9358275 Si02
#       8
#     8   8   8   8   8   8   8   8
#     4  10  22  40  61  85 118 158 206 261 314 376
#     4  10  21  37  60  90 121 155 200 255 311 364
#     4  12  26  40  62  90 124 165 211 266 330 383
#     4  10  23  41  61  93 133 165 201 255 316 374
#     4  10  20  35  61  93 124 161 205 259 311 365
#     4  10  21  40  65  92 122 161 215 266 314 377
#     4  11  24  41  61  91 128 162 207 263 314 373
#     4  12  20  35  65  93 121 163 213 251 301 369
#
# _framework density 20.021995
#
# number of rings (size 3 to 8) (size 9 to 14) (size 15 to 20)
#    0.000    1.375    2.500    2.625    3.500    4.250 
#    0.000    1.250    0.000    3.375    0.000    0.000 
#    0.000    0.000    0.000    0.000    0.000    0.000 
#
# Total GULP energy -178558.445622 kJ/mol
# GULP energy per Si atom -5579.951426 kJ/mol
# Density = 1.997642 g / cm^3
# Si number density = 20.021995 Si / 1000 Ang^3
#
#
#
# Elastic Constant Matrix: (Units=GPa)
#
#
# Indices 1 2 3 4 5 6 
#
# 1 44.2012 34.6095 2.8562 0.0000 0.0000 0.0000
# 2 34.6095 130.4062 38.3103 0.0000 0.0000 0.0000
# 3 2.8562 38.3103 99.1062 0.0000 0.0000 0.0000
# 4 0.0000 0.0000 0.0000 31.1406 0.0000 0.0000
# 5 0.0000 0.0000 0.0000 0.0000 7.2500 0.0000
# 6 0.0000 0.0000 0.0000 0.0000 0.0000 0.3144
#
#
#
# Elastic Compliance Matrix: (Units=1/GPa)
#
#
# Indices 1 2 3 4 5 6 
#
# 1 0.029063 -0.008424 0.002419 0.000000 0.000000 0.000000
# 2 -0.008424 0.011092 -0.004045 0.000000 0.000000 0.000000
# 3 0.002419 -0.004045 0.011584 0.000000 0.000000 0.000000
# 4 0.000000 0.000000 0.000000 0.032112 0.000000 0.000000
# 5 0.000000 0.000000 0.000000 0.000000 0.137930 0.000000
# 6 0.000000 0.000000 0.000000 0.000000 0.000000 3.180865
#
#
# Mechanical properties :
#
#
# Convention : Reuss Voigt Hill
#
# Bulk Modulus (GPa) = 31.60615 47.25173 39.42894
# Shear Modulus (GPa) = 1.45633 20.93684 11.19658
#
# Velocity S-wave (km/s) = 0.85378 3.23722 2.36734
# Velocity P-wave (km/s) = 4.09779 6.13384 5.21612
#
# Compressibility (1/GPa) = 0.03163942
#
# Stress axis : x y z
#
# Youngs Moduli (GPa) = 34.40749 90.15200 86.32501
#
# Poissons Ratio (x) = 0.75943 -0.20880
# Poissons Ratio (y) = 0.28985 0.34919
# Poissons Ratio (z) = -0.08322 0.36467
#
# Static dielectric constant tensor:
#      x y z
#    x 1.689130 0.000000 0.000000 
#    y 0.000000 1.811560 0.000000 
#    z 0.000000 0.000000 1.699430 
# 
# From -- ./inp_files/10624.got.cif
#   From: 2010.05.17/outbox.cif.g08.bks.cpg/sg38_6_cif.got.tgz:10624.got - 2010.06.03 18:07:57.
