data_PCOD9358736
_publ_section_title
;
Structure prediction by ZEFSAII (Michael W. Deem and Ramdas Pophale) SiO2 
 PCOD9358736
Probable space group: A M M 2
;
_chemical_formula_sum "Si O2"
_cell_formula_units_Z 36
_cell_length_a 11.023851
_cell_length_b 27.890467
_cell_length_c 4.987009
_cell_angle_alpha 90.000000
_cell_angle_beta 90.000000
_cell_angle_gamma 90.000000
_cell_volume 1533.307545
_symmetry_space_group_name_H-M "A M M 2"
_symmetry_group_IT_number 38
_symmetry_cell_setting 'orthorhombic'
loop_
_space_group_symop_operation_xyz
x,y,z
-x,-y,z
-x,y,z
x,-y,z
x,1/2+y,1/2+z
-x,1/2-y,1/2+z
-x,1/2+y,1/2+z
x,1/2-y,1/2+z
loop_
_atom_site_type_symbol
_atom_site_label
_atom_site_fract_x
_atom_site_fract_y
_atom_site_fract_z
Si Si1 0.719506 0.552072 0.121640
Si Si2 0.138881 0.081354 0.100289
Si Si3 0.500000 0.282458 0.545496
Si Si4 0.138669 0.216152 0.452776
Si Si5 0.291917 0.651433 0.318346
O O1 0.659127 0.500000 0.135795
O O2 0.833041 0.552734 0.327843
O O3 0.652060 0.600402 0.219756
O O4 0.773159 0.561492 0.828814
O O5 0.000000 0.079710 0.180705
O O6 0.183116 0.134345 0.013887
O O7 0.500000 0.263735 0.848506
O O8 0.614637 0.314639 0.466572
O O9 0.153280 0.239677 0.163042
O O10 0.233013 0.177639 0.563956
O O11 0.000000 0.198117 0.479689
#
# Coordination Sequence:
#
# PCOD9358736 Si02
#       5
#     8   8   4   8   8
#     4  10  23  39  62  94 133 174 213 258 316 380
#     4  10  22  37  62  94 133 171 210 258 316 380
#     4  12  28  46  75  98 123 166 220 278 332 380
#     4  10  21  35  56  85 120 157 196 248 313 383
#     4  10  25  42  65  92 129 164 218 262 329 378
#
# _framework density 23.478656999999998
#
# number of rings (size 3 to 8) (size 9 to 14) (size 15 to 20)
#    1.333    0.444    0.000    3.333    6.222    2.667 
#    0.000    0.556    0.000    0.000    0.000    0.000 
#    0.000    0.000    0.000    0.000    0.000    0.000 
#
# Total GULP energy -100574.621677 kJ/mol
# GULP energy per Si atom -5587.478982 kJ/mol
# Density = 2.342522 g / cm^3
# Si number density = 23.478657 Si / 1000 Ang^3
#
#
#
# Elastic Constant Matrix: (Units=GPa)
#
#
# Indices 1 2 3 4 5 6 
#
# 1 62.7204 21.3023 -12.3026 0.0000 0.0000 0.0000
# 2 21.3023 129.9952 -4.8682 0.0000 0.0000 0.0000
# 3 -12.3026 -4.8682 79.8569 0.0000 0.0000 0.0000
# 4 0.0000 0.0000 0.0000 1.3333 0.0000 0.0000
# 5 0.0000 0.0000 0.0000 0.0000 10.2228 0.0000
# 6 0.0000 0.0000 0.0000 0.0000 0.0000 31.4045
#
#
#
# Elastic Compliance Matrix: (Units=1/GPa)
#
#
# Indices 1 2 3 4 5 6 
#
# 1 0.017371 -0.002753 0.002508 0.000000 0.000000 0.000000
# 2 -0.002753 0.008146 0.000073 0.000000 0.000000 0.000000
# 3 0.002508 0.000073 0.012913 0.000000 0.000000 0.000000
# 4 0.000000 0.000000 0.000000 0.749992 0.000000 0.000000
# 5 0.000000 0.000000 0.000000 0.000000 0.097820 0.000000
# 6 0.000000 0.000000 0.000000 0.000000 0.000000 0.031843
#
#
# Mechanical properties :
#
#
# Convention : Reuss Voigt Hill
#
# Bulk Modulus (GPa) = 26.25581 31.20395 28.72988
# Shear Modulus (GPa) = 5.36985 26.48820 15.92902
#
# Velocity S-wave (km/s) = 1.51396 3.36249 2.60753
# Velocity P-wave (km/s) = 3.77667 5.32863 4.61831
#
# Compressibility (1/GPa) = 0.03808680
#
# Stress axis : x y z
#
# Youngs Moduli (GPa) = 57.56828 122.75398 77.43983
#
# Poissons Ratio (x) = 0.33789 -0.19424
# Poissons Ratio (y) = 0.15846 -0.00562
# Poissons Ratio (z) = -0.14440 -0.00891
#
# Static dielectric constant tensor:
#      x y z
#    x 1.907630 0.000000 0.000000 
#    y 0.000000 1.994360 0.000000 
#    z 0.000000 0.000000 1.862440 
# 
# From -- ./inp_files/977.got.cif
#   From: 2010.05.17/outbox.cif.g08.bks.cpg/sg38_1_cif.got.tgz:977.got - 2010.06.03 18:07:57.
