data_PCOD9358037
_publ_section_title
;
Structure prediction by ZEFSAII (Michael W. Deem and Ramdas Pophale) SiO2 
 PCOD9358037
Probable space group: A M M 2
;
_chemical_formula_sum "Si O2"
_cell_formula_units_Z 64
_cell_length_a 24.507291
_cell_length_b 7.873296
_cell_length_c 15.998484
_cell_angle_alpha 90.000000
_cell_angle_beta 90.000000
_cell_angle_gamma 90.000000
_cell_volume 3086.957982
_symmetry_space_group_name_H-M "A M M 2"
_symmetry_group_IT_number 38
_symmetry_cell_setting 'orthorhombic'
loop_
_space_group_symop_operation_xyz
x,y,z
-x,-y,z
-x,y,z
x,-y,z
x,1/2+y,1/2+z
-x,1/2-y,1/2+z
-x,1/2+y,1/2+z
x,1/2-y,1/2+z
loop_
_atom_site_type_symbol
_atom_site_label
_atom_site_fract_x
_atom_site_fract_y
_atom_site_fract_z
Si Si1 0.062321 0.295636 0.629460
Si Si2 0.742714 0.699889 0.490914
Si Si3 0.439753 0.297143 0.073078
Si Si4 0.865762 0.208790 0.972572
Si Si5 0.677535 0.803388 0.329904
Si Si6 0.937521 0.204323 0.816450
Si Si7 0.326002 0.705087 0.647518
Si Si8 0.560794 0.198989 0.880570
O O1 0.060531 0.500000 0.624522
O O2 0.101225 0.236979 0.555067
O O3 0.080743 0.249316 0.722817
O O4 0.000000 0.232391 0.618991
O O5 0.749334 0.500000 0.508048
O O6 0.803393 0.768675 0.476645
O O7 0.706396 0.717185 0.408176
O O8 0.710219 0.771818 0.570627
O O9 0.500000 0.249742 0.105812
O O10 0.438661 0.500000 0.061871
O O11 0.433643 0.216800 0.981009
O O12 0.388930 0.247181 0.129323
O O13 0.897821 0.265389 0.889618
O O14 0.865635 0.000000 0.971039
O O15 0.691633 0.731723 0.238678
O O16 0.612298 0.789725 0.340452
O O17 0.693605 0.000000 0.333422
O O18 0.000000 0.267331 0.827152
O O19 0.939508 0.000000 0.822204
O O20 0.322226 0.500000 0.649427
O O21 0.500000 0.262700 0.858779
O O22 0.563675 0.000000 0.858697
#
# Coordination Sequence:
#
# PCOD9358037 Si02
#       8
#     8   8   8   8   8   8   8   8
#     4   9  17  31  53  81 111 143 180 221 266 321
#     4  10  21  39  58  76 103 143 188 230 273 325
#     4  10  20  34  56  85 113 140 174 220 272 326
#     4   9  18  33  55  78 103 142 188 225 265 322
#     4  11  23  38  57  82 110 142 182 229 278 326
#     4   9  17  31  52  79 111 143 176 220 272 323
#     4  10  22  38  56  78 107 143 181 223 275 329
#     4  10  20  35  57  83 111 143 177 217 271 331
#
# _framework density 20.732385000000001
#
# number of rings (size 3 to 8) (size 9 to 14) (size 15 to 20)
#    0.000    2.250    1.250    1.500    0.000    5.500 
#    0.000    5.625    0.000    3.000    0.000    0.000 
#    0.000    0.000    0.000    0.000    0.000    0.000 
#
# Total GULP energy -178668.587596 kJ/mol
# GULP energy per Si atom -5583.393362 kJ/mol
# Density = 2.068520 g / cm^3
# Si number density = 20.732385 Si / 1000 Ang^3
#
#
#
# Elastic Constant Matrix: (Units=GPa)
#
#
# Indices 1 2 3 4 5 6 
#
# 1 116.9322 -0.9242 81.1730 0.0000 0.0000 0.0000
# 2 -0.9242 21.6371 -4.9216 0.0000 0.0000 0.0000
# 3 81.1730 -4.9216 140.6934 0.0000 0.0000 0.0000
# 4 0.0000 0.0000 0.0000 18.7482 0.0000 0.0000
# 5 0.0000 0.0000 0.0000 0.0000 -5.7440 0.0000
# 6 0.0000 0.0000 0.0000 0.0000 0.0000 9.3552
#
#
#
# Elastic Compliance Matrix: (Units=1/GPa)
#
#
# Indices 1 2 3 4 5 6 
#
# 1 0.014300 -0.001276 -0.008295 0.000000 0.000000 0.000000
# 2 -0.001276 0.046701 0.002370 0.000000 0.000000 0.000000
# 3 -0.008295 0.002370 0.011976 0.000000 0.000000 0.000000
# 4 0.000000 0.000000 0.000000 0.053339 0.000000 0.000000
# 5 0.000000 0.000000 0.000000 0.000000 -0.174096 0.000000
# 6 0.000000 0.000000 0.000000 0.000000 0.000000 0.106893
#
#
# Mechanical properties :
#
#
# Convention : Reuss Voigt Hill
#
# Bulk Modulus (GPa) = 17.07198 47.76856 32.42027
# Shear Modulus (GPa) = 53.73926 18.06757 35.90341
#
# Velocity S-wave (km/s) = 5.09674 2.95526 4.16595
# Velocity P-wave (km/s) = 6.54889 5.89367 6.22990
#
# Compressibility (1/GPa) = 0.05857551
#
# Stress axis : x y z
#
# Youngs Moduli (GPa) = 69.92856 21.41262 83.49712
#
# Poissons Ratio (x) = 0.02732 0.69262
# Poissons Ratio (y) = 0.08923 -0.19787
# Poissons Ratio (z) = 0.58007 -0.05074
#
# Static dielectric constant tensor:
#      x y z
#    x 1.728700 0.000000 0.000000 
#    y 0.000000 1.760710 0.000000 
#    z 0.000000 0.000000 1.732340 
# 
# From -- ./inp_files/15760.got.cif
#   From: 2010.05.17/outbox.cif.g08.bks.cpg/sg38_8_cif.got.tgz:15760.got - 2010.06.03 18:07:57.
