data_PCOD9358211
_publ_section_title
;
Structure prediction by ZEFSAII (Michael W. Deem and Ramdas Pophale) SiO2 
 PCOD9358211
Probable space group: A M M 2
;
_chemical_formula_sum "Si O2"
_cell_formula_units_Z 56
_cell_length_a 14.355434
_cell_length_b 13.758901
_cell_length_c 14.552210
_cell_angle_alpha 90.000000
_cell_angle_beta 90.000000
_cell_angle_gamma 90.000000
_cell_volume 2874.279689
_symmetry_space_group_name_H-M "A M M 2"
_symmetry_group_IT_number 38
_symmetry_cell_setting 'orthorhombic'
loop_
_space_group_symop_operation_xyz
x,y,z
-x,-y,z
-x,y,z
x,-y,z
x,1/2+y,1/2+z
-x,1/2-y,1/2+z
-x,1/2+y,1/2+z
x,1/2-y,1/2+z
loop_
_atom_site_type_symbol
_atom_site_label
_atom_site_fract_x
_atom_site_fract_y
_atom_site_fract_z
Si Si1 0.396362 0.109285 0.522010
Si Si2 0.892142 0.728625 0.451094
Si Si3 0.606466 0.765346 0.341259
Si Si4 0.232780 0.702653 0.117269
Si Si5 0.102338 0.608342 0.795644
Si Si6 0.295418 0.390364 0.691264
Si Si7 0.770643 0.615831 0.312422
O O1 0.500000 0.120863 0.564812
O O2 0.386860 0.188381 0.442047
O O3 0.308107 0.122795 0.586968
O O4 0.393508 0.000000 0.482642
O O5 0.845027 0.771283 0.542685
O O6 0.886544 0.814487 0.375705
O O7 0.836123 0.642970 0.399289
O O8 0.000000 0.703255 0.466496
O O9 0.500000 0.740362 0.321221
O O10 0.641175 0.851347 0.273945
O O11 0.674135 0.673665 0.329603
O O12 0.294734 0.801529 0.121271
O O13 0.195007 0.666184 0.216357
O O14 0.104035 0.500000 0.836498
O O15 0.188304 0.611629 0.726660
O O16 0.000000 0.622461 0.751913
O O17 0.318364 0.500000 0.662549
O O18 0.762019 0.500000 0.302798
#
# Coordination Sequence:
#
# PCOD9358211 Si02
#       7
#     8   8   8   8   8   8   8
#     4  10  20  36  62  93 124 160 206 261 316 371
#     4  11  23  41  63  90 126 165 207 260 315 373
#     4  10  20  38  63  92 122 158 206 257 313 377
#     4  11  22  39  59  94 124 168 211 263 310 379
#     4   9  17  33  59  85 110 145 191 247 309 362
#     4  10  20  35  57  85 118 154 199 255 307 366
#     4  11  24  43  65  93 129 171 213 260 321 381
#
# _framework density 19.483142000000001
#
# number of rings (size 3 to 8) (size 9 to 14) (size 15 to 20)
#    0.000    1.714    4.286    0.857    0.000    7.714 
#    0.000    0.000    0.000    0.000    0.000    0.000 
#    0.000    0.000    0.000    0.000    0.000    0.000 
#
# Total GULP energy -156064.935024 kJ/mol
# GULP energy per Si atom -5573.747679 kJ/mol
# Density = 1.943880 g / cm^3
# Si number density = 19.483142 Si / 1000 Ang^3
#
#
#
# Elastic Constant Matrix: (Units=GPa)
#
#
# Indices 1 2 3 4 5 6 
#
# 1 97.5377 23.6261 41.4214 0.0000 0.0000 0.0000
# 2 23.6261 134.6620 15.5419 0.0000 0.0000 0.0000
# 3 41.4214 15.5419 53.7913 0.0000 0.0000 0.0000
# 4 0.0000 0.0000 0.0000 16.4990 0.0000 0.0000
# 5 0.0000 0.0000 0.0000 0.0000 2.7983 0.0000
# 6 0.0000 0.0000 0.0000 0.0000 0.0000 27.7900
#
#
#
# Elastic Compliance Matrix: (Units=1/GPa)
#
#
# Indices 1 2 3 4 5 6 
#
# 1 0.015480 -0.001386 -0.011520 0.000000 0.000000 0.000000
# 2 -0.001386 0.007806 -0.001188 0.000000 0.000000 0.000000
# 3 -0.011520 -0.001188 0.027804 0.000000 0.000000 0.000000
# 4 0.000000 0.000000 0.000000 0.060610 0.000000 0.000000
# 5 0.000000 0.000000 0.000000 0.000000 0.357361 0.000000
# 6 0.000000 0.000000 0.000000 0.000000 0.000000 0.035984
#
#
# Mechanical properties :
#
#
# Convention : Reuss Voigt Hill
#
# Bulk Modulus (GPa) = 43.66307 49.68554 46.67431
# Shear Modulus (GPa) = 9.24438 23.11090 16.17764
#
# Velocity S-wave (km/s) = 2.18062 3.44786 2.88469
# Velocity P-wave (km/s) = 5.36652 6.43487 5.92482
#
# Compressibility (1/GPa) = 0.02290265
#
# Stress axis : x y z
#
# Youngs Moduli (GPa) = 64.59747 128.10086 35.96547
#
# Poissons Ratio (x) = 0.17760 0.41432
# Poissons Ratio (y) = 0.08956 0.04272
# Poissons Ratio (z) = 0.74416 0.15217
#
# Static dielectric constant tensor:
#      x y z
#    x 1.704950 0.000000 0.000000 
#    y 0.000000 1.716870 0.000000 
#    z 0.000000 0.000000 1.702030 
# 
# From -- ./inp_files/14648.got.cif
#   From: 2010.05.17/outbox.cif.g08.bks.cpg/sg38_8_cif.got.tgz:14648.got - 2010.06.03 18:07:57.
