data_PCOD9358114
_publ_section_title
;
Structure prediction by ZEFSAII (Michael W. Deem and Ramdas Pophale) SiO2 
 PCOD9358114
Probable space group: A M M 2
;
_chemical_formula_sum "Si O2"
_cell_formula_units_Z 64
_cell_length_a 32.822841
_cell_length_b 11.305800
_cell_length_c 8.498085
_cell_angle_alpha 90.000000
_cell_angle_beta 90.000000
_cell_angle_gamma 90.000000
_cell_volume 3153.541410
_symmetry_space_group_name_H-M "A M M 2"
_symmetry_group_IT_number 38
_symmetry_cell_setting 'orthorhombic'
loop_
_space_group_symop_operation_xyz
x,y,z
-x,-y,z
-x,y,z
x,-y,z
x,1/2+y,1/2+z
-x,1/2-y,1/2+z
-x,1/2+y,1/2+z
x,1/2-y,1/2+z
loop_
_atom_site_type_symbol
_atom_site_label
_atom_site_fract_x
_atom_site_fract_y
_atom_site_fract_z
Si Si1 0.803146 0.634542 0.244020
Si Si2 0.290909 0.627972 0.175700
Si Si3 0.340666 0.812826 0.383634
Si Si4 0.923875 0.631405 0.433480
Si Si5 0.453151 0.867294 0.843606
Si Si6 0.401053 0.810540 0.131523
Si Si7 0.833933 0.631977 0.582972
Si Si8 0.047324 0.369702 0.089235
O O1 0.818168 0.500000 0.201158
O O2 0.757398 0.646499 0.179489
O O3 0.803713 0.637621 0.433537
O O4 0.827336 0.750406 0.185290
O O5 0.299201 0.500000 0.249835
O O6 0.314168 0.723931 0.278538
O O7 0.308749 0.625667 0.999569
O O8 0.371668 0.872750 0.259453
O O9 0.370311 0.748215 0.507053
O O10 0.941307 0.500000 0.476634
O O11 0.878810 0.634968 0.505847
O O12 0.925072 0.635268 0.244692
O O13 0.945561 0.751221 0.490378
O O14 0.500000 0.826744 0.851686
O O15 0.426273 0.784971 0.732144
O O16 0.452287 0.000000 0.778415
O O17 0.433621 0.871344 0.017707
O O18 0.829160 0.500000 0.658456
O O19 0.054407 0.500000 0.011842
O O20 0.000000 0.369029 0.140500
#
# Coordination Sequence:
#
# PCOD9358114 Si02
#       8
#     8   8   8   8   8   8   8   8
#     4  10  21  37  58  82 111 147 185 229 279 332
#     4  10  20  36  56  78 107 140 176 219 265 319
#     4   9  19  34  53  78 104 136 173 210 262 317
#     4  10  21  37  57  81 110 145 184 228 278 331
#     4  10  20  35  55  76 102 139 177 216 265 314
#     4   9  19  34  53  78 107 135 172 219 260 313
#     4  10  21  37  57  82 111 144 185 231 278 330
#     4  10  21  37  57  82 112 146 185 230 279 332
#
# _framework density 20.294644999999999
#
# number of rings (size 3 to 8) (size 9 to 14) (size 15 to 20)
#    0.000    2.250    0.000    2.250    0.000    8.250 
#    0.000    4.375    0.000    6.750    0.000    0.000 
#    0.000    0.000    0.000    0.000    0.000    0.000 
#
# Total GULP energy -178173.386434 kJ/mol
# GULP energy per Si atom -5567.918326 kJ/mol
# Density = 2.024845 g / cm^3
# Si number density = 20.294645 Si / 1000 Ang^3
#
#
#
# Elastic Constant Matrix: (Units=GPa)
#
#
# Indices 1 2 3 4 5 6 
#
# 1 44.1087 30.1472 0.1393 0.0000 0.0000 0.0000
# 2 30.1472 153.4139 38.4918 0.0000 0.0000 0.0000
# 3 0.1393 38.4918 55.2225 0.0000 0.0000 0.0000
# 4 0.0000 0.0000 0.0000 22.5117 0.0000 0.0000
# 5 0.0000 0.0000 0.0000 0.0000 28.9403 0.0000
# 6 0.0000 0.0000 0.0000 0.0000 0.0000 82.5166
#
#
#
# Elastic Compliance Matrix: (Units=1/GPa)
#
#
# Indices 1 2 3 4 5 6 
#
# 1 0.027046 -0.006420 0.004407 0.000000 0.000000 0.000000
# 2 -0.006420 0.009424 -0.006553 0.000000 0.000000 0.000000
# 3 0.004407 -0.006553 0.022665 0.000000 0.000000 0.000000
# 4 0.000000 0.000000 0.000000 0.044421 0.000000 0.000000
# 5 0.000000 0.000000 0.000000 0.000000 0.034554 0.000000
# 6 0.000000 0.000000 0.000000 0.000000 0.000000 0.012119
#
#
# Mechanical properties :
#
#
# Convention : Reuss Voigt Hill
#
# Bulk Modulus (GPa) = 23.80821 43.36684 33.58753
# Shear Modulus (GPa) = 27.56928 39.05819 33.31373
#
# Velocity S-wave (km/s) = 3.68972 4.39174 4.05594
# Velocity P-wave (km/s) = 5.46889 6.86524 6.20646
#
# Compressibility (1/GPa) = 0.04200232
#
# Stress axis : x y z
#
# Youngs Moduli (GPa) = 36.97469 106.11142 44.12114
#
# Poissons Ratio (x) = 0.68128 -0.19444
# Poissons Ratio (y) = 0.23739 0.28911
# Poissons Ratio (z) = -0.16295 0.69531
#
# Static dielectric constant tensor:
#      x y z
#    x 1.742220 0.000000 0.000000 
#    y 0.000000 1.766390 0.000000 
#    z 0.000000 0.000000 1.699200 
# 
# From -- ./inp_files/7045.got.cif
#   From: 2010.05.17/outbox.cif.g08.bks.cpg/sg38_4_cif.got.tgz:7045.got - 2010.06.03 18:07:57.
