data_PCOD9358032
_publ_section_title
;
Structure prediction by ZEFSAII (Michael W. Deem and Ramdas Pophale) SiO2 
 PCOD9358032
Probable space group: A M M 2
;
_chemical_formula_sum "Si O2"
_cell_formula_units_Z 64
_cell_length_a 24.447926
_cell_length_b 7.479901
_cell_length_c 15.943499
_cell_angle_alpha 90.000000
_cell_angle_beta 90.000000
_cell_angle_gamma 90.000000
_cell_volume 2915.556830
_symmetry_space_group_name_H-M "A M M 2"
_symmetry_group_IT_number 38
_symmetry_cell_setting 'orthorhombic'
loop_
_space_group_symop_operation_xyz
x,y,z
-x,-y,z
-x,y,z
x,-y,z
x,1/2+y,1/2+z
-x,1/2-y,1/2+z
-x,1/2+y,1/2+z
x,1/2-y,1/2+z
loop_
_atom_site_type_symbol
_atom_site_label
_atom_site_fract_x
_atom_site_fract_y
_atom_site_fract_z
Si Si1 0.143799 0.786191 0.288440
Si Si2 0.265762 0.215648 0.275754
Si Si3 0.637814 0.212006 0.005382
Si Si4 0.562099 0.283728 0.162852
Si Si5 0.938579 0.785817 0.940541
Si Si6 0.747265 0.283377 0.580308
Si Si7 0.614904 0.795650 0.832080
Si Si8 0.130510 0.781383 0.097281
O O1 0.205925 0.723231 0.307200
O O2 0.101599 0.748369 0.362454
O O3 0.125830 0.723446 0.194836
O O4 0.148196 0.000000 0.281033
O O5 0.266652 0.260271 0.176771
O O6 0.319740 0.293926 0.316953
O O7 0.269174 0.000000 0.283690
O O8 0.608244 0.288009 0.923504
O O9 0.644303 0.000000 0.990228
O O10 0.602013 0.231960 0.087991
O O11 0.698690 0.285078 0.022065
O O12 0.500000 0.223936 0.149669
O O13 0.562349 0.500000 0.165013
O O14 0.586004 0.214895 0.251047
O O15 0.000000 0.717594 0.925958
O O16 0.941662 0.000000 0.947931
O O17 0.913342 0.720297 0.028793
O O18 0.747542 0.500000 0.575456
O O19 0.809262 0.225426 0.565144
O O20 0.594631 0.000000 0.835543
O O21 0.129281 0.000000 0.098368
#
# Coordination Sequence:
#
# PCOD9358032 Si02
#       8
#     8   8   8   8   8   8   8   8
#     4   9  19  35  55  79 105 141 181 219 266 318
#     4   9  17  32  54  79 111 142 174 217 266 320
#     4  10  20  34  56  84 107 136 182 224 262 313
#     4  10  22  40  56  74 110 151 180 215 266 320
#     4  10  21  35  53  79 108 140 181 225 266 314
#     4   8  14  28  51  77 104 135 171 215 260 307
#     4  10  21  34  54  84 111 139 176 219 270 318
#     4   8  16  32  53  75 104 141 178 214 259 318
#
# _framework density 21.951208999999999
#
# number of rings (size 3 to 8) (size 9 to 14) (size 15 to 20)
#    0.000    2.750    1.250    1.500    1.750    2.500 
#    0.000    3.125    0.000    0.750    0.000    0.000 
#    0.000    0.000    0.000    0.000    0.000    0.000 
#
# Total GULP energy -178604.657622 kJ/mol
# GULP energy per Si atom -5581.395551 kJ/mol
# Density = 2.190125 g / cm^3
# Si number density = 21.951209 Si / 1000 Ang^3
#
#
#
# Elastic Constant Matrix: (Units=GPa)
#
#
# Indices 1 2 3 4 5 6 
#
# 1 53.0425 -11.6908 1.0883 0.0000 0.0000 0.0000
# 2 -11.6908 62.2603 -6.6458 0.0000 0.0000 0.0000
# 3 1.0883 -6.6458 48.6904 0.0000 0.0000 0.0000
# 4 0.0000 0.0000 0.0000 11.0092 0.0000 0.0000
# 5 0.0000 0.0000 0.0000 0.0000 5.2110 0.0000
# 6 0.0000 0.0000 0.0000 0.0000 0.0000 14.6432
#
#
#
# Elastic Compliance Matrix: (Units=1/GPa)
#
#
# Indices 1 2 3 4 5 6 
#
# 1 0.019667 0.003700 0.000065 0.000000 0.000000 0.000000
# 2 0.003700 0.016995 0.002237 0.000000 0.000000 0.000000
# 3 0.000065 0.002237 0.020842 0.000000 0.000000 0.000000
# 4 0.000000 0.000000 0.000000 0.090833 0.000000 0.000000
# 5 0.000000 0.000000 0.000000 0.000000 0.191903 0.000000
# 6 0.000000 0.000000 0.000000 0.000000 0.000000 0.068291
#
#
# Mechanical properties :
#
#
# Convention : Reuss Voigt Hill
#
# Bulk Modulus (GPa) = 14.38674 14.38851 14.38762
# Shear Modulus (GPa) = 11.91340 18.25546 15.08443
#
# Velocity S-wave (km/s) = 2.33217 2.88694 2.62426
# Velocity P-wave (km/s) = 3.71755 4.20495 3.96874
#
# Compressibility (1/GPa) = 0.06950847
#
# Stress axis : x y z
#
# Youngs Moduli (GPa) = 50.84674 58.84043 47.98052
#
# Poissons Ratio (x) = -0.21770 -0.00314
# Poissons Ratio (y) = -0.18813 -0.10733
# Poissons Ratio (z) = -0.00333 -0.13162
#
# Static dielectric constant tensor:
#      x y z
#    x 1.785150 0.000000 0.000000 
#    y 0.000000 1.869270 0.000000 
#    z 0.000000 0.000000 1.807630 
# 
# From -- ./inp_files/15875.got.cif
#   From: 2010.05.17/outbox.cif.g08.bks.cpg/sg38_8_cif.got.tgz:15875.got - 2010.06.03 18:07:57.
