data_PCOD9358974
_publ_section_title
;
Structure prediction by ZEFSAII (Michael W. Deem and Ramdas Pophale) SiO2 
 PCOD9358974
Probable space group: A M M 2
;
_chemical_formula_sum "Si O2"
_cell_formula_units_Z 58
_cell_length_a 7.762787
_cell_length_b 18.408192
_cell_length_c 17.405997
_cell_angle_alpha 90.000000
_cell_angle_beta 90.000000
_cell_angle_gamma 90.000000
_cell_volume 2487.297364
_symmetry_space_group_name_H-M "A M M 2"
_symmetry_group_IT_number 38
_symmetry_cell_setting 'orthorhombic'
loop_
_space_group_symop_operation_xyz
x,y,z
-x,-y,z
-x,y,z
x,-y,z
x,1/2+y,1/2+z
-x,1/2-y,1/2+z
-x,1/2+y,1/2+z
x,1/2-y,1/2+z
loop_
_atom_site_type_symbol
_atom_site_label
_atom_site_fract_x
_atom_site_fract_y
_atom_site_fract_z
Si Si1 0.201706 0.580397 0.539670
Si Si2 0.796015 0.214200 0.142077
Si Si3 0.200413 0.079588 0.763543
Si Si4 0.500000 0.000000 0.231250
Si Si5 0.803555 0.111061 0.270596
Si Si6 0.304961 0.628517 0.100350
Si Si7 0.299401 0.828367 0.900033
Si Si8 0.289527 0.163696 0.433315
O O1 0.279748 0.500000 0.550157
O O2 0.268828 0.645870 0.592108
O O3 0.216866 0.609542 0.453233
O O4 0.000000 0.574881 0.558967
O O5 0.783720 0.189379 0.229977
O O6 0.697178 0.286304 0.121627
O O7 0.000000 0.226505 0.124986
O O8 0.215107 0.090810 0.672169
O O9 0.280823 0.144722 0.812678
O O10 0.000000 0.079947 0.783735
O O11 0.274368 0.000000 0.783314
O O12 0.346751 0.938258 0.237671
O O13 0.777096 0.118825 0.361098
O O14 0.000000 0.087249 0.252955
O O15 0.500000 0.600601 0.097509
O O16 0.232290 0.629047 0.014043
O O17 0.500000 0.827299 0.919750
O O18 0.232482 0.747846 0.921281
O O19 0.500000 0.163145 0.432479
#
# Coordination Sequence:
#
# PCOD9358974 Si02
#       8
#     8   8   8   2   8   8   8   8
#     4  10  21  37  58  89 132 175 213 266 323 383
#     4  10  22  40  64  96 132 171 222 268 320 398
#     4  11  25  44  64  91 129 172 220 273 333 396
#     4  12  26  48  68  94 140 172 222 292 332 402
#     4  11  25  44  70  99 130 179 227 274 342 405
#     4  11  23  41  68  97 133 170 214 273 336 398
#     4  11  22  39  65  95 129 168 215 269 330 401
#     4  10  22  43  64  95 134 171 219 280 337 396
#
# _framework density 23.318481999999999
#
# number of rings (size 3 to 8) (size 9 to 14) (size 15 to 20)
#    0.000    1.379    2.069    2.690    1.931    7.448 
#    1.241    0.000    0.000    0.000    0.000    0.000 
#    0.000    0.000    0.000    0.000    0.000    0.000 
#
# Total GULP energy -161864.027794 kJ/mol
# GULP energy per Si atom -5581.518200 kJ/mol
# Density = 2.326541 g / cm^3
# Si number density = 23.318482 Si / 1000 Ang^3
#
#
#
# Elastic Constant Matrix: (Units=GPa)
#
#
# Indices 1 2 3 4 5 6 
#
# 1 78.8786 8.1734 -0.9489 0.0000 0.0000 0.0000
# 2 8.1734 51.9873 -10.9000 0.0000 0.0000 0.0000
# 3 -0.9489 -10.9000 108.8697 0.0000 0.0000 0.0000
# 4 0.0000 0.0000 0.0000 8.9898 0.0000 0.0000
# 5 0.0000 0.0000 0.0000 0.0000 58.0734 0.0000
# 6 0.0000 0.0000 0.0000 0.0000 0.0000 17.0470
#
#
#
# Elastic Compliance Matrix: (Units=1/GPa)
#
#
# Indices 1 2 3 4 5 6 
#
# 1 0.012889 -0.002046 -0.000092 0.000000 0.000000 0.000000
# 2 -0.002046 0.019973 0.001982 0.000000 0.000000 0.000000
# 3 -0.000092 0.001982 0.009383 0.000000 0.000000 0.000000
# 4 0.000000 0.000000 0.000000 0.111238 0.000000 0.000000
# 5 0.000000 0.000000 0.000000 0.000000 0.017220 0.000000
# 6 0.000000 0.000000 0.000000 0.000000 0.000000 0.058661
#
#
# Mechanical properties :
#
#
# Convention : Reuss Voigt Hill
#
# Bulk Modulus (GPa) = 23.84852 25.82053 24.83453
# Shear Modulus (GPa) = 20.52103 33.04943 26.78523
#
# Velocity S-wave (km/s) = 2.96975 3.76880 3.39288
# Velocity P-wave (km/s) = 4.69135 5.48046 5.10119
#
# Compressibility (1/GPa) = 0.04193132
#
# Stress axis : x y z
#
# Youngs Moduli (GPa) = 77.58803 50.06850 106.57683
#
# Poissons Ratio (x) = 0.10243 0.00986
# Poissons Ratio (y) = 0.15872 -0.21122
# Poissons Ratio (z) = 0.00718 -0.09923
#
# Static dielectric constant tensor:
#      x y z
#    x 1.829380 0.000000 0.000000 
#    y 0.000000 1.872610 0.000000 
#    z 0.000000 0.000000 1.912610 
# 
# From -- ./inp_files/17006.got.cif
#   From: 2010.05.17/outbox.cif.g08.bks.cpg/sg38_9_cif.got.tgz:17006.got - 2010.06.03 18:07:57.
