data_PCOD9358077
_publ_section_title
;
Structure prediction by ZEFSAII (Michael W. Deem and Ramdas Pophale) SiO2 
 PCOD9358077
Probable space group: A M M 2
;
_chemical_formula_sum "Si O2"
_cell_formula_units_Z 56
_cell_length_a 16.658809
_cell_length_b 20.545601
_cell_length_c 8.981901
_cell_angle_alpha 90.000000
_cell_angle_beta 90.000000
_cell_angle_gamma 90.000000
_cell_volume 3074.192527
_symmetry_space_group_name_H-M "A M M 2"
_symmetry_group_IT_number 38
_symmetry_cell_setting 'orthorhombic'
loop_
_space_group_symop_operation_xyz
x,y,z
-x,-y,z
-x,y,z
x,-y,z
x,1/2+y,1/2+z
-x,1/2-y,1/2+z
-x,1/2+y,1/2+z
x,1/2-y,1/2+z
loop_
_atom_site_type_symbol
_atom_site_label
_atom_site_fract_x
_atom_site_fract_y
_atom_site_fract_z
Si Si1 0.241464 0.181070 0.987030
Si Si2 0.408522 0.841249 0.454316
Si Si3 0.821510 0.309978 0.156704
Si Si4 0.406999 0.209114 0.119444
Si Si5 0.000000 0.844934 0.254040
Si Si6 0.842510 0.425229 0.678104
Si Si7 0.000000 0.716412 0.084484
Si Si8 0.256476 0.073723 0.478677
O O1 0.220291 0.190822 0.816075
O O2 0.208112 0.245289 0.071017
O O3 0.335901 0.175656 0.025866
O O4 0.194670 0.118446 0.048215
O O5 0.500000 0.864107 0.455901
O O6 0.394305 0.806939 0.293397
O O7 0.399011 0.785362 0.578941
O O8 0.346121 0.898534 0.476235
O O9 0.794276 0.374486 0.071648
O O10 0.917971 0.308401 0.159370
O O11 0.500000 0.191331 0.082044
O O12 0.078312 0.889545 0.239602
O O13 0.000000 0.805508 0.411051
O O14 0.000000 0.793458 0.118199
O O15 0.859064 0.500000 0.636136
O O16 0.778432 0.425159 0.812023
O O17 0.251385 0.000000 0.535036
#
# Coordination Sequence:
#
# PCOD9358077 Si02
#       8
#     8   8   8   8   4   8   4   8
#     4  12  22  39  66  90 125 161 206 254 311 364
#     4  10  20  35  59  91 124 156 200 258 310 363
#     4  12  24  39  63  92 123 161 205 262 309 360
#     4  10  20  34  58  93 123 153 197 253 312 360
#     4  12  23  40  63  93 122 158 205 256 315 358
#     4  11  24  41  62  87 123 165 206 251 304 368
#     4  12  24  38  61  95 121 152 205 258 308 360
#     4  11  23  41  60  85 121 167 211 248 305 370
#
# _framework density 18.216165
#
# number of rings (size 3 to 8) (size 9 to 14) (size 15 to 20)
#    0.000    0.857    5.714    2.786    0.000    0.857 
#    0.000    0.357    0.000    0.429    0.000    0.000 
#    0.000    0.000    0.000    0.000    0.000    0.000 
#
# Total GULP energy -156422.527410 kJ/mol
# GULP energy per Si atom -5586.518836 kJ/mol
# Density = 1.817470 g / cm^3
# Si number density = 18.216165 Si / 1000 Ang^3
#
#
#
# Elastic Constant Matrix: (Units=GPa)
#
#
# Indices 1 2 3 4 5 6 
#
# 1 95.0264 29.2725 -11.5016 0.0000 0.0000 0.0000
# 2 29.2725 122.3279 27.7122 0.0000 0.0000 0.0000
# 3 -11.5016 27.7122 44.6285 0.0000 0.0000 0.0000
# 4 0.0000 0.0000 0.0000 26.8224 0.0000 0.0000
# 5 0.0000 0.0000 0.0000 0.0000 26.6584 0.0000
# 6 0.0000 0.0000 0.0000 0.0000 0.0000 14.3458
#
#
#
# Elastic Compliance Matrix: (Units=1/GPa)
#
#
# Indices 1 2 3 4 5 6 
#
# 1 0.012587 -0.004360 0.005951 0.000000 0.000000 0.000000
# 2 -0.004360 0.011023 -0.007969 0.000000 0.000000 0.000000
# 3 0.005951 -0.007969 0.028889 0.000000 0.000000 0.000000
# 4 0.000000 0.000000 0.000000 0.037282 0.000000 0.000000
# 5 0.000000 0.000000 0.000000 0.000000 0.037512 0.000000
# 6 0.000000 0.000000 0.000000 0.000000 0.000000 0.069707
#
#
# Mechanical properties :
#
#
# Convention : Reuss Voigt Hill
#
# Bulk Modulus (GPa) = 25.16082 39.21653 32.18868
# Shear Modulus (GPa) = 22.42121 27.99864 25.20993
#
# Velocity S-wave (km/s) = 3.51214 3.92474 3.72416
# Velocity P-wave (km/s) = 5.50356 6.48947 6.01675
#
# Compressibility (1/GPa) = 0.03974433
#
# Stress axis : x y z
#
# Youngs Moduli (GPa) = 79.44796 90.71648 34.61504
#
# Poissons Ratio (x) = 0.39554 -0.20601
# Poissons Ratio (y) = 0.34641 0.27584
# Poissons Ratio (z) = -0.47282 0.72289
#
# Static dielectric constant tensor:
#      x y z
#    x 1.653610 0.000000 0.000000 
#    y 0.000000 1.598530 0.000000 
#    z 0.000000 0.000000 1.612700 
# 
# From -- ./inp_files/5775.got.cif
#   From: 2010.05.17/outbox.cif.g08.bks.cpg/sg38_3_cif.got.tgz:5775.got - 2010.06.03 18:07:57.
