data_PCOD9358591
_publ_section_title
;
Structure prediction by ZEFSAII (Michael W. Deem and Ramdas Pophale) SiO2 
 PCOD9358591
Probable space group: A M M 2
;
_chemical_formula_sum "Si O2"
_cell_formula_units_Z 40
_cell_length_a 11.193453
_cell_length_b 27.149493
_cell_length_c 5.308515
_cell_angle_alpha 90.000000
_cell_angle_beta 90.000000
_cell_angle_gamma 90.000000
_cell_volume 1613.239521
_symmetry_space_group_name_H-M "A M M 2"
_symmetry_group_IT_number 38
_symmetry_cell_setting 'orthorhombic'
loop_
_space_group_symop_operation_xyz
x,y,z
-x,-y,z
-x,y,z
x,-y,z
x,1/2+y,1/2+z
-x,1/2-y,1/2+z
-x,1/2+y,1/2+z
x,1/2-y,1/2+z
loop_
_atom_site_type_symbol
_atom_site_label
_atom_site_fract_x
_atom_site_fract_y
_atom_site_fract_z
Si Si1 0.367564 0.582971 0.700280
Si Si2 0.168062 0.722782 0.648900
Si Si3 0.786304 0.136703 0.836952
Si Si4 0.869662 0.945940 0.479528
Si Si5 0.631272 0.189350 0.455654
O O1 0.500000 0.559706 0.695934
O O2 0.323823 0.603097 0.431394
O O3 0.249810 0.556584 0.809658
O O4 0.378499 0.633197 0.858064
O O5 0.125078 0.744451 0.914718
O O6 0.146921 0.665795 0.563264
O O7 0.310155 0.718510 0.721463
O O8 0.862658 0.099994 0.669064
O O9 0.727585 0.180820 0.676031
O O10 0.000000 0.943296 0.347342
O O11 0.865792 0.000000 0.607177
O O12 0.500000 0.206077 0.528676
#
# Coordination Sequence:
#
# PCOD9358591 Si02
#       5
#     8   8   8   8   8
#     4   9  19  36  61  94 134 180 229 288 359 433
#     4  11  21  36  56  91 135 182 232 287 347 421
#     4  10  20  38  65  93 135 186 236 299 358 425
#     4  10  23  43  67  99 139 186 242 304 371 444
#     4   9  18  33  53  85 129 177 227 280 341 414
#
# _framework density 24.794830000000001
#
# number of rings (size 3 to 8) (size 9 to 14) (size 15 to 20)
#    0.000    2.200    2.000    0.600    0.000    4.400 
#    0.000    2.000    0.000    1.200    0.000    0.000 
#    0.000    0.000    0.000    0.000    0.000    0.000 
#
# Total GULP energy -111381.475048 kJ/mol
# GULP energy per Si atom -5569.073752 kJ/mol
# Density = 2.473840 g / cm^3
# Si number density = 24.794830 Si / 1000 Ang^3
#
#
#
# Elastic Constant Matrix: (Units=GPa)
#
#
# Indices 1 2 3 4 5 6 
#
# 1 210.4936 54.7270 44.9121 0.0000 0.0000 0.0000
# 2 54.7270 130.4289 39.7193 0.0000 0.0000 0.0000
# 3 44.9121 39.7193 116.4646 0.0000 0.0000 0.0000
# 4 0.0000 0.0000 0.0000 20.4833 0.0000 0.0000
# 5 0.0000 0.0000 0.0000 0.0000 -27.2054 0.0000
# 6 0.0000 0.0000 0.0000 0.0000 0.0000 6.4816
#
#
#
# Elastic Compliance Matrix: (Units=1/GPa)
#
#
# Indices 1 2 3 4 5 6 
#
# 1 0.005559 -0.001874 -0.001504 0.000000 0.000000 0.000000
# 2 -0.001874 0.009188 -0.002411 0.000000 0.000000 0.000000
# 3 -0.001504 -0.002411 0.009989 0.000000 0.000000 0.000000
# 4 0.000000 0.000000 0.000000 0.048820 0.000000 0.000000
# 5 0.000000 0.000000 0.000000 0.000000 -0.036757 0.000000
# 6 0.000000 0.000000 0.000000 0.000000 0.000000 0.154283
#
#
# Mechanical properties :
#
#
# Convention : Reuss Voigt Hill
#
# Bulk Modulus (GPa) = 76.00869 81.78932 78.89901
# Shear Modulus (GPa) = 24.14927 21.15380 22.65153
#
# Velocity S-wave (km/s) = 3.12422 2.92405 3.02579
# Velocity P-wave (km/s) = 6.61332 6.66769 6.64056
#
# Compressibility (1/GPa) = 0.01315639
#
# Stress axis : x y z
#
# Youngs Moduli (GPa) = 179.88606 108.84280 100.11446
#
# Poissons Ratio (x) = 0.20401 0.15062
# Poissons Ratio (y) = 0.33718 0.24133
# Poissons Ratio (z) = 0.27064 0.26237
#
# Static dielectric constant tensor:
#      x y z
#    x 2.065750 0.000000 0.000000 
#    y 0.000000 1.996760 0.000000 
#    z 0.000000 0.000000 2.048680 
# 
# From -- ./inp_files/974.got.cif
#   From: 2010.05.17/outbox.cif.g08.bks.cpg/sg38_1_cif.got.tgz:974.got - 2010.06.03 18:07:57.
