data_PCOD9358202
_publ_section_title
;
Structure prediction by ZEFSAII (Michael W. Deem and Ramdas Pophale) SiO2 
 PCOD9358202
Probable space group: A M M 2
;
_chemical_formula_sum "Si O2"
_cell_formula_units_Z 56
_cell_length_a 17.544403
_cell_length_b 18.307804
_cell_length_c 9.644241
_cell_angle_alpha 90.000000
_cell_angle_beta 90.000000
_cell_angle_gamma 90.000000
_cell_volume 3097.725304
_symmetry_space_group_name_H-M "A M M 2"
_symmetry_group_IT_number 38
_symmetry_cell_setting 'orthorhombic'
loop_
_space_group_symop_operation_xyz
x,y,z
-x,-y,z
-x,y,z
x,-y,z
x,1/2+y,1/2+z
-x,1/2-y,1/2+z
-x,1/2+y,1/2+z
x,1/2-y,1/2+z
loop_
_atom_site_type_symbol
_atom_site_label
_atom_site_fract_x
_atom_site_fract_y
_atom_site_fract_z
Si Si1 0.588864 0.087032 0.158590
Si Si2 0.852342 0.583679 0.553428
Si Si3 0.175440 0.207383 0.249588
Si Si4 0.914172 0.234155 0.995798
Si Si5 0.411253 0.692057 0.899980
Si Si6 0.331744 0.791544 0.692363
Si Si7 0.690618 0.416424 0.401868
O O1 0.500000 0.104836 0.134192
O O2 0.609739 0.121803 0.306042
O O3 0.597762 0.000000 0.165227
O O4 0.638203 0.113471 0.027955
O O5 0.879245 0.500000 0.566996
O O6 0.830373 0.623198 0.699577
O O7 0.906120 0.645577 0.484971
O O8 0.775774 0.583563 0.462351
O O9 0.148819 0.225891 0.402840
O O10 0.257245 0.240595 0.211642
O O11 0.111669 0.246866 0.153783
O O12 0.000000 0.257475 0.966418
O O13 0.500000 0.688196 0.940144
O O14 0.396800 0.756096 0.789028
O O15 0.359424 0.701517 0.035121
O O16 0.314000 0.868339 0.765122
O O17 0.667189 0.500000 0.374896
#
# Coordination Sequence:
#
# PCOD9358202 Si02
#       7
#     8   8   8   8   8   8   8
#     4   9  19  36  55  77 107 144 185 230 284 337
#     4   9  19  35  57  84 112 144 186 227 274 336
#     4  10  20  35  57  84 109 149 186 227 276 336
#     4  10  20  35  57  86 115 143 183 231 279 334
#     4  11  23  34  53  79 110 145 184 234 282 329
#     4  12  21  37  55  79 111 146 189 232 278 338
#     4  10  20  36  57  80 108 144 186 234 281 336
#
# _framework density 18.077781000000002
#
# number of rings (size 3 to 8) (size 9 to 14) (size 15 to 20)
#    0.857    1.000    1.429    4.286    0.000    3.143 
#    0.000    0.000    0.000    3.429    0.000    0.000 
#    0.000    0.000    0.000    0.000    0.000    0.000 
#
# Total GULP energy -155959.677579 kJ/mol
# GULP energy per Si atom -5569.988485 kJ/mol
# Density = 1.803663 g / cm^3
# Si number density = 18.077781 Si / 1000 Ang^3
#
#
#
# Elastic Constant Matrix: (Units=GPa)
#
#
# Indices 1 2 3 4 5 6 
#
# 1 53.7460 -4.1421 0.6865 0.0000 0.0000 0.0000
# 2 -4.1421 51.9137 2.1466 0.0000 0.0000 0.0000
# 3 0.6865 2.1466 51.6850 0.0000 0.0000 0.0000
# 4 0.0000 0.0000 0.0000 30.1827 0.0000 0.0000
# 5 0.0000 0.0000 0.0000 0.0000 25.7542 0.0000
# 6 0.0000 0.0000 0.0000 0.0000 0.0000 10.4072
#
#
#
# Elastic Compliance Matrix: (Units=1/GPa)
#
#
# Indices 1 2 3 4 5 6 
#
# 1 0.018726 0.001507 -0.000311 0.000000 0.000000 0.000000
# 2 0.001507 0.019417 -0.000826 0.000000 0.000000 0.000000
# 3 -0.000311 -0.000826 0.019386 0.000000 0.000000 0.000000
# 4 0.000000 0.000000 0.000000 0.033132 0.000000 0.000000
# 5 0.000000 0.000000 0.000000 0.000000 0.038829 0.000000
# 6 0.000000 0.000000 0.000000 0.000000 0.000000 0.096088
#
#
# Mechanical properties :
#
#
# Convention : Reuss Voigt Hill
#
# Bulk Modulus (GPa) = 17.16203 17.19187 17.17695
# Shear Modulus (GPa) = 20.46984 23.84572 22.15778
#
# Velocity S-wave (km/s) = 3.36865 3.63583 3.50479
# Velocity P-wave (km/s) = 4.96432 5.21117 5.08924
#
# Compressibility (1/GPa) = 0.05826815
#
# Stress axis : x y z
#
# Youngs Moduli (GPa) = 53.40121 51.50083 51.58246
#
# Poissons Ratio (x) = -0.07761 0.01606
# Poissons Ratio (y) = -0.08047 0.04263
# Poissons Ratio (z) = 0.01663 0.04256
#
# Static dielectric constant tensor:
#      x y z
#    x 1.630280 0.000000 0.000000 
#    y 0.000000 1.654090 0.000000 
#    z 0.000000 0.000000 1.591080 
# 
# From -- ./inp_files/6443.got.cif
#   From: 2010.05.17/outbox.cif.g08.bks.cpg/sg38_4_cif.got.tgz:6443.got - 2010.06.03 18:07:57.
