data_PCOD9358762
_publ_section_title
;
Structure prediction by ZEFSAII (Michael W. Deem and Ramdas Pophale) SiO2 
 PCOD9358762
Probable space group: A M M 2
;
_chemical_formula_sum "Si O2"
_cell_formula_units_Z 48
_cell_length_a 8.816223
_cell_length_b 9.980966
_cell_length_c 31.493886
_cell_angle_alpha 90.000000
_cell_angle_beta 90.000000
_cell_angle_gamma 90.000000
_cell_volume 2771.286295
_symmetry_space_group_name_H-M "A M M 2"
_symmetry_group_IT_number 38
_symmetry_cell_setting 'orthorhombic'
loop_
_space_group_symop_operation_xyz
x,y,z
-x,-y,z
-x,y,z
x,-y,z
x,1/2+y,1/2+z
-x,1/2-y,1/2+z
-x,1/2+y,1/2+z
x,1/2-y,1/2+z
loop_
_atom_site_type_symbol
_atom_site_label
_atom_site_fract_x
_atom_site_fract_y
_atom_site_fract_z
Si Si1 0.317203 0.343756 0.055000
Si Si2 0.681504 0.156441 0.218688
Si Si3 0.317575 0.657702 0.382461
Si Si4 0.818876 0.156021 0.310213
Si Si5 0.315276 0.846319 0.978666
Si Si6 0.818538 0.656658 0.146225
O O1 0.500000 0.332226 0.058664
O O2 0.281388 0.500000 0.047057
O O3 0.244158 0.304765 0.099837
O O4 0.265249 0.252280 0.015872
O O5 0.500000 0.167150 0.219001
O O6 0.745710 0.193249 0.265000
O O7 0.749317 0.250430 0.182489
O O8 0.721914 0.000000 0.211077
O O9 0.500000 0.672806 0.379810
O O10 0.283780 0.500000 0.375897
O O11 0.240899 0.749977 0.347526
O O12 0.269712 0.692293 0.430778
O O13 0.000000 0.165766 0.306860
O O14 0.778962 0.000000 0.318591
O O15 0.500000 0.845318 0.978633
O O16 0.268254 0.000000 0.986444
O O17 0.776969 0.500000 0.153102
O O18 0.000000 0.666614 0.146597
#
# Coordination Sequence:
#
# PCOD9358762 Si02
#       6
#     8   8   8   8   8   8
#     4   9  17  30  49  73 100 131 169 211 252 295
#     4  10  21  37  57  79 101 129 168 212 256 302
#     4   9  18  33  53  77 104 135 172 212 253 299
#     4  10  21  36  53  75 104 136 169 207 253 304
#     4   8  15  29  49  73 100 129 165 210 254 295
#     4  10  21  36  53  75 105 139 171 205 250 303
#
# _framework density 17.320477
#
# number of rings (size 3 to 8) (size 9 to 14) (size 15 to 20)
#    0.000    2.667    0.000    2.500    0.000    5.333 
#    0.000    4.167    0.000    3.000    0.000    0.000 
#    0.000    0.000    0.000    0.000    0.000    0.000 
#
# Total GULP energy -133872.123284 kJ/mol
# GULP energy per Si atom -5578.005137 kJ/mol
# Density = 1.728106 g / cm^3
# Si number density = 17.320477 Si / 1000 Ang^3
#
#
#
# Elastic Constant Matrix: (Units=GPa)
#
#
# Indices 1 2 3 4 5 6 
#
# 1 29.5806 40.0093 54.3046 0.0000 0.0000 0.0000
# 2 40.0093 88.6501 120.2089 0.0000 0.0000 0.0000
# 3 54.3046 120.2089 202.9201 0.0000 0.0000 0.0000
# 4 0.0000 0.0000 0.0000 43.4831 0.0000 0.0000
# 5 0.0000 0.0000 0.0000 0.0000 -30.8647 0.0000
# 6 0.0000 0.0000 0.0000 0.0000 0.0000 23.7446
#
#
#
# Elastic Compliance Matrix: (Units=1/GPa)
#
#
# Indices 1 2 3 4 5 6 
#
# 1 0.086778 -0.039010 -0.000114 0.000000 0.000000 0.000000
# 2 -0.039010 0.074880 -0.033919 0.000000 0.000000 0.000000
# 3 -0.000114 -0.033919 0.025052 0.000000 0.000000 0.000000
# 4 0.000000 0.000000 0.000000 0.022997 0.000000 0.000000
# 5 0.000000 0.000000 0.000000 0.000000 -0.032400 0.000000
# 6 0.000000 0.000000 0.000000 0.000000 0.000000 0.042115
#
#
# Mechanical properties :
#
#
# Convention : Reuss Voigt Hill
#
# Bulk Modulus (GPa) = 24.61579 83.35516 53.98548
# Shear Modulus (GPa) = 13.19093 14.38116 13.78604
#
# Velocity S-wave (km/s) = 2.76267 2.88462 2.82430
# Velocity P-wave (km/s) = 4.94158 7.70223 6.47084
#
# Compressibility (1/GPa) = 0.04062433
#
# Stress axis : x y z
#
# Youngs Moduli (GPa) = 11.52369 13.35474 39.91733
#
# Poissons Ratio (x) = 0.52097 0.00454
# Poissons Ratio (y) = 0.44954 1.35394
# Poissons Ratio (z) = 0.00131 0.45298
#
# Static dielectric constant tensor:
#      x y z
#    x 1.577750 0.000000 0.000000 
#    y 0.000000 1.577800 0.000000 
#    z 0.000000 0.000000 1.560230 
# 
# From -- ./inp_files/24261.got.cif
#   From: 2010.05.17/outbox.cif.g08.bks.cpg/sg38_13_cif.got.tgz:24261.got - 2010.06.03 18:07:57.
