data_PCOD9358451
_publ_section_title
;
Structure prediction by ZEFSAII (Michael W. Deem and Ramdas Pophale) SiO2 
 PCOD9358451
Probable space group: A M M 2
;
_chemical_formula_sum "Si O2"
_cell_formula_units_Z 48
_cell_length_a 14.270980
_cell_length_b 8.920642
_cell_length_c 20.375296
_cell_angle_alpha 90.000000
_cell_angle_beta 90.000000
_cell_angle_gamma 90.000000
_cell_volume 2593.903618
_symmetry_space_group_name_H-M "A M M 2"
_symmetry_group_IT_number 38
_symmetry_cell_setting 'orthorhombic'
loop_
_space_group_symop_operation_xyz
x,y,z
-x,-y,z
-x,y,z
x,-y,z
x,1/2+y,1/2+z
-x,1/2-y,1/2+z
-x,1/2+y,1/2+z
x,1/2-y,1/2+z
loop_
_atom_site_type_symbol
_atom_site_label
_atom_site_fract_x
_atom_site_fract_y
_atom_site_fract_z
Si Si1 0.320937 0.327057 0.547570
Si Si2 0.500000 0.675250 0.994911
Si Si3 0.692827 0.178273 0.303473
Si Si4 0.000000 0.681049 0.486604
Si Si5 0.500000 0.679117 0.350255
Si Si6 0.193573 0.180093 0.172122
Si Si7 0.000000 0.178920 0.632347
Si Si8 0.193376 0.673426 0.418088
O O1 0.351532 0.500000 0.558340
O O2 0.409387 0.222758 0.536090
O O3 0.254197 0.283313 0.607510
O O4 0.261017 0.323345 0.481018
O O5 0.500000 0.500000 0.980092
O O6 0.500000 0.763388 0.925656
O O7 0.593983 0.259871 0.315724
O O8 0.744726 0.218209 0.235711
O O9 0.762191 0.225490 0.362069
O O10 0.676590 0.000000 0.304268
O O11 0.000000 0.757195 0.557781
O O12 0.091939 0.719548 0.444851
O O13 0.000000 0.500000 0.497168
O O14 0.500000 0.500000 0.350576
O O15 0.093766 0.260650 0.167375
O O16 0.177695 0.000000 0.171914
O O17 0.000000 0.000000 0.630914
O O18 0.188309 0.500000 0.395140
#
# Coordination Sequence:
#
# PCOD9358451 Si02
#       8
#     8   4   8   4   4   8   4   8
#     4  10  20  38  64  89 117 159 208 246 295 364
#     4  12  24  37  60  93 127 157 201 259 308 356
#     4  11  24  41  64  92 124 160 203 255 304 357
#     4  10  20  39  64  89 121 165 211 249 298 368
#     4  12  24  41  64  87 121 165 203 245 306 374
#     4  10  23  44  66  88 123 168 206 245 300 372
#     4  12  24  37  62  95 125 159 201 257 310 356
#     4  10  20  36  63  91 120 160 203 249 300 360
#
# _framework density 18.504928
#
# number of rings (size 3 to 8) (size 9 to 14) (size 15 to 20)
#    0.000    1.333    3.333    2.750    0.000    4.000 
#    0.000    5.000    0.000    0.000    0.000    0.000 
#    0.000    0.000    0.000    0.000    0.000    0.000 
#
# Total GULP energy -134136.765009 kJ/mol
# GULP energy per Si atom -5589.031875 kJ/mol
# Density = 1.846281 g / cm^3
# Si number density = 18.504928 Si / 1000 Ang^3
#
#
#
# Elastic Constant Matrix: (Units=GPa)
#
#
# Indices 1 2 3 4 5 6 
#
# 1 134.8747 68.0592 34.9213 0.0000 0.0000 0.0000
# 2 68.0592 87.7072 47.0328 0.0000 0.0000 0.0000
# 3 34.9213 47.0328 92.5707 0.0000 0.0000 0.0000
# 4 0.0000 0.0000 0.0000 26.9768 0.0000 0.0000
# 5 0.0000 0.0000 0.0000 0.0000 21.6933 0.0000
# 6 0.0000 0.0000 0.0000 0.0000 0.0000 20.9778
#
#
#
# Elastic Compliance Matrix: (Units=1/GPa)
#
#
# Indices 1 2 3 4 5 6 
#
# 1 0.012191 -0.009613 0.000285 0.000000 0.000000 0.000000
# 2 -0.009613 0.023252 -0.008187 0.000000 0.000000 0.000000
# 3 0.000285 -0.008187 0.014855 0.000000 0.000000 0.000000
# 4 0.000000 0.000000 0.000000 0.037069 0.000000 0.000000
# 5 0.000000 0.000000 0.000000 0.000000 0.046097 0.000000
# 6 0.000000 0.000000 0.000000 0.000000 0.000000 0.047670
#
#
# Mechanical properties :
#
#
# Convention : Reuss Voigt Hill
#
# Bulk Modulus (GPa) = 65.49925 68.35326 66.92625
# Shear Modulus (GPa) = 22.59861 24.93884 23.76872
#
# Velocity S-wave (km/s) = 3.49839 3.67507 3.58782
# Velocity P-wave (km/s) = 7.19658 7.41797 7.30811
#
# Compressibility (1/GPa) = 0.01526735
#
# Stress axis : x y z
#
# Youngs Moduli (GPa) = 82.02505 43.00786 67.31917
#
# Poissons Ratio (x) = 0.41344 -0.01920
# Poissons Ratio (y) = 0.78853 0.55115
# Poissons Ratio (z) = -0.02339 0.35211
#
# Static dielectric constant tensor:
#      x y z
#    x 1.632310 0.000000 0.000000 
#    y 0.000000 1.631990 0.000000 
#    z 0.000000 0.000000 1.609690 
# 
# From -- ./inp_files/18249.got.cif
#   From: 2010.05.17/outbox.cif.g08.bks.cpg/sg38_10_cif.got.tgz:18249.got - 2010.06.03 18:07:57.
