data_PCOD9358287
_publ_section_title
;
Structure prediction by ZEFSAII (Michael W. Deem and Ramdas Pophale) SiO2 
 PCOD9358287
Probable space group: A M M 2
;
_chemical_formula_sum "Si O2"
_cell_formula_units_Z 48
_cell_length_a 19.683730
_cell_length_b 9.280310
_cell_length_c 14.475390
_cell_angle_alpha 90.000000
_cell_angle_beta 90.000000
_cell_angle_gamma 90.000000
_cell_volume 2644.235651
_symmetry_space_group_name_H-M "A M M 2"
_symmetry_group_IT_number 38
_symmetry_cell_setting 'orthorhombic'
loop_
_space_group_symop_operation_xyz
x,y,z
-x,-y,z
-x,y,z
x,-y,z
x,1/2+y,1/2+z
-x,1/2-y,1/2+z
-x,1/2+y,1/2+z
x,1/2-y,1/2+z
loop_
_atom_site_type_symbol
_atom_site_label
_atom_site_fract_x
_atom_site_fract_y
_atom_site_fract_z
Si Si1 0.112043 0.327006 0.982620
Si Si2 0.000000 0.172084 0.635146
Si Si3 0.000000 0.827716 0.330537
Si Si4 0.500000 0.837674 0.342126
Si Si5 0.633903 0.832590 0.838039
Si Si6 0.361804 0.829290 0.617961
Si Si7 0.500000 0.665881 0.616917
Si Si8 0.255901 0.327686 0.489372
O O1 0.124163 0.500000 0.982461
O O2 0.065674 0.292287 0.893369
O O3 0.181666 0.240592 0.983584
O O4 0.065619 0.293332 0.072068
O O5 0.000000 0.250491 0.732648
O O6 0.000000 0.000000 0.649131
O O7 0.000000 0.000000 0.317616
O O8 0.430857 0.758916 0.369049
O O9 0.500000 0.838012 0.229466
O O10 0.500000 0.000000 0.376205
O O11 0.644722 0.812793 0.728761
O O12 0.616995 0.000000 0.853295
O O13 0.701018 0.799515 0.896060
O O14 0.432105 0.751334 0.590217
O O15 0.299801 0.750052 0.568442
O O16 0.363607 0.000000 0.597013
O O17 0.500000 0.500000 0.584272
O O18 0.252908 0.500000 0.503833
#
# Coordination Sequence:
#
# PCOD9358287 Si02
#       8
#     8   4   4   4   8   8   4   8
#     4   9  20  39  57  79 114 148 176 214 263 320
#     4   9  19  37  62  86 110 143 179 213 260 318
#     4   9  19  37  62  88 112 141 179 219 262 310
#     4   9  17  30  53  80 102 130 178 232 273 313
#     4   9  20  37  54  73 104 143 180 220 272 326
#     4  10  20  36  56  77 104 143 185 225 274 331
#     4   9  17  32  53  78 106 136 178 234 279 317
#     4  11  23  37  54  80 111 144 181 224 270 317
#
# _framework density 18.152692999999999
#
# number of rings (size 3 to 8) (size 9 to 14) (size 15 to 20)
#    0.000    2.500    0.000    2.500    0.000    7.333 
#    0.000    7.500    0.000    0.000    0.000    0.000 
#    0.000    0.000    0.000    0.000    0.000    0.000 
#
# Total GULP energy -133998.837705 kJ/mol
# GULP energy per Si atom -5583.284904 kJ/mol
# Density = 1.811138 g / cm^3
# Si number density = 18.152693 Si / 1000 Ang^3
#
#
#
# Elastic Constant Matrix: (Units=GPa)
#
#
# Indices 1 2 3 4 5 6 
#
# 1 202.3905 115.1350 78.1996 0.0000 0.0000 0.0000
# 2 115.1350 110.5772 74.2807 0.0000 0.0000 0.0000
# 3 78.1996 74.2807 109.3406 0.0000 0.0000 0.0000
# 4 0.0000 0.0000 0.0000 28.9052 0.0000 0.0000
# 5 0.0000 0.0000 0.0000 0.0000 11.6181 0.0000
# 6 0.0000 0.0000 0.0000 0.0000 0.0000 38.9625
#
#
#
# Elastic Compliance Matrix: (Units=1/GPa)
#
#
# Indices 1 2 3 4 5 6 
#
# 1 0.012122 -0.012504 -0.000175 0.000000 0.000000 0.000000
# 2 -0.012504 0.029533 -0.011121 0.000000 0.000000 0.000000
# 3 -0.000175 -0.011121 0.016826 0.000000 0.000000 0.000000
# 4 0.000000 0.000000 0.000000 0.034596 0.000000 0.000000
# 5 0.000000 0.000000 0.000000 0.000000 0.086073 0.000000
# 6 0.000000 0.000000 0.000000 0.000000 0.000000 0.025666
#
#
# Mechanical properties :
#
#
# Convention : Reuss Voigt Hill
#
# Bulk Modulus (GPa) = 91.89777 106.39320 99.14548
# Shear Modulus (GPa) = 19.52819 26.21002 22.86911
#
# Velocity S-wave (km/s) = 3.28346 3.80394 3.55324
# Velocity P-wave (km/s) = 8.06905 8.83350 8.45991
#
# Compressibility (1/GPa) = 0.01088166
#
# Stress axis : x y z
#
# Youngs Moduli (GPa) = 82.49755 33.86053 59.43334
#
# Poissons Ratio (x) = 0.42338 0.01039
# Poissons Ratio (y) = 1.03153 0.66094
# Poissons Ratio (z) = 0.01442 0.37655
#
# Static dielectric constant tensor:
#      x y z
#    x 1.584630 0.000000 0.000000 
#    y 0.000000 1.607320 0.000000 
#    z 0.000000 0.000000 1.639810 
# 
# From -- ./inp_files/15124.got.cif
#   From: 2010.05.17/outbox.cif.g08.bks.cpg/sg38_8_cif.got.tgz:15124.got - 2010.06.03 18:07:57.
