data_PCOD9358745
_publ_section_title
;
Structure prediction by ZEFSAII (Michael W. Deem and Ramdas Pophale) SiO2 
 PCOD9358745
Probable space group: A M M 2
;
_chemical_formula_sum "Si O2"
_cell_formula_units_Z 64
_cell_length_a 25.891309
_cell_length_b 7.523547
_cell_length_c 15.094960
_cell_angle_alpha 90.000000
_cell_angle_beta 90.000000
_cell_angle_gamma 90.000000
_cell_volume 2940.414886
_symmetry_space_group_name_H-M "A M M 2"
_symmetry_group_IT_number 38
_symmetry_cell_setting 'orthorhombic'
loop_
_space_group_symop_operation_xyz
x,y,z
-x,-y,z
-x,y,z
x,-y,z
x,1/2+y,1/2+z
-x,1/2-y,1/2+z
-x,1/2+y,1/2+z
x,1/2-y,1/2+z
loop_
_atom_site_type_symbol
_atom_site_label
_atom_site_fract_x
_atom_site_fract_y
_atom_site_fract_z
Si Si1 0.555331 0.212086 0.144630
Si Si2 0.254158 0.287647 0.308839
Si Si3 0.942426 0.212664 0.957857
Si Si4 0.057540 0.712726 0.164002
Si Si5 0.332255 0.788518 0.661604
Si Si6 0.555950 0.204851 0.437534
Si Si7 0.666375 0.214339 0.459709
Si Si8 0.136817 0.718159 0.311092
O O1 0.500000 0.264149 0.185490
O O2 0.608596 0.259069 0.191724
O O3 0.555198 0.000000 0.133789
O O4 0.556863 0.293423 0.045621
O O5 0.250766 0.500000 0.296787
O O6 0.290180 0.215891 0.229595
O O7 0.284998 0.256277 0.399383
O O8 0.195732 0.219381 0.310157
O O9 0.933403 0.249630 0.060972
O O10 0.000000 0.281121 0.934725
O O11 0.944386 0.000000 0.946352
O O12 0.896479 0.277315 0.895832
O O13 0.055629 0.500000 0.175139
O O14 0.103391 0.776420 0.226384
O O15 0.000000 0.781092 0.187258
O O16 0.327975 0.719505 0.560707
O O17 0.324769 0.000000 0.656575
O O18 0.500000 0.284355 0.412606
O O19 0.612356 0.282920 0.417228
O O20 0.555231 0.000000 0.406294
O O21 0.661128 0.000000 0.463674
O O22 0.138250 0.500000 0.311797
#
# Coordination Sequence:
#
# PCOD9358745 Si02
#       8
#     8   8   8   8   8   8   8   8
#     4   9  16  26  45  74 100 121 153 200 249 294
#     4  10  21  36  52  71  96 130 173 210 238 281
#     4   9  17  31  52  77 104 132 161 197 245 296
#     4   9  17  31  53  79 103 129 164 203 242 288
#     4   9  19  35  52  69  95 132 166 198 244 298
#     4   8  14  27  48  71  95 126 160 193 240 303
#     4   9  18  33  52  73  98 128 161 201 250 297
#     4   9  18  33  52  72  98 134 170 202 240 289
#
# _framework density 21.765636000000001
#
# number of rings (size 3 to 8) (size 9 to 14) (size 15 to 20)
#    0.000    3.000    0.000    1.500    0.000    5.750 
#    0.000    3.750    0.000    5.250    0.000    0.000 
#    0.000    0.000    0.000    0.000    0.000    0.000 
#
# Total GULP energy -178502.501621 kJ/mol
# GULP energy per Si atom -5578.203176 kJ/mol
# Density = 2.171610 g / cm^3
# Si number density = 21.765636 Si / 1000 Ang^3
#
#
#
# Elastic Constant Matrix: (Units=GPa)
#
#
# Indices 1 2 3 4 5 6 
#
# 1 258.0569 4.4308 108.4788 0.0000 0.0000 0.0000
# 2 4.4308 57.2728 -1.3208 0.0000 0.0000 0.0000
# 3 108.4788 -1.3208 95.6776 0.0000 0.0000 0.0000
# 4 0.0000 0.0000 0.0000 11.3909 0.0000 0.0000
# 5 0.0000 0.0000 0.0000 0.0000 28.8027 0.0000
# 6 0.0000 0.0000 0.0000 0.0000 0.0000 8.2338
#
#
#
# Elastic Compliance Matrix: (Units=1/GPa)
#
#
# Indices 1 2 3 4 5 6 
#
# 1 0.007438 -0.000770 -0.008443 0.000000 0.000000 0.000000
# 2 -0.000770 0.017546 0.001115 0.000000 0.000000 0.000000
# 3 -0.008443 0.001115 0.020040 0.000000 0.000000 0.000000
# 4 0.000000 0.000000 0.000000 0.087790 0.000000 0.000000
# 5 0.000000 0.000000 0.000000 0.000000 0.034719 0.000000
# 6 0.000000 0.000000 0.000000 0.000000 0.000000 0.121450
#
#
# Mechanical properties :
#
#
# Convention : Reuss Voigt Hill
#
# Bulk Modulus (GPa) = 34.68950 70.46499 52.57724
# Shear Modulus (GPa) = 15.88371 29.64671 22.76521
#
# Velocity S-wave (km/s) = 2.70434 3.69465 3.23758
# Velocity P-wave (km/s) = 5.07184 7.11655 6.17936
#
# Compressibility (1/GPa) = 0.02882717
#
# Stress axis : x y z
#
# Youngs Moduli (GPa) = 134.45044 56.99441 49.89951
#
# Poissons Ratio (x) = 0.04389 0.42132
# Poissons Ratio (y) = 0.10354 -0.05566
# Poissons Ratio (z) = 1.13522 -0.06357
#
# Static dielectric constant tensor:
#      x y z
#    x 1.807460 0.000000 0.000000 
#    y 0.000000 1.855950 0.000000 
#    z 0.000000 0.000000 1.779190 
# 
# From -- ./inp_files/15847.got.cif
#   From: 2010.05.17/outbox.cif.g08.bks.cpg/sg38_8_cif.got.tgz:15847.got - 2010.06.03 18:07:57.
