data_PCOD9358651
_publ_section_title
;
Structure prediction by ZEFSAII (Michael W. Deem and Ramdas Pophale) SiO2 
 PCOD9358651
Probable space group: A M M 2
;
_chemical_formula_sum "Si O2"
_cell_formula_units_Z 56
_cell_length_a 15.895092
_cell_length_b 8.861313
_cell_length_c 20.472098
_cell_angle_alpha 90.000000
_cell_angle_beta 90.000000
_cell_angle_gamma 90.000000
_cell_volume 2883.523365
_symmetry_space_group_name_H-M "A M M 2"
_symmetry_group_IT_number 38
_symmetry_cell_setting 'orthorhombic'
loop_
_space_group_symop_operation_xyz
x,y,z
-x,-y,z
-x,y,z
x,-y,z
x,1/2+y,1/2+z
-x,1/2-y,1/2+z
-x,1/2+y,1/2+z
x,1/2-y,1/2+z
loop_
_atom_site_type_symbol
_atom_site_label
_atom_site_fract_x
_atom_site_fract_y
_atom_site_fract_z
Si Si1 0.407495 0.320520 0.579150
Si Si2 0.632540 0.174467 0.228627
Si Si3 0.178198 0.177610 0.178734
Si Si4 0.095142 0.818076 0.308909
Si Si5 0.408240 0.680484 0.363083
Si Si6 0.773973 0.318968 0.410360
Si Si7 0.769289 0.321738 0.045640
O O1 0.500000 0.280509 0.553525
O O2 0.393539 0.500000 0.567089
O O3 0.407259 0.299745 0.657594
O O4 0.328049 0.230429 0.553034
O O5 0.731848 0.193730 0.215392
O O6 0.601398 0.278747 0.286676
O O7 0.616748 0.000000 0.247096
O O8 0.110930 0.223541 0.233088
O O9 0.184295 0.267380 0.111463
O O10 0.168588 0.000000 0.163116
O O11 0.164126 0.741886 0.354739
O O12 0.000000 0.779903 0.328399
O O13 0.105552 0.000000 0.312658
O O14 0.500000 0.737955 0.385672
O O15 0.409008 0.500000 0.371158
O O16 0.322226 0.735513 0.396756
O O17 0.773780 0.500000 0.409783
O O18 0.802112 0.258244 0.480579
O O19 0.774575 0.500000 0.039337
#
# Coordination Sequence:
#
# PCOD9358651 Si02
#       7
#     8   8   8   8   8   8   8
#     4   9  18  33  52  76 110 153 199 246 300 359
#     4   9  16  29  51  78 109 147 190 236 288 345
#     4   9  18  36  60  86 117 151 189 234 294 360
#     4  10  21  40  68  97 122 150 189 241 299 359
#     4  10  21  34  50  77 113 154 199 245 291 338
#     4  11  23  40  60  84 121 164 204 245 296 356
#     4  11  23  37  57  83 115 156 203 250 299 348
#
# _framework density 19.420684999999999
#
# number of rings (size 3 to 8) (size 9 to 14) (size 15 to 20)
#    0.000    2.143    1.429    3.000    0.000    5.429 
#    0.000    2.143    0.000    2.571    0.000    0.000 
#    0.000    0.000    0.000    0.000    0.000    0.000 
#
# Total GULP energy -156295.698428 kJ/mol
# GULP energy per Si atom -5581.989230 kJ/mol
# Density = 1.937648 g / cm^3
# Si number density = 19.420685 Si / 1000 Ang^3
#
#
#
# Elastic Constant Matrix: (Units=GPa)
#
#
# Indices 1 2 3 4 5 6 
#
# 1 80.4415 36.1945 45.1164 0.0000 0.0000 0.0000
# 2 36.1945 39.6875 37.8031 0.0000 0.0000 0.0000
# 3 45.1164 37.8031 103.2817 0.0000 0.0000 0.0000
# 4 0.0000 0.0000 0.0000 27.6150 0.0000 0.0000
# 5 0.0000 0.0000 0.0000 0.0000 -7.3336 0.0000
# 6 0.0000 0.0000 0.0000 0.0000 0.0000 18.5347
#
#
#
# Elastic Compliance Matrix: (Units=1/GPa)
#
#
# Indices 1 2 3 4 5 6 
#
# 1 0.021858 -0.016641 -0.003457 0.000000 0.000000 0.000000
# 2 -0.016641 0.051353 -0.011527 0.000000 0.000000 0.000000
# 3 -0.003457 -0.011527 0.015412 0.000000 0.000000 0.000000
# 4 0.000000 0.000000 0.000000 0.036212 0.000000 0.000000
# 5 0.000000 0.000000 0.000000 0.000000 -0.136358 0.000000
# 6 0.000000 0.000000 0.000000 0.000000 0.000000 0.053953
#
#
# Mechanical properties :
#
#
# Convention : Reuss Voigt Hill
#
# Bulk Modulus (GPa) = 39.41354 51.29319 45.35337
# Shear Modulus (GPa) = 43.80681 14.71631 29.26156
#
# Velocity S-wave (km/s) = 4.75455 2.75574 3.88586
# Velocity P-wave (km/s) = 7.10490 6.04933 6.59826
#
# Compressibility (1/GPa) = 0.02537199
#
# Stress axis : x y z
#
# Youngs Moduli (GPa) = 45.74954 19.47312 64.88658
#
# Poissons Ratio (x) = 0.32406 0.22433
# Poissons Ratio (y) = 0.76133 0.74793
# Poissons Ratio (z) = 0.15817 0.22446
#
# Static dielectric constant tensor:
#      x y z
#    x 1.718340 0.000000 0.000000 
#    y 0.000000 1.650660 0.000000 
#    z 0.000000 0.000000 1.677120 
# 
# From -- ./inp_files/21101.got.cif
#   From: 2010.05.17/outbox.cif.g08.bks.cpg/sg38_11_cif.got.tgz:21101.got - 2010.06.03 18:07:57.
