data_PCOD9358122
_publ_section_title
;
Structure prediction by ZEFSAII (Michael W. Deem and Ramdas Pophale) SiO2 
 PCOD9358122
Probable space group: A M M 2
;
_chemical_formula_sum "Si O2"
_cell_formula_units_Z 56
_cell_length_a 21.646120
_cell_length_b 7.446280
_cell_length_c 14.493220
_cell_angle_alpha 90.000000
_cell_angle_beta 90.000000
_cell_angle_gamma 90.000000
_cell_volume 2336.061700
_symmetry_space_group_name_H-M "A M M 2"
_symmetry_group_IT_number 38
_symmetry_cell_setting 'orthorhombic'
loop_
_space_group_symop_operation_xyz
x,y,z
-x,-y,z
-x,y,z
x,-y,z
x,1/2+y,1/2+z
-x,1/2-y,1/2+z
-x,1/2+y,1/2+z
x,1/2-y,1/2+z
loop_
_atom_site_type_symbol
_atom_site_label
_atom_site_fract_x
_atom_site_fract_y
_atom_site_fract_z
Si Si1 0.303013 0.212106 0.363150
Si Si2 0.069175 0.789782 0.517523
Si Si3 0.432534 0.292682 0.903436
Si Si4 0.832812 0.286248 0.366896
Si Si5 0.433687 0.718444 0.185447
Si Si6 0.828161 0.278781 0.155632
Si Si7 0.304841 0.203451 0.648360
O O1 0.362889 0.279051 0.419814
O O2 0.234826 0.233182 0.404695
O O3 0.301080 0.301361 0.261443
O O4 0.312585 0.000000 0.347942
O O5 0.108981 0.777512 0.424718
O O6 0.114991 0.713991 0.594933
O O7 0.000000 0.714454 0.511685
O O8 0.063020 0.000000 0.539532
O O9 0.500000 0.214370 0.929823
O O10 0.433295 0.500000 0.935857
O O11 0.433106 0.285993 0.790924
O O12 0.834595 0.500000 0.366557
O O13 0.835940 0.223124 0.261400
O O14 0.500000 0.767586 0.144831
O O15 0.430463 0.500000 0.189602
O O16 0.372611 0.783607 0.133719
O O17 0.825959 0.500000 0.153273
O O18 0.760756 0.215296 0.121487
O O19 0.306362 0.000000 0.611384
#
# Coordination Sequence:
#
# PCOD9358122 Si02
#       7
#     8   8   8   8   8   8   8
#     4   9  15  24  41  65  94 129 168 208 249 293
#     4  10  21  37  56  78 102 128 163 205 249 303
#     4   8  13  20  31  52  85 123 161 202 246 289
#     4  10  20  35  55  78 105 136 170 207 248 298
#     4   8  12  17  28  50  81 116 154 198 244 286
#     4   8  16  32  53  74  98 132 168 201 243 297
#     4   8  13  23  39  60  89 125 164 203 244 294
#
# _framework density 23.971971
#
# number of rings (size 3 to 8) (size 9 to 14) (size 15 to 20)
#    0.000    3.286    0.000    1.714    0.000    1.429 
#    0.000    5.000    0.000    0.000    0.000    1.000 
#    0.000    5.714    0.000    0.857    0.000   11.714 
#
# Total GULP energy -156165.329576 kJ/mol
# GULP energy per Si atom -5577.333199 kJ/mol
# Density = 2.391741 g / cm^3
# Si number density = 23.971971 Si / 1000 Ang^3
#
#
#
# Elastic Constant Matrix: (Units=GPa)
#
#
# Indices 1 2 3 4 5 6 
#
# 1 300.0904 3.6149 48.8718 0.0000 0.0000 0.0000
# 2 3.6149 85.0199 -8.2403 0.0000 0.0000 0.0000
# 3 48.8718 -8.2403 82.4225 0.0000 0.0000 0.0000
# 4 0.0000 0.0000 0.0000 -0.9665 0.0000 0.0000
# 5 0.0000 0.0000 0.0000 0.0000 23.5302 0.0000
# 6 0.0000 0.0000 0.0000 0.0000 0.0000 12.0352
#
#
#
# Elastic Compliance Matrix: (Units=1/GPa)
#
#
# Indices 1 2 3 4 5 6 
#
# 1 0.003700 -0.000374 -0.002231 0.000000 0.000000 0.000000
# 2 -0.000374 0.011915 0.001413 0.000000 0.000000 0.000000
# 3 -0.002231 0.001413 0.013597 0.000000 0.000000 0.000000
# 4 0.000000 0.000000 0.000000 -1.034698 0.000000 0.000000
# 5 0.000000 0.000000 0.000000 0.000000 0.042499 0.000000
# 6 0.000000 0.000000 0.000000 0.000000 0.000000 0.083090
#
#
# Mechanical properties :
#
#
# Convention : Reuss Voigt Hill
#
# Bulk Modulus (GPa) = 37.27532 61.78061 49.52796
# Shear Modulus (GPa) = -5.75658 35.13888 14.69115
#
# Velocity S-wave (km/s) = -1.55132 3.83277 2.47826
# Velocity P-wave (km/s) = 3.51774 6.73905 5.37538
#
# Compressibility (1/GPa) = 0.02682740
#
# Stress axis : x y z
#
# Youngs Moduli (GPa) = 270.25402 83.92947 73.54610
#
# Poissons Ratio (x) = 0.03136 0.16411
# Poissons Ratio (y) = 0.10097 -0.10390
# Poissons Ratio (z) = 0.60304 -0.11857
#
# Static dielectric constant tensor:
#      x y z
#    x 1.972720 0.000000 0.000000 
#    y 0.000000 1.914990 0.000000 
#    z 0.000000 0.000000 1.957760 
# 
# From -- ./inp_files/18813.got.cif
#   From: 2010.05.17/outbox.cif.g08.bks.cpg/sg38_10_cif.got.tgz:18813.got - 2010.06.03 18:07:57.
