data_PCOD9358853
_publ_section_title
;
Structure prediction by ZEFSAII (Michael W. Deem and Ramdas Pophale) SiO2 
 PCOD9358853
Probable space group: A M M 2
;
_chemical_formula_sum "Si O2"
_cell_formula_units_Z 64
_cell_length_a 14.406471
_cell_length_b 8.467970
_cell_length_c 26.787213
_cell_angle_alpha 90.000000
_cell_angle_beta 90.000000
_cell_angle_gamma 90.000000
_cell_volume 3267.867590
_symmetry_space_group_name_H-M "A M M 2"
_symmetry_group_IT_number 38
_symmetry_cell_setting 'orthorhombic'
loop_
_space_group_symop_operation_xyz
x,y,z
-x,-y,z
-x,y,z
x,-y,z
x,1/2+y,1/2+z
-x,1/2-y,1/2+z
-x,1/2+y,1/2+z
x,1/2-y,1/2+z
loop_
_atom_site_type_symbol
_atom_site_label
_atom_site_fract_x
_atom_site_fract_y
_atom_site_fract_z
Si Si1 0.393546 0.808672 0.877800
Si Si2 0.612963 0.819461 0.987245
Si Si3 0.606467 0.691283 0.596312
Si Si4 0.109809 0.312061 0.431452
Si Si5 0.109069 0.690221 0.038493
Si Si6 0.786461 0.686512 0.834116
Si Si7 0.893602 0.190760 0.737752
Si Si8 0.786522 0.309307 0.138726
O O1 0.500000 0.761069 0.868006
O O2 0.318087 0.750969 0.838907
O O3 0.392151 0.000000 0.880102
O O4 0.364567 0.748281 0.933374
O O5 0.500000 0.828397 0.987430
O O6 0.635844 0.746736 0.040894
O O7 0.648487 0.000000 0.987180
O O8 0.500000 0.738906 0.605952
O O9 0.607722 0.500000 0.593970
O O10 0.681255 0.750650 0.635415
O O11 0.119285 0.500000 0.427066
O O12 0.144473 0.259373 0.486090
O O13 0.161645 0.234453 0.385193
O O14 0.000000 0.271481 0.429079
O O15 0.115042 0.500000 0.035759
O O16 0.161985 0.744653 0.088038
O O17 0.000000 0.732266 0.043104
O O18 0.784961 0.500000 0.829439
O O19 0.840478 0.758176 0.787327
O O20 0.840475 0.245117 0.687937
O O21 0.000000 0.246841 0.738284
O O22 0.895553 0.000000 0.736418
O O23 0.787589 0.500000 0.138559
#
# Coordination Sequence:
#
# PCOD9358853 Si02
#       8
#     8   8   8   8   8   8   8   8
#     4   9  18  35  59  85 115 154 199 240 280 335
#     4   7  12  26  49  76 106 144 188 229 268 315
#     4   9  18  33  53  80 116 156 195 233 278 333
#     4  10  21  37  57  82 113 151 194 236 281 343
#     4   9  18  34  55  82 118 151 178 222 290 356
#     4  12  25  38  57  86 119 151 188 239 299 351
#     4  10  22  43  67  86 108 146 197 246 290 346
#     4  10  21  36  58  87 115 145 188 238 291 343
#
# _framework density 19.584638000000002
#
# number of rings (size 3 to 8) (size 9 to 14) (size 15 to 20)
#    0.000    2.500    0.000    3.750    1.750    5.500 
#    0.000    0.625    0.000    5.250    0.000    0.000 
#    0.000    0.000    0.000    0.000    0.000    0.000 
#
# Total GULP energy -178618.756376 kJ/mol
# GULP energy per Si atom -5581.836137 kJ/mol
# Density = 1.954006 g / cm^3
# Si number density = 19.584638 Si / 1000 Ang^3
#
#
#
# Elastic Constant Matrix: (Units=GPa)
#
#
# Indices 1 2 3 4 5 6 
#
# 1 131.1847 23.3588 85.2964 0.0000 0.0000 0.0000
# 2 23.3588 11.4000 20.3248 0.0000 0.0000 0.0000
# 3 85.2964 20.3248 133.8670 0.0000 0.0000 0.0000
# 4 0.0000 0.0000 0.0000 24.3698 0.0000 0.0000
# 5 0.0000 0.0000 0.0000 0.0000 38.4129 0.0000
# 6 0.0000 0.0000 0.0000 0.0000 0.0000 21.2775
#
#
#
# Elastic Compliance Matrix: (Units=1/GPa)
#
#
# Indices 1 2 3 4 5 6 
#
# 1 0.015673 -0.019620 -0.007007 0.000000 0.000000 0.000000
# 2 -0.019620 0.144840 -0.009489 0.000000 0.000000 0.000000
# 3 -0.007007 -0.009489 0.013376 0.000000 0.000000 0.000000
# 4 0.000000 0.000000 0.000000 0.041034 0.000000 0.000000
# 5 0.000000 0.000000 0.000000 0.000000 0.026033 0.000000
# 6 0.000000 0.000000 0.000000 0.000000 0.000000 0.046998
#
#
# Mechanical properties :
#
#
# Convention : Reuss Voigt Hill
#
# Bulk Modulus (GPa) = 9.83721 59.37907 34.60814
# Shear Modulus (GPa) = 12.68802 26.64349 19.66575
#
# Velocity S-wave (km/s) = 2.54806 3.69240 3.17226
# Velocity P-wave (km/s) = 3.70009 6.96875 5.57916
#
# Compressibility (1/GPa) = 0.10165485
#
# Stress axis : x y z
#
# Youngs Moduli (GPa) = 63.80600 6.90415 74.76276
#
# Poissons Ratio (x) = 0.13546 0.52388
# Poissons Ratio (y) = 1.25189 0.70945
# Poissons Ratio (z) = 0.44710 0.06552
#
# Static dielectric constant tensor:
#      x y z
#    x 1.710430 0.000000 0.000000 
#    y 0.000000 1.674490 0.000000 
#    z 0.000000 0.000000 1.682720 
# 
# From -- ./inp_files/22983.got.cif
#   From: 2010.05.17/outbox.cif.g08.bks.cpg/sg38_12_cif.got.tgz:22983.got - 2010.06.03 18:07:57.
