data_PCOD9358769
_publ_section_title
;
Structure prediction by ZEFSAII (Michael W. Deem and Ramdas Pophale) SiO2 
 PCOD9358769
Probable space group: A M M 2
;
_chemical_formula_sum "Si O2"
_cell_formula_units_Z 56
_cell_length_a 14.356326
_cell_length_b 9.190679
_cell_length_c 21.916690
_cell_angle_alpha 90.000000
_cell_angle_beta 90.000000
_cell_angle_gamma 90.000000
_cell_volume 2891.784159
_symmetry_space_group_name_H-M "A M M 2"
_symmetry_group_IT_number 38
_symmetry_cell_setting 'orthorhombic'
loop_
_space_group_symop_operation_xyz
x,y,z
-x,-y,z
-x,y,z
x,-y,z
x,1/2+y,1/2+z
-x,1/2-y,1/2+z
-x,1/2+y,1/2+z
x,1/2-y,1/2+z
loop_
_atom_site_type_symbol
_atom_site_label
_atom_site_fract_x
_atom_site_fract_y
_atom_site_fract_z
Si Si1 0.609762 0.327259 0.428200
Si Si2 0.612964 0.664640 0.803727
Si Si3 0.112562 0.669644 0.731580
Si Si4 0.224429 0.324045 0.984403
Si Si5 0.607007 0.672549 0.179981
Si Si6 0.892182 0.322923 0.865849
Si Si7 0.794500 0.327397 0.118160
O O1 0.500000 0.298726 0.437850
O O2 0.624020 0.500000 0.428513
O O3 0.636660 0.260262 0.362363
O O4 0.674751 0.247231 0.476461
O O5 0.500000 0.657561 0.803222
O O6 0.649365 0.500000 0.809634
O O7 0.637439 0.738606 0.739858
O O8 0.138480 0.500000 0.726644
O O9 0.143482 0.724579 0.798896
O O10 0.152425 0.752086 0.673515
O O11 0.000000 0.678049 0.731814
O O12 0.232508 0.500000 0.983846
O O13 0.164869 0.278295 0.925355
O O14 0.180874 0.281198 0.049481
O O15 0.500000 0.710978 0.164221
O O16 0.608051 0.500000 0.194528
O O17 0.684086 0.698243 0.128737
O O18 0.891191 0.500000 0.864220
O O19 0.000000 0.278312 0.871950
O O20 0.810768 0.500000 0.122796
#
# Coordination Sequence:
#
# PCOD9358769 Si02
#       7
#     8   8   8   8   8   8   8
#     4  10  21  36  53  76 111 152 188 227 278 330
#     4   9  17  30  50  76 101 131 180 235 278 318
#     4   9  19  37  60  83 108 142 184 231 283 338
#     4  10  21  36  56  84 114 147 189 232 275 327
#     4   9  18  33  50  71 107 151 187 222 274 335
#     4   8  16  34  59  84 108 138 180 228 278 331
#     4  10  22  36  53  83 117 148 184 230 283 331
#
# _framework density 19.365207000000002
#
# number of rings (size 3 to 8) (size 9 to 14) (size 15 to 20)
#    0.000    2.714    0.000    1.714    2.000    5.143 
#    0.000    2.857    0.000    3.000    0.000    0.000 
#    0.000    0.000    0.000    0.000    0.000    0.000 
#
# Total GULP energy -156199.534224 kJ/mol
# GULP energy per Si atom -5578.554794 kJ/mol
# Density = 1.932113 g / cm^3
# Si number density = 19.365207 Si / 1000 Ang^3
#
#
#
# Elastic Constant Matrix: (Units=GPa)
#
#
# Indices 1 2 3 4 5 6 
#
# 1 56.2862 26.8838 54.7824 0.0000 0.0000 0.0000
# 2 26.8838 25.7080 47.2890 0.0000 0.0000 0.0000
# 3 54.7824 47.2890 173.7276 0.0000 0.0000 0.0000
# 4 0.0000 0.0000 0.0000 24.7664 0.0000 0.0000
# 5 0.0000 0.0000 0.0000 0.0000 21.3712 0.0000
# 6 0.0000 0.0000 0.0000 0.0000 0.0000 20.9748
#
#
#
# Elastic Compliance Matrix: (Units=1/GPa)
#
#
# Indices 1 2 3 4 5 6 
#
# 1 0.035913 -0.033496 -0.002207 0.000000 0.000000 0.000000
# 2 -0.033496 0.109148 -0.019148 0.000000 0.000000 0.000000
# 3 -0.002207 -0.019148 0.011664 0.000000 0.000000 0.000000
# 4 0.000000 0.000000 0.000000 0.040377 0.000000 0.000000
# 5 0.000000 0.000000 0.000000 0.000000 0.046792 0.000000
# 6 0.000000 0.000000 0.000000 0.000000 0.000000 0.047676
#
#
# Mechanical properties :
#
#
# Convention : Reuss Voigt Hill
#
# Bulk Modulus (GPa) = 21.26583 57.07024 39.16804
# Shear Modulus (GPa) = 11.99194 21.87359 16.93276
#
# Velocity S-wave (km/s) = 2.49118 3.36449 2.96022
# Velocity P-wave (km/s) = 4.39089 6.68039 5.65276
#
# Compressibility (1/GPa) = 0.04702379
#
# Stress axis : x y z
#
# Youngs Moduli (GPa) = 27.84514 9.16186 85.73270
#
# Poissons Ratio (x) = 0.30688 0.18921
# Poissons Ratio (y) = 0.93270 1.64160
# Poissons Ratio (z) = 0.06145 0.17543
#
# Static dielectric constant tensor:
#      x y z
#    x 1.712580 0.000000 0.000000 
#    y 0.000000 1.648120 0.000000 
#    z 0.000000 0.000000 1.675860 
# 
# From -- ./inp_files/21012.got.cif
#   From: 2010.05.17/outbox.cif.g08.bks.cpg/sg38_11_cif.got.tgz:21012.got - 2010.06.03 18:07:57.
