data_PCOD9358523
_publ_section_title
;
Structure prediction by ZEFSAII (Michael W. Deem and Ramdas Pophale) SiO2 
 PCOD9358523
Probable space group: A M M 2
;
_chemical_formula_sum "Si O2"
_cell_formula_units_Z 56
_cell_length_a 14.051533
_cell_length_b 19.408192
_cell_length_c 9.829428
_cell_angle_alpha 90.000000
_cell_angle_beta 90.000000
_cell_angle_gamma 90.000000
_cell_volume 2680.630986
_symmetry_space_group_name_H-M "A M M 2"
_symmetry_group_IT_number 38
_symmetry_cell_setting 'orthorhombic'
loop_
_space_group_symop_operation_xyz
x,y,z
-x,-y,z
-x,y,z
x,-y,z
x,1/2+y,1/2+z
-x,1/2-y,1/2+z
-x,1/2+y,1/2+z
x,1/2-y,1/2+z
loop_
_atom_site_type_symbol
_atom_site_label
_atom_site_fract_x
_atom_site_fract_y
_atom_site_fract_z
Si Si1 0.612371 0.920495 0.539340
Si Si2 0.110809 0.078375 0.959209
Si Si3 0.705860 0.800843 0.713585
Si Si4 0.692215 0.918150 0.249211
Si Si5 0.106453 0.917471 0.363264
Si Si6 0.893812 0.632709 0.169476
Si Si7 0.706930 0.828980 0.021513
O O1 0.500000 0.919089 0.563218
O O2 0.663368 0.868087 0.640045
O O3 0.633567 0.898882 0.383746
O O4 0.646076 0.000000 0.555941
O O5 0.113672 0.079640 0.794402
O O6 0.000000 0.091784 0.997856
O O7 0.134782 0.000000 0.006420
O O8 0.186831 0.136989 0.001229
O O9 0.819149 0.808883 0.702763
O O10 0.687971 0.733639 0.624812
O O11 0.677024 0.804463 0.871445
O O12 0.800908 0.893086 0.281228
O O13 0.656360 0.890031 0.105431
O O14 0.693203 0.000000 0.244303
O O15 0.123112 0.899646 0.521690
O O16 0.000000 0.891768 0.326006
O O17 0.104032 0.000000 0.350238
O O18 0.000000 0.660730 0.169688
#
# Coordination Sequence:
#
# PCOD9358523 Si02
#       7
#     8   8   8   8   8   8   8
#     4  10  22  43  71  98 123 154 194 245 310 379
#     4   9  18  33  55  86 125 167 213 262 307 355
#     4  11  23  40  61  87 125 164 209 254 308 361
#     4  10  20  37  61  92 126 159 200 251 303 359
#     4   9  16  27  50  85 121 156 195 240 291 349
#     4   9  17  30  52  84 119 160 204 247 299 358
#     4  11  24  39  60  87 123 168 212 255 305 366
#
# _framework density 20.890604
#
# number of rings (size 3 to 8) (size 9 to 14) (size 15 to 20)
#    0.000    2.143    1.429    1.714    0.000    5.714 
#    0.000    5.000    0.000    1.714    0.000    0.000 
#    0.000    0.000    0.000    0.000    0.000    0.000 
#
# Total GULP energy -156051.897027 kJ/mol
# GULP energy per Si atom -5573.282037 kJ/mol
# Density = 2.084306 g / cm^3
# Si number density = 20.890604 Si / 1000 Ang^3
#
#
#
# Elastic Constant Matrix: (Units=GPa)
#
#
# Indices 1 2 3 4 5 6 
#
# 1 15.5995 10.9372 13.7835 0.0000 0.0000 0.0000
# 2 10.9372 56.6709 45.2707 0.0000 0.0000 0.0000
# 3 13.7835 45.2707 169.7146 0.0000 0.0000 0.0000
# 4 0.0000 0.0000 0.0000 28.7549 0.0000 0.0000
# 5 0.0000 0.0000 0.0000 0.0000 -0.0978 0.0000
# 6 0.0000 0.0000 0.0000 0.0000 0.0000 5.4110
#
#
#
# Elastic Compliance Matrix: (Units=1/GPa)
#
#
# Indices 1 2 3 4 5 6 
#
# 1 0.075199 -0.012243 -0.002842 0.000000 0.000000 0.000000
# 2 -0.012243 0.024417 -0.005519 0.000000 0.000000 0.000000
# 3 -0.002842 -0.005519 0.007595 0.000000 0.000000 0.000000
# 4 0.000000 0.000000 0.000000 0.034777 0.000000 0.000000
# 5 0.000000 0.000000 0.000000 0.000000-10.223357 0.000000
# 6 0.000000 0.000000 0.000000 0.000000 0.000000 0.184808
#
#
# Mechanical properties :
#
#
# Convention : Reuss Voigt Hill
#
# Bulk Modulus (GPa) = 15.15046 42.44088 28.79567
# Shear Modulus (GPa) = -0.50847 18.27986 8.88569
#
# Velocity S-wave (km/s) = -0.49389 2.96130 2.06462
# Velocity P-wave (km/s) = 2.63492 5.66147 4.41560
#
# Compressibility (1/GPa) = 0.06600460
#
# Stress axis : x y z
#
# Youngs Moduli (GPa) = 13.29798 40.95459 131.66267
#
# Poissons Ratio (x) = 0.50141 0.37413
# Poissons Ratio (y) = 0.16281 0.72663
# Poissons Ratio (z) = 0.03779 0.22602
#
# Static dielectric constant tensor:
#      x y z
#    x 1.782030 0.000000 0.000000 
#    y 0.000000 1.754410 0.000000 
#    z 0.000000 0.000000 1.790180 
# 
# From -- ./inp_files/5718.got.cif
#   From: 2010.05.17/outbox.cif.g08.bks.cpg/sg38_3_cif.got.tgz:5718.got - 2010.06.03 18:07:57.
