data_PCOD9358131
_publ_section_title
;
Structure prediction by ZEFSAII (Michael W. Deem and Ramdas Pophale) SiO2 
 PCOD9358131
Probable space group: A M M 2
;
_chemical_formula_sum "Si O2"
_cell_formula_units_Z 64
_cell_length_a 9.029536
_cell_length_b 34.007666
_cell_length_c 11.985996
_cell_angle_alpha 90.000000
_cell_angle_beta 90.000000
_cell_angle_gamma 90.000000
_cell_volume 3680.581077
_symmetry_space_group_name_H-M "A M M 2"
_symmetry_group_IT_number 38
_symmetry_cell_setting 'orthorhombic'
loop_
_space_group_symop_operation_xyz
x,y,z
-x,-y,z
-x,y,z
x,-y,z
x,1/2+y,1/2+z
-x,1/2-y,1/2+z
-x,1/2+y,1/2+z
x,1/2-y,1/2+z
loop_
_atom_site_type_symbol
_atom_site_label
_atom_site_fract_x
_atom_site_fract_y
_atom_site_fract_z
Si Si1 0.169702 0.954104 0.875000
Si Si2 0.325707 0.116496 0.958257
Si Si3 0.175258 0.763891 0.915063
Si Si4 0.324509 0.314340 0.851412
Si Si5 0.676905 0.125560 0.544459
Si Si6 0.175919 0.825036 0.114759
Si Si7 0.177183 0.335065 0.258100
Si Si8 0.822738 0.455000 0.109349
O O1 0.281574 0.928691 0.946649
O O2 0.202066 0.950367 0.742709
O O3 0.000000 0.940341 0.892386
O O4 0.176262 0.000000 0.901608
O O5 0.500000 0.122877 0.950963
O O6 0.243827 0.136913 0.853556
O O7 0.259265 0.136951 0.066991
O O8 0.271808 0.724974 0.914115
O O9 0.205565 0.791218 0.806113
O O10 0.000000 0.754218 0.913887
O O11 0.204047 0.790563 0.024031
O O12 0.500000 0.312973 0.830953
O O13 0.236771 0.315167 0.735776
O O14 0.292332 0.352066 0.928705
O O15 0.500000 0.124295 0.561447
O O16 0.749795 0.151773 0.642783
O O17 0.741842 0.081466 0.551283
O O18 0.000000 0.831412 0.116519
O O19 0.000000 0.340100 0.251768
O O20 0.778175 0.500000 0.079197
O O21 0.000000 0.452021 0.091971
#
# Coordination Sequence:
#
# PCOD9358131 Si02
#       8
#     8   8   8   8   8   8   8   8
#     4   9  17  30  50  79 114 148 183 224 272 331
#     4  11  20  32  54  82 112 144 178 225 281 332
#     4   9  21  39  59  82 106 141 188 234 278 329
#     4  11  25  40  56  82 115 147 184 234 286 336
#     4  11  23  36  53  84 118 151 187 230 287 344
#     4  10  22  41  61  80 105 145 194 231 271 330
#     4  10  20  35  55  79 109 147 188 229 271 327
#     4   9  18  33  55  82 113 150 189 232 282 337
#
# _framework density 17.388559000000001
#
# number of rings (size 3 to 8) (size 9 to 14) (size 15 to 20)
#    0.000    2.000    1.250    4.125    1.750    5.500 
#    0.000    1.250    0.000    0.750    0.000    3.500 
#    0.000    0.000    0.000    0.000    0.000    0.000 
#
# Total GULP energy -178603.392703 kJ/mol
# GULP energy per Si atom -5581.356022 kJ/mol
# Density = 1.734898 g / cm^3
# Si number density = 17.388559 Si / 1000 Ang^3
#
#
#
# Elastic Constant Matrix: (Units=GPa)
#
#
# Indices 1 2 3 4 5 6 
#
# 1 72.6757 60.1605 38.8334 0.0000 0.0000 0.0000
# 2 60.1605 103.4691 34.0067 0.0000 0.0000 0.0000
# 3 38.8334 34.0067 63.5373 0.0000 0.0000 0.0000
# 4 0.0000 0.0000 0.0000 19.7622 0.0000 0.0000
# 5 0.0000 0.0000 0.0000 0.0000 26.8037 0.0000
# 6 0.0000 0.0000 0.0000 0.0000 0.0000 4.8586
#
#
#
# Elastic Compliance Matrix: (Units=1/GPa)
#
#
# Indices 1 2 3 4 5 6 
#
# 1 0.032512 -0.015014 -0.011835 0.000000 0.000000 0.000000
# 2 -0.015014 0.018661 -0.000811 0.000000 0.000000 0.000000
# 3 -0.011835 -0.000811 0.023407 0.000000 0.000000 0.000000
# 4 0.000000 0.000000 0.000000 0.050602 0.000000 0.000000
# 5 0.000000 0.000000 0.000000 0.000000 0.037308 0.000000
# 6 0.000000 0.000000 0.000000 0.000000 0.000000 0.205819
#
#
# Mechanical properties :
#
#
# Convention : Reuss Voigt Hill
#
# Bulk Modulus (GPa) = 51.92497 56.18703 54.05600
# Shear Modulus (GPa) = 11.62656 17.39700 14.51178
#
# Velocity S-wave (km/s) = 2.58860 3.16648 2.89201
# Velocity P-wave (km/s) = 6.23385 6.76399 6.50432
#
# Compressibility (1/GPa) = 0.01925856
#
# Stress axis : x y z
#
# Youngs Moduli (GPa) = 30.75760 53.58766 42.72258
#
# Poissons Ratio (x) = 0.80456 0.50564
# Poissons Ratio (y) = 0.46179 0.03467
# Poissons Ratio (z) = 0.36403 0.04348
#
# Static dielectric constant tensor:
#      x y z
#    x 1.578060 0.000000 0.000000 
#    y 0.000000 1.616760 0.000000 
#    z 0.000000 0.000000 1.574670 
# 
# From -- ./inp_files/8564.got.cif
#   From: 2010.05.17/outbox.cif.g08.bks.cpg/sg38_5_cif.got.tgz:8564.got - 2010.06.03 18:07:57.
