data_PCOD9358438
_publ_section_title
;
Structure prediction by ZEFSAII (Michael W. Deem and Ramdas Pophale) SiO2 
 PCOD9358438
Probable space group: A M M 2
;
_chemical_formula_sum "Si O2"
_cell_formula_units_Z 48
_cell_length_a 14.603056
_cell_length_b 20.858201
_cell_length_c 8.716473
_cell_angle_alpha 90.000000
_cell_angle_beta 90.000000
_cell_angle_gamma 90.000000
_cell_volume 2654.980821
_symmetry_space_group_name_H-M "A M M 2"
_symmetry_group_IT_number 38
_symmetry_cell_setting 'orthorhombic'
loop_
_space_group_symop_operation_xyz
x,y,z
-x,-y,z
-x,y,z
x,-y,z
x,1/2+y,1/2+z
-x,1/2-y,1/2+z
-x,1/2+y,1/2+z
x,1/2-y,1/2+z
loop_
_atom_site_type_symbol
_atom_site_label
_atom_site_fract_x
_atom_site_fract_y
_atom_site_fract_z
Si Si1 0.000000 0.173309 0.435081
Si Si2 0.000000 0.684608 0.572784
Si Si3 0.100294 0.072561 0.611884
Si Si4 0.798336 0.665518 0.532848
Si Si5 0.608269 0.823702 0.620978
Si Si6 0.713713 0.277118 0.829999
Si Si7 0.283951 0.925313 0.807505
O O1 0.000000 0.183944 0.256043
O O2 0.914028 0.129230 0.489291
O O3 0.000000 0.241340 0.518970
O O4 0.905952 0.652508 0.519160
O O5 0.187670 0.083221 0.716472
O O6 0.000000 0.074247 0.693637
O O7 0.108215 0.000000 0.546490
O O8 0.772084 0.683923 0.705955
O O9 0.775646 0.726357 0.423617
O O10 0.735156 0.608773 0.469233
O O11 0.500000 0.821352 0.600440
O O12 0.643074 0.764883 0.727676
O O13 0.660235 0.817310 0.458527
O O14 0.640782 0.886870 0.711284
O O15 0.303984 0.000000 0.820859
#
# Coordination Sequence:
#
# PCOD9358438 Si02
#       7
#     4   4   8   8   8   8   8
#     4  10  23  32  51  83 112 147 190 225 283 320
#     4  12  24  30  53  85 121 153 184 235 283 338
#     4   8  18  36  57  73 102 147 191 226 267 328
#     4  10  22  36  53  84 118 157 190 233 285 340
#     4  10  20  36  62  88 114 148 189 236 291 351
#     4   9  20  36  58  85 122 147 185 233 296 345
#     4  10  22  39  59  81 110 151 194 241 283 334
#
# _framework density 18.079225999999998
#
# number of rings (size 3 to 8) (size 9 to 14) (size 15 to 20)
#    0.500    1.833    0.000    1.500   12.833    0.333 
#    0.000    3.333    0.000    0.000    0.000    0.000 
#    0.000    0.000    0.000    0.000    0.000    0.000 
#
# Total GULP energy -133827.859467 kJ/mol
# GULP energy per Si atom -5576.160811 kJ/mol
# Density = 1.803808 g / cm^3
# Si number density = 18.079226 Si / 1000 Ang^3
#
#
#
# Elastic Constant Matrix: (Units=GPa)
#
#
# Indices 1 2 3 4 5 6 
#
# 1 87.1918 4.0075 21.7082 0.0000 0.0000 0.0000
# 2 4.0075 60.2432 27.7268 0.0000 0.0000 0.0000
# 3 21.7082 27.7268 91.9355 0.0000 0.0000 0.0000
# 4 0.0000 0.0000 0.0000 6.4287 0.0000 0.0000
# 5 0.0000 0.0000 0.0000 0.0000 14.6407 0.0000
# 6 0.0000 0.0000 0.0000 0.0000 0.0000 14.9350
#
#
#
# Elastic Compliance Matrix: (Units=1/GPa)
#
#
# Indices 1 2 3 4 5 6 
#
# 1 0.012204 0.000597 -0.003062 0.000000 0.000000 0.000000
# 2 0.000597 0.019304 -0.005963 0.000000 0.000000 0.000000
# 3 -0.003062 -0.005963 0.013399 0.000000 0.000000 0.000000
# 4 0.000000 0.000000 0.000000 0.155553 0.000000 0.000000
# 5 0.000000 0.000000 0.000000 0.000000 0.068303 0.000000
# 6 0.000000 0.000000 0.000000 0.000000 0.000000 0.066957
#
#
# Mechanical properties :
#
#
# Convention : Reuss Voigt Hill
#
# Bulk Modulus (GPa) = 35.64854 38.47284 37.06069
# Shear Modulus (GPa) = 13.81503 19.59607 16.70555
#
# Velocity S-wave (km/s) = 2.76730 3.29584 3.04307
# Velocity P-wave (km/s) = 5.47461 5.98412 5.73503
#
# Compressibility (1/GPa) = 0.02805164
#
# Stress axis : x y z
#
# Youngs Moduli (GPa) = 81.94169 51.80251 74.63516
#
# Poissons Ratio (x) = -0.03094 0.22852
# Poissons Ratio (y) = -0.04895 0.44505
# Poissons Ratio (z) = 0.25089 0.30890
#
# Static dielectric constant tensor:
#      x y z
#    x 1.625670 0.000000 0.000000 
#    y 0.000000 1.619700 0.000000 
#    z 0.000000 0.000000 1.608320 
# 
# From -- ./inp_files/5619.got.cif
#   From: 2010.05.17/outbox.cif.g08.bks.cpg/sg38_3_cif.got.tgz:5619.got - 2010.06.03 18:07:57.
