data_PCOD9358188
_publ_section_title
;
Structure prediction by ZEFSAII (Michael W. Deem and Ramdas Pophale) SiO2 
 PCOD9358188
Probable space group: A M M 2
;
_chemical_formula_sum "Si O2"
_cell_formula_units_Z 40
_cell_length_a 7.824082
_cell_length_b 9.178075
_cell_length_c 29.919767
_cell_angle_alpha 90.000000
_cell_angle_beta 90.000000
_cell_angle_gamma 90.000000
_cell_volume 2148.538809
_symmetry_space_group_name_H-M "A M M 2"
_symmetry_group_IT_number 38
_symmetry_cell_setting 'orthorhombic'
loop_
_space_group_symop_operation_xyz
x,y,z
-x,-y,z
-x,y,z
x,-y,z
x,1/2+y,1/2+z
-x,1/2-y,1/2+z
-x,1/2+y,1/2+z
x,1/2-y,1/2+z
loop_
_atom_site_type_symbol
_atom_site_label
_atom_site_fract_x
_atom_site_fract_y
_atom_site_fract_z
Si Si1 0.500000 0.323087 0.147470
Si Si2 0.793822 0.665998 0.804212
Si Si3 0.801069 0.675555 0.213034
Si Si4 0.500000 0.675592 0.044028
Si Si5 0.806484 0.825389 0.991502
Si Si6 0.298219 0.833483 0.893562
O O1 0.500000 0.500000 0.147558
O O2 0.330413 0.277546 0.174539
O O3 0.500000 0.278230 0.095980
O O4 0.733586 0.500000 0.800695
O O5 0.744731 0.756621 0.760282
O O6 0.734118 0.738018 0.850109
O O7 0.000000 0.666020 0.805171
O O8 0.794941 0.500000 0.216480
O O9 0.000000 0.716203 0.204443
O O10 0.500000 0.500000 0.041481
O O11 0.666204 0.740006 0.019586
O O12 0.791246 0.783955 0.939139
O O13 0.000000 0.798819 0.006961
O O14 0.772868 0.000000 0.993520
O O15 0.500000 0.834631 0.903221
O O16 0.242927 0.000000 0.884052
#
# Coordination Sequence:
#
# PCOD9358188 Si02
#       6
#     4   8   8   4   8   8
#     4   9  20  37  58  83 108 141 186 233 284 339
#     4  10  21  35  51  78 117 151 181 224 279 336
#     4   9  18  35  58  80 106 144 190 234 272 322
#     4  11  23  39  60  89 122 149 184 241 300 355
#     4  10  21  40  64  86 114 154 198 241 284 338
#     4  10  20  35  57  82 110 148 194 236 271 323
#
# _framework density 18.617303
#
# number of rings (size 3 to 8) (size 9 to 14) (size 15 to 20)
#    0.000    2.200    1.000    1.500    1.400    4.400 
#    0.000    4.000    0.000    2.400    0.000    0.000 
#    0.000    0.000    0.000    0.000    0.000    0.000 
#
# Total GULP energy -111643.555002 kJ/mol
# GULP energy per Si atom -5582.177750 kJ/mol
# Density = 1.857493 g / cm^3
# Si number density = 18.617303 Si / 1000 Ang^3
#
#
#
# Elastic Constant Matrix: (Units=GPa)
#
#
# Indices 1 2 3 4 5 6 
#
# 1 106.7448 45.0399 78.3776 0.0000 0.0000 0.0000
# 2 45.0399 46.1613 52.3334 0.0000 0.0000 0.0000
# 3 78.3776 52.3334 152.7760 0.0000 0.0000 0.0000
# 4 0.0000 0.0000 0.0000 26.8879 0.0000 0.0000
# 5 0.0000 0.0000 0.0000 0.0000 -27.0759 0.0000
# 6 0.0000 0.0000 0.0000 0.0000 0.0000 19.9710
#
#
#
# Elastic Compliance Matrix: (Units=1/GPa)
#
#
# Indices 1 2 3 4 5 6 
#
# 1 0.018243 -0.011754 -0.005333 0.000000 0.000000 0.000000
# 2 -0.011754 0.042991 -0.008696 0.000000 0.000000 0.000000
# 3 -0.005333 -0.008696 0.012260 0.000000 0.000000 0.000000
# 4 0.000000 0.000000 0.000000 0.037191 0.000000 0.000000
# 5 0.000000 0.000000 0.000000 0.000000 -0.036933 0.000000
# 6 0.000000 0.000000 0.000000 0.000000 0.000000 0.050073
#
#
# Mechanical properties :
#
#
# Convention : Reuss Voigt Hill
#
# Bulk Modulus (GPa) = 45.60426 73.02043 59.31235
# Shear Modulus (GPa) = 27.36698 12.61869 19.99283
#
# Velocity S-wave (km/s) = 3.83819 2.60627 3.28057
# Velocity P-wave (km/s) = 6.64763 6.95441 6.80275
#
# Compressibility (1/GPa) = 0.02192777
#
# Stress axis : x y z
#
# Youngs Moduli (GPa) = 54.81431 23.26063 81.56392
#
# Poissons Ratio (x) = 0.27341 0.43497
# Poissons Ratio (y) = 0.64431 0.70931
# Poissons Ratio (z) = 0.29232 0.20228
#
# Static dielectric constant tensor:
#      x y z
#    x 1.661340 0.000000 0.000000 
#    y 0.000000 1.633670 0.000000 
#    z 0.000000 0.000000 1.611580 
# 
# From -- ./inp_files/23241.got.cif
#   From: 2010.05.17/outbox.cif.g08.bks.cpg/sg38_12_cif.got.tgz:23241.got - 2010.06.03 18:07:57.
