data_PCOD9358567
_publ_section_title
;
Structure prediction by ZEFSAII (Michael W. Deem and Ramdas Pophale) SiO2 
 PCOD9358567
Probable space group: A M M 2
;
_chemical_formula_sum "Si O2"
_cell_formula_units_Z 48
_cell_length_a 19.063519
_cell_length_b 7.708157
_cell_length_c 16.422309
_cell_angle_alpha 90.000000
_cell_angle_beta 90.000000
_cell_angle_gamma 90.000000
_cell_volume 2413.169585
_symmetry_space_group_name_H-M "A M M 2"
_symmetry_group_IT_number 38
_symmetry_cell_setting 'orthorhombic'
loop_
_space_group_symop_operation_xyz
x,y,z
-x,-y,z
-x,y,z
x,-y,z
x,1/2+y,1/2+z
-x,1/2-y,1/2+z
-x,1/2+y,1/2+z
x,1/2-y,1/2+z
loop_
_atom_site_type_symbol
_atom_site_label
_atom_site_fract_x
_atom_site_fract_y
_atom_site_fract_z
Si Si1 0.420966 0.793866 0.363890
Si Si2 0.184067 0.290910 0.952605
Si Si3 0.794057 0.803326 0.266533
Si Si4 0.654780 0.697166 0.197807
Si Si5 0.080268 0.000000 0.203711
Si Si6 0.079802 0.000000 0.008964
Si Si7 0.334354 0.288151 0.020172
O O1 0.500000 0.723444 0.359882
O O2 0.381097 0.770512 0.278568
O O3 0.378085 0.725479 0.442000
O O4 0.425639 0.000000 0.376694
O O5 0.170988 0.500000 0.955442
O O6 0.202142 0.243941 0.859208
O O7 0.120341 0.171819 0.980220
O O8 0.252653 0.248156 0.005528
O O9 0.738843 0.700893 0.212855
O O10 0.763814 0.000000 0.268379
O O11 0.872678 0.836205 0.233536
O O12 0.630125 0.500000 0.193759
O O13 0.641326 0.776710 0.108726
O O14 0.000000 0.000000 0.233616
O O15 0.079767 0.000000 0.106770
O O16 0.000000 0.000000 0.979462
O O17 0.338004 0.500000 0.021352
#
# Coordination Sequence:
#
# PCOD9358567 Si02
#       7
#     8   8   8   8   4   4   8
#     4  10  21  39  60  80 113 154 194 238 291 360
#     4  10  20  38  61  87 118 155 204 255 293 356
#     4   9  19  35  60  82 109 152 195 240 287 353
#     4  11  21  34  58  88 117 147 190 248 297 350
#     4   9  20  38  58  86 120 158 195 244 304 360
#     4  11  24  38  58  90 124 156 201 248 310 368
#     4   9  19  36  58  85 114 151 198 239 295 355
#
# _framework density 19.890851999999999
#
# number of rings (size 3 to 8) (size 9 to 14) (size 15 to 20)
#    0.500    1.667    1.667    1.500    1.167    2.000 
#    1.500    1.667    0.000    1.000    0.000    0.000 
#    0.000    0.000    0.000    0.000    0.000    0.000 
#
# Total GULP energy -133770.787939 kJ/mol
# GULP energy per Si atom -5573.782831 kJ/mol
# Density = 1.984558 g / cm^3
# Si number density = 19.890852 Si / 1000 Ang^3
#
#
#
# Elastic Constant Matrix: (Units=GPa)
#
#
# Indices 1 2 3 4 5 6 
#
# 1 136.1163 22.1884 60.2881 0.0000 0.0000 0.0000
# 2 22.1884 38.7870 16.2278 0.0000 0.0000 0.0000
# 3 60.2881 16.2278 149.0769 0.0000 0.0000 0.0000
# 4 0.0000 0.0000 0.0000 11.4653 0.0000 0.0000
# 5 0.0000 0.0000 0.0000 0.0000 4.1983 0.0000
# 6 0.0000 0.0000 0.0000 0.0000 0.0000 12.3312
#
#
#
# Elastic Compliance Matrix: (Units=1/GPa)
#
#
# Indices 1 2 3 4 5 6 
#
# 1 0.009511 -0.004014 -0.003409 0.000000 0.000000 0.000000
# 2 -0.004014 0.028706 -0.001501 0.000000 0.000000 0.000000
# 3 -0.003409 -0.001501 0.008250 0.000000 0.000000 0.000000
# 4 0.000000 0.000000 0.000000 0.087220 0.000000 0.000000
# 5 0.000000 0.000000 0.000000 0.000000 0.238190 0.000000
# 6 0.000000 0.000000 0.000000 0.000000 0.000000 0.081095
#
#
# Mechanical properties :
#
#
# Convention : Reuss Voigt Hill
#
# Bulk Modulus (GPa) = 34.94387 57.93209 46.43798
# Shear Modulus (GPa) = 10.40882 20.61737 15.51310
#
# Velocity S-wave (km/s) = 2.29005 3.22300 2.79572
# Velocity P-wave (km/s) = 4.95968 6.56038 5.81537
#
# Compressibility (1/GPa) = 0.02861732
#
# Stress axis : x y z
#
# Youngs Moduli (GPa) = 105.13994 34.83534 121.20963
#
# Poissons Ratio (x) = 0.13985 0.41325
# Poissons Ratio (y) = 0.42208 0.18198
# Poissons Ratio (z) = 0.35846 0.05230
#
# Static dielectric constant tensor:
#      x y z
#    x 1.699140 0.000000 0.000000 
#    y 0.000000 1.738110 0.000000 
#    z 0.000000 0.000000 1.714180 
# 
# From -- ./inp_files/15031.got.cif
#   From: 2010.05.17/outbox.cif.g08.bks.cpg/sg38_8_cif.got.tgz:15031.got - 2010.06.03 18:07:57.
