data_PCOD9358830
_publ_section_title
;
Structure prediction by ZEFSAII (Michael W. Deem and Ramdas Pophale) SiO2 
 PCOD9358830
Probable space group: A M M 2
;
_chemical_formula_sum "Si O2"
_cell_formula_units_Z 48
_cell_length_a 7.685889
_cell_length_b 23.362669
_cell_length_c 12.193394
_cell_angle_alpha 90.000000
_cell_angle_beta 90.000000
_cell_angle_gamma 90.000000
_cell_volume 2189.480952
_symmetry_space_group_name_H-M "A M M 2"
_symmetry_group_IT_number 38
_symmetry_cell_setting 'orthorhombic'
loop_
_space_group_symop_operation_xyz
x,y,z
-x,-y,z
-x,y,z
x,-y,z
x,1/2+y,1/2+z
-x,1/2-y,1/2+z
-x,1/2+y,1/2+z
x,1/2-y,1/2+z
loop_
_atom_site_type_symbol
_atom_site_label
_atom_site_fract_x
_atom_site_fract_y
_atom_site_fract_z
Si Si1 0.286407 0.066391 0.421770
Si Si2 0.302809 0.861095 0.619143
Si Si3 0.711316 0.936502 0.019439
Si Si4 0.710096 0.643532 0.718290
Si Si5 0.709998 0.660795 0.358985
Si Si6 0.197876 0.743795 0.557187
O O1 0.500000 0.066664 0.420320
O O2 0.227360 0.090407 0.539944
O O3 0.231377 0.114000 0.331494
O O4 0.235075 0.000000 0.400527
O O5 0.500000 0.880376 0.644412
O O6 0.222768 0.842641 0.735425
O O7 0.308771 0.801216 0.554400
O O8 0.500000 0.938522 0.025036
O O9 0.754349 0.899780 0.913719
O O10 0.779627 0.000000 0.017646
O O11 0.767156 0.901657 0.125669
O O12 0.500000 0.646297 0.722228
O O13 0.765097 0.704125 0.664563
O O14 0.500000 0.668574 0.357275
O O15 0.774797 0.707306 0.446465
O O16 0.000000 0.762464 0.561842
#
# Coordination Sequence:
#
# PCOD9358830 Si02
#       6
#     8   8   8   8   8   8
#     4   9  18  33  57  90 120 146 182 230 283 340
#     4  10  21  36  56  82 113 148 183 226 281 343
#     4   8  13  24  47  77 104 133 172 217 263 312
#     4   9  17  32  55  83 113 146 182 224 276 331
#     4   9  19  35  54  78 108 142 181 224 276 333
#     4  11  23  37  55  79 109 144 190 240 283 329
#
# _framework density 21.923005
#
# number of rings (size 3 to 8) (size 9 to 14) (size 15 to 20)
#    0.000    2.667    0.000    3.000    2.333    3.333 
#    0.000    3.333    0.000   14.000    0.000    4.667 
#    0.000    0.000    0.000    0.000    0.000    0.000 
#
# Total GULP energy -133801.617989 kJ/mol
# GULP energy per Si atom -5575.067416 kJ/mol
# Density = 2.187311 g / cm^3
# Si number density = 21.923005 Si / 1000 Ang^3
#
#
#
# Elastic Constant Matrix: (Units=GPa)
#
#
# Indices 1 2 3 4 5 6 
#
# 1 52.4226 -7.1907 7.0502 0.0000 0.0000 0.0000
# 2 -7.1907 61.6598 15.7948 0.0000 0.0000 0.0000
# 3 7.0502 15.7948 110.0832 0.0000 0.0000 0.0000
# 4 0.0000 0.0000 0.0000 14.5033 0.0000 0.0000
# 5 0.0000 0.0000 0.0000 0.0000 -1.5879 0.0000
# 6 0.0000 0.0000 0.0000 0.0000 0.0000 -100.0560
#
#
#
# Elastic Compliance Matrix: (Units=1/GPa)
#
#
# Indices 1 2 3 4 5 6 
#
# 1 0.019670 0.002716 -0.001650 0.000000 0.000000 0.000000
# 2 0.002716 0.017212 -0.002644 0.000000 0.000000 0.000000
# 3 -0.001650 -0.002644 0.009569 0.000000 0.000000 0.000000
# 4 0.000000 0.000000 0.000000 0.068950 0.000000 0.000000
# 5 0.000000 0.000000 0.000000 0.000000 -0.629780 0.000000
# 6 0.000000 0.000000 0.000000 0.000000 0.000000 -0.009994
#
#
# Mechanical properties :
#
#
# Convention : Reuss Voigt Hill
#
# Bulk Modulus (GPa) = 23.09581 28.38604 25.74093
# Shear Modulus (GPa) = -9.86607 -3.52737 -6.69672
#
# Velocity S-wave (km/s) = -2.12370 -1.26983 -1.74965
# Velocity P-wave (km/s) = 2.13175 3.29032 2.77224
#
# Compressibility (1/GPa) = 0.04329789
#
# Stress axis : x y z
#
# Youngs Moduli (GPa) = 50.83833 58.09905 104.50437
#
# Poissons Ratio (x) = -0.15782 0.17238
# Poissons Ratio (y) = -0.13810 0.27626
# Poissons Ratio (z) = 0.08386 0.15359
#
# Static dielectric constant tensor:
#      x y z
#    x 1.824540 0.000000 0.000000 
#    y 0.000000 1.774400 0.000000 
#    z 0.000000 0.000000 1.823360 
# 
# From -- ./inp_files/8144.got.cif
#   From: 2010.05.17/outbox.cif.g08.bks.cpg/sg38_5_cif.got.tgz:8144.got - 2010.06.03 18:07:57.
