data_PCOD9358374
_publ_section_title
;
Structure prediction by ZEFSAII (Michael W. Deem and Ramdas Pophale) SiO2 
 PCOD9358374
Probable space group: A M M 2
;
_chemical_formula_sum "Si O2"
_cell_formula_units_Z 48
_cell_length_a 17.914426
_cell_length_b 8.510676
_cell_length_c 15.825574
_cell_angle_alpha 90.000000
_cell_angle_beta 90.000000
_cell_angle_gamma 90.000000
_cell_volume 2412.828343
_symmetry_space_group_name_H-M "A M M 2"
_symmetry_group_IT_number 38
_symmetry_cell_setting 'orthorhombic'
loop_
_space_group_symop_operation_xyz
x,y,z
-x,-y,z
-x,y,z
x,-y,z
x,1/2+y,1/2+z
-x,1/2-y,1/2+z
-x,1/2+y,1/2+z
x,1/2-y,1/2+z
loop_
_atom_site_type_symbol
_atom_site_label
_atom_site_fract_x
_atom_site_fract_y
_atom_site_fract_z
Si Si1 0.185979 0.813170 0.518930
Si Si2 0.914407 0.308366 0.862054
Si Si3 0.500000 0.825211 0.450918
Si Si4 0.343926 0.320551 0.506680
Si Si5 0.805944 0.688629 0.710153
Si Si6 0.500000 0.324446 0.284689
Si Si7 0.346040 0.680117 0.184809
O O1 0.127525 0.757603 0.447958
O O2 0.269134 0.774396 0.484394
O O3 0.177961 0.738177 0.612598
O O4 0.178458 0.000000 0.528770
O O5 0.914391 0.500000 0.863498
O O6 0.868743 0.263502 0.777801
O O7 0.000000 0.255289 0.859586
O O8 0.577058 0.743174 0.475714
O O9 0.500000 0.815192 0.350502
O O10 0.500000 0.000000 0.486761
O O11 0.334380 0.500000 0.480961
O O12 0.348390 0.299993 0.607497
O O13 0.798066 0.500000 0.712842
O O14 0.727596 0.770345 0.735528
O O15 0.500000 0.500000 0.326037
O O16 0.575664 0.315425 0.231874
O O17 0.335638 0.500000 0.153716
#
# Coordination Sequence:
#
# PCOD9358374 Si02
#       7
#     8   8   4   8   8   4   8
#     4  10  20  37  61  88 117 155 199 243 295 353
#     4   9  20  38  60  86 118 155 194 240 297 361
#     4  12  25  38  55  81 115 153 195 238 285 340
#     4  11  22  38  59  83 114 151 193 239 290 342
#     4  10  20  36  59  87 117 153 197 242 295 353
#     4  10  23  38  53  81 115 151 189 238 287 332
#     4  10  20  37  59  82 113 151 193 238 288 340
#
# _framework density 19.893666
#
# number of rings (size 3 to 8) (size 9 to 14) (size 15 to 20)
#    0.000    1.833    0.000    6.250    2.333    2.667 
#    0.000    2.500    0.000    7.000    0.000    0.000 
#    0.000    0.000    0.000    0.000    0.000    0.000 
#
# Total GULP energy -133919.483591 kJ/mol
# GULP energy per Si atom -5579.978483 kJ/mol
# Density = 1.984839 g / cm^3
# Si number density = 19.893666 Si / 1000 Ang^3
#
#
#
# Elastic Constant Matrix: (Units=GPa)
#
#
# Indices 1 2 3 4 5 6 
#
# 1 182.6996 22.0180 75.3168 0.0000 0.0000 0.0000
# 2 22.0180 54.1211 10.8317 0.0000 0.0000 0.0000
# 3 75.3168 10.8317 74.2040 0.0000 0.0000 0.0000
# 4 0.0000 0.0000 0.0000 20.7590 0.0000 0.0000
# 5 0.0000 0.0000 0.0000 0.0000 39.0175 0.0000
# 6 0.0000 0.0000 0.0000 0.0000 0.0000 45.2380
#
#
#
# Elastic Compliance Matrix: (Units=1/GPa)
#
#
# Indices 1 2 3 4 5 6 
#
# 1 0.009621 -0.002019 -0.009471 0.000000 0.000000 0.000000
# 2 -0.002019 0.019457 -0.000791 0.000000 0.000000 0.000000
# 3 -0.009471 -0.000791 0.023204 0.000000 0.000000 0.000000
# 4 0.000000 0.000000 0.000000 0.048172 0.000000 0.000000
# 5 0.000000 0.000000 0.000000 0.000000 0.025630 0.000000
# 6 0.000000 0.000000 0.000000 0.000000 0.000000 0.022105
#
#
# Mechanical properties :
#
#
# Convention : Reuss Voigt Hill
#
# Bulk Modulus (GPa) = 36.07344 58.59531 47.33438
# Shear Modulus (GPa) = 27.47408 34.52680 31.00044
#
# Velocity S-wave (km/s) = 3.72028 4.17053 3.95182
# Velocity P-wave (km/s) = 6.05198 7.26012 6.68340
#
# Compressibility (1/GPa) = 0.02772122
#
# Stress axis : x y z
#
# Youngs Moduli (GPa) = 103.94033 51.39629 43.09529
#
# Poissons Ratio (x) = 0.10375 0.40813
# Poissons Ratio (y) = 0.20982 0.03410
# Poissons Ratio (z) = 0.98437 0.04066
#
# Static dielectric constant tensor:
#      x y z
#    x 1.759410 0.000000 0.000000 
#    y 0.000000 1.701420 0.000000 
#    z 0.000000 0.000000 1.715620 
# 
# From -- ./inp_files/18188.got.cif
#   From: 2010.05.17/outbox.cif.g08.bks.cpg/sg38_10_cif.got.tgz:18188.got - 2010.06.03 18:07:57.
