data_PCOD9358789
_publ_section_title
;
Structure prediction by ZEFSAII (Michael W. Deem and Ramdas Pophale) SiO2 
 PCOD9358789
Probable space group: A M M 2
;
_chemical_formula_sum "Si O2"
_cell_formula_units_Z 48
_cell_length_a 26.013755
_cell_length_b 7.386744
_cell_length_c 9.956899
_cell_angle_alpha 90.000000
_cell_angle_beta 90.000000
_cell_angle_gamma 90.000000
_cell_volume 1913.287330
_symmetry_space_group_name_H-M "A M M 2"
_symmetry_group_IT_number 38
_symmetry_cell_setting 'orthorhombic'
loop_
_space_group_symop_operation_xyz
x,y,z
-x,-y,z
-x,y,z
x,-y,z
x,1/2+y,1/2+z
-x,1/2-y,1/2+z
-x,1/2+y,1/2+z
x,1/2-y,1/2+z
loop_
_atom_site_type_symbol
_atom_site_label
_atom_site_fract_x
_atom_site_fract_y
_atom_site_fract_z
Si Si1 0.120665 0.709906 0.756890
Si Si2 0.715254 0.290637 0.865604
Si Si3 0.776259 0.219831 0.116845
Si Si4 0.379526 0.290337 0.030847
Si Si5 0.442221 0.219450 0.777984
Si Si6 0.057846 0.219329 0.503055
O O1 0.133012 0.500000 0.782604
O O2 0.170439 0.785882 0.680955
O O3 0.074426 0.722036 0.650713
O O4 0.099823 0.787947 0.895989
O O5 0.702086 0.500000 0.841764
O O6 0.732010 0.217633 0.721319
O O7 0.668449 0.206816 0.950035
O O8 0.763526 0.282283 0.967264
O O9 0.776614 0.000000 0.113431
O O10 0.366427 0.500000 0.056731
O O11 0.426232 0.280699 0.925590
O O12 0.400121 0.213562 0.170560
O O13 0.500000 0.276976 0.743517
O O14 0.441365 0.000000 0.775403
O O15 0.000000 0.277863 0.470131
O O16 0.058452 0.000000 0.498854
#
# Coordination Sequence:
#
# PCOD9358789 Si02
#       6
#     8   8   8   8   8   8
#     4  10  21  37  56  79 109 143 178 220 269 318
#     4  10  21  37  57  81 109 142 180 222 268 318
#     4  10  21  36  55  81 110 141 180 222 265 318
#     4  10  21  37  57  81 109 142 180 222 268 318
#     4  10  21  36  54  79 110 142 178 220 266 318
#     4  10  21  37  57  81 109 142 180 222 268 318
#
# _framework density 25.087710999999999
#
# number of rings (size 3 to 8) (size 9 to 14) (size 15 to 20)
#    0.000    2.000    0.000    3.000    0.000    6.667 
#    0.000    0.000    0.000    0.000    0.000    0.000 
#    0.000    0.000    0.000    0.000    0.000    0.000 
#
# Total GULP energy -134282.305845 kJ/mol
# GULP energy per Si atom -5595.096077 kJ/mol
# Density = 2.503061 g / cm^3
# Si number density = 25.087711 Si / 1000 Ang^3
#
#
#
# Elastic Constant Matrix: (Units=GPa)
#
#
# Indices 1 2 3 4 5 6 
#
# 1 72.9966 3.0804 -15.3400 0.0000 0.0000 0.0000
# 2 3.0804 97.8238 -8.6595 0.0000 0.0000 0.0000
# 3 -15.3400 -8.6595 101.2473 0.0000 0.0000 0.0000
# 4 0.0000 0.0000 0.0000 4.9735 0.0000 0.0000
# 5 0.0000 0.0000 0.0000 0.0000 50.3794 0.0000
# 6 0.0000 0.0000 0.0000 0.0000 0.0000 13.9939
#
#
#
# Elastic Compliance Matrix: (Units=1/GPa)
#
#
# Indices 1 2 3 4 5 6 
#
# 1 0.014156 -0.000258 0.002123 0.000000 0.000000 0.000000
# 2 -0.000258 0.010305 0.000842 0.000000 0.000000 0.000000
# 3 0.002123 0.000842 0.010270 0.000000 0.000000 0.000000
# 4 0.000000 0.000000 0.000000 0.201067 0.000000 0.000000
# 5 0.000000 0.000000 0.000000 0.000000 0.019849 0.000000
# 6 0.000000 0.000000 0.000000 0.000000 0.000000 0.071460
#
#
# Mechanical properties :
#
#
# Convention : Reuss Voigt Hill
#
# Bulk Modulus (GPa) = 24.90892 25.58106 25.24499
# Shear Modulus (GPa) = 14.92201 33.40179 24.16190
#
# Velocity S-wave (km/s) = 2.44148 3.65279 3.10675
# Velocity P-wave (km/s) = 4.23061 5.29238 4.79100
#
# Compressibility (1/GPa) = 0.04014627
#
# Stress axis : x y z
#
# Youngs Moduli (GPa) = 70.64026 97.03889 97.36653
#
# Poissons Ratio (x) = 0.02502 -0.20669
# Poissons Ratio (y) = 0.01822 -0.08201
# Poissons Ratio (z) = -0.14995 -0.08174
#
# Static dielectric constant tensor:
#      x y z
#    x 2.008820 0.000000 0.000000 
#    y 0.000000 1.955380 0.000000 
#    z 0.000000 0.000000 1.895060 
# 
# From -- ./inp_files/6925.got.cif
#   From: 2010.05.17/outbox.cif.g08.bks.cpg/sg38_4_cif.got.tgz:6925.got - 2010.06.03 18:07:57.
