data_PCOD9358149
_publ_section_title
;
Structure prediction by ZEFSAII (Michael W. Deem and Ramdas Pophale) SiO2 
 PCOD9358149
Probable space group: A M M 2
;
_chemical_formula_sum "Si O2"
_cell_formula_units_Z 64
_cell_length_a 8.716795
_cell_length_b 21.116485
_cell_length_c 20.259694
_cell_angle_alpha 90.000000
_cell_angle_beta 90.000000
_cell_angle_gamma 90.000000
_cell_volume 3729.162791
_symmetry_space_group_name_H-M "A M M 2"
_symmetry_group_IT_number 38
_symmetry_cell_setting 'orthorhombic'
loop_
_space_group_symop_operation_xyz
x,y,z
-x,-y,z
-x,y,z
x,-y,z
x,1/2+y,1/2+z
-x,1/2-y,1/2+z
-x,1/2+y,1/2+z
x,1/2-y,1/2+z
loop_
_atom_site_type_symbol
_atom_site_label
_atom_site_fract_x
_atom_site_fract_y
_atom_site_fract_z
Si Si1 0.813421 0.381138 0.048660
Si Si2 0.813405 0.234317 0.046553
Si Si3 0.185607 0.929096 0.690379
Si Si4 0.318175 0.808319 0.764214
Si Si5 0.818008 0.885914 0.402279
Si Si6 0.317156 0.429166 0.766306
Si Si7 0.815908 0.812107 0.186213
Si Si8 0.817868 0.233066 0.899885
O O1 0.766368 0.307621 0.056471
O O2 0.767085 0.418482 0.113866
O O3 0.000000 0.381739 0.046521
O O4 0.764565 0.404130 0.976103
O O5 0.765493 0.194136 0.109849
O O6 0.000000 0.234821 0.045246
O O7 0.765253 0.213577 0.973386
O O8 0.255593 0.873514 0.734054
O O9 0.000000 0.923693 0.692554
O O10 0.228022 0.000000 0.711435
O O11 0.500000 0.805348 0.757344
O O12 0.244298 0.749628 0.724557
O O13 0.270063 0.799165 0.840185
O O14 0.731239 0.917611 0.342053
O O15 0.800445 0.809549 0.396542
O O16 0.000000 0.899621 0.396498
O O17 0.500000 0.424314 0.761115
O O18 0.269000 0.500000 0.746572
O O19 0.242650 0.374672 0.722143
O O20 0.000000 0.810850 0.188615
O O21 0.000000 0.220286 0.893065
#
# Coordination Sequence:
#
# PCOD9358149 Si02
#       8
#     8   8   8   8   8   8   8   8
#     4   8  14  28  50  79 108 134 173 220 264 307
#     4   8  15  29  54  83 107 129 166 222 273 308
#     4  10  20  35  56  79 105 142 184 224 265 310
#     4  12  23  34  52  80 112 145 177 216 265 316
#     4   9  17  30  53  79 104 139 180 220 258 306
#     4  11  24  38  50  72 111 150 179 215 265 318
#     4  11  20  35  60  83 103 134 179 227 265 309
#     4   9  17  32  55  82 107 135 172 220 267 311
#
# _framework density 17.162029
#
# number of rings (size 3 to 8) (size 9 to 14) (size 15 to 20)
#    0.000    2.250    2.500    3.375    0.000    1.750 
#    0.000    3.125    0.000    0.750    0.000    1.750 
#    0.000    0.000    0.000    0.000    0.000    0.000 
#
# Total GULP energy -178511.540622 kJ/mol
# GULP energy per Si atom -5578.485644 kJ/mol
# Density = 1.712297 g / cm^3
# Si number density = 17.162029 Si / 1000 Ang^3
#
#
#
# Elastic Constant Matrix: (Units=GPa)
#
#
# Indices 1 2 3 4 5 6 
#
# 1 39.9359 41.5736 33.9967 0.0000 0.0000 0.0000
# 2 41.5736 107.7774 67.3192 0.0000 0.0000 0.0000
# 3 33.9967 67.3192 126.3476 0.0000 0.0000 0.0000
# 4 0.0000 0.0000 0.0000 18.9367 0.0000 0.0000
# 5 0.0000 0.0000 0.0000 0.0000 -16.9429 0.0000
# 6 0.0000 0.0000 0.0000 0.0000 0.0000 16.6819
#
#
#
# Elastic Compliance Matrix: (Units=1/GPa)
#
#
# Indices 1 2 3 4 5 6 
#
# 1 0.043225 -0.014102 -0.004117 0.000000 0.000000 0.000000
# 2 -0.014102 0.018507 -0.006066 0.000000 0.000000 0.000000
# 3 -0.004117 -0.006066 0.012255 0.000000 0.000000 0.000000
# 4 0.000000 0.000000 0.000000 0.052807 0.000000 0.000000
# 5 0.000000 0.000000 0.000000 0.000000 -0.059022 0.000000
# 6 0.000000 0.000000 0.000000 0.000000 0.000000 0.059945
#
#
# Mechanical properties :
#
#
# Convention : Reuss Voigt Hill
#
# Bulk Modulus (GPa) = 39.34482 62.20442 50.77462
# Shear Modulus (GPa) = 27.06206 12.47990 19.77098
#
# Velocity S-wave (km/s) = 3.97527 2.69956 3.39782
# Velocity P-wave (km/s) = 6.63669 6.78534 6.71143
#
# Compressibility (1/GPa) = 0.02541631
#
# Stress axis : x y z
#
# Youngs Moduli (GPa) = 23.13468 54.03333 81.60161
#
# Poissons Ratio (x) = 0.76197 0.33596
# Poissons Ratio (y) = 0.32624 0.49502
# Poissons Ratio (z) = 0.09525 0.32778
#
# Static dielectric constant tensor:
#      x y z
#    x 1.575860 0.000000 0.000000 
#    y 0.000000 1.565050 0.000000 
#    z 0.000000 0.000000 1.598960 
# 
# From -- ./inp_files/20222.got.cif
#   From: 2010.05.17/outbox.cif.g08.bks.cpg/sg38_11_cif.got.tgz:20222.got - 2010.06.03 18:07:57.
