data_PCOD9358135
_publ_section_title
;
Structure prediction by ZEFSAII (Michael W. Deem and Ramdas Pophale) SiO2 
 PCOD9358135
Probable space group: A M M 2
;
_chemical_formula_sum "Si O2"
_cell_formula_units_Z 64
_cell_length_a 25.584705
_cell_length_b 7.724589
_cell_length_c 14.534511
_cell_angle_alpha 90.000000
_cell_angle_beta 90.000000
_cell_angle_gamma 90.000000
_cell_volume 2872.474752
_symmetry_space_group_name_H-M "A M M 2"
_symmetry_group_IT_number 38
_symmetry_cell_setting 'orthorhombic'
loop_
_space_group_symop_operation_xyz
x,y,z
-x,-y,z
-x,y,z
x,-y,z
x,1/2+y,1/2+z
-x,1/2-y,1/2+z
-x,1/2+y,1/2+z
x,1/2-y,1/2+z
loop_
_atom_site_type_symbol
_atom_site_label
_atom_site_fract_x
_atom_site_fract_y
_atom_site_fract_z
Si Si1 0.351599 0.788723 0.288350
Si Si2 0.129381 0.706493 0.217036
Si Si3 0.058112 0.704825 0.874204
Si Si4 0.557995 0.298138 0.919359
Si Si5 0.850742 0.787124 0.507266
Si Si6 0.374401 0.299776 0.579914
Si Si7 0.241918 0.205299 0.239032
Si Si8 0.737869 0.197521 0.530958
O O1 0.396182 0.720970 0.355833
O O2 0.365448 0.736403 0.183744
O O3 0.290677 0.739792 0.302418
O O4 0.352404 0.000000 0.293376
O O5 0.128298 0.500000 0.217022
O O6 0.079208 0.772285 0.271060
O O7 0.134176 0.764821 0.111378
O O8 0.182561 0.765309 0.268341
O O9 0.055410 0.500000 0.893571
O O10 0.000000 0.777446 0.887081
O O11 0.103997 0.775108 0.939566
O O12 0.500000 0.221864 0.911043
O O13 0.553992 0.500000 0.893827
O O14 0.580491 0.289650 0.022214
O O15 0.791149 0.728675 0.487782
O O16 0.848497 0.000000 0.504712
O O17 0.388239 0.500000 0.586256
O O18 0.318820 0.282764 0.527379
O O19 0.248573 0.298849 0.140574
O O20 0.248269 0.000000 0.221206
O O21 0.731085 0.000000 0.498973
#
# Coordination Sequence:
#
# PCOD9358135 Si02
#       8
#     8   8   8   8   8   8   8   8
#     4   8  17  34  55  77 103 139 176 210 256 316
#     4  10  20  35  55  80 109 139 172 214 267 320
#     4  10  21  37  55  75 100 135 181 223 258 306
#     4  10  21  37  55  75 100 135 181 223 258 306
#     4   8  17  34  55  77 103 139 176 210 256 316
#     4  10  20  35  55  80 109 139 172 214 267 320
#     4   9  16  30  53  80 109 139 174 215 262 317
#     4   9  16  30  53  80 109 139 174 215 262 317
#
# _framework density 22.280439999999999
#
# number of rings (size 3 to 8) (size 9 to 14) (size 15 to 20)
#    0.000    2.750    0.000    3.000    0.000    2.500 
#    0.000   15.000    0.000    0.000    0.000    0.000 
#    0.000    0.000    0.000    0.000    0.000    0.000 
#
# Total GULP energy -178569.138479 kJ/mol
# GULP energy per Si atom -5580.285577 kJ/mol
# Density = 2.222973 g / cm^3
# Si number density = 22.280440 Si / 1000 Ang^3
#
#
#
# Elastic Constant Matrix: (Units=GPa)
#
#
# Indices 1 2 3 4 5 6 
#
# 1 152.2674 0.6495 40.8109 0.0000 0.0000 0.0000
# 2 0.6495 37.3173 -6.4914 0.0000 0.0000 0.0000
# 3 40.8109 -6.4914 59.1391 0.0000 0.0000 0.0000
# 4 0.0000 0.0000 0.0000 15.6115 0.0000 0.0000
# 5 0.0000 0.0000 0.0000 0.0000 21.8772 0.0000
# 6 0.0000 0.0000 0.0000 0.0000 0.0000 17.2312
#
#
#
# Elastic Compliance Matrix: (Units=1/GPa)
#
#
# Indices 1 2 3 4 5 6 
#
# 1 0.008105 -0.001136 -0.005718 0.000000 0.000000 0.000000
# 2 -0.001136 0.027478 0.003800 0.000000 0.000000 0.000000
# 3 -0.005718 0.003800 0.021272 0.000000 0.000000 0.000000
# 4 0.000000 0.000000 0.000000 0.064055 0.000000 0.000000
# 5 0.000000 0.000000 0.000000 0.000000 0.045710 0.000000
# 6 0.000000 0.000000 0.000000 0.000000 0.000000 0.058034
#
#
# Mechanical properties :
#
#
# Convention : Reuss Voigt Hill
#
# Bulk Modulus (GPa) = 19.70528 35.40686 27.55607
# Shear Modulus (GPa) = 20.18761 25.19430 22.69095
#
# Velocity S-wave (km/s) = 3.01336 3.36636 3.19474
# Velocity P-wave (km/s) = 4.57936 5.57098 5.09933
#
# Compressibility (1/GPa) = 0.05074782
#
# Stress axis : x y z
#
# Youngs Moduli (GPa) = 123.38578 36.39279 47.01026
#
# Poissons Ratio (x) = 0.04133 0.26878
# Poissons Ratio (y) = 0.14012 -0.17863
# Poissons Ratio (z) = 0.70546 -0.13829
#
# Static dielectric constant tensor:
#      x y z
#    x 1.831850 0.000000 0.000000 
#    y 0.000000 1.827620 0.000000 
#    z 0.000000 0.000000 1.841950 
# 
# From -- ./inp_files/18848.got.cif
#   From: 2010.05.17/outbox.cif.g08.bks.cpg/sg38_10_cif.got.tgz:18848.got - 2010.06.03 18:07:57.
