data_PCOD9358701
_publ_section_title
;
Structure prediction by ZEFSAII (Michael W. Deem and Ramdas Pophale) SiO2 
 PCOD9358701
Probable space group: A M M 2
;
_chemical_formula_sum "Si O2"
_cell_formula_units_Z 56
_cell_length_a 9.395156
_cell_length_b 15.205157
_cell_length_c 20.337761
_cell_angle_alpha 90.000000
_cell_angle_beta 90.000000
_cell_angle_gamma 90.000000
_cell_volume 2905.347228
_symmetry_space_group_name_H-M "A M M 2"
_symmetry_group_IT_number 38
_symmetry_cell_setting 'orthorhombic'
loop_
_space_group_symop_operation_xyz
x,y,z
-x,-y,z
-x,y,z
x,-y,z
x,1/2+y,1/2+z
-x,1/2-y,1/2+z
-x,1/2+y,1/2+z
x,1/2-y,1/2+z
loop_
_atom_site_type_symbol
_atom_site_label
_atom_site_fract_x
_atom_site_fract_y
_atom_site_fract_z
Si Si1 0.841966 0.896741 0.869550
Si Si2 0.342231 0.896087 0.752515
Si Si3 0.169040 0.345872 0.981749
Si Si4 0.172698 0.000000 0.382060
Si Si5 0.840099 0.853093 0.631138
Si Si6 0.165357 0.858682 0.122841
Si Si7 0.172111 0.000000 0.231083
Si Si8 0.329930 0.661666 0.492332
O O1 0.766123 0.856252 0.805709
O O2 0.737719 0.888209 0.930882
O O3 0.000000 0.859486 0.881908
O O4 0.859548 0.000000 0.856955
O O5 0.500000 0.857438 0.757329
O O6 0.276726 0.887215 0.680701
O O7 0.353671 0.000000 0.766591
O O8 0.211120 0.414356 0.925262
O O9 0.266798 0.259891 0.982679
O O10 0.000000 0.323341 0.974202
O O11 0.180350 0.383100 0.056014
O O12 0.224936 0.000000 0.306496
O O13 0.000000 0.000000 0.380253
O O14 0.832273 0.746523 0.633145
O O15 0.000000 0.879078 0.652217
O O16 0.000000 0.881764 0.107356
O O17 0.209445 0.914816 0.186655
O O18 0.264601 0.875534 0.060092
O O19 0.000000 0.000000 0.235781
O O20 0.500000 0.660188 0.493014
#
# Coordination Sequence:
#
# PCOD9358701 Si02
#       8
#     8   8   8   4   8   8   4   8
#     4  10  21  37  57  80 107 142 183 226 276 335
#     4  10  21  35  51  77 112 145 180 224 276 337
#     4   9  19  36  58  84 113 147 193 239 280 332
#     4   9  18  34  59  91 118 147 190 245 291 328
#     4   9  18  32  53  79 109 146 191 235 275 326
#     4   9  19  36  56  82 111 145 191 236 277 334
#     4   9  18  34  59  87 114 143 184 237 289 336
#     4  11  22  36  56  82 114 149 186 232 286 339
#
# _framework density 19.274805000000001
#
# number of rings (size 3 to 8) (size 9 to 14) (size 15 to 20)
#    0.000    2.429    0.000    3.000    2.000    5.143 
#    0.000    3.214    0.000    1.714    0.000    0.000 
#    0.000    0.000    0.000    0.000    0.000    0.000 
#
# Total GULP energy -156106.565793 kJ/mol
# GULP energy per Si atom -5575.234493 kJ/mol
# Density = 1.923093 g / cm^3
# Si number density = 19.274805 Si / 1000 Ang^3
#
#
#
# Elastic Constant Matrix: (Units=GPa)
#
#
# Indices 1 2 3 4 5 6 
#
# 1 125.9101 19.1245 63.9468 0.0000 0.0000 0.0000
# 2 19.1245 39.4746 39.3926 0.0000 0.0000 0.0000
# 3 63.9468 39.3926 146.6999 0.0000 0.0000 0.0000
# 4 0.0000 0.0000 0.0000 37.8925 0.0000 0.0000
# 5 0.0000 0.0000 0.0000 0.0000 -31.8951 0.0000
# 6 0.0000 0.0000 0.0000 0.0000 0.0000 14.5152
#
#
#
# Elastic Compliance Matrix: (Units=1/GPa)
#
#
# Indices 1 2 3 4 5 6 
#
# 1 0.010214 -0.000690 -0.004267 0.000000 0.000000 0.000000
# 2 -0.000690 0.034653 -0.009004 0.000000 0.000000 0.000000
# 3 -0.004267 -0.009004 0.011094 0.000000 0.000000 0.000000
# 4 0.000000 0.000000 0.000000 0.026390 0.000000 0.000000
# 5 0.000000 0.000000 0.000000 0.000000 -0.031353 0.000000
# 6 0.000000 0.000000 0.000000 0.000000 0.000000 0.068893
#
#
# Mechanical properties :
#
#
# Convention : Reuss Voigt Hill
#
# Bulk Modulus (GPa) = 35.66563 61.89027 48.77795
# Shear Modulus (GPa) = 31.81444 16.74390 24.27917
#
# Velocity S-wave (km/s) = 4.06713 2.95056 3.55298
# Velocity P-wave (km/s) = 6.37176 6.61716 6.49562
#
# Compressibility (1/GPa) = 0.02803820
#
# Stress axis : x y z
#
# Youngs Moduli (GPa) = 97.90355 28.85783 90.13515
#
# Poissons Ratio (x) = 0.01992 0.38460
# Poissons Ratio (y) = 0.06759 0.81159
# Poissons Ratio (z) = 0.41775 0.25984
#
# Static dielectric constant tensor:
#      x y z
#    x 1.687300 0.000000 0.000000 
#    y 0.000000 1.698080 0.000000 
#    z 0.000000 0.000000 1.676050 
# 
# From -- ./inp_files/19855.got.cif
#   From: 2010.05.17/outbox.cif.g08.bks.cpg/sg38_10_cif.got.tgz:19855.got - 2010.06.03 18:07:57.
