data_PCOD9358952
_publ_section_title
;
Structure prediction by ZEFSAII (Michael W. Deem and Ramdas Pophale) SiO2 
 PCOD9358952
Probable space group: A M M 2
;
_chemical_formula_sum "Si O2"
_cell_formula_units_Z 64
_cell_length_a 9.238298
_cell_length_b 14.111965
_cell_length_c 24.609055
_cell_angle_alpha 90.000000
_cell_angle_beta 90.000000
_cell_angle_gamma 90.000000
_cell_volume 3208.295741
_symmetry_space_group_name_H-M "A M M 2"
_symmetry_group_IT_number 38
_symmetry_cell_setting 'orthorhombic'
loop_
_space_group_symop_operation_xyz
x,y,z
-x,-y,z
-x,y,z
x,-y,z
x,1/2+y,1/2+z
-x,1/2-y,1/2+z
-x,1/2+y,1/2+z
x,1/2-y,1/2+z
loop_
_atom_site_type_symbol
_atom_site_label
_atom_site_fract_x
_atom_site_fract_y
_atom_site_fract_z
Si Si1 0.827908 0.285264 0.642770
Si Si2 0.326852 0.388310 0.187089
Si Si3 0.173356 0.231588 0.021582
Si Si4 0.332282 0.885443 0.241486
Si Si5 0.329892 0.112701 0.462423
Si Si6 0.172934 0.389641 0.417259
Si Si7 0.334817 0.384451 0.310784
Si Si8 0.166155 0.884487 0.350724
O O1 0.767668 0.178859 0.649691
O O2 0.796980 0.312825 0.580431
O O3 0.746515 0.346426 0.688139
O O4 0.000000 0.289506 0.651749
O O5 0.500000 0.373971 0.179775
O O6 0.298854 0.500000 0.180016
O O7 0.290742 0.359911 0.249504
O O8 0.000000 0.247811 0.018583
O O9 0.257462 0.328799 0.010780
O O10 0.217289 0.164948 0.971423
O O11 0.500000 0.855352 0.242479
O O12 0.251344 0.854239 0.296661
O O13 0.328892 0.000000 0.240489
O O14 0.500000 0.133768 0.457691
O O15 0.248058 0.139136 0.406475
O O16 0.313731 0.000000 0.470173
O O17 0.214384 0.500000 0.422454
O O18 0.239103 0.352099 0.361085
O O19 0.000000 0.384744 0.413351
O O20 0.500000 0.354078 0.319263
O O21 0.333255 0.500000 0.310934
O O22 0.000000 0.850986 0.351364
O O23 0.162765 0.000000 0.348953
#
# Coordination Sequence:
#
# PCOD9358952 Si02
#       8
#     8   8   8   8   8   8   8   8
#     4  11  24  39  56  80 110 147 192 238 282 332
#     4   9  19  37  59  81 110 147 181 221 278 337
#     4  10  23  40  55  76 108 147 190 231 273 326
#     4  10  21  38  60  85 114 147 184 230 282 337
#     4  10  21  37  58  84 113 146 184 228 279 332
#     4   9  18  34  56  80 106 137 173 216 265 316
#     4   8  15  30  53  81 109 136 169 210 262 324
#     4   9  17  32  57  87 116 145 179 222 275 336
#
# _framework density 19.948286
#
# number of rings (size 3 to 8) (size 9 to 14) (size 15 to 20)
#    0.000    2.500    0.000    2.250    0.000    7.250 
#    0.000    7.500    0.000    1.500    0.000    0.000 
#    0.000    0.000    0.000    0.000    0.000    0.000 
#
# Total GULP energy -178748.877935 kJ/mol
# GULP energy per Si atom -5585.902435 kJ/mol
# Density = 1.990288 g / cm^3
# Si number density = 19.948286 Si / 1000 Ang^3
#
#
#
# Elastic Constant Matrix: (Units=GPa)
#
#
# Indices 1 2 3 4 5 6 
#
# 1 66.2624 16.6337 43.5717 0.0000 0.0000 0.0000
# 2 16.6337 42.0112 10.1208 0.0000 0.0000 0.0000
# 3 43.5717 10.1208 95.3585 0.0000 0.0000 0.0000
# 4 0.0000 0.0000 0.0000 29.9351 0.0000 0.0000
# 5 0.0000 0.0000 0.0000 0.0000 53.2199 0.0000
# 6 0.0000 0.0000 0.0000 0.0000 0.0000 24.3993
#
#
#
# Elastic Compliance Matrix: (Units=1/GPa)
#
#
# Indices 1 2 3 4 5 6 
#
# 1 0.023348 -0.006849 -0.009941 0.000000 0.000000 0.000000
# 2 -0.006849 0.026437 0.000324 0.000000 0.000000 0.000000
# 3 -0.009941 0.000324 0.014995 0.000000 0.000000 0.000000
# 4 0.000000 0.000000 0.000000 0.033406 0.000000 0.000000
# 5 0.000000 0.000000 0.000000 0.000000 0.018790 0.000000
# 6 0.000000 0.000000 0.000000 0.000000 0.000000 0.040985
#
#
# Mechanical properties :
#
#
# Convention : Reuss Voigt Hill
#
# Bulk Modulus (GPa) = 31.40110 38.25385 34.82747
# Shear Modulus (GPa) = 24.81277 30.39792 27.60535
#
# Velocity S-wave (km/s) = 3.53066 3.90787 3.72404
# Velocity P-wave (km/s) = 5.69176 6.29127 5.99901
#
# Compressibility (1/GPa) = 0.03184602
#
# Stress axis : x y z
#
# Youngs Moduli (GPa) = 42.83042 37.82569 66.68982
#
# Poissons Ratio (x) = 0.25908 0.66298
# Poissons Ratio (y) = 0.29336 -0.02159
# Poissons Ratio (z) = 0.42579 -0.01225
#
# Static dielectric constant tensor:
#      x y z
#    x 1.665120 0.000000 0.000000 
#    y 0.000000 1.749190 0.000000 
#    z 0.000000 0.000000 1.681910 
# 
# From -- ./inp_files/20071.got.cif
#   From: 2010.05.17/outbox.cif.g08.bks.cpg/sg38_11_cif.got.tgz:20071.got - 2010.06.03 18:07:57.
