data_PCOD9358453
_publ_section_title
;
Structure prediction by ZEFSAII (Michael W. Deem and Ramdas Pophale) SiO2 
 PCOD9358453
Probable space group: A M M 2
;
_chemical_formula_sum "Si O2"
_cell_formula_units_Z 58
_cell_length_a 13.462050
_cell_length_b 18.124740
_cell_length_c 11.482050
_cell_angle_alpha 90.000000
_cell_angle_beta 90.000000
_cell_angle_gamma 90.000000
_cell_volume 2801.576064
_symmetry_space_group_name_H-M "A M M 2"
_symmetry_group_IT_number 38
_symmetry_cell_setting 'orthorhombic'
loop_
_space_group_symop_operation_xyz
x,y,z
-x,-y,z
-x,y,z
x,-y,z
x,1/2+y,1/2+z
-x,1/2-y,1/2+z
-x,1/2+y,1/2+z
x,1/2-y,1/2+z
loop_
_atom_site_type_symbol
_atom_site_label
_atom_site_fract_x
_atom_site_fract_y
_atom_site_fract_z
Si Si1 0.741411 0.343352 0.705130
Si Si2 0.392296 0.283337 0.115737
Si Si3 0.385965 0.612111 0.911991
Si Si4 0.822466 0.381740 0.470779
Si Si5 0.000000 0.000000 0.934126
Si Si6 0.310898 0.083559 0.761714
Si Si7 0.885314 0.783857 0.405188
Si Si8 0.814155 0.578906 0.045206
O O1 0.692124 0.274156 0.641513
O O2 0.655266 0.381604 0.781872
O O3 0.793392 0.391400 0.606225
O O4 0.819667 0.311143 0.797041
O O5 0.500000 0.250522 0.139533
O O6 0.378057 0.354444 0.200034
O O7 0.388500 0.310136 0.981974
O O8 0.500000 0.584372 0.919369
O O9 0.294751 0.575749 0.982878
O O10 0.726481 0.397809 0.390154
O O11 0.852894 0.296551 0.448857
O O12 0.912110 0.435639 0.438127
O O13 0.211714 0.084667 0.680927
O O14 0.351638 0.000000 0.755283
O O15 0.868053 0.848479 0.500370
O O16 0.000000 0.781247 0.372509
O O17 0.864434 0.500000 0.021046
#
# Coordination Sequence:
#
# PCOD9358453 Si02
#       8
#     8   8   8   8   2   8   8   8
#     4  11  22  39  60  91 129 170 208 267 324 384
#     4  10  20  36  65  97 127 165 214 268 327 394
#     4   9  19  37  60  91 123 161 212 255 314 382
#     4  12  24  44  65  91 131 170 220 270 321 396
#     4  12  28  48  64  96 122 184 236 260 328 402
#     4  10  20  39  64  91 129 167 208 267 334 385
#     4  11  24  41  64  93 122 166 215 271 328 384
#     4   9  20  40  63  94 127 162 209 270 328 379
#
# _framework density 20.702632999999999
#
# number of rings (size 3 to 8) (size 9 to 14) (size 15 to 20)
#    0.000    1.655    2.759    2.897    0.966    0.828 
#    6.207    3.448    0.000    0.000    0.000    0.000 
#    0.000    0.000    0.000    0.000    0.000    0.000 
#
# Total GULP energy -161509.503886 kJ/mol
# GULP energy per Si atom -5569.293237 kJ/mol
# Density = 2.065551 g / cm^3
# Si number density = 20.702633 Si / 1000 Ang^3
#
#
#
# Elastic Constant Matrix: (Units=GPa)
#
#
# Indices 1 2 3 4 5 6 
#
# 1 69.5953 -2.1838 8.6752 0.0000 0.0000 0.0000
# 2 -2.1838 73.0802 1.0388 0.0000 0.0000 0.0000
# 3 8.6752 1.0388 80.2197 0.0000 0.0000 0.0000
# 4 0.0000 0.0000 0.0000 2.0355 0.0000 0.0000
# 5 0.0000 0.0000 0.0000 0.0000 7.5551 0.0000
# 6 0.0000 0.0000 0.0000 0.0000 0.0000 -2.7984
#
#
#
# Elastic Compliance Matrix: (Units=1/GPa)
#
#
# Indices 1 2 3 4 5 6 
#
# 1 0.014580 0.000458 -0.001583 0.000000 0.000000 0.000000
# 2 0.000458 0.013701 -0.000227 0.000000 0.000000 0.000000
# 3 -0.001583 -0.000227 0.012640 0.000000 0.000000 0.000000
# 4 0.000000 0.000000 0.000000 0.491292 0.000000 0.000000
# 5 0.000000 0.000000 0.000000 0.000000 0.132361 0.000000
# 6 0.000000 0.000000 0.000000 0.000000 0.000000 -0.357349
#
#
# Mechanical properties :
#
#
# Convention : Reuss Voigt Hill
#
# Bulk Modulus (GPa) = 26.16577 26.43951 26.30264
# Shear Modulus (GPa) = 15.49587 15.71610 15.60598
#
# Velocity S-wave (km/s) = 2.73884 2.75823 2.74855
# Velocity P-wave (km/s) = 4.76109 4.78984 4.77549
#
# Compressibility (1/GPa) = 0.03821788
#
# Stress axis : x y z
#
# Youngs Moduli (GPa) = 68.58494 72.98992 79.11482
#
# Poissons Ratio (x) = -0.03344 0.12522
# Poissons Ratio (y) = -0.03143 0.01796
# Poissons Ratio (z) = 0.10855 0.01657
#
# Static dielectric constant tensor:
#      x y z
#    x 1.740450 0.000000 0.000000 
#    y 0.000000 1.767010 0.000000 
#    z 0.000000 0.000000 1.775980 
# 
# From -- ./inp_files/10214.got.cif
#   From: 2010.05.17/outbox.cif.g08.bks.cpg/sg38_6_cif.got.tgz:10214.got - 2010.06.03 18:07:57.
