data_PCOD9358616
_publ_section_title
;
Structure prediction by ZEFSAII (Michael W. Deem and Ramdas Pophale) SiO2 
 PCOD9358616
Probable space group: A M M 2
;
_chemical_formula_sum "Si O2"
_cell_formula_units_Z 44
_cell_length_a 15.273287
_cell_length_b 17.539756
_cell_length_c 8.620261
_cell_angle_alpha 90.000000
_cell_angle_beta 90.000000
_cell_angle_gamma 90.000000
_cell_volume 2309.279369
_symmetry_space_group_name_H-M "A M M 2"
_symmetry_group_IT_number 38
_symmetry_cell_setting 'orthorhombic'
loop_
_space_group_symop_operation_xyz
x,y,z
-x,-y,z
-x,y,z
x,-y,z
x,1/2+y,1/2+z
-x,1/2-y,1/2+z
-x,1/2+y,1/2+z
x,1/2-y,1/2+z
loop_
_atom_site_type_symbol
_atom_site_label
_atom_site_fract_x
_atom_site_fract_y
_atom_site_fract_z
Si Si1 0.290315 0.771451 0.471620
Si Si2 0.817328 0.837038 0.750905
Si Si3 0.000000 0.283591 0.115269
Si Si4 0.401020 0.500000 0.533251
Si Si5 0.602029 0.662493 0.692020
Si Si6 0.000000 0.864588 0.285712
Si Si7 0.904774 0.000000 0.175583
Si Si8 0.780806 0.500000 0.390293
O O1 0.244753 0.821578 0.603358
O O2 0.218195 0.718790 0.386122
O O3 0.358719 0.715420 0.556352
O O4 0.340395 0.820196 0.342835
O O5 0.914066 0.814376 0.700319
O O6 0.811183 0.923422 0.806801
O O7 0.000000 0.192247 0.139490
O O8 0.000000 0.314478 0.939884
O O9 0.500000 0.500000 0.467812
O O10 0.391119 0.424405 0.636215
O O11 0.323882 0.500000 0.408319
O O12 0.500000 0.680224 0.719383
O O13 0.917305 0.922789 0.275123
O O14 0.824221 0.000000 0.061749
O O15 0.000000 0.000000 0.085379
#
# Coordination Sequence:
#
# PCOD9358616 Si02
#       8
#     8   8   4   4   8   4   4   4
#     4  10  22  41  60  97 125 160 216 255 323 372
#     4  11  26  39  64  90 130 168 212 262 313 371
#     4  12  24  39  65  93 125 167 217 261 310 370
#     4  10  22  39  62  91 124 167 207 251 324 380
#     4  10  20  39  66  92 126 164 207 261 317 385
#     4   9  24  41  63  92 127 167 209 264 308 372
#     4   8  24  42  63  90 126 167 209 246 327 369
#     4  12  24  43  63  93 126 172 206 269 309 379
#
# _framework density 19.053563
#
# number of rings (size 3 to 8) (size 9 to 14) (size 15 to 20)
#    0.545    1.091    1.818    1.636    6.364    3.636 
#    0.000    0.909    0.000    0.000    0.000    0.000 
#    0.000    0.000    0.000    0.000    0.000    0.000 
#
# Total GULP energy -122860.599583 kJ/mol
# GULP energy per Si atom -5584.572708 kJ/mol
# Density = 1.901020 g / cm^3
# Si number density = 19.053563 Si / 1000 Ang^3
#
#
#
# Elastic Constant Matrix: (Units=GPa)
#
#
# Indices 1 2 3 4 5 6 
#
# 1 69.8502 22.7613 -0.6917 0.0000 0.0000 0.0000
# 2 22.7613 101.6451 26.4954 0.0000 0.0000 0.0000
# 3 -0.6917 26.4954 59.0434 0.0000 0.0000 0.0000
# 4 0.0000 0.0000 0.0000 23.2092 0.0000 0.0000
# 5 0.0000 0.0000 0.0000 0.0000 11.7842 0.0000
# 6 0.0000 0.0000 0.0000 0.0000 0.0000 8.6248
#
#
#
# Elastic Compliance Matrix: (Units=1/GPa)
#
#
# Indices 1 2 3 4 5 6 
#
# 1 0.015647 -0.004022 0.001988 0.000000 0.000000 0.000000
# 2 -0.004022 0.012175 -0.005511 0.000000 0.000000 0.000000
# 3 0.001988 -0.005511 0.019433 0.000000 0.000000 0.000000
# 4 0.000000 0.000000 0.000000 0.043086 0.000000 0.000000
# 5 0.000000 0.000000 0.000000 0.000000 0.084859 0.000000
# 6 0.000000 0.000000 0.000000 0.000000 0.000000 0.115944
#
#
# Mechanical properties :
#
#
# Convention : Reuss Voigt Hill
#
# Bulk Modulus (GPa) = 31.08899 36.40763 33.74831
# Shear Modulus (GPa) = 15.77508 20.85523 18.31516
#
# Velocity S-wave (km/s) = 2.88050 3.31200 3.10376
# Velocity P-wave (km/s) = 5.23595 5.81165 5.53129
#
# Compressibility (1/GPa) = 0.03216573
#
# Stress axis : x y z
#
# Youngs Moduli (GPa) = 63.91148 82.13393 51.45914
#
# Poissons Ratio (x) = 0.33034 -0.10231
# Poissons Ratio (y) = 0.25705 0.28358
# Poissons Ratio (z) = -0.12707 0.45261
#
# Static dielectric constant tensor:
#      x y z
#    x 1.665280 0.000000 0.000000 
#    y 0.000000 1.652070 0.000000 
#    z 0.000000 0.000000 1.642190 
# 
# From -- ./inp_files/5442.got.cif
#   From: 2010.05.17/outbox.cif.g08.bks.cpg/sg38_3_cif.got.tgz:5442.got - 2010.06.03 18:07:57.
