data_PCOD9358029
_publ_section_title
;
Structure prediction by ZEFSAII (Michael W. Deem and Ramdas Pophale) SiO2 
 PCOD9358029
Probable space group: A M M 2
;
_chemical_formula_sum "Si O2"
_cell_formula_units_Z 64
_cell_length_a 24.546170
_cell_length_b 7.787505
_cell_length_c 15.847093
_cell_angle_alpha 90.000000
_cell_angle_beta 90.000000
_cell_angle_gamma 90.000000
_cell_volume 3029.226049
_symmetry_space_group_name_H-M "A M M 2"
_symmetry_group_IT_number 38
_symmetry_cell_setting 'orthorhombic'
loop_
_space_group_symop_operation_xyz
x,y,z
-x,-y,z
-x,y,z
x,-y,z
x,1/2+y,1/2+z
-x,1/2-y,1/2+z
-x,1/2+y,1/2+z
x,1/2-y,1/2+z
loop_
_atom_site_type_symbol
_atom_site_label
_atom_site_fract_x
_atom_site_fract_y
_atom_site_fract_z
Si Si1 0.743729 0.200316 0.254320
Si Si2 0.137313 0.203098 0.216211
Si Si3 0.937375 0.290089 0.564445
Si Si4 0.559921 0.704814 0.336387
Si Si5 0.325447 0.207289 0.410841
Si Si6 0.322503 0.697885 0.094605
Si Si7 0.560459 0.299823 0.641863
Si Si8 0.937224 0.792370 0.872818
O O1 0.802527 0.276945 0.231945
O O2 0.711733 0.275098 0.334566
O O3 0.704904 0.209922 0.173262
O O4 0.752953 0.000000 0.274914
O O5 0.103621 0.273250 0.136306
O O6 0.101867 0.224166 0.300528
O O7 0.143930 0.000000 0.198954
O O8 0.937498 0.500000 0.565775
O O9 0.922889 0.238971 0.468617
O O10 0.000000 0.237258 0.581440
O O11 0.500000 0.753557 0.370492
O O12 0.560373 0.500000 0.324346
O O13 0.611687 0.751367 0.391866
O O14 0.565554 0.786291 0.243477
O O15 0.308027 0.270554 0.502902
O O16 0.321895 0.000000 0.412740
O O17 0.305263 0.500000 0.099852
O O18 0.387779 0.707208 0.103185
O O19 0.500000 0.233874 0.619904
O O20 0.563273 0.500000 0.617753
O O21 0.000000 0.740406 0.857140
O O22 0.935389 0.000000 0.870353
#
# Coordination Sequence:
#
# PCOD9358029 Si02
#       8
#     8   8   8   8   8   8   8   8
#     4  10  22  40  57  77 109 147 186 231 282 331
#     4  10  20  34  56  82 107 142 189 232 271 320
#     4   8  15  30  52  78 110 145 178 217 269 327
#     4  10  20  34  56  86 114 140 179 228 272 327
#     4  10  22  39  57  78 110 149 184 226 285 338
#     4  11  23  38  58  82 107 143 190 233 276 332
#     4  10  20  35  57  83 112 144 174 216 282 343
#     4   9  18  33  53  79 112 146 178 217 271 330
#
# _framework density 21.127507999999999
#
# number of rings (size 3 to 8) (size 9 to 14) (size 15 to 20)
#    0.000    2.250    1.250    2.250    0.000    5.250 
#    0.000    3.125    0.000    0.750    0.000    0.000 
#    0.000    0.000    0.000    0.000    0.000    0.000 
#
# Total GULP energy -178677.736979 kJ/mol
# GULP energy per Si atom -5583.679281 kJ/mol
# Density = 2.107942 g / cm^3
# Si number density = 21.127508 Si / 1000 Ang^3
#
#
#
# Elastic Constant Matrix: (Units=GPa)
#
#
# Indices 1 2 3 4 5 6 
#
# 1 95.0085 -8.7764 45.6593 0.0000 0.0000 0.0000
# 2 -8.7764 27.7415 -12.9522 0.0000 0.0000 0.0000
# 3 45.6593 -12.9522 94.6331 0.0000 0.0000 0.0000
# 4 0.0000 0.0000 0.0000 13.9818 0.0000 0.0000
# 5 0.0000 0.0000 0.0000 0.0000 -8.4676 0.0000
# 6 0.0000 0.0000 0.0000 0.0000 0.0000 9.7021
#
#
#
# Elastic Compliance Matrix: (Units=1/GPa)
#
#
# Indices 1 2 3 4 5 6 
#
# 1 0.013749 0.001338 -0.006451 0.000000 0.000000 0.000000
# 2 0.001338 0.038638 0.004643 0.000000 0.000000 0.000000
# 3 -0.006451 0.004643 0.014315 0.000000 0.000000 0.000000
# 4 0.000000 0.000000 0.000000 0.071521 0.000000 0.000000
# 5 0.000000 0.000000 0.000000 0.000000 -0.118097 0.000000
# 6 0.000000 0.000000 0.000000 0.000000 0.000000 0.103070
#
#
# Mechanical properties :
#
#
# Convention : Reuss Voigt Hill
#
# Bulk Modulus (GPa) = 15.20633 29.47161 22.33897
# Shear Modulus (GPa) = 34.23323 15.94009 25.08666
#
# Velocity S-wave (km/s) = 4.02968 2.74974 3.44960
# Velocity P-wave (km/s) = 5.37254 4.90522 5.14419
#
# Compressibility (1/GPa) = 0.06576210
#
# Stress axis : x y z
#
# Youngs Moduli (GPa) = 72.73253 25.88125 69.85734
#
# Poissons Ratio (x) = -0.03463 0.45062
# Poissons Ratio (y) = -0.09731 -0.32433
# Poissons Ratio (z) = 0.46917 -0.12016
#
# Static dielectric constant tensor:
#      x y z
#    x 1.750510 0.000000 0.000000 
#    y 0.000000 1.783440 0.000000 
#    z 0.000000 0.000000 1.754910 
# 
# From -- ./inp_files/15771.got.cif
#   From: 2010.05.17/outbox.cif.g08.bks.cpg/sg38_8_cif.got.tgz:15771.got - 2010.06.03 18:07:57.
