data_PCOD9359201
_publ_section_title
;
Structure prediction by ZEFSAII (Michael W. Deem and Ramdas Pophale) SiO2 
 PCOD9359201
Probable space group: A M M 2
;
_chemical_formula_sum "Si O2"
_cell_formula_units_Z 48
_cell_length_a 7.607051
_cell_length_b 23.672126
_cell_length_c 12.094818
_cell_angle_alpha 90.000000
_cell_angle_beta 90.000000
_cell_angle_gamma 90.000000
_cell_volume 2177.975195
_symmetry_space_group_name_H-M "A M M 2"
_symmetry_group_IT_number 38
_symmetry_cell_setting 'orthorhombic'
loop_
_space_group_symop_operation_xyz
x,y,z
-x,-y,z
-x,y,z
x,-y,z
x,1/2+y,1/2+z
-x,1/2-y,1/2+z
-x,1/2+y,1/2+z
x,1/2-y,1/2+z
loop_
_atom_site_type_symbol
_atom_site_label
_atom_site_fract_x
_atom_site_fract_y
_atom_site_fract_z
Si Si1 0.213291 0.143375 0.159250
Si Si2 0.708163 0.935770 0.350356
Si Si3 0.203737 0.844288 0.911885
Si Si4 0.209613 0.234766 0.716448
Si Si5 0.712607 0.936154 0.747210
Si Si6 0.710838 0.356425 0.044281
O O1 0.269456 0.088657 0.227478
O O2 0.273969 0.201265 0.217792
O O3 0.000000 0.142523 0.157685
O O4 0.279347 0.149653 0.033802
O O5 0.500000 0.939629 0.373955
O O6 0.778732 0.886400 0.432612
O O7 0.778220 0.000000 0.364423
O O8 0.282274 0.801929 0.819271
O O9 0.213895 0.904842 0.853494
O O10 0.000000 0.827518 0.926382
O O11 0.237826 0.203824 0.597769
O O12 0.000000 0.236191 0.729562
O O13 0.500000 0.934998 0.752788
O O14 0.764094 0.900067 0.640632
O O15 0.770952 0.000000 0.737186
O O16 0.500000 0.353877 0.036585
#
# Coordination Sequence:
#
# PCOD9359201 Si02
#       6
#     8   8   8   8   8   8
#     4  10  22  37  56  79 107 145 184 225 273 328
#     4  10  22  39  57  80 113 151 188 227 274 326
#     4   9  19  35  51  75 106 136 173 219 270 320
#     4   9  19  35  57  81 107 139 178 224 276 330
#     4   9  17  31  53  78 103 135 174 215 262 315
#     4   9  18  34  56  82 109 139 177 225 273 319
#
# _framework density 22.038817999999999
#
# number of rings (size 3 to 8) (size 9 to 14) (size 15 to 20)
#    0.000    2.667    0.000    0.500    2.333    5.333 
#    0.000    3.333    0.000    3.000    0.000    0.000 
#    0.000    0.000    0.000    0.000    0.000    0.000 
#
# Total GULP energy -133847.164212 kJ/mol
# GULP energy per Si atom -5576.965176 kJ/mol
# Density = 2.198866 g / cm^3
# Si number density = 22.038818 Si / 1000 Ang^3
#
#
#
# Elastic Constant Matrix: (Units=GPa)
#
#
# Indices 1 2 3 4 5 6 
#
# 1 43.7714 -3.3756 -3.5335 0.0000 0.0000 0.0000
# 2 -3.3756 74.6527 11.3632 0.0000 0.0000 0.0000
# 3 -3.5335 11.3632 93.0183 0.0000 0.0000 0.0000
# 4 0.0000 0.0000 0.0000 15.3071 0.0000 0.0000
# 5 0.0000 0.0000 0.0000 0.0000 21.0777 0.0000
# 6 0.0000 0.0000 0.0000 0.0000 0.0000 18.7366
#
#
#
# Elastic Compliance Matrix: (Units=1/GPa)
#
#
# Indices 1 2 3 4 5 6 
#
# 1 0.022979 0.000923 0.000760 0.000000 0.000000 0.000000
# 2 0.000923 0.013686 -0.001637 0.000000 0.000000 0.000000
# 3 0.000760 -0.001637 0.010979 0.000000 0.000000 0.000000
# 4 0.000000 0.000000 0.000000 0.065329 0.000000 0.000000
# 5 0.000000 0.000000 0.000000 0.000000 0.047444 0.000000
# 6 0.000000 0.000000 0.000000 0.000000 0.000000 0.053372
#
#
# Mechanical properties :
#
#
# Convention : Reuss Voigt Hill
#
# Bulk Modulus (GPa) = 20.94795 24.48339 22.71567
# Shear Modulus (GPa) = 21.77625 24.82349 23.29987
#
# Velocity S-wave (km/s) = 3.14679 3.35976 3.25502
# Velocity P-wave (km/s) = 4.76747 5.11703 4.94534
#
# Compressibility (1/GPa) = 0.04773736
#
# Stress axis : x y z
#
# Youngs Moduli (GPa) = 43.51891 73.06595 91.07965
#
# Poissons Ratio (x) = -0.06746 -0.06923
# Poissons Ratio (y) = -0.04018 0.14908
# Poissons Ratio (z) = -0.03308 0.11960
#
# Static dielectric constant tensor:
#      x y z
#    x 1.824810 0.000000 0.000000 
#    y 0.000000 1.798430 0.000000 
#    z 0.000000 0.000000 1.822470 
# 
# From -- ./inp_files/8123.got.cif
#   From: 2010.05.17/outbox.cif.g08.bks.cpg/sg38_5_cif.got.tgz:8123.got - 2010.06.03 18:07:57.
