data_PCOD9359460
_publ_section_title
;
Structure prediction by ZEFSAII (Michael W. Deem and Ramdas Pophale) SiO2 
 PCOD9359460
Probable space group: A M M 2
;
_chemical_formula_sum "Si O2"
_cell_formula_units_Z 40
_cell_length_a 9.095470
_cell_length_b 7.721566
_cell_length_c 30.744412
_cell_angle_alpha 90.000000
_cell_angle_beta 90.000000
_cell_angle_gamma 90.000000
_cell_volume 2159.219159
_symmetry_space_group_name_H-M "A M M 2"
_symmetry_group_IT_number 38
_symmetry_cell_setting 'orthorhombic'
loop_
_space_group_symop_operation_xyz
x,y,z
-x,-y,z
-x,y,z
x,-y,z
x,1/2+y,1/2+z
-x,1/2-y,1/2+z
-x,1/2+y,1/2+z
x,1/2-y,1/2+z
loop_
_atom_site_type_symbol
_atom_site_label
_atom_site_fract_x
_atom_site_fract_y
_atom_site_fract_z
Si Si1 0.670236 0.790333 0.824170
Si Si2 0.831563 0.711009 0.410924
Si Si3 0.178062 0.795155 0.008295
Si Si4 0.679183 0.192789 0.228632
Si Si5 0.322522 0.500000 0.065565
Si Si6 0.320798 0.500000 0.166459
O O1 0.500000 0.738792 0.826450
O O2 0.747468 0.729349 0.868133
O O3 0.731301 0.726950 0.777941
O O4 0.676480 0.000000 0.822970
O O5 0.830364 0.500000 0.410249
O O6 0.775499 0.756708 0.458999
O O7 0.000000 0.767593 0.407976
O O8 0.256651 0.668993 0.041908
O O9 0.000000 0.776701 0.010482
O O10 0.210466 0.000000 0.014740
O O11 0.500000 0.205176 0.230546
O O12 0.728992 0.334030 0.194038
O O13 0.718500 0.000000 0.215058
O O14 0.500000 0.500000 0.062751
O O15 0.277810 0.500000 0.116280
O O16 0.500000 0.500000 0.166782
#
# Coordination Sequence:
#
# PCOD9359460 Si02
#       6
#     8   8   8   8   4   4
#     4   9  15  25  45  72 102 134 167 208 255 303
#     4   8  15  29  50  74 100 136 177 211 254 314
#     4   9  19  38  60  78 105 149 193 226 266 334
#     4   9  16  28  47  69  98 137 173 205 249 313
#     4  11  23  35  55  87 115 139 179 241 294 325
#     4   9  18  33  49  71 105 139 173 213 266 327
#
# _framework density 18.525214999999999
#
# number of rings (size 3 to 8) (size 9 to 14) (size 15 to 20)
#    0.000    3.000    1.000    1.500    0.000    2.000 
#    1.800    4.000    0.000    2.400    0.000    0.000 
#    0.000    0.000    0.000    0.000    0.000    0.000 
#
# Total GULP energy -111469.379268 kJ/mol
# GULP energy per Si atom -5573.468963 kJ/mol
# Density = 1.848305 g / cm^3
# Si number density = 18.525215 Si / 1000 Ang^3
#
#
#
# Elastic Constant Matrix: (Units=GPa)
#
#
# Indices 1 2 3 4 5 6 
#
# 1 21.0079 29.5770 45.4626 0.0000 0.0000 0.0000
# 2 29.5770 104.0667 94.3059 0.0000 0.0000 0.0000
# 3 45.4626 94.3059 208.8677 0.0000 0.0000 0.0000
# 4 0.0000 0.0000 0.0000 -14.0166 0.0000 0.0000
# 5 0.0000 0.0000 0.0000 0.0000 -59.8638 0.0000
# 6 0.0000 0.0000 0.0000 0.0000 0.0000 13.8035
#
#
#
# Elastic Compliance Matrix: (Units=1/GPa)
#
#
# Indices 1 2 3 4 5 6 
#
# 1 0.102245 -0.015049 -0.015460 0.000000 0.000000 0.000000
# 2 -0.015049 0.018479 -0.005068 0.000000 0.000000 0.000000
# 3 -0.015460 -0.005068 0.010441 0.000000 0.000000 0.000000
# 4 0.000000 0.000000 0.000000 -0.071344 0.000000 0.000000
# 5 0.000000 0.000000 0.000000 0.000000 -0.016705 0.000000
# 6 0.000000 0.000000 0.000000 0.000000 0.000000 0.072445
#
#
# Mechanical properties :
#
#
# Convention : Reuss Voigt Hill
#
# Bulk Modulus (GPa) = 16.66362 74.73702 45.70032
# Shear Modulus (GPa) = 24.18733 -1.04225 11.57254
#
# Velocity S-wave (km/s) = 3.61729 -0.75089 2.50209
# Velocity P-wave (km/s) = 5.14403 6.29914 5.75066
#
# Compressibility (1/GPa) = 0.06001097
#
# Stress axis : x y z
#
# Youngs Moduli (GPa) = 9.78038 54.11600 95.77728
#
# Poissons Ratio (x) = 0.81441 1.48072
# Poissons Ratio (y) = 0.14719 0.48537
# Poissons Ratio (z) = 0.15120 0.27424
#
# Static dielectric constant tensor:
#      x y z
#    x 1.624740 0.000000 0.000000 
#    y 0.000000 1.658540 0.000000 
#    z 0.000000 0.000000 1.633900 
# 
# From -- ./inp_files/23254.got.cif
#   From: 2010.05.17/outbox.cif.g08.bks.cpg/sg38_12_cif.got.tgz:23254.got - 2010.06.03 18:07:57.
