data_PCOD9359199
_publ_section_title
;
Structure prediction by ZEFSAII (Michael W. Deem and Ramdas Pophale) SiO2 
 PCOD9359199
Probable space group: A M M 2
;
_chemical_formula_sum "Si O2"
_cell_formula_units_Z 64
_cell_length_a 9.058413
_cell_length_b 28.891584
_cell_length_c 13.029811
_cell_angle_alpha 90.000000
_cell_angle_beta 90.000000
_cell_angle_gamma 90.000000
_cell_volume 3410.056595
_symmetry_space_group_name_H-M "A M M 2"
_symmetry_group_IT_number 38
_symmetry_cell_setting 'orthorhombic'
loop_
_space_group_symop_operation_xyz
x,y,z
-x,-y,z
-x,y,z
x,-y,z
x,1/2+y,1/2+z
-x,1/2-y,1/2+z
-x,1/2+y,1/2+z
x,1/2-y,1/2+z
loop_
_atom_site_type_symbol
_atom_site_label
_atom_site_fract_x
_atom_site_fract_y
_atom_site_fract_z
Si Si1 0.677158 0.380529 0.674240
Si Si2 0.174170 0.944610 0.009000
Si Si3 0.174178 0.613599 0.115988
Si Si4 0.327749 0.250461 0.882267
Si Si5 0.836223 0.782570 0.696113
Si Si6 0.678166 0.641995 0.907083
Si Si7 0.166281 0.301184 0.547889
Si Si8 0.673999 0.555721 0.294645
O O1 0.500000 0.381377 0.666652
O O2 0.747540 0.421244 0.606323
O O3 0.715960 0.379104 0.795224
O O4 0.741790 0.334643 0.620834
O O5 0.000000 0.933985 0.007934
O O6 0.191307 0.000000 0.014846
O O7 0.247796 0.929179 0.901171
O O8 0.189308 0.665003 0.163968
O O9 0.252746 0.579167 0.195480
O O10 0.000000 0.603101 0.108167
O O11 0.246440 0.616737 0.003122
O O12 0.500000 0.248490 0.905562
O O13 0.290692 0.238636 0.765764
O O14 0.278782 0.303348 0.904702
O O15 0.245939 0.209575 0.942337
O O16 0.841541 0.749355 0.598599
O O17 0.000000 0.778845 0.746471
O O18 0.500000 0.640089 0.918227
O O19 0.000000 0.319194 0.535876
O O20 0.500000 0.566773 0.299315
O O21 0.689535 0.500000 0.287694
#
# Coordination Sequence:
#
# PCOD9359199 Si02
#       8
#     8   8   8   8   8   8   8   8
#     4  11  23  40  61  89 120 156 203 246 296 354
#     4  10  22  42  67  94 122 152 190 240 299 357
#     4  11  23  39  61  89 119 156 202 247 297 353
#     4  11  22  36  55  79 113 156 201 248 293 342
#     4  10  22  37  54  80 115 156 198 241 291 347
#     4  10  22  39  58  83 119 160 202 247 295 349
#     4  11  22  37  56  81 117 157 199 244 292 346
#     4  10  22  42  67  93 121 154 192 239 298 357
#
# _framework density 18.768017
#
# number of rings (size 3 to 8) (size 9 to 14) (size 15 to 20)
#    0.000    1.500    2.500    2.250    1.750    4.500 
#    0.000    0.625    0.000    0.750    0.000    0.000 
#    0.000    0.000    0.000    0.000    0.000    0.000 
#
# Total GULP energy -178629.629688 kJ/mol
# GULP energy per Si atom -5582.175928 kJ/mol
# Density = 1.872530 g / cm^3
# Si number density = 18.768017 Si / 1000 Ang^3
#
#
#
# Elastic Constant Matrix: (Units=GPa)
#
#
# Indices 1 2 3 4 5 6 
#
# 1 96.6624 44.0916 67.3027 0.0000 0.0000 0.0000
# 2 44.0916 55.2752 42.6688 0.0000 0.0000 0.0000
# 3 67.3027 42.6688 122.2018 0.0000 0.0000 0.0000
# 4 0.0000 0.0000 0.0000 33.5208 0.0000 0.0000
# 5 0.0000 0.0000 0.0000 0.0000 34.5108 0.0000
# 6 0.0000 0.0000 0.0000 0.0000 0.0000 26.9025
#
#
#
# Elastic Compliance Matrix: (Units=1/GPa)
#
#
# Indices 1 2 3 4 5 6 
#
# 1 0.020369 -0.010388 -0.007591 0.000000 0.000000 0.000000
# 2 -0.010388 0.030065 -0.004776 0.000000 0.000000 0.000000
# 3 -0.007591 -0.004776 0.014032 0.000000 0.000000 0.000000
# 4 0.000000 0.000000 0.000000 0.029832 0.000000 0.000000
# 5 0.000000 0.000000 0.000000 0.000000 0.028976 0.000000
# 6 0.000000 0.000000 0.000000 0.000000 0.000000 0.037171
#
#
# Mechanical properties :
#
#
# Convention : Reuss Voigt Hill
#
# Bulk Modulus (GPa) = 52.75815 64.69618 58.72717
# Shear Modulus (GPa) = 23.55439 26.99192 25.27315
#
# Velocity S-wave (km/s) = 3.54648 3.79646 3.67360
# Velocity P-wave (km/s) = 6.70386 7.33238 7.02515
#
# Compressibility (1/GPa) = 0.01895442
#
# Stress axis : x y z
#
# Youngs Moduli (GPa) = 49.09385 33.26169 71.26694
#
# Poissons Ratio (x) = 0.34552 0.54100
# Poissons Ratio (y) = 0.50999 0.34039
# Poissons Ratio (z) = 0.37268 0.15887
#
# Static dielectric constant tensor:
#      x y z
#    x 1.665080 0.000000 0.000000 
#    y 0.000000 1.639510 0.000000 
#    z 0.000000 0.000000 1.641240 
# 
# From -- ./inp_files/8646.got.cif
#   From: 2010.05.17/outbox.cif.g08.bks.cpg/sg38_5_cif.got.tgz:8646.got - 2010.06.03 18:07:57.
