data_PCOD9359906
_publ_section_title
;
Structure prediction by ZEFSAII (Michael W. Deem and Ramdas Pophale) SiO2 
 PCOD9359906
Probable space group: A B M 2
;
_chemical_formula_sum "Si O2"
_cell_formula_units_Z 52
_cell_length_a 22.175105
_cell_length_b 7.550616
_cell_length_c 14.351213
_cell_angle_alpha 90.000000
_cell_angle_beta 90.000000
_cell_angle_gamma 90.000000
_cell_volume 2402.905432
_symmetry_space_group_name_H-M "A B M 2"
_symmetry_group_IT_number 39
_symmetry_cell_setting 'orthorhombic'
loop_
_space_group_symop_operation_xyz
x,y,z
-x,-y,z
-x,1/2+y,z
x,1/2-y,z
x,1/2+y,1/2+z
-x,1/2-y,1/2+z
-x,y,1/2+z
x,-y,1/2+z
loop_
_atom_site_type_symbol
_atom_site_label
_atom_site_fract_x
_atom_site_fract_y
_atom_site_fract_z
Si Si1 0.597130 0.040864 0.189640
Si Si2 0.500000 0.500000 0.831825
Si Si3 0.399032 0.533381 0.971895
Si Si4 0.067256 0.460825 0.951728
Si Si5 0.701230 0.963596 0.328738
Si Si6 0.933085 0.962716 0.163323
Si Si7 0.164545 0.044845 0.303442
O O1 0.580436 0.250000 0.195566
O O2 0.549518 0.938271 0.254757
O O3 0.661566 0.018965 0.239538
O O4 0.597647 0.989526 0.081155
O O5 0.450327 0.441764 0.909102
O O6 0.407630 0.750000 0.963689
O O7 0.336040 0.485891 0.921693
O O8 0.074973 0.250000 0.951499
O O9 0.069011 0.528465 0.057581
O O10 0.000000 0.500000 0.915514
O O11 0.121243 0.539514 0.892561
O O12 0.702477 0.750000 0.330391
O O13 0.769448 0.031834 0.322116
O O14 0.927957 0.750000 0.161531
O O15 0.877974 0.035550 0.223484
O O16 0.000000 0.000000 0.200926
O O17 0.174972 0.250000 0.277780
#
# Coordination Sequence:
#
# PCOD9359906 Si02
#       7
#     8   4   8   8   8   8   8
#     4  10  20  34  54  78 103 133 172 214 251 298
#     4  10  18  32  52  78 106 134 166 208 256 306
#     4   9  18  33  51  73 103 136 168 207 257 306
#     4  10  20  34  52  76 104 133 167 212 261 308
#     4   9  20  37  53  72 104 141 173 209 257 309
#     4   9  19  34  51  73 102 132 167 211 259 310
#     4  10  20  35  54  75 101 137 176 212 255 307
#
# _framework density 21.640467999999998
#
# number of rings (size 3 to 8) (size 9 to 14) (size 15 to 20)
#    0.000    2.462    0.000    1.846    0.000    4.923 
#    0.000    3.846    0.000    0.000    0.000    0.000 
#    0.000    0.000    0.000    0.000    0.000    0.000 
#
# Total GULP energy -144837.149245 kJ/mol
# GULP energy per Si atom -5570.659586 kJ/mol
# Density = 2.159121 g / cm^3
# Si number density = 21.640468 Si / 1000 Ang^3
#
#
#
# Elastic Constant Matrix: (Units=GPa)
#
#
# Indices 1 2 3 4 5 6 
#
# 1 212.1958 4.1191 90.2802 0.0000 0.0000 0.0000
# 2 4.1191 63.6683 3.5702 0.0000 0.0000 0.0000
# 3 90.2802 3.5702 190.1570 0.0000 0.0000 0.0000
# 4 0.0000 0.0000 0.0000 -18.6224 0.0000 0.0000
# 5 0.0000 0.0000 0.0000 0.0000 21.8314 0.0000
# 6 0.0000 0.0000 0.0000 0.0000 0.0000 61.0400
#
#
#
# Elastic Compliance Matrix: (Units=1/GPa)
#
#
# Indices 1 2 3 4 5 6 
#
# 1 0.005909 -0.000225 -0.002801 0.000000 0.000000 0.000000
# 2 -0.000225 0.015732 -0.000188 0.000000 0.000000 0.000000
# 3 -0.002801 -0.000188 0.006592 0.000000 0.000000 0.000000
# 4 0.000000 0.000000 0.000000 -0.053699 0.000000 0.000000
# 5 0.000000 0.000000 0.000000 0.000000 0.045806 0.000000
# 6 0.000000 0.000000 0.000000 0.000000 0.000000 0.016383
#
#
# Mechanical properties :
#
#
# Convention : Reuss Voigt Hill
#
# Bulk Modulus (GPa) = 45.86508 73.55113 59.70810
# Shear Modulus (GPa) = 99.16921 37.38657 68.27789
#
# Velocity S-wave (km/s) = 6.77682 4.16098 5.62312
# Velocity P-wave (km/s) = 9.08151 7.55953 8.35525
#
# Compressibility (1/GPa) = 0.02180308
#
# Stress axis : x y z
#
# Youngs Moduli (GPa) = 169.24135 63.56657 151.69468
#
# Poissons Ratio (x) = 0.01432 0.42490
# Poissons Ratio (y) = 0.03811 0.02859
# Poissons Ratio (z) = 0.47405 0.01198
#
# Static dielectric constant tensor:
#      x y z
#    x 1.765630 0.000000 0.000000 
#    y 0.000000 1.964830 0.000000 
#    z 0.000000 0.000000 1.770320 
# 
# From -- ./inp_files/10273.got.cif
#   From: 2010.05.17/outbox.cif.g08.bks.cpg/sg39_6_cif.got.tgz:10273.got - 2010.06.03 18:22:40.
