data_PCOD9359691
_publ_section_title
;
Structure prediction by ZEFSAII (Michael W. Deem and Ramdas Pophale) SiO2 
 PCOD9359691
Probable space group: A B M 2
;
_chemical_formula_sum "Si O2"
_cell_formula_units_Z 64
_cell_length_a 27.570124
_cell_length_b 24.135436
_cell_length_c 5.284511
_cell_angle_alpha 90.000000
_cell_angle_beta 90.000000
_cell_angle_gamma 90.000000
_cell_volume 3516.403262
_symmetry_space_group_name_H-M "A B M 2"
_symmetry_group_IT_number 39
_symmetry_cell_setting 'orthorhombic'
loop_
_space_group_symop_operation_xyz
x,y,z
-x,-y,z
-x,1/2+y,z
x,1/2-y,z
x,1/2+y,1/2+z
-x,1/2-y,1/2+z
-x,y,1/2+z
x,-y,1/2+z
loop_
_atom_site_type_symbol
_atom_site_label
_atom_site_fract_x
_atom_site_fract_y
_atom_site_fract_z
Si Si1 0.630692 0.815577 0.629470
Si Si2 0.253864 0.183490 0.640162
Si Si3 0.778885 0.620102 0.137111
Si Si4 0.133830 0.962563 0.649717
Si Si5 0.689997 0.536559 0.095311
Si Si6 0.445785 0.477498 0.282776
Si Si7 0.397533 0.124198 0.125491
Si Si8 0.021065 0.062772 0.095744
O O1 0.625651 0.750000 0.660084
O O2 0.688207 0.829036 0.649910
O O3 0.611983 0.834274 0.355655
O O4 0.602909 0.846415 0.855725
O O5 0.248678 0.250000 0.631669
O O6 0.232256 0.155288 0.389156
O O7 0.229437 0.157965 0.890053
O O8 0.739504 0.570913 0.120415
O O9 0.830446 0.589653 0.144886
O O10 0.077967 0.942819 0.642751
O O11 0.141855 0.998976 0.902565
O O12 0.687859 0.492789 0.323639
O O13 0.646747 0.580500 0.125591
O O14 0.500000 0.500000 0.321845
O O15 0.422541 0.485447 0.559095
O O16 0.443215 0.414906 0.187482
O O17 0.993197 0.089620 0.330323
O O18 0.000000 0.000000 0.071723
#
# Coordination Sequence:
#
# PCOD9359691 Si02
#       8
#     8   8   8   8   8   8   8   8
#     4  11  22  38  60  86 111 147 196 247 290 323
#     4  11  22  41  59  75 106 149 197 249 282 320
#     4  12  23  37  52  81 111 150 197 220 286 341
#     4  12  21  33  51  76 114 157 180 223 271 335
#     4  12  22  34  49  75 117 154 181 216 257 328
#     4  10  21  38  59  88 117 148 191 225 272 332
#     4  12  21  37  59  85 116 151 190 233 274 331
#     4  10  16  30  49  70 101 144 185 225 265 320
#
# _framework density 18.200416000000001
#
# number of rings (size 3 to 8) (size 9 to 14) (size 15 to 20)
#    0.000    0.750    5.000    5.250    0.000    2.000 
#    0.000    0.000    0.000    0.000    0.000   35.000 
#    0.000   10.000    0.000    0.000    0.000    0.000 
#
# Total GULP energy -178806.485997 kJ/mol
# GULP energy per Si atom -5587.702687 kJ/mol
# Density = 1.815899 g / cm^3
# Si number density = 18.200416 Si / 1000 Ang^3
#
#
#
# Elastic Constant Matrix: (Units=GPa)
#
#
# Indices 1 2 3 4 5 6 
#
# 1 65.6604 20.9334 -6.6433 0.0000 0.0000 0.0000
# 2 20.9334 58.4058 23.9950 0.0000 0.0000 0.0000
# 3 -6.6433 23.9950 135.7483 0.0000 0.0000 0.0000
# 4 0.0000 0.0000 0.0000 37.3317 0.0000 0.0000
# 5 0.0000 0.0000 0.0000 0.0000 16.2472 0.0000
# 6 0.0000 0.0000 0.0000 0.0000 0.0000 17.1059
#
#
#
# Elastic Compliance Matrix: (Units=1/GPa)
#
#
# Indices 1 2 3 4 5 6 
#
# 1 0.017758 -0.007248 0.002150 0.000000 0.000000 0.000000
# 2 -0.007248 0.021421 -0.004141 0.000000 0.000000 0.000000
# 3 0.002150 -0.004141 0.008204 0.000000 0.000000 0.000000
# 4 0.000000 0.000000 0.000000 0.026787 0.000000 0.000000
# 5 0.000000 0.000000 0.000000 0.000000 0.061549 0.000000
# 6 0.000000 0.000000 0.000000 0.000000 0.000000 0.058459
#
#
# Mechanical properties :
#
#
# Convention : Reuss Voigt Hill
#
# Bulk Modulus (GPa) = 34.59636 37.37608 35.98622
# Shear Modulus (GPa) = 22.49303 28.90558 25.69930
#
# Velocity S-wave (km/s) = 3.51928 3.98952 3.76176
# Velocity P-wave (km/s) = 5.96352 6.46546 6.21956
#
# Compressibility (1/GPa) = 0.02890477
#
# Stress axis : x y z
#
# Youngs Moduli (GPa) = 56.31182 46.68384 121.89507
#
# Poissons Ratio (x) = 0.33837 -0.26210
# Poissons Ratio (y) = 0.40816 0.50477
# Poissons Ratio (z) = -0.12108 0.19332
#
# Static dielectric constant tensor:
#      x y z
#    x 1.664580 0.000000 0.000000 
#    y 0.000000 1.532120 0.000000 
#    z 0.000000 0.000000 1.695610 
# 
# From -- ./inp_files/1453.got.cif
#   From: 2010.05.17/outbox.cif.g08.bks.cpg/sg39_1_cif.got.tgz:1453.got - 2010.06.03 18:22:40.
