data_PCOD9359771
_publ_section_title
;
Structure prediction by ZEFSAII (Michael W. Deem and Ramdas Pophale) SiO2 
 PCOD9359771
Probable space group: A B M 2
;
_chemical_formula_sum "Si O2"
_cell_formula_units_Z 64
_cell_length_a 12.637589
_cell_length_b 15.875599
_cell_length_c 17.597121
_cell_angle_alpha 90.000000
_cell_angle_beta 90.000000
_cell_angle_gamma 90.000000
_cell_volume 3530.497985
_symmetry_space_group_name_H-M "A B M 2"
_symmetry_group_IT_number 39
_symmetry_cell_setting 'orthorhombic'
loop_
_space_group_symop_operation_xyz
x,y,z
-x,-y,z
-x,1/2+y,z
x,1/2-y,z
x,1/2+y,1/2+z
-x,1/2-y,1/2+z
-x,y,1/2+z
x,-y,1/2+z
loop_
_atom_site_type_symbol
_atom_site_label
_atom_site_fract_x
_atom_site_fract_y
_atom_site_fract_z
Si Si1 0.888799 0.466535 0.429380
Si Si2 0.387598 0.461348 0.738843
Si Si3 0.277377 0.150058 0.862641
Si Si4 0.599877 0.654285 0.591567
Si Si5 0.623990 0.847992 0.029096
Si Si6 0.942082 0.654068 0.072088
Si Si7 0.823509 0.098240 0.049200
Si Si8 0.227668 0.558358 0.649870
O O1 0.824663 0.410122 0.370675
O O2 0.909813 0.404793 0.501282
O O3 0.834005 0.547162 0.469775
O O4 0.000000 0.500000 0.398689
O O5 0.500000 0.500000 0.762252
O O6 0.347286 0.391345 0.797246
O O7 0.404437 0.412997 0.659091
O O8 0.297555 0.532958 0.723060
O O9 0.256503 0.250000 0.851213
O O10 0.334911 0.139528 0.944081
O O11 0.587178 0.750000 0.620626
O O12 0.500722 0.635792 0.537191
O O13 0.713700 0.647537 0.551756
O O14 0.642037 0.750000 0.048572
O O15 0.689507 0.903043 0.088874
O O16 0.910168 0.750000 0.058643
O O17 0.875480 0.618933 0.144402
O O18 0.069304 0.647368 0.070284
O O19 0.814180 0.028809 0.115400
#
# Coordination Sequence:
#
# PCOD9359771 Si02
#       8
#     8   8   8   8   8   8   8   8
#     4   9  18  33  53  82 112 148 186 234 290 340
#     4  11  23  38  53  80 118 155 187 230 297 351
#     4  11  22  38  58  87 115 150 195 242 289 345
#     4  10  20  35  54  80 113 152 189 233 285 342
#     4  10  19  33  59  84 106 139 189 238 279 330
#     4  10  17  30  54  86 114 141 186 242 284 327
#     4   9  18  29  52  82 115 144 183 237 287 326
#     4  10  18  34  54  79 110 143 188 227 279 336
#
# _framework density 18.127753999999999
#
# number of rings (size 3 to 8) (size 9 to 14) (size 15 to 20)
#    0.000    2.000    3.750    2.625    0.000    1.000 
#    0.000    2.500    0.000    0.000    0.000   11.375 
#    0.000    0.000    0.000    0.000    0.000    0.000 
#
# Total GULP energy -178248.836443 kJ/mol
# GULP energy per Si atom -5570.276139 kJ/mol
# Density = 1.808649 g / cm^3
# Si number density = 18.127754 Si / 1000 Ang^3
#
#
#
# Elastic Constant Matrix: (Units=GPa)
#
#
# Indices 1 2 3 4 5 6 
#
# 1 125.8913 42.5424 20.9206 0.0000 0.0000 0.0000
# 2 42.5424 84.9513 24.3353 0.0000 0.0000 0.0000
# 3 20.9206 24.3353 33.4717 0.0000 0.0000 0.0000
# 4 0.0000 0.0000 0.0000 19.2050 0.0000 0.0000
# 5 0.0000 0.0000 0.0000 0.0000 17.5592 0.0000
# 6 0.0000 0.0000 0.0000 0.0000 0.0000 7.6132
#
#
#
# Elastic Compliance Matrix: (Units=1/GPa)
#
#
# Indices 1 2 3 4 5 6 
#
# 1 0.009832 -0.003996 -0.003240 0.000000 0.000000 0.000000
# 2 -0.003996 0.016492 -0.009493 0.000000 0.000000 0.000000
# 3 -0.003240 -0.009493 0.038803 0.000000 0.000000 0.000000
# 4 0.000000 0.000000 0.000000 0.052070 0.000000 0.000000
# 5 0.000000 0.000000 0.000000 0.000000 0.056950 0.000000
# 6 0.000000 0.000000 0.000000 0.000000 0.000000 0.131351
#
#
# Mechanical properties :
#
#
# Convention : Reuss Voigt Hill
#
# Bulk Modulus (GPa) = 31.57636 46.65677 39.11656
# Shear Modulus (GPa) = 14.30570 19.30988 16.80779
#
# Velocity S-wave (km/s) = 2.81225 3.26730 3.04828
# Velocity P-wave (km/s) = 5.29165 6.32671 5.83219
#
# Compressibility (1/GPa) = 0.03166927
#
# Stress axis : x y z
#
# Youngs Moduli (GPa) = 101.70825 60.63661 25.77125
#
# Poissons Ratio (x) = 0.24227 0.08351
# Poissons Ratio (y) = 0.40638 0.24464
# Poissons Ratio (z) = 0.32957 0.57561
#
# Static dielectric constant tensor:
#      x y z
#    x 1.680740 0.000000 0.000000 
#    y 0.000000 1.631840 0.000000 
#    z 0.000000 0.000000 1.600720 
# 
# From -- ./inp_files/12335.got.cif
#   From: 2010.05.17/outbox.cif.g08.bks.cpg/sg39_7_cif.got.tgz:12335.got - 2010.06.03 18:22:40.
