data_PCOD9359512
_publ_section_title
;
Structure prediction by ZEFSAII (Michael W. Deem and Ramdas Pophale) SiO2 
 PCOD9359512
Probable space group: A M M 2
;
_chemical_formula_sum "Si O2"
_cell_formula_units_Z 56
_cell_length_a 7.452109
_cell_length_b 10.103748
_cell_length_c 37.559601
_cell_angle_alpha 90.000000
_cell_angle_beta 90.000000
_cell_angle_gamma 90.000000
_cell_volume 2828.021289
_symmetry_space_group_name_H-M "A M M 2"
_symmetry_group_IT_number 38
_symmetry_cell_setting 'orthorhombic'
loop_
_space_group_symop_operation_xyz
x,y,z
-x,-y,z
-x,y,z
x,-y,z
x,1/2+y,1/2+z
-x,1/2-y,1/2+z
-x,1/2+y,1/2+z
x,1/2-y,1/2+z
loop_
_atom_site_type_symbol
_atom_site_label
_atom_site_fract_x
_atom_site_fract_y
_atom_site_fract_z
Si Si1 0.215292 0.150495 0.618640
Si Si2 0.712148 0.849206 0.258945
Si Si3 0.218991 0.848232 0.057815
Si Si4 0.285514 0.849548 0.699461
Si Si5 0.781188 0.347860 0.477282
Si Si6 0.219135 0.345851 0.915033
Si Si7 0.215483 0.653152 0.837071
O O1 0.282355 0.248704 0.588193
O O2 0.253764 0.195107 0.658910
O O3 0.000000 0.145359 0.615126
O O4 0.283525 0.000000 0.614793
O O5 0.500000 0.860854 0.252541
O O6 0.786103 0.752359 0.228735
O O7 0.732113 0.790666 0.298794
O O8 0.786255 0.000000 0.258184
O O9 0.000000 0.846984 0.058153
O O10 0.273424 0.000000 0.064482
O O11 0.273457 0.811804 0.017550
O O12 0.500000 0.857013 0.704311
O O13 0.215022 0.000000 0.702964
O O14 0.727310 0.500000 0.470495
O O15 0.719424 0.246875 0.447074
O O16 0.000000 0.346285 0.476868
O O17 0.272328 0.500000 0.918945
O O18 0.274880 0.295211 0.875674
O O19 0.000000 0.345354 0.915508
O O20 0.276844 0.500000 0.836235
O O21 0.000000 0.653406 0.837657
#
# Coordination Sequence:
#
# PCOD9359512 Si02
#       7
#     8   8   8   8   8   8   8
#     4   9  17  28  42  61  83 105 132 167 201 233
#     4   9  17  29  45  63  80 101 134 171 199 230
#     4   8  14  24  37  55  81 110 135 161 198 240
#     4   9  18  32  46  59  80 109 134 159 199 246
#     4   8  13  21  33  51  78 108 132 157 193 233
#     4   8  13  21  34  52  74 102 134 163 191 228
#     4   8  14  25  40  59  84 109 131 161 203 242
#
# _framework density 19.801832000000001
#
# number of rings (size 3 to 8) (size 9 to 14) (size 15 to 20)
#    0.000    3.571    0.000    1.714    0.000    1.714 
#    0.000    3.571    0.000    0.857    0.000    1.000 
#    0.000    5.714    0.000    0.000    0.000    0.000 
#
# Total GULP energy -155981.988237 kJ/mol
# GULP energy per Si atom -5570.785294 kJ/mol
# Density = 1.975676 g / cm^3
# Si number density = 19.801832 Si / 1000 Ang^3
#
#
#
# Elastic Constant Matrix: (Units=GPa)
#
#
# Indices 1 2 3 4 5 6 
#
# 1 57.8686 4.3251 1.5851 0.0000 0.0000 0.0000
# 2 4.3251 90.2850 123.6475 0.0000 0.0000 0.0000
# 3 1.5851 123.6475 229.8436 0.0000 0.0000 0.0000
# 4 0.0000 0.0000 0.0000 36.8611 0.0000 0.0000
# 5 0.0000 0.0000 0.0000 0.0000 33.4582 0.0000
# 6 0.0000 0.0000 0.0000 0.0000 0.0000 -5.3991
#
#
#
# Elastic Compliance Matrix: (Units=1/GPa)
#
#
# Indices 1 2 3 4 5 6 
#
# 1 0.017437 -0.002548 0.001250 0.000000 0.000000 0.000000
# 2 -0.002548 0.042447 -0.022817 0.000000 0.000000 0.000000
# 3 0.001250 -0.022817 0.016617 0.000000 0.000000 0.000000
# 4 0.000000 0.000000 0.000000 0.027129 0.000000 0.000000
# 5 0.000000 0.000000 0.000000 0.000000 0.029888 0.000000
# 6 0.000000 0.000000 0.000000 0.000000 0.000000 -0.185215
#
#
# Mechanical properties :
#
#
# Convention : Reuss Voigt Hill
#
# Bulk Modulus (GPa) = 35.37137 70.79031 53.08084
# Shear Modulus (GPa) = 839.47435 29.54666 434.51051
#
# Velocity S-wave (km/s) = 20.61209 3.86698 14.82922
# Velocity P-wave (km/s) = 24.17393 7.46760 17.89056
#
# Compressibility (1/GPa) = 0.02827145
#
# Stress axis : x y z
#
# Youngs Moduli (GPa) = 57.35033 23.55876 60.17899
#
# Poissons Ratio (x) = 0.06002 -0.07524
# Poissons Ratio (y) = 0.14610 1.37313
# Poissons Ratio (z) = -0.07170 0.53755
#
# Static dielectric constant tensor:
#      x y z
#    x 1.749760 0.000000 0.000000 
#    y 0.000000 1.680390 0.000000 
#    z 0.000000 0.000000 1.698910 
# 
# From -- ./inp_files/23829.got.cif
#   From: 2010.05.17/outbox.cif.g08.bks.cpg/sg38_12_cif.got.tgz:23829.got - 2010.06.03 18:07:57.
