data_PCOD9359365
_publ_section_title
;
Structure prediction by ZEFSAII (Michael W. Deem and Ramdas Pophale) SiO2 
 PCOD9359365
Probable space group: A M M 2
;
_chemical_formula_sum "Si O2"
_cell_formula_units_Z 34
_cell_length_a 7.573525
_cell_length_b 18.449970
_cell_length_c 9.662191
_cell_angle_alpha 90.000000
_cell_angle_beta 90.000000
_cell_angle_gamma 90.000000
_cell_volume 1350.110597
_symmetry_space_group_name_H-M "A M M 2"
_symmetry_group_IT_number 38
_symmetry_cell_setting 'orthorhombic'
loop_
_space_group_symop_operation_xyz
x,y,z
-x,-y,z
-x,y,z
x,-y,z
x,1/2+y,1/2+z
-x,1/2-y,1/2+z
-x,1/2+y,1/2+z
x,1/2-y,1/2+z
loop_
_atom_site_type_symbol
_atom_site_label
_atom_site_fract_x
_atom_site_fract_y
_atom_site_fract_z
Si Si1 0.797342 0.880059 0.340990
Si Si2 0.287845 0.213753 0.847393
Si Si3 0.706130 0.580793 0.535513
Si Si4 0.207917 0.102682 0.644193
Si Si5 0.500000 0.000000 0.764851
O O1 0.786674 0.793749 0.362370
O O2 0.707839 0.903135 0.199183
O O3 0.732869 0.911085 0.487018
O O4 0.000000 0.902353 0.326082
O O5 0.500000 0.219329 0.859461
O O6 0.233402 0.184840 0.695826
O O7 0.222888 0.152071 0.956398
O O8 0.500000 0.572474 0.494555
O O9 0.785732 0.500000 0.513341
O O10 0.342567 0.060959 0.741238
O O11 0.000000 0.084842 0.657111
#
# Coordination Sequence:
#
# PCOD9359365 Si02
#       5
#     8   8   8   8   2
#     4  11  25  43  65  98 137 178 228 282 340 410
#     4  11  23  42  71 100 134 180 228 279 346 413
#     4  10  24  42  68 100 134 172 225 283 346 411
#     4  11  26  44  70 102 134 177 231 279 336 410
#     4  12  26  44  68  96 140 184 220 286 336 398
#
# _framework density 25.183122000000001
#
# number of rings (size 3 to 8) (size 9 to 14) (size 15 to 20)
#    0.000    1.176    1.176    3.176    6.588    6.118 
#    0.000    0.000    0.000    0.000    0.000    0.000 
#    0.000    0.000    0.000    0.000    0.000    0.000 
#
# Total GULP energy -94877.972023 kJ/mol
# GULP energy per Si atom -5581.057178 kJ/mol
# Density = 2.512580 g / cm^3
# Si number density = 25.183122 Si / 1000 Ang^3
#
#
#
# Elastic Constant Matrix: (Units=GPa)
#
#
# Indices 1 2 3 4 5 6 
#
# 1 94.7329 -5.1338 9.1890 0.0000 0.0000 0.0000
# 2 -5.1338 117.2672 21.9437 0.0000 0.0000 0.0000
# 3 9.1890 21.9437 146.3568 0.0000 0.0000 0.0000
# 4 0.0000 0.0000 0.0000 100.8894 0.0000 0.0000
# 5 0.0000 0.0000 0.0000 0.0000 47.2657 0.0000
# 6 0.0000 0.0000 0.0000 0.0000 0.0000 -30.5279
#
#
#
# Elastic Compliance Matrix: (Units=1/GPa)
#
#
# Indices 1 2 3 4 5 6 
#
# 1 0.010663 0.000609 -0.000761 0.000000 0.000000 0.000000
# 2 0.000609 0.008808 -0.001359 0.000000 0.000000 0.000000
# 3 -0.000761 -0.001359 0.007084 0.000000 0.000000 0.000000
# 4 0.000000 0.000000 0.000000 0.009912 0.000000 0.000000
# 5 0.000000 0.000000 0.000000 0.000000 0.021157 0.000000
# 6 0.000000 0.000000 0.000000 0.000000 0.000000 -0.032757
#
#
# Mechanical properties :
#
#
# Convention : Reuss Voigt Hill
#
# Bulk Modulus (GPa) = 42.49116 45.59497 44.04306
# Shear Modulus (GPa) = 139.92596 45.68266 92.80431
#
# Velocity S-wave (km/s) = 7.46217 4.26375 6.07715
# Velocity P-wave (km/s) = 9.54750 6.51031 8.17126
#
# Compressibility (1/GPa) = 0.02353431
#
# Stress axis : x y z
#
# Youngs Moduli (GPa) = 93.78396 113.52684 141.16061
#
# Poissons Ratio (x) = -0.06916 0.10739
# Poissons Ratio (y) = -0.05713 0.19183
# Poissons Ratio (z) = 0.07135 0.15427
#
# Static dielectric constant tensor:
#      x y z
#    x 1.905500 0.000000 0.000000 
#    y 0.000000 1.830680 0.000000 
#    z 0.000000 0.000000 2.112390 
# 
# From -- ./inp_files/3139.got.cif
#   From: 2010.05.17/outbox.cif.g08.bks.cpg/sg38_2_cif.got.tgz:3139.got - 2010.06.03 18:07:57.
