data_PCOD9359859
_publ_section_title
;
Structure prediction by ZEFSAII (Michael W. Deem and Ramdas Pophale) SiO2 
 PCOD9359859
Probable space group: A B M 2
;
_chemical_formula_sum "Si O2"
_cell_formula_units_Z 56
_cell_length_a 18.575211
_cell_length_b 8.522965
_cell_length_c 19.691777
_cell_angle_alpha 90.000000
_cell_angle_beta 90.000000
_cell_angle_gamma 90.000000
_cell_volume 3117.520871
_symmetry_space_group_name_H-M "A B M 2"
_symmetry_group_IT_number 39
_symmetry_cell_setting 'orthorhombic'
loop_
_space_group_symop_operation_xyz
x,y,z
-x,-y,z
-x,1/2+y,z
x,1/2-y,z
x,1/2+y,1/2+z
-x,1/2-y,1/2+z
-x,y,1/2+z
x,-y,1/2+z
loop_
_atom_site_type_symbol
_atom_site_label
_atom_site_fract_x
_atom_site_fract_y
_atom_site_fract_z
Si Si1 0.919125 0.439603 0.378010
Si Si2 0.183848 0.929354 0.262518
Si Si3 0.579520 0.064504 0.147687
Si Si4 0.572622 0.569531 0.296993
Si Si5 0.197567 0.938208 0.982413
Si Si6 0.306215 0.427128 0.877856
Si Si7 0.741227 0.058524 0.126104
O O1 0.916492 0.250000 0.377249
O O2 0.881400 0.498189 0.307548
O O3 0.871683 0.497222 0.442069
O O4 0.000000 0.500000 0.382726
O O5 0.162706 0.750000 0.244792
O O6 0.247542 0.922155 0.317639
O O7 0.218780 0.000334 0.194503
O O8 0.576525 0.250000 0.136575
O O9 0.657238 0.005842 0.119056
O O10 0.500000 0.000000 0.126889
O O11 0.586693 0.027361 0.228127
O O12 0.500000 0.500000 0.326817
O O13 0.564416 0.750000 0.277526
O O14 0.633859 0.543797 0.351483
O O15 0.197653 0.750000 0.976322
O O16 0.265520 0.010731 0.943239
O O17 0.209971 0.979438 0.061024
O O18 0.334031 0.250000 0.886916
O O19 0.736948 0.250000 0.131415
#
# Coordination Sequence:
#
# PCOD9359859 Si02
#       7
#     8   8   8   8   8   8   8
#     4  10  20  36  59  82 108 140 177 219 270 327
#     4   8  15  30  54  78  99 132 173 212 260 311
#     4  10  18  31  50  74 105 143 184 223 275 322
#     4  11  20  30  47  74 103 135 178 228 279 322
#     4  10  20  34  55  81 109 141 181 219 264 324
#     4  10  18  33  53  73 102 138 177 220 265 317
#     4   9  17  32  54  78 107 145 181 221 270 320
#
# _framework density 17.962990999999999
#
# number of rings (size 3 to 8) (size 9 to 14) (size 15 to 20)
#    0.000    2.286    1.429    4.714    0.000    0.000 
#    0.000    4.286    0.000    3.429    0.000    0.000 
#    0.000    0.000    0.000    0.000    0.000    0.000 
#
# Total GULP energy -155910.977609 kJ/mol
# GULP energy per Si atom -5568.249200 kJ/mol
# Density = 1.792211 g / cm^3
# Si number density = 17.962991 Si / 1000 Ang^3
#
#
#
# Elastic Constant Matrix: (Units=GPa)
#
#
# Indices 1 2 3 4 5 6 
#
# 1 111.0225 10.7182 41.7565 0.0000 0.0000 0.0000
# 2 10.7182 38.6854 14.2562 0.0000 0.0000 0.0000
# 3 41.7565 14.2562 96.2105 0.0000 0.0000 0.0000
# 4 0.0000 0.0000 0.0000 15.5457 0.0000 0.0000
# 5 0.0000 0.0000 0.0000 0.0000 38.5612 0.0000
# 6 0.0000 0.0000 0.0000 0.0000 0.0000 23.4506
#
#
#
# Elastic Compliance Matrix: (Units=1/GPa)
#
#
# Indices 1 2 3 4 5 6 
#
# 1 0.010830 -0.001342 -0.004501 0.000000 0.000000 0.000000
# 2 -0.001342 0.027509 -0.003494 0.000000 0.000000 0.000000
# 3 -0.004501 -0.003494 0.012865 0.000000 0.000000 0.000000
# 4 0.000000 0.000000 0.000000 0.064326 0.000000 0.000000
# 5 0.000000 0.000000 0.000000 0.000000 0.025933 0.000000
# 6 0.000000 0.000000 0.000000 0.000000 0.000000 0.042643
#
#
# Mechanical properties :
#
#
# Convention : Reuss Voigt Hill
#
# Bulk Modulus (GPa) = 30.74096 42.15337 36.44717
# Shear Modulus (GPa) = 23.40571 27.45733 25.43152
#
# Velocity S-wave (km/s) = 3.61362 3.91391 3.76676
# Velocity P-wave (km/s) = 5.87892 6.62892 6.26515
#
# Compressibility (1/GPa) = 0.03252989
#
# Stress axis : x y z
#
# Youngs Moduli (GPa) = 92.33835 36.35197 77.72868
#
# Poissons Ratio (x) = 0.04877 0.34989
# Poissons Ratio (y) = 0.12389 0.27158
# Poissons Ratio (z) = 0.41566 0.12701
#
# Static dielectric constant tensor:
#      x y z
#    x 1.625470 0.000000 0.000000 
#    y 0.000000 1.631520 0.000000 
#    z 0.000000 0.000000 1.603300 
# 
# From -- ./inp_files/14953.got.cif
#   From: 2010.05.17/outbox.cif.g08.bks.cpg/sg39_8_cif.got.tgz:14953.got - 2010.06.03 18:22:40.
