data_PCOD9359818
_publ_section_title
;
Structure prediction by ZEFSAII (Michael W. Deem and Ramdas Pophale) SiO2 
 PCOD9359818
Probable space group: A B M 2
;
_chemical_formula_sum "Si O2"
_cell_formula_units_Z 56
_cell_length_a 18.539643
_cell_length_b 8.910725
_cell_length_c 18.893297
_cell_angle_alpha 90.000000
_cell_angle_beta 90.000000
_cell_angle_gamma 90.000000
_cell_volume 3121.204034
_symmetry_space_group_name_H-M "A B M 2"
_symmetry_group_IT_number 39
_symmetry_cell_setting 'orthorhombic'
loop_
_space_group_symop_operation_xyz
x,y,z
-x,-y,z
-x,1/2+y,z
x,1/2-y,z
x,1/2+y,1/2+z
-x,1/2-y,1/2+z
-x,y,1/2+z
x,-y,1/2+z
loop_
_atom_site_type_symbol
_atom_site_label
_atom_site_fract_x
_atom_site_fract_y
_atom_site_fract_z
Si Si1 0.078135 0.572489 0.269540
Si Si2 0.075775 0.427222 0.938899
Si Si3 0.692726 0.926630 0.119932
Si Si4 0.316062 0.579769 0.890051
Si Si5 0.796465 0.418465 0.018877
Si Si6 0.578838 0.930122 0.997685
Si Si7 0.241704 0.070057 0.754220
O O1 0.071875 0.750000 0.254727
O O2 0.086611 0.552063 0.354502
O O3 0.157423 0.520436 0.241454
O O4 0.000000 0.500000 0.249408
O O5 0.078748 0.250000 0.952690
O O6 0.132448 0.516464 0.984956
O O7 0.000000 0.500000 0.955995
O O8 0.687474 0.750000 0.134713
O O9 0.705334 0.017813 0.191542
O O10 0.626855 0.969918 0.067421
O O11 0.763406 0.967086 0.074612
O O12 0.336688 0.750000 0.869582
O O13 0.259181 0.589461 0.953969
O O14 0.382113 0.492453 0.926966
O O15 0.275618 0.498042 0.825797
O O16 0.804485 0.250000 0.048836
O O17 0.576156 0.750000 0.994167
O O18 0.500000 0.000000 0.003938
O O19 0.239826 0.250000 0.759918
#
# Coordination Sequence:
#
# PCOD9359818 Si02
#       7
#     8   8   8   8   8   8   8
#     4   9  19  32  50  76 108 146 187 233 285 335
#     4  10  18  30  48  74 106 140 182 233 286 334
#     4  10  22  38  57  82 112 149 187 228 279 338
#     4  10  20  34  57  85 112 143 183 226 274 329
#     4  10  19  33  53  78 105 140 183 229 276 330
#     4  10  21  39  63  88 116 146 182 226 277 336
#     4  11  21  36  56  83 116 150 191 239 285 334
#
# _framework density 17.941794999999999
#
# number of rings (size 3 to 8) (size 9 to 14) (size 15 to 20)
#    0.000    2.000    1.429    2.571    0.000    4.571 
#    0.000    1.429    0.000    3.429    0.000    0.000 
#    0.000    0.000    0.000    0.000    0.000    0.000 
#
# Total GULP energy -156058.875307 kJ/mol
# GULP energy per Si atom -5573.531261 kJ/mol
# Density = 1.790096 g / cm^3
# Si number density = 17.941795 Si / 1000 Ang^3
#
#
#
# Elastic Constant Matrix: (Units=GPa)
#
#
# Indices 1 2 3 4 5 6 
#
# 1 122.4988 48.0869 27.0731 0.0000 0.0000 0.0000
# 2 48.0869 66.0717 28.1231 0.0000 0.0000 0.0000
# 3 27.0731 28.1231 53.6707 0.0000 0.0000 0.0000
# 4 0.0000 0.0000 0.0000 25.5792 0.0000 0.0000
# 5 0.0000 0.0000 0.0000 0.0000 21.7249 0.0000
# 6 0.0000 0.0000 0.0000 0.0000 0.0000 30.1089
#
#
#
# Elastic Compliance Matrix: (Units=1/GPa)
#
#
# Indices 1 2 3 4 5 6 
#
# 1 0.011567 -0.007638 -0.001832 0.000000 0.000000 0.000000
# 2 -0.007638 0.024524 -0.008997 0.000000 0.000000 0.000000
# 3 -0.001832 -0.008997 0.024271 0.000000 0.000000 0.000000
# 4 0.000000 0.000000 0.000000 0.039094 0.000000 0.000000
# 5 0.000000 0.000000 0.000000 0.000000 0.046030 0.000000
# 6 0.000000 0.000000 0.000000 0.000000 0.000000 0.033213
#
#
# Mechanical properties :
#
#
# Convention : Reuss Voigt Hill
#
# Bulk Modulus (GPa) = 42.68801 49.86747 46.27774
# Shear Modulus (GPa) = 22.37706 24.74648 23.56177
#
# Velocity S-wave (km/s) = 3.53541 3.71787 3.62779
# Velocity P-wave (km/s) = 6.36472 6.80327 6.58764
#
# Compressibility (1/GPa) = 0.02342578
#
# Stress axis : x y z
#
# Youngs Moduli (GPa) = 86.45497 40.77636 41.20164
#
# Poissons Ratio (x) = 0.31147 0.07549
# Poissons Ratio (y) = 0.66038 0.37071
# Poissons Ratio (z) = 0.15839 0.36688
#
# Static dielectric constant tensor:
#      x y z
#    x 1.604040 0.000000 0.000000 
#    y 0.000000 1.612620 0.000000 
#    z 0.000000 0.000000 1.624340 
# 
# From -- ./inp_files/14943.got.cif
#   From: 2010.05.17/outbox.cif.g08.bks.cpg/sg39_8_cif.got.tgz:14943.got - 2010.06.03 18:22:40.
