data_PCOD9359600
_publ_section_title
;
Structure prediction by ZEFSAII (Michael W. Deem and Ramdas Pophale) SiO2 
 PCOD9359600
Probable space group: A M M 2
;
_chemical_formula_sum "Si O2"
_cell_formula_units_Z 32
_cell_length_a 18.000000
_cell_length_b 21.000000
_cell_length_c 9.000000
_cell_angle_alpha 90.000000
_cell_angle_beta 90.000000
_cell_angle_gamma 90.000000
_cell_volume 3402.000000
_symmetry_space_group_name_H-M "A M M 2"
_symmetry_group_IT_number 38
_symmetry_cell_setting 'orthorhombic'
loop_
_space_group_symop_operation_xyz
x,y,z
-x,-y,z
-x,y,z
x,-y,z
x,1/2+y,1/2+z
-x,1/2-y,1/2+z
-x,1/2+y,1/2+z
x,1/2-y,1/2+z
loop_
_atom_site_type_symbol
_atom_site_label
_atom_site_fract_x
_atom_site_fract_y
_atom_site_fract_z
Si Si1 0.834699 0.273475 0.776340
Si Si2 0.793471 0.341354 0.071333
Si Si3 0.587209 0.930840 0.375152
Si Si4 0.910774 0.575383 0.235658
Si Si5 0.409636 0.696045 0.718389
Si Si6 0.341127 0.073061 0.681326
Si Si7 0.410342 0.824793 0.879051
Si Si8 0.912223 0.327015 0.488078
O O1 0.790369 0.219464 0.682953
O O2 0.871667 0.315399 0.645261
O O3 0.891641 0.231572 0.877327
O O4 0.794227 0.315614 0.902343
O O5 0.867578 0.381905 0.113874
O O6 0.727405 0.389086 0.110746
O O7 0.500000 0.932405 0.338323
O O8 0.618158 0.866809 0.302534
O O9 0.597081 0.926058 0.551713
O O10 0.619634 0.000000 0.329960
O O11 0.891680 0.500000 0.231373
O O12 0.892004 0.609419 0.393965
O O13 0.000000 0.580869 0.216330
O O14 0.500000 0.696336 0.730556
O O15 0.386413 0.763469 0.784217
O O16 0.390056 0.689887 0.547444
O O17 0.371771 0.112150 0.819653
O O18 0.322749 0.000000 0.715413
O O19 0.500000 0.831523 0.869105
O O20 0.000000 0.327598 0.514131
#
# Coordination Sequence:
#
# PCOD9359600 Si02
#       8
#     8   8   8   8   8   8   8   8
#     4   9  19  33  52  78 105 136 171 213 267 313
#     4  10  21  37  54  77 107 136 175 218 262 318
#     4   9  18  34  55  78 106 141 179 217 261 314
#     4   9  18  34  55  77 105 143 179 212 255 307
#     4   9  18  33  54  81 110 139 173 217 266 310
#     4  11  23  37  54  75 104 142 177 217 266 313
#     4  10  20  34  55  82 108 136 175 219 262 313
#     4   9  16  29  53  82 109 134 167 213 259 308
#
# _framework density 9.4062319999999993
#
# number of rings (size 3 to 8) (size 9 to 14) (size 15 to 20)
#    0.000    2.500    0.000    1.875    0.000    8.750 
#    0.000    5.000    0.000    3.000    0.000    0.000 
#    0.000    0.000    0.000    0.000    0.000    0.000 
#
# Total GULP energy -178438.752172 kJ/mol
# GULP energy per Si atom -5576.211005 kJ/mol
# Density = 0.938482 g / cm^3
# Si number density = 9.406232 Si / 1000 Ang^3
#
#
#
# Elastic Constant Matrix: (Units=GPa)
#
#
# Indices 1 2 3 4 5 6 
#
# 1 23.2994 18.0842 8.2774 0.0000 0.0000 0.0000
# 2 18.0842 120.8598 37.8129 0.0000 0.0000 0.0000
# 3 8.2774 37.8129 83.4730 0.0000 0.0000 0.0000
# 4 0.0000 0.0000 0.0000 29.5291 0.0000 0.0000
# 5 0.0000 0.0000 0.0000 0.0000 -6.1999 0.0000
# 6 0.0000 0.0000 0.0000 0.0000 0.0000 23.8276
#
#
#
# Elastic Compliance Matrix: (Units=1/GPa)
#
#
# Indices 1 2 3 4 5 6 
#
# 1 0.048786 -0.006742 -0.001784 0.000000 0.000000 0.000000
# 2 -0.006742 0.010572 -0.004121 0.000000 0.000000 0.000000
# 3 -0.001784 -0.004121 0.014023 0.000000 0.000000 0.000000
# 4 0.000000 0.000000 0.000000 0.033865 0.000000 0.000000
# 5 0.000000 0.000000 0.000000 0.000000 -0.161293 0.000000
# 6 0.000000 0.000000 0.000000 0.000000 0.000000 0.041968
#
#
# Mechanical properties :
#
#
# Convention : Reuss Voigt Hill
#
# Bulk Modulus (GPa) = 20.79468 39.55347 30.17408
# Shear Modulus (GPa) = 170.97971 20.32854 95.65412
#
# Velocity S-wave (km/s) = 9.54378 3.29080 7.13838
# Velocity P-wave (km/s) = 11.51185 5.95902 9.16604
#
# Compressibility (1/GPa) = 0.04808922
#
# Stress axis : x y z
#
# Youngs Moduli (GPa) = 20.49771 94.58953 71.30943
#
# Poissons Ratio (x) = 0.63770 0.12720
# Poissons Ratio (y) = 0.13819 0.29383
# Poissons Ratio (z) = 0.03656 0.38976
#
# Static dielectric constant tensor:
#      x y z
#    x 1.683300 0.000000 0.000000 
#    y 0.000000 1.655120 0.000000 
#    z 0.000000 0.000000 1.626710 
# 
# From -- ./inp_files/6464.got.cif
#   From: 2010.05.17/outbox.ucp.g08.bks.cvg/sg38_4_cif.got.tgz:6464.got - 2010.06.11 10:39:43.
