data_PCOD9359403
_publ_section_title
;
Structure prediction by ZEFSAII (Michael W. Deem and Ramdas Pophale) SiO2 
 PCOD9359403
Probable space group: A M M 2
;
_chemical_formula_sum "Si O2"
_cell_formula_units_Z 40
_cell_length_a 17.310936
_cell_length_b 8.324804
_cell_length_c 14.974706
_cell_angle_alpha 90.000000
_cell_angle_beta 90.000000
_cell_angle_gamma 90.000000
_cell_volume 2158.007117
_symmetry_space_group_name_H-M "A M M 2"
_symmetry_group_IT_number 38
_symmetry_cell_setting 'orthorhombic'
loop_
_space_group_symop_operation_xyz
x,y,z
-x,-y,z
-x,y,z
x,-y,z
x,1/2+y,1/2+z
-x,1/2-y,1/2+z
-x,1/2+y,1/2+z
x,1/2-y,1/2+z
loop_
_atom_site_type_symbol
_atom_site_label
_atom_site_fract_x
_atom_site_fract_y
_atom_site_fract_z
Si Si1 0.000000 0.805972 0.330801
Si Si2 0.879179 0.806927 0.478752
Si Si3 0.000000 0.693963 0.126701
Si Si4 0.413061 0.805986 0.337589
Si Si5 0.704612 0.309051 0.483749
Si Si6 0.586020 0.195721 0.130528
O O1 0.926149 0.752726 0.390337
O O2 0.000000 0.750032 0.228738
O O3 0.000000 0.000000 0.329382
O O4 0.926172 0.752693 0.567151
O O5 0.790654 0.757405 0.479188
O O6 0.883168 0.000000 0.478547
O O7 0.000000 0.500000 0.127999
O O8 0.500000 0.756159 0.365623
O O9 0.346640 0.733534 0.397956
O O10 0.403525 0.760471 0.233865
O O11 0.409716 0.000000 0.342892
O O12 0.710318 0.500000 0.492068
O O13 0.654203 0.245554 0.567305
O O14 0.500000 0.248809 0.101636
O O15 0.585777 0.000000 0.127023
#
# Coordination Sequence:
#
# PCOD9359403 Si02
#       6
#     4   8   4   8   8   8
#     4   9  19  37  60  78  98 135 173 205 250 310
#     4   9  20  38  54  74 106 139 169 202 251 316
#     4   9  19  37  60  80 102 133 167 211 260 300
#     4   9  18  34  54  73  98 138 180 212 252 310
#     4  11  21  32  51  79 107 134 168 216 262 295
#     4   8  16  32  51  70  97 135 174 208 248 301
#
# _framework density 18.535620000000002
#
# number of rings (size 3 to 8) (size 9 to 14) (size 15 to 20)
#    0.000    2.800    0.000    3.600    0.000    4.400 
#    0.000   10.000    0.000    2.400    0.000    0.000 
#    0.000    0.000    0.000    0.000    0.000    0.000 
#
# Total GULP energy -111522.586213 kJ/mol
# GULP energy per Si atom -5576.129311 kJ/mol
# Density = 1.849343 g / cm^3
# Si number density = 18.535620 Si / 1000 Ang^3
#
#
#
# Elastic Constant Matrix: (Units=GPa)
#
#
# Indices 1 2 3 4 5 6 
#
# 1 198.2545 19.7796 106.9732 0.0000 0.0000 0.0000
# 2 19.7796 10.4456 17.0134 0.0000 0.0000 0.0000
# 3 106.9732 17.0134 150.0805 0.0000 0.0000 0.0000
# 4 0.0000 0.0000 0.0000 27.5899 0.0000 0.0000
# 5 0.0000 0.0000 0.0000 0.0000 54.1227 0.0000
# 6 0.0000 0.0000 0.0000 0.0000 0.0000 16.5746
#
#
#
# Elastic Compliance Matrix: (Units=1/GPa)
#
#
# Indices 1 2 3 4 5 6 
#
# 1 0.008686 -0.007805 -0.005306 0.000000 0.000000 0.000000
# 2 -0.007805 0.124427 -0.008542 0.000000 0.000000 0.000000
# 3 -0.005306 -0.008542 0.011414 0.000000 0.000000 0.000000
# 4 0.000000 0.000000 0.000000 0.036245 0.000000 0.000000
# 5 0.000000 0.000000 0.000000 0.000000 0.018477 0.000000
# 6 0.000000 0.000000 0.000000 0.000000 0.000000 0.060333
#
#
# Mechanical properties :
#
#
# Convention : Reuss Voigt Hill
#
# Bulk Modulus (GPa) = 9.87950 71.81256 40.84603
# Shear Modulus (GPa) = 14.85322 33.99174 24.42248
#
# Velocity S-wave (km/s) = 2.83386 4.28701 3.63381
# Velocity P-wave (km/s) = 4.00615 7.95812 6.30004
#
# Compressibility (1/GPa) = 0.10121968
#
# Stress axis : x y z
#
# Youngs Moduli (GPa) = 115.13029 8.03686 87.61480
#
# Poissons Ratio (x) = 0.06273 0.46491
# Poissons Ratio (y) = 0.89856 0.74843
# Poissons Ratio (z) = 0.61091 0.06865
#
# Static dielectric constant tensor:
#      x y z
#    x 1.627940 0.000000 0.000000 
#    y 0.000000 1.646590 0.000000 
#    z 0.000000 0.000000 1.636420 
# 
# From -- ./inp_files/14280.got.cif
#   From: 2010.05.17/outbox.cif.g08.bks.cpg/sg38_8_cif.got.tgz:14280.got - 2010.06.03 18:07:57.
