data_PCOD9359122
_publ_section_title
;
Structure prediction by ZEFSAII (Michael W. Deem and Ramdas Pophale) SiO2 
 PCOD9359122
Probable space group: A M M 2
;
_chemical_formula_sum "Si O2"
_cell_formula_units_Z 64
_cell_length_a 15.838685
_cell_length_b 8.799203
_cell_length_c 24.307575
_cell_angle_alpha 90.000000
_cell_angle_beta 90.000000
_cell_angle_gamma 90.000000
_cell_volume 3387.693362
_symmetry_space_group_name_H-M "A M M 2"
_symmetry_group_IT_number 38
_symmetry_cell_setting 'orthorhombic'
loop_
_space_group_symop_operation_xyz
x,y,z
-x,-y,z
-x,y,z
x,-y,z
x,1/2+y,1/2+z
-x,1/2-y,1/2+z
-x,1/2+y,1/2+z
x,1/2-y,1/2+z
loop_
_atom_site_type_symbol
_atom_site_label
_atom_site_fract_x
_atom_site_fract_y
_atom_site_fract_z
Si Si1 0.904417 0.318422 0.239800
Si Si2 0.347896 0.818625 0.623660
Si Si3 0.748186 0.182028 0.439527
Si Si4 0.245602 0.683321 0.811648
Si Si5 0.594376 0.317441 0.738027
Si Si6 0.404807 0.318350 0.509062
Si Si7 0.904641 0.817610 0.005419
Si Si8 0.839945 0.318279 0.627169
O O1 0.895863 0.500000 0.235525
O O2 0.834310 0.254897 0.281070
O O3 0.887699 0.245823 0.180098
O O4 0.000000 0.282706 0.257709
O O5 0.391039 0.761023 0.679446
O O6 0.391402 0.749876 0.569742
O O7 0.251942 0.757907 0.624657
O O8 0.348899 0.000000 0.621052
O O9 0.750192 0.226628 0.375491
O O10 0.667316 0.251796 0.470027
O O11 0.832508 0.238663 0.469870
O O12 0.743343 0.000000 0.443136
O O13 0.238699 0.500000 0.808509
O O14 0.330926 0.727883 0.779336
O O15 0.500000 0.283091 0.758638
O O16 0.600286 0.500000 0.730242
O O17 0.500000 0.282984 0.490027
O O18 0.395298 0.500000 0.512254
O O19 0.887201 0.786893 0.069890
O O20 0.000000 0.770929 0.990988
O O21 0.897875 0.000000 0.998178
O O22 0.830032 0.500000 0.632681
#
# Coordination Sequence:
#
# PCOD9359122 Si02
#       8
#     8   8   8   8   8   8   8   8
#     4  11  24  40  61  92 126 160 200 251 306 356
#     4  12  23  36  60  94 127 158 195 246 306 360
#     4  11  24  41  63  91 121 158 206 259 309 355
#     4  10  23  42  63  87 118 161 208 252 301 360
#     4  10  21  39  63  89 119 159 202 245 298 362
#     4  11  24  42  64  90 122 164 207 246 298 366
#     4  10  22  40  63  90 121 161 204 245 299 366
#     4  11  21  37  63  91 122 161 201 243 300 367
#
# _framework density 18.891909999999999
#
# number of rings (size 3 to 8) (size 9 to 14) (size 15 to 20)
#    0.000    1.250    2.500    3.375    0.000    7.000 
#    0.000    3.750    0.000    0.000    0.000    0.000 
#    0.000    0.000    0.000    0.000    0.000    0.000 
#
# Total GULP energy -178937.789555 kJ/mol
# GULP energy per Si atom -5591.805924 kJ/mol
# Density = 1.884891 g / cm^3
# Si number density = 18.891910 Si / 1000 Ang^3
#
#
#
# Elastic Constant Matrix: (Units=GPa)
#
#
# Indices 1 2 3 4 5 6 
#
# 1 192.8621 68.4308 95.5207 0.0000 0.0000 0.0000
# 2 68.4308 55.2704 60.0990 0.0000 0.0000 0.0000
# 3 95.5207 60.0990 158.6087 0.0000 0.0000 0.0000
# 4 0.0000 0.0000 0.0000 29.8992 0.0000 0.0000
# 5 0.0000 0.0000 0.0000 0.0000 -4.0451 0.0000
# 6 0.0000 0.0000 0.0000 0.0000 0.0000 20.3513
#
#
#
# Elastic Compliance Matrix: (Units=1/GPa)
#
#
# Indices 1 2 3 4 5 6 
#
# 1 0.009675 -0.009597 -0.002190 0.000000 0.000000 0.000000
# 2 -0.009597 0.040291 -0.009487 0.000000 0.000000 0.000000
# 3 -0.002190 -0.009487 0.011219 0.000000 0.000000 0.000000
# 4 0.000000 0.000000 0.000000 0.033446 0.000000 0.000000
# 5 0.000000 0.000000 0.000000 0.000000 -0.247213 0.000000
# 6 0.000000 0.000000 0.000000 0.000000 0.000000 0.049137
#
#
# Mechanical properties :
#
#
# Convention : Reuss Voigt Hill
#
# Bulk Modulus (GPa) = 53.65978 94.98248 74.32113
# Shear Modulus (GPa) = -91.43292 21.42045 -35.00623
#
# Velocity S-wave (km/s) = -6.96441 3.37091 -4.30929
# Velocity P-wave (km/s) = 6.01709 8.09547 3.82957
#
# Compressibility (1/GPa) = 0.01863593
#
# Stress axis : x y z
#
# Youngs Moduli (GPa) = 103.35810 24.81928 89.13757
#
# Poissons Ratio (x) = 0.23820 0.19523
# Poissons Ratio (y) = 0.99196 0.84565
# Poissons Ratio (z) = 0.22637 0.23546
#
# Static dielectric constant tensor:
#      x y z
#    x 1.650000 0.000000 0.000000 
#    y 0.000000 1.633340 0.000000 
#    z 0.000000 0.000000 1.623990 
# 
# From -- ./inp_files/22947.got.cif
#   From: 2010.05.17/outbox.cif.g08.bks.cpg/sg38_12_cif.got.tgz:22947.got - 2010.06.03 18:07:57.
