data_PCOD9359246
_publ_section_title
;
Structure prediction by ZEFSAII (Michael W. Deem and Ramdas Pophale) SiO2 
 PCOD9359246
Probable space group: A M M 2
;
_chemical_formula_sum "Si O2"
_cell_formula_units_Z 64
_cell_length_a 26.873332
_cell_length_b 11.145001
_cell_length_c 9.407167
_cell_angle_alpha 90.000000
_cell_angle_beta 90.000000
_cell_angle_gamma 90.000000
_cell_volume 2817.477673
_symmetry_space_group_name_H-M "A M M 2"
_symmetry_group_IT_number 38
_symmetry_cell_setting 'orthorhombic'
loop_
_space_group_symop_operation_xyz
x,y,z
-x,-y,z
-x,y,z
x,-y,z
x,1/2+y,1/2+z
-x,1/2-y,1/2+z
-x,1/2+y,1/2+z
x,1/2-y,1/2+z
loop_
_atom_site_type_symbol
_atom_site_label
_atom_site_fract_x
_atom_site_fract_y
_atom_site_fract_z
Si Si1 0.097939 0.134497 0.856270
Si Si2 0.440364 0.364499 0.288147
Si Si3 0.806679 0.127480 0.688095
Si Si4 0.788365 0.625487 0.617685
Si Si5 0.940446 0.363335 0.031420
Si Si6 0.710512 0.873642 0.862758
Si Si7 0.308722 0.626807 0.790275
Si Si8 0.596869 0.134852 0.110273
O O1 0.157322 0.131025 0.824912
O O2 0.074927 0.144710 0.697308
O O3 0.083825 0.000000 0.910894
O O4 0.081846 0.250266 0.945626
O O5 0.500000 0.359035 0.301520
O O6 0.428219 0.500000 0.232317
O O7 0.423740 0.251146 0.193134
O O8 0.417456 0.354243 0.445992
O O9 0.817487 0.251432 0.611865
O O10 0.817031 0.000000 0.615098
O O11 0.748208 0.128181 0.727209
O O12 0.816947 0.500000 0.623646
O O13 0.749633 0.623363 0.489657
O O14 0.749824 0.626922 0.751308
O O15 0.926195 0.500000 0.983259
O O16 0.000000 0.355323 0.020539
O O17 0.682468 0.000000 0.858599
O O18 0.681579 0.750201 0.868771
O O19 0.319634 0.500000 0.864237
O O20 0.344527 0.630866 0.652555
O O21 0.578285 0.000000 0.155492
#
# Coordination Sequence:
#
# PCOD9359246 Si02
#       8
#     8   8   8   8   8   8   8   8
#     4  10  22  39  61  88 119 153 192 239 289 345
#     4  10  22  40  62  88 117 152 192 236 292 352
#     4   9  19  34  50  77 110 142 183 229 278 332
#     4   9  18  32  52  75 105 144 184 228 275 327
#     4  10  22  40  60  85 116 150 191 238 290 348
#     4   9  18  32  52  75 105 144 184 228 275 327
#     4   9  19  34  50  76 108 142 184 228 278 332
#     4  10  22  39  61  88 118 151 192 240 287 343
#
# _framework density 22.715351999999999
#
# number of rings (size 3 to 8) (size 9 to 14) (size 15 to 20)
#    0.000    2.500    0.000    0.750    3.500    4.000 
#    0.000    0.000    0.000    0.000    0.000    0.000 
#    0.000    0.000    0.000    0.000    0.000    0.000 
#
# Total GULP energy -178387.557522 kJ/mol
# GULP energy per Si atom -5574.611173 kJ/mol
# Density = 2.266365 g / cm^3
# Si number density = 22.715352 Si / 1000 Ang^3
#
#
#
# Elastic Constant Matrix: (Units=GPa)
#
#
# Indices 1 2 3 4 5 6 
#
# 1 77.3371 52.0425 4.6401 0.0000 0.0000 0.0000
# 2 52.0425 320.7592 77.8184 0.0000 0.0000 0.0000
# 3 4.6401 77.8184 41.9341 0.0000 0.0000 0.0000
# 4 0.0000 0.0000 0.0000 5.3343 0.0000 0.0000
# 5 0.0000 0.0000 0.0000 0.0000 26.3422 0.0000
# 6 0.0000 0.0000 0.0000 0.0000 0.0000 10.9719
#
#
#
# Elastic Compliance Matrix: (Units=1/GPa)
#
#
# Indices 1 2 3 4 5 6 
#
# 1 0.015122 -0.003724 0.005238 0.000000 0.000000 0.000000
# 2 -0.003724 0.006588 -0.011813 0.000000 0.000000 0.000000
# 3 0.005238 -0.011813 0.045189 0.000000 0.000000 0.000000
# 4 0.000000 0.000000 0.000000 0.187467 0.000000 0.000000
# 5 0.000000 0.000000 0.000000 0.000000 0.037962 0.000000
# 6 0.000000 0.000000 0.000000 0.000000 0.000000 0.091142
#
#
# Mechanical properties :
#
#
# Convention : Reuss Voigt Hill
#
# Bulk Modulus (GPa) = 21.59790 78.78138 50.18964
# Shear Modulus (GPa) = 11.91888 28.89831 20.40859
#
# Velocity S-wave (km/s) = 2.29313 3.57065 3.00067
# Velocity P-wave (km/s) = 4.06694 7.19421 5.84366
#
# Compressibility (1/GPa) = 0.04630081
#
# Stress axis : x y z
#
# Youngs Moduli (GPa) = 66.12712 151.79530 22.12913
#
# Poissons Ratio (x) = 0.56534 -0.11592
# Poissons Ratio (y) = 0.24628 0.26141
# Poissons Ratio (z) = -0.34638 1.79318
#
# Static dielectric constant tensor:
#      x y z
#    x 1.861570 0.000000 0.000000 
#    y 0.000000 1.919780 0.000000 
#    z 0.000000 0.000000 1.855110 
# 
# From -- ./inp_files/10926.got.cif
#   From: 2010.05.17/outbox.cif.g08.bks.cpg/sg38_6_cif.got.tgz:10926.got - 2010.06.03 18:07:57.
