data_PCOD9359392
_publ_section_title
;
Structure prediction by ZEFSAII (Michael W. Deem and Ramdas Pophale) SiO2 
 PCOD9359392
Probable space group: A M M 2
;
_chemical_formula_sum "Si O2"
_cell_formula_units_Z 56
_cell_length_a 7.676695
_cell_length_b 30.671427
_cell_length_c 14.136678
_cell_angle_alpha 90.000000
_cell_angle_beta 90.000000
_cell_angle_gamma 90.000000
_cell_volume 3328.554209
_symmetry_space_group_name_H-M "A M M 2"
_symmetry_group_IT_number 38
_symmetry_cell_setting 'orthorhombic'
loop_
_space_group_symop_operation_xyz
x,y,z
-x,-y,z
-x,y,z
x,-y,z
x,1/2+y,1/2+z
-x,1/2-y,1/2+z
-x,1/2+y,1/2+z
x,1/2-y,1/2+z
loop_
_atom_site_type_symbol
_atom_site_label
_atom_site_fract_x
_atom_site_fract_y
_atom_site_fract_z
Si Si1 0.786187 0.594919 0.608930
Si Si2 0.202540 0.500000 0.604064
Si Si3 0.202344 0.000000 0.333860
Si Si4 0.209741 0.818063 0.010229
Si Si5 0.201469 0.321915 0.943839
Si Si6 0.789681 0.232118 0.617755
Si Si7 0.298151 0.762828 0.834222
Si Si8 0.214284 0.904408 0.328729
O O1 0.723206 0.547053 0.576798
O O2 0.727211 0.635084 0.544978
O O3 0.736591 0.602147 0.718713
O O4 0.000000 0.593651 0.607848
O O5 0.204020 0.500000 0.718968
O O6 0.000000 0.500000 0.574165
O O7 0.274985 0.047387 0.360913
O O8 0.000000 0.000000 0.363825
O O9 0.270830 0.779358 0.079974
O O10 0.000000 0.819030 0.015872
O O11 0.256446 0.802205 0.905494
O O12 0.203738 0.280600 0.872545
O O13 0.276661 0.364498 0.893132
O O14 0.000000 0.332782 0.963094
O O15 0.276949 0.303626 0.042380
O O16 0.743255 0.226165 0.726387
O O17 0.000000 0.232166 0.610824
O O18 0.500000 0.752396 0.842633
O O19 0.000000 0.904909 0.329129
#
# Coordination Sequence:
#
# PCOD9359392 Si02
#       8
#     8   4   4   8   8   8   8   8
#     4   8  12  19  35  59  86 111 131 156 192 236
#     4   7  10  16  28  54  88 111 126 150 191 237
#     4   7  10  16  30  56  88 111 124 150 193 237
#     4   9  17  29  45  62  80 107 140 168 197 238
#     4   9  17  29  45  62  81 108 140 168 196 238
#     4   9  17  29  43  58  78 106 140 172 200 236
#     4  11  21  30  41  58  82 108 135 172 210 241
#     4   8  12  20  36  60  87 110 131 156 192 237
#
# _framework density 16.824121999999999
#
# number of rings (size 3 to 8) (size 9 to 14) (size 15 to 20)
#    0.000    3.286    0.000    4.714    0.000    4.571 
#    0.000    0.000    0.000    0.000    0.000    2.000 
#    0.000    9.143    0.000    0.000    0.000    0.000 
#
# Total GULP energy -155886.758874 kJ/mol
# GULP energy per Si atom -5567.384246 kJ/mol
# Density = 1.678583 g / cm^3
# Si number density = 16.824122 Si / 1000 Ang^3
#
#
#
# Elastic Constant Matrix: (Units=GPa)
#
#
# Indices 1 2 3 4 5 6 
#
# 1 28.6483 4.9206 -0.9401 0.0000 0.0000 0.0000
# 2 4.9206 161.0501 85.1477 0.0000 0.0000 0.0000
# 3 -0.9401 85.1477 114.2390 0.0000 0.0000 0.0000
# 4 0.0000 0.0000 0.0000 24.4679 0.0000 0.0000
# 5 0.0000 0.0000 0.0000 0.0000 -525.3934 0.0000
# 6 0.0000 0.0000 0.0000 0.0000 0.0000 -11.6060
#
#
#
# Elastic Compliance Matrix: (Units=1/GPa)
#
#
# Indices 1 2 3 4 5 6 
#
# 1 0.035315 -0.002034 0.001807 0.000000 0.000000 0.000000
# 2 -0.002034 0.010365 -0.007742 0.000000 0.000000 0.000000
# 3 0.001807 -0.007742 0.014539 0.000000 0.000000 0.000000
# 4 0.000000 0.000000 0.000000 0.040870 0.000000 0.000000
# 5 0.000000 0.000000 0.000000 0.000000 -0.001903 0.000000
# 6 0.000000 0.000000 0.000000 0.000000 0.000000 -0.086162
#
#
# Mechanical properties :
#
#
# Convention : Reuss Voigt Hill
#
# Bulk Modulus (GPa) = 22.58384 53.57709 38.08046
# Shear Modulus (GPa) = 114.36146 -88.18569 13.08788
#
# Velocity S-wave (km/s) = 8.25362 -7.24776 2.79215
# Velocity P-wave (km/s) = 10.21187 6.17458 5.75138
#
# Compressibility (1/GPa) = 0.04427946
#
# Stress axis : x y z
#
# Youngs Moduli (GPa) = 28.31680 96.48227 68.78099
#
# Poissons Ratio (x) = 0.19627 -0.12427
# Poissons Ratio (y) = 0.05760 0.53250
# Poissons Ratio (z) = -0.05116 0.74696
#
# Static dielectric constant tensor:
#      x y z
#    x 1.608890 0.000000 0.000000 
#    y 0.000000 1.606570 0.000000 
#    z 0.000000 0.000000 1.544340 
# 
# From -- ./inp_files/13026.got.cif
#   From: 2010.05.17/outbox.cif.g08.bks.cpg/sg38_7_cif.got.tgz:13026.got - 2010.06.03 18:07:57.
