data_PCOD9359850
_publ_section_title
;
Structure prediction by ZEFSAII (Michael W. Deem and Ramdas Pophale) SiO2 
 PCOD9359850
Probable space group: A B M 2
;
_chemical_formula_sum "Si O2"
_cell_formula_units_Z 40
_cell_length_a 12.892229
_cell_length_b 13.968366
_cell_length_c 10.778618
_cell_angle_alpha 90.000000
_cell_angle_beta 90.000000
_cell_angle_gamma 90.000000
_cell_volume 1941.049888
_symmetry_space_group_name_H-M "A B M 2"
_symmetry_group_IT_number 39
_symmetry_cell_setting 'orthorhombic'
loop_
_space_group_symop_operation_xyz
x,y,z
-x,-y,z
-x,1/2+y,z
x,1/2-y,z
x,1/2+y,1/2+z
-x,1/2-y,1/2+z
-x,y,1/2+z
x,-y,1/2+z
loop_
_atom_site_type_symbol
_atom_site_label
_atom_site_fract_x
_atom_site_fract_y
_atom_site_fract_z
Si Si1 0.082513 0.638036 0.058500
Si Si2 0.751937 1.000000 0.448370
Si Si3 0.439365 0.898894 0.562482
Si Si4 0.439365 0.601106 0.834258
Si Si5 0.917487 0.638036 0.838241
O O1 0.115137 0.750000 0.049581
O O2 0.039921 0.624252 0.198371
O O3 0.176209 0.565231 0.035257
O O4 1.000000 0.621814 0.948371
O O5 0.676562 0.071728 0.523349
O O6 0.823791 0.065230 0.361484
O O7 0.676562 0.928272 0.373391
O O8 0.442319 0.854172 0.698370
O O9 0.500000 0.850925 0.448370
O O10 0.500000 0.000000 0.574032
O O11 0.500000 0.500000 0.822708
O O12 0.884863 0.750000 0.847160
#
# Coordination Sequence:
#
# PCOD9359850 Si02
#       5
#     8   8   8   8   8
#     4  10  22  38  54  76 107 140 176 220 266 312
#     4  10  18  30  56  80 100 134 178 214 256 310
#     4   8  15  27  46  74 103 131 166 208 253 302
#     4   8  15  27  46  74 103 131 166 208 253 302
#     4  10  22  38  54  76 107 140 176 220 266 312
#
# _framework density 20.607403999999999
#
# number of rings (size 3 to 8) (size 9 to 14) (size 15 to 20)
#    0.000    3.200    0.000    1.800    0.000    6.400 
#    0.000    0.000    0.000   19.200    0.000   22.400 
#    0.000    0.000    0.000    0.000    0.000    0.000 
#
# Total GULP energy -111409.507599 kJ/mol
# GULP energy per Si atom -5570.475380 kJ/mol
# Density = 2.056050 g / cm^3
# Si number density = 20.607404 Si / 1000 Ang^3
#
#
#
# Elastic Constant Matrix: (Units=GPa)
#
#
# Indices 1 2 3 4 5 6 
#
# 1 94.7205 35.0789 69.1341 0.0000 0.0000 0.0000
# 2 35.0789 92.3346 43.6598 0.0000 0.0000 0.0000
# 3 69.1341 43.6598 236.4829 0.0000 0.0000 0.0000
# 4 0.0000 0.0000 0.0000 -17.1499 0.0000 0.0000
# 5 0.0000 0.0000 0.0000 0.0000 931.9913 0.0000
# 6 0.0000 0.0000 0.0000 0.0000 0.0000 -56.4677
#
#
#
# Elastic Compliance Matrix: (Units=1/GPa)
#
#
# Indices 1 2 3 4 5 6 
#
# 1 0.014577 -0.003860 -0.003549 0.000000 0.000000 0.000000
# 2 -0.003860 0.012888 -0.001251 0.000000 0.000000 0.000000
# 3 -0.003549 -0.001251 0.005497 0.000000 0.000000 0.000000
# 4 0.000000 0.000000 0.000000 -0.058309 0.000000 0.000000
# 5 0.000000 0.000000 0.000000 0.000000 0.001073 0.000000
# 6 0.000000 0.000000 0.000000 0.000000 0.000000 -0.017709
#
#
# Mechanical properties :
#
#
# Convention : Reuss Voigt Hill
#
# Bulk Modulus (GPa) = 63.92764 79.92041 71.92403
# Shear Modulus (GPa) = -257.07614 190.05243 -33.51186
#
# Velocity S-wave (km/s) = -11.18124 9.61382 -4.03700
# Velocity P-wave (km/s) = 11.64494 12.73187 3.63978
#
# Compressibility (1/GPa) = 0.01564269
#
# Stress axis : x y z
#
# Youngs Moduli (GPa) = 68.60062 77.59074 181.91438
#
# Poissons Ratio (x) = 0.29950 0.64559
# Poissons Ratio (y) = 0.26479 0.22758
# Poissons Ratio (z) = 0.24346 0.09707
#
# Static dielectric constant tensor:
#      x y z
#    x 1.712660 0.000000 0.000000 
#    y 0.000000 1.755140 0.000000 
#    z 0.000000 0.000000 1.820080 
# 
# From -- ./inp_files/5671.got.cif
#   From: 2010.05.17/outbox.cif.g08.bks.cpg/sg39_3_cif.got.tgz:5671.got - 2010.06.03 18:22:40.
