data_PCOD9359435
_publ_section_title
;
Structure prediction by ZEFSAII (Michael W. Deem and Ramdas Pophale) SiO2 
 PCOD9359435
Probable space group: A M M 2
;
_chemical_formula_sum "Si O2"
_cell_formula_units_Z 56
_cell_length_a 7.932154
_cell_length_b 24.732681
_cell_length_c 14.202828
_cell_angle_alpha 90.000000
_cell_angle_beta 90.000000
_cell_angle_gamma 90.000000
_cell_volume 2786.359577
_symmetry_space_group_name_H-M "A M M 2"
_symmetry_group_IT_number 38
_symmetry_cell_setting 'orthorhombic'
loop_
_space_group_symop_operation_xyz
x,y,z
-x,-y,z
-x,y,z
x,-y,z
x,1/2+y,1/2+z
-x,1/2-y,1/2+z
-x,1/2+y,1/2+z
x,1/2-y,1/2+z
loop_
_atom_site_type_symbol
_atom_site_label
_atom_site_fract_x
_atom_site_fract_y
_atom_site_fract_z
Si Si1 0.706203 0.939342 0.618400
Si Si2 0.206291 0.938792 0.036950
Si Si3 0.801452 0.164741 0.929167
Si Si4 0.295657 0.769319 0.538162
Si Si5 0.298042 0.376423 0.933714
Si Si6 0.202478 0.560820 0.751677
Si Si7 0.700770 0.832187 0.719018
O O1 0.500000 0.940526 0.620071
O O2 0.757962 0.918849 0.514344
O O3 0.763018 0.892131 0.689528
O O4 0.765390 0.000000 0.638227
O O5 0.259077 0.927361 0.144981
O O6 0.000000 0.938120 0.036198
O O7 0.258024 0.000000 0.012653
O O8 0.268608 0.892103 0.967873
O O9 0.767909 0.211903 0.003776
O O10 0.734492 0.180344 0.826788
O O11 0.000000 0.158033 0.918464
O O12 0.500000 0.767204 0.537210
O O13 0.240333 0.817049 0.466399
O O14 0.237615 0.789161 0.641401
O O15 0.500000 0.375186 0.938857
O O16 0.250921 0.396571 0.830855
O O17 0.263146 0.500000 0.776797
O O18 0.000000 0.558940 0.748972
O O19 0.500000 0.833775 0.706030
#
# Coordination Sequence:
#
# PCOD9359435 Si02
#       7
#     8   8   8   8   8   8   8
#     4   8  14  27  49  75 102 134 170 206 247 297
#     4   8  17  35  53  70  99 136 169 202 247 306
#     4  11  22  35  56  81 101 129 169 212 258 303
#     4   9  20  38  55  73 102 139 174 208 252 306
#     4   9  17  30  50  75 102 134 171 210 253 299
#     4   9  17  30  49  73 103 139 173 206 250 301
#     4   9  19  36  55  75 103 137 170 206 251 304
#
# _framework density 20.097909000000001
#
# number of rings (size 3 to 8) (size 9 to 14) (size 15 to 20)
#    0.000    3.000    0.000    3.429    0.000    3.714 
#    0.000    6.429    0.000    3.857    0.000    0.000 
#    0.000    0.000    0.000    0.000    0.000    0.000 
#
# Total GULP energy -156127.476150 kJ/mol
# GULP energy per Si atom -5575.981291 kJ/mol
# Density = 2.005217 g / cm^3
# Si number density = 20.097909 Si / 1000 Ang^3
#
#
#
# Elastic Constant Matrix: (Units=GPa)
#
#
# Indices 1 2 3 4 5 6 
#
# 1 7.0413 -7.5309 -4.3444 0.0000 0.0000 0.0000
# 2 -7.5309 95.1772 55.9624 0.0000 0.0000 0.0000
# 3 -4.3444 55.9624 99.8055 0.0000 0.0000 0.0000
# 4 0.0000 0.0000 0.0000 21.9891 0.0000 0.0000
# 5 0.0000 0.0000 0.0000 0.0000 22.4281 0.0000
# 6 0.0000 0.0000 0.0000 0.0000 0.0000 17.7176
#
#
#
# Elastic Compliance Matrix: (Units=1/GPa)
#
#
# Indices 1 2 3 4 5 6 
#
# 1 0.155152 0.012390 -0.000194 0.000000 0.000000 0.000000
# 2 0.012390 0.016664 -0.008804 0.000000 0.000000 0.000000
# 3 -0.000194 -0.008804 0.014948 0.000000 0.000000 0.000000
# 4 0.000000 0.000000 0.000000 0.045477 0.000000 0.000000
# 5 0.000000 0.000000 0.000000 0.000000 0.044587 0.000000
# 6 0.000000 0.000000 0.000000 0.000000 0.000000 0.056441
#
#
# Mechanical properties :
#
#
# Convention : Reuss Voigt Hill
#
# Bulk Modulus (GPa) = 5.16668 32.24424 18.70546
# Shear Modulus (GPa) = 12.78771 22.95608 17.87189
#
# Velocity S-wave (km/s) = 2.52518 3.38333 2.98525
# Velocity P-wave (km/s) = 3.32842 5.59830 4.60540
#
# Compressibility (1/GPa) = 0.19354778
#
# Stress axis : x y z
#
# Youngs Moduli (GPa) = 6.44530 60.00998 66.89960
#
# Poissons Ratio (x) = -0.74355 0.01298
# Poissons Ratio (y) = -0.07986 0.58901
# Poissons Ratio (z) = 0.00125 0.52835
#
# Static dielectric constant tensor:
#      x y z
#    x 1.732340 0.000000 0.000000 
#    y 0.000000 1.713160 0.000000 
#    z 0.000000 0.000000 1.707270 
# 
# From -- ./inp_files/12437.got.cif
#   From: 2010.05.17/outbox.cif.g08.bks.cpg/sg38_7_cif.got.tgz:12437.got - 2010.06.03 18:07:57.
