data_PCOD9359348
_publ_section_title
;
Structure prediction by ZEFSAII (Michael W. Deem and Ramdas Pophale) SiO2 
 PCOD9359348
Probable space group: A M M 2
;
_chemical_formula_sum "Si O2"
_cell_formula_units_Z 40
_cell_length_a 15.983711
_cell_length_b 13.553714
_cell_length_c 7.587155
_cell_angle_alpha 90.000000
_cell_angle_beta 90.000000
_cell_angle_gamma 90.000000
_cell_volume 1643.670998
_symmetry_space_group_name_H-M "A M M 2"
_symmetry_group_IT_number 38
_symmetry_cell_setting 'orthorhombic'
loop_
_space_group_symop_operation_xyz
x,y,z
-x,-y,z
-x,y,z
x,-y,z
x,1/2+y,1/2+z
-x,1/2-y,1/2+z
-x,1/2+y,1/2+z
x,1/2-y,1/2+z
loop_
_atom_site_type_symbol
_atom_site_label
_atom_site_fract_x
_atom_site_fract_y
_atom_site_fract_z
Si Si1 0.631021 0.888382 0.186220
Si Si2 0.178848 0.884496 0.076309
Si Si3 0.092316 0.620831 0.913017
Si Si4 0.408706 0.318916 0.292154
Si Si5 0.768989 0.118631 0.691940
O O1 0.731766 0.880466 0.176001
O O2 0.595571 0.799819 0.301546
O O3 0.609220 0.000000 0.237707
O O4 0.601973 0.867576 0.984661
O O5 0.110937 0.846455 0.213276
O O6 0.158615 0.000000 0.049835
O O7 0.194792 0.846609 0.880182
O O8 0.093398 0.500000 0.913984
O O9 0.000000 0.652200 0.970737
O O10 0.167727 0.650653 0.040896
O O11 0.500000 0.347177 0.221716
O O12 0.326828 0.347214 0.180423
O O13 0.765923 0.000000 0.692749
#
# Coordination Sequence:
#
# PCOD9359348 Si02
#       5
#     8   8   8   8   8
#     4  10  23  43  65  94 134 176 225 287 346 406
#     4   8  16  33  55  81 118 168 214 265 338 397
#     4   9  17  30  55  92 129 170 223 278 337 409
#     4  11  23  39  64  96 128 176 231 278 341 411
#     4   9  19  35  57  89 131 176 222 280 343 403
#
# _framework density 24.335768000000002
#
# number of rings (size 3 to 8) (size 9 to 14) (size 15 to 20)
#    0.000    2.600    0.000    2.400    2.800    3.600 
#    0.000    5.000    0.000    6.000    0.000    0.000 
#    0.000    0.000    0.000    0.000    0.000    0.000 
#
# Total GULP energy -111863.726397 kJ/mol
# GULP energy per Si atom -5593.186320 kJ/mol
# Density = 2.428038 g / cm^3
# Si number density = 24.335768 Si / 1000 Ang^3
#
#
#
# Elastic Constant Matrix: (Units=GPa)
#
#
# Indices 1 2 3 4 5 6 
#
# 1 175.1622 30.4246 93.4767 0.0000 0.0000 0.0000
# 2 30.4246 110.9991 10.9387 0.0000 0.0000 0.0000
# 3 93.4767 10.9387 87.0340 0.0000 0.0000 0.0000
# 4 0.0000 0.0000 0.0000 28.6898 0.0000 0.0000
# 5 0.0000 0.0000 0.0000 0.0000 32.1350 0.0000
# 6 0.0000 0.0000 0.0000 0.0000 0.0000 16.1016
#
#
#
# Elastic Compliance Matrix: (Units=1/GPa)
#
#
# Indices 1 2 3 4 5 6 
#
# 1 0.013970 -0.002380 -0.014705 0.000000 0.000000 0.000000
# 2 -0.002380 0.009528 0.001359 0.000000 0.000000 0.000000
# 3 -0.014705 0.001359 0.027112 0.000000 0.000000 0.000000
# 4 0.000000 0.000000 0.000000 0.034856 0.000000 0.000000
# 5 0.000000 0.000000 0.000000 0.000000 0.031119 0.000000
# 6 0.000000 0.000000 0.000000 0.000000 0.000000 0.062106
#
#
# Mechanical properties :
#
#
# Convention : Reuss Voigt Hill
#
# Bulk Modulus (GPa) = 52.19889 71.43057 61.81473
# Shear Modulus (GPa) = 23.09186 31.27564 27.18375
#
# Velocity S-wave (km/s) = 3.08374 3.58882 3.34582
# Velocity P-wave (km/s) = 5.84596 6.82559 6.35468
#
# Compressibility (1/GPa) = 0.01915750
#
# Stress axis : x y z
#
# Youngs Moduli (GPa) = 71.58414 104.95909 36.88397
#
# Poissons Ratio (x) = 0.24979 0.54236
# Poissons Ratio (y) = 0.17036 -0.05011
# Poissons Ratio (z) = 1.05261 -0.14260
#
# Static dielectric constant tensor:
#      x y z
#    x 1.911280 0.000000 0.000000 
#    y 0.000000 1.985900 0.000000 
#    z 0.000000 0.000000 1.907930 
# 
# From -- ./inp_files/5234.got.cif
#   From: 2010.05.17/outbox.cif.g08.bks.cpg/sg38_3_cif.got.tgz:5234.got - 2010.06.03 18:07:57.
