data_PCOD9359093
_publ_section_title
;
Structure prediction by ZEFSAII (Michael W. Deem and Ramdas Pophale) SiO2 
 PCOD9359093
Probable space group: A M M 2
;
_chemical_formula_sum "Si O2"
_cell_formula_units_Z 48
_cell_length_a 18.110326
_cell_length_b 8.447629
_cell_length_c 15.660257
_cell_angle_alpha 90.000000
_cell_angle_beta 90.000000
_cell_angle_gamma 90.000000
_cell_volume 2395.851993
_symmetry_space_group_name_H-M "A M M 2"
_symmetry_group_IT_number 38
_symmetry_cell_setting 'orthorhombic'
loop_
_space_group_symop_operation_xyz
x,y,z
-x,-y,z
-x,y,z
x,-y,z
x,1/2+y,1/2+z
-x,1/2-y,1/2+z
-x,1/2+y,1/2+z
x,1/2-y,1/2+z
loop_
_atom_site_type_symbol
_atom_site_label
_atom_site_fract_x
_atom_site_fract_y
_atom_site_fract_z
Si Si1 0.500000 0.171701 0.243011
Si Si2 0.500000 0.178827 0.444829
Si Si3 0.184486 0.691652 0.180035
Si Si4 0.344319 0.181168 0.693318
Si Si5 0.084511 0.191148 0.330794
Si Si6 0.803962 0.308334 0.980609
Si Si7 0.348056 0.185358 0.009144
O O1 0.500000 0.160804 0.344063
O O2 0.577705 0.248869 0.220058
O O3 0.500000 0.000000 0.200275
O O4 0.573806 0.272600 0.468377
O O5 0.500000 0.000000 0.483403
O O6 0.186266 0.500000 0.181049
O O7 0.264055 0.751339 0.216742
O O8 0.121381 0.750372 0.243061
O O9 0.177752 0.737452 0.079572
O O10 0.342962 0.202085 0.591449
O O11 0.344616 0.000000 0.720585
O O12 0.134140 0.239653 0.412271
O O13 0.000000 0.245622 0.338550
O O14 0.084552 0.000000 0.329747
O O15 0.796868 0.500000 0.978604
O O16 0.725236 0.230342 0.956800
O O17 0.345501 0.000000 0.032299
#
# Coordination Sequence:
#
# PCOD9359093 Si02
#       7
#     4   4   8   8   8   8   8
#     4  11  24  37  54  83 115 151 196 241 286 337
#     4  11  24  39  54  79 117 157 194 235 290 343
#     4   9  20  38  61  88 116 153 197 241 291 349
#     4  10  21  39  60  81 113 153 192 237 293 348
#     4  10  22  39  61  89 120 154 192 238 295 357
#     4   9  20  40  62  85 117 159 199 238 294 357
#     4  11  22  37  59  85 113 148 196 244 287 339
#
# _framework density 20.034625999999999
#
# number of rings (size 3 to 8) (size 9 to 14) (size 15 to 20)
#    0.000    2.000    0.000    4.000    2.333    6.333 
#    0.000    1.667    0.000    0.000    0.000    0.000 
#    0.000    0.000    0.000    0.000    0.000    0.000 
#
# Total GULP energy -133854.773660 kJ/mol
# GULP energy per Si atom -5577.282236 kJ/mol
# Density = 1.998903 g / cm^3
# Si number density = 20.034626 Si / 1000 Ang^3
#
#
#
# Elastic Constant Matrix: (Units=GPa)
#
#
# Indices 1 2 3 4 5 6 
#
# 1 195.4662 21.7692 60.1449 0.0000 0.0000 0.0000
# 2 21.7692 23.4572 -3.7149 0.0000 0.0000 0.0000
# 3 60.1449 -3.7149 61.5097 0.0000 0.0000 0.0000
# 4 0.0000 0.0000 0.0000 20.3387 0.0000 0.0000
# 5 0.0000 0.0000 0.0000 0.0000 32.1604 0.0000
# 6 0.0000 0.0000 0.0000 0.0000 0.0000 28.3278
#
#
#
# Elastic Compliance Matrix: (Units=1/GPa)
#
#
# Indices 1 2 3 4 5 6 
#
# 1 0.009184 -0.010042 -0.009587 0.000000 0.000000 0.000000
# 2 -0.010042 0.054021 0.013081 0.000000 0.000000 0.000000
# 3 -0.009587 0.013081 0.026422 0.000000 0.000000 0.000000
# 4 0.000000 0.000000 0.000000 0.049167 0.000000 0.000000
# 5 0.000000 0.000000 0.000000 0.000000 0.031094 0.000000
# 6 0.000000 0.000000 0.000000 0.000000 0.000000 0.035301
#
#
# Mechanical properties :
#
#
# Convention : Reuss Voigt Hill
#
# Bulk Modulus (GPa) = 13.06621 48.53685 30.80153
# Shear Modulus (GPa) = 20.50903 29.64765 25.07834
#
# Velocity S-wave (km/s) = 3.20297 3.85102 3.54185
# Velocity P-wave (km/s) = 4.49607 6.63723 5.66866
#
# Compressibility (1/GPa) = 0.07653330
#
# Stress axis : x y z
#
# Youngs Moduli (GPa) = 108.88281 18.51118 37.84758
#
# Poissons Ratio (x) = 0.18588 0.36284
# Poissons Ratio (y) = 1.09335 -0.49510
# Poissons Ratio (z) = 1.04384 -0.24215
#
# Static dielectric constant tensor:
#      x y z
#    x 1.869470 0.000000 0.000000 
#    y 0.000000 1.750750 0.000000 
#    z 0.000000 0.000000 1.699900 
# 
# From -- ./inp_files/14986.got.cif
#   From: 2010.05.17/outbox.cif.g08.bks.cpg/sg38_8_cif.got.tgz:14986.got - 2010.06.03 18:07:57.
