data_PCOD9359466
_publ_section_title
;
Structure prediction by ZEFSAII (Michael W. Deem and Ramdas Pophale) SiO2 
 PCOD9359466
Probable space group: A M M 2
;
_chemical_formula_sum "Si O2"
_cell_formula_units_Z 56
_cell_length_a 19.813960
_cell_length_b 7.509067
_cell_length_c 14.756105
_cell_angle_alpha 90.000000
_cell_angle_beta 90.000000
_cell_angle_gamma 90.000000
_cell_volume 2195.477538
_symmetry_space_group_name_H-M "A M M 2"
_symmetry_group_IT_number 38
_symmetry_cell_setting 'orthorhombic'
loop_
_space_group_symop_operation_xyz
x,y,z
-x,-y,z
-x,y,z
x,-y,z
x,1/2+y,1/2+z
-x,1/2-y,1/2+z
-x,1/2+y,1/2+z
x,1/2-y,1/2+z
loop_
_atom_site_type_symbol
_atom_site_label
_atom_site_fract_x
_atom_site_fract_y
_atom_site_fract_z
Si Si1 0.078364 0.784461 0.427680
Si Si2 0.284709 0.296758 0.733347
Si Si3 0.182667 0.756802 0.570895
Si Si4 0.921045 0.785471 0.215702
Si Si5 0.278649 0.205815 0.922029
Si Si6 0.427018 0.216250 0.167514
Si Si7 0.427741 0.714993 0.453554
O O1 0.127882 0.687954 0.496882
O O2 0.089931 0.744383 0.321713
O O3 0.000000 0.746467 0.447165
O O4 0.088543 0.000000 0.439285
O O5 0.293820 0.500000 0.761469
O O6 0.238772 0.302297 0.644474
O O7 0.251555 0.206590 0.820109
O O8 0.358134 0.216201 0.711127
O O9 0.127242 0.813944 0.646021
O O10 0.235747 0.816566 0.493207
O O11 0.000000 0.754086 0.196532
O O12 0.907871 0.000000 0.204606
O O13 0.355990 0.271172 0.914916
O O14 0.278560 0.000000 0.956196
O O15 0.500000 0.278433 0.203017
O O16 0.425864 0.000000 0.174112
O O17 0.425073 0.256289 0.060562
O O18 0.500000 0.783568 0.418145
O O19 0.429284 0.500000 0.444573
#
# Coordination Sequence:
#
# PCOD9359466 Si02
#       7
#     8   8   8   8   8   8   8
#     4   9  20  39  61  87 118 150 187 233 289 347
#     4  11  23  38  57  84 117 155 198 243 291 348
#     4  12  21  34  57  82 113 151 192 230 277 338
#     4   9  18  34  56  80 105 137 180 227 275 333
#     4  11  23  37  55  84 118 153 196 247 294 341
#     4   8  14  29  55  82 107 144 197 247 288 338
#     4   8  14  29  54  80 107 146 196 244 292 344
#
# _framework density 25.506981
#
# number of rings (size 3 to 8) (size 9 to 14) (size 15 to 20)
#    0.000    2.286    1.429    4.286    0.000    2.857 
#    0.000    0.000    0.000    0.000    0.000   10.000 
#    0.000    0.000    0.000    0.000    0.000    0.000 
#
# Total GULP energy -155992.203100 kJ/mol
# GULP energy per Si atom -5571.150111 kJ/mol
# Density = 2.544893 g / cm^3
# Si number density = 25.506981 Si / 1000 Ang^3
#
#
#
# Elastic Constant Matrix: (Units=GPa)
#
#
# Indices 1 2 3 4 5 6 
#
# 1 210.5751 33.8843 80.4385 0.0000 0.0000 0.0000
# 2 33.8843 93.0035 30.1816 0.0000 0.0000 0.0000
# 3 80.4385 30.1816 181.6590 0.0000 0.0000 0.0000
# 4 0.0000 0.0000 0.0000 -24.0262 0.0000 0.0000
# 5 0.0000 0.0000 0.0000 0.0000 210.9315 0.0000
# 6 0.0000 0.0000 0.0000 0.0000 0.0000 -12.9800
#
#
#
# Elastic Compliance Matrix: (Units=1/GPa)
#
#
# Indices 1 2 3 4 5 6 
#
# 1 0.005876 -0.001370 -0.002374 0.000000 0.000000 0.000000
# 2 -0.001370 0.011685 -0.001335 0.000000 0.000000 0.000000
# 3 -0.002374 -0.001335 0.006778 0.000000 0.000000 0.000000
# 4 0.000000 0.000000 0.000000 -0.041621 0.000000 0.000000
# 5 0.000000 0.000000 0.000000 0.000000 0.004741 0.000000
# 6 0.000000 0.000000 0.000000 0.000000 0.000000 -0.077042
#
#
# Mechanical properties :
#
#
# Convention : Reuss Voigt Hill
#
# Bulk Modulus (GPa) = 70.52026 86.02739 78.27383
# Shear Modulus (GPa) = -66.93649 57.50061 -4.71794
#
# Velocity S-wave (km/s) = -5.12829 4.75311 -1.36150
# Velocity P-wave (km/s) = 2.71264 7.99518 5.31811
#
# Compressibility (1/GPa) = 0.01418032
#
# Stress axis : x y z
#
# Youngs Moduli (GPa) = 170.17150 85.58234 147.53793
#
# Poissons Ratio (x) = 0.11729 0.35031
# Poissons Ratio (y) = 0.23321 0.19689
# Poissons Ratio (z) = 0.40405 0.11421
#
# Static dielectric constant tensor:
#      x y z
#    x 1.987730 0.000000 0.000000 
#    y 0.000000 2.037990 0.000000 
#    z 0.000000 0.000000 1.932630 
# 
# From -- ./inp_files/15493.got.cif
#   From: 2010.05.17/outbox.cif.g08.bks.cpg/sg38_8_cif.got.tgz:15493.got - 2010.06.03 18:07:57.
