data_PCOD9359081
_publ_section_title
;
Structure prediction by ZEFSAII (Michael W. Deem and Ramdas Pophale) SiO2 
 PCOD9359081
Probable space group: A M M 2
;
_chemical_formula_sum "Si O2"
_cell_formula_units_Z 56
_cell_length_a 10.782798
_cell_length_b 20.754771
_cell_length_c 12.287609
_cell_angle_alpha 90.000000
_cell_angle_beta 90.000000
_cell_angle_gamma 90.000000
_cell_volume 2749.899352
_symmetry_space_group_name_H-M "A M M 2"
_symmetry_group_IT_number 38
_symmetry_cell_setting 'orthorhombic'
loop_
_space_group_symop_operation_xyz
x,y,z
-x,-y,z
-x,y,z
x,-y,z
x,1/2+y,1/2+z
-x,1/2-y,1/2+z
-x,1/2+y,1/2+z
x,1/2-y,1/2+z
loop_
_atom_site_type_symbol
_atom_site_label
_atom_site_fract_x
_atom_site_fract_y
_atom_site_fract_z
Si Si1 0.354309 0.394237 0.181410
Si Si2 0.648967 0.570705 0.417053
Si Si3 0.236657 0.172584 0.078347
Si Si4 0.196575 0.926527 0.473642
Si Si5 0.863354 0.717747 0.930143
Si Si6 0.358656 0.747330 0.759104
Si Si7 0.859339 0.570567 0.741480
O O1 0.500000 0.406590 0.171918
O O2 0.308070 0.427396 0.291957
O O3 0.337972 0.318496 0.209049
O O4 0.293004 0.418765 0.071333
O O5 0.500000 0.579382 0.416732
O O6 0.675715 0.500000 0.463698
O O7 0.709114 0.628177 0.483523
O O8 0.343204 0.200098 0.156717
O O9 0.157482 0.126532 0.156108
O O10 0.161764 0.231410 0.026219
O O11 0.134676 0.855284 0.475842
O O12 0.231919 0.926097 0.344992
O O13 0.142749 0.000000 0.486949
O O14 0.748961 0.729194 0.845906
O O15 0.000000 0.730204 0.880553
O O16 0.500000 0.744862 0.803937
O O17 0.845698 0.500000 0.690571
O O18 0.000000 0.574001 0.787031
#
# Coordination Sequence:
#
# PCOD9359081 Si02
#       7
#     8   8   8   8   8   8   8
#     4  10  21  41  66  95 131 175 221 273 336 399
#     4  10  21  38  63  95 132 172 215 267 330 397
#     4  12  22  40  66  98 129 170 219 279 331 402
#     4  11  23  41  64  94 130 175 226 275 331 403
#     4  12  26  43  67  98 132 175 225 281 339 404
#     4  11  24  42  66  96 133 176 220 273 335 403
#     4  10  22  41  63  88 125 173 219 267 330 399
#
# _framework density 20.364381999999999
#
# number of rings (size 3 to 8) (size 9 to 14) (size 15 to 20)
#    0.000    1.143    4.286    2.143    0.000    3.429 
#    0.000    0.000    0.000    0.000    0.000    0.000 
#    0.000    0.000    0.000    0.000    0.000    0.000 
#
# Total GULP energy -156001.223654 kJ/mol
# GULP energy per Si atom -5571.472273 kJ/mol
# Density = 2.031803 g / cm^3
# Si number density = 20.364382 Si / 1000 Ang^3
#
#
#
# Elastic Constant Matrix: (Units=GPa)
#
#
# Indices 1 2 3 4 5 6 
#
# 1 95.4110 42.5185 52.5003 0.0000 0.0000 0.0000
# 2 42.5185 168.9100 53.1000 0.0000 0.0000 0.0000
# 3 52.5003 53.1000 117.8897 0.0000 0.0000 0.0000
# 4 0.0000 0.0000 0.0000 27.9371 0.0000 0.0000
# 5 0.0000 0.0000 0.0000 0.0000 20.3467 0.0000
# 6 0.0000 0.0000 0.0000 0.0000 0.0000 15.0282
#
#
#
# Elastic Compliance Matrix: (Units=1/GPa)
#
#
# Indices 1 2 3 4 5 6 
#
# 1 0.014373 -0.001871 -0.005558 0.000000 0.000000 0.000000
# 2 -0.001871 0.007140 -0.002383 0.000000 0.000000 0.000000
# 3 -0.005558 -0.002383 0.012031 0.000000 0.000000 0.000000
# 4 0.000000 0.000000 0.000000 0.035795 0.000000 0.000000
# 5 0.000000 0.000000 0.000000 0.000000 0.049148 0.000000
# 6 0.000000 0.000000 0.000000 0.000000 0.000000 0.066542
#
#
# Mechanical properties :
#
#
# Convention : Reuss Voigt Hill
#
# Bulk Modulus (GPa) = 71.83602 75.38315 73.60958
# Shear Modulus (GPa) = 23.88994 28.26852 26.07923
#
# Velocity S-wave (km/s) = 3.42881 3.72981 3.58247
# Velocity P-wave (km/s) = 7.14335 7.45964 7.30321
#
# Compressibility (1/GPa) = 0.01392059
#
# Stress axis : x y z
#
# Youngs Moduli (GPa) = 69.57463 140.04859 83.11745
#
# Poissons Ratio (x) = 0.26199 0.46198
# Poissons Ratio (y) = 0.13015 0.19808
# Poissons Ratio (z) = 0.38671 0.33375
#
# Static dielectric constant tensor:
#      x y z
#    x 1.724680 0.000000 0.000000 
#    y 0.000000 1.776030 0.000000 
#    z 0.000000 0.000000 1.724280 
# 
# From -- ./inp_files/9399.got.cif
#   From: 2010.05.17/outbox.cif.g08.bks.cpg/sg38_5_cif.got.tgz:9399.got - 2010.06.03 18:07:57.
