data_PCOD9359813
_publ_section_title
;
Structure prediction by ZEFSAII (Michael W. Deem and Ramdas Pophale) SiO2 
 PCOD9359813
Probable space group: A B M 2
;
_chemical_formula_sum "Si O2"
_cell_formula_units_Z 52
_cell_length_a 10.102952
_cell_length_b 27.267507
_cell_length_c 9.321230
_cell_angle_alpha 90.000000
_cell_angle_beta 90.000000
_cell_angle_gamma 90.000000
_cell_volume 2567.834013
_symmetry_space_group_name_H-M "A B M 2"
_symmetry_group_IT_number 39
_symmetry_cell_setting 'orthorhombic'
loop_
_space_group_symop_operation_xyz
x,y,z
-x,-y,z
-x,1/2+y,z
x,1/2-y,z
x,1/2+y,1/2+z
-x,1/2-y,1/2+z
-x,y,1/2+z
x,-y,1/2+z
loop_
_atom_site_type_symbol
_atom_site_label
_atom_site_fract_x
_atom_site_fract_y
_atom_site_fract_z
Si Si1 0.796272 0.250000 0.635660
Si Si2 0.577933 0.404311 0.723616
Si Si3 0.710037 0.436232 0.302777
Si Si4 0.661887 0.994894 0.065865
Si Si5 0.748692 0.826281 0.883342
Si Si6 0.896902 0.750000 0.686885
Si Si7 0.296802 0.250000 0.452947
Si Si8 0.462305 0.159099 0.460935
O O1 0.775339 0.298411 0.535384
O O2 0.707415 0.250000 0.779590
O O3 0.946614 0.250000 0.688206
O O4 0.448581 0.427277 0.799054
O O5 0.670554 0.446902 0.667041
O O6 0.523315 0.373472 0.588297
O O7 0.630347 0.370461 0.850190
O O8 0.727925 0.458741 0.144193
O O9 0.728477 0.478911 0.418575
O O10 0.771340 0.384617 0.354790
O O11 0.500000 0.000000 0.049907
O O12 0.833502 0.796250 0.769163
O O13 0.589240 0.821514 0.871752
O O14 0.847038 0.750000 0.523302
O O15 0.376294 0.203750 0.512658
#
# Coordination Sequence:
#
# PCOD9359813 Si02
#       8
#     4   8   8   8   8   4   4   8
#     4  11  24  41  64  81 114 157 210 252 296 361
#     4  10  18  31  46  73 120 165 191 220 278 352
#     4  10  20  31  52  80 115 164 193 240 276 342
#     4  10  18  30  47  77 120 166 200 223 271 347
#     4  10  21  41  59  84 124 155 189 243 316 355
#     4  11  24  43  60  83 112 155 210 258 298 363
#     4  12  22  32  56  90 114 154 208 248 302 370
#     4  11  21  32  53  86 125 158 187 240 306 369
#
# _framework density 20.250530000000001
#
# number of rings (size 3 to 8) (size 9 to 14) (size 15 to 20)
#    0.000    1.538    3.077    6.000    2.154    1.846 
#    0.000    0.000    0.000    0.000    0.000    3.231 
#    0.000    0.000    0.000    0.000    0.000    0.000 
#
# Total GULP energy -144889.243047 kJ/mol
# GULP energy per Si atom -5572.663194 kJ/mol
# Density = 2.020444 g / cm^3
# Si number density = 20.250530 Si / 1000 Ang^3
#
#
#
# Elastic Constant Matrix: (Units=GPa)
#
#
# Indices 1 2 3 4 5 6 
#
# 1 38.0637 14.7435 5.5712 0.0000 0.0000 0.0000
# 2 14.7435 104.7868 53.9016 0.0000 0.0000 0.0000
# 3 5.5712 53.9016 105.8314 0.0000 0.0000 0.0000
# 4 0.0000 0.0000 0.0000 19.8404 0.0000 0.0000
# 5 0.0000 0.0000 0.0000 0.0000 21.1009 0.0000
# 6 0.0000 0.0000 0.0000 0.0000 0.0000 3.0786
#
#
#
# Elastic Compliance Matrix: (Units=1/GPa)
#
#
# Indices 1 2 3 4 5 6 
#
# 1 0.027826 -0.004284 0.000717 0.000000 0.000000 0.000000
# 2 -0.004284 0.013591 -0.006696 0.000000 0.000000 0.000000
# 3 0.000717 -0.006696 0.012822 0.000000 0.000000 0.000000
# 4 0.000000 0.000000 0.000000 0.050402 0.000000 0.000000
# 5 0.000000 0.000000 0.000000 0.000000 0.047391 0.000000
# 6 0.000000 0.000000 0.000000 0.000000 0.000000 0.324824
#
#
# Mechanical properties :
#
#
# Convention : Reuss Voigt Hill
#
# Bulk Modulus (GPa) = 29.66311 44.12383 36.89347
# Shear Modulus (GPa) = 9.83052 20.43501 15.13277
#
# Velocity S-wave (km/s) = 2.20567 3.18010 2.73660
# Velocity P-wave (km/s) = 4.60071 5.94309 5.31445
#
# Compressibility (1/GPa) = 0.03371191
#
# Stress axis : x y z
#
# Youngs Moduli (GPa) = 35.93746 73.58078 77.99215
#
# Poissons Ratio (x) = 0.31522 -0.05593
# Poissons Ratio (y) = 0.15396 0.52226
# Poissons Ratio (z) = -0.02577 0.49272
#
# Static dielectric constant tensor:
#      x y z
#    x 1.662480 0.000000 0.000000 
#    y 0.000000 1.835310 0.000000 
#    z 0.000000 0.000000 1.809070 
# 
# From -- ./inp_files/2860.got.cif
#   From: 2010.05.17/outbox.cif.g08.bks.cpg/sg39_2_cif.got.tgz:2860.got - 2010.06.03 18:22:40.
