data_PCOD9359413
_publ_section_title
;
Structure prediction by ZEFSAII (Michael W. Deem and Ramdas Pophale) SiO2 
 PCOD9359413
Probable space group: A M M 2
;
_chemical_formula_sum "Si O2"
_cell_formula_units_Z 48
_cell_length_a 8.743034
_cell_length_b 14.061226
_cell_length_c 19.203285
_cell_angle_alpha 90.000000
_cell_angle_beta 90.000000
_cell_angle_gamma 90.000000
_cell_volume 2360.809169
_symmetry_space_group_name_H-M "A M M 2"
_symmetry_group_IT_number 38
_symmetry_cell_setting 'orthorhombic'
loop_
_space_group_symop_operation_xyz
x,y,z
-x,-y,z
-x,y,z
x,-y,z
x,1/2+y,1/2+z
-x,1/2-y,1/2+z
-x,1/2+y,1/2+z
x,1/2-y,1/2+z
loop_
_atom_site_type_symbol
_atom_site_label
_atom_site_fract_x
_atom_site_fract_y
_atom_site_fract_z
Si Si1 0.817440 0.109158 0.424720
Si Si2 0.676960 0.751492 0.320409
Si Si3 0.829827 0.391996 0.412056
Si Si4 0.822996 0.894543 0.079532
Si Si5 0.318857 0.197002 0.564330
Si Si6 0.686202 0.605674 0.206150
O O1 0.760463 0.158115 0.353448
O O2 0.760843 0.168482 0.492050
O O3 0.000000 0.110001 0.425520
O O4 0.763193 0.000000 0.430286
O O5 0.500000 0.774535 0.308730
O O6 0.698584 0.672112 0.380539
O O7 0.740569 0.693544 0.253869
O O8 0.816714 0.500000 0.387279
O O9 0.824186 0.395662 0.495246
O O10 0.000000 0.354881 0.392640
O O11 0.725968 0.800927 0.094076
O O12 0.000000 0.883022 0.101981
O O13 0.769649 0.000000 0.102669
O O14 0.500000 0.193630 0.552944
O O15 0.275841 0.124379 0.625769
O O16 0.500000 0.606601 0.211920
O O17 0.738456 0.500000 0.227147
#
# Coordination Sequence:
#
# PCOD9359413 Si02
#       6
#     8   8   8   8   8   8
#     4  11  24  41  60  83 115 154 195 241 292 347
#     4  11  21  35  58  86 113 147 190 238 290 343
#     4   9  17  30  50  77 112 149 181 222 277 332
#     4   9  18  33  53  79 115 154 188 229 283 338
#     4  11  21  36  61  90 119 153 194 242 291 342
#     4   9  20  38  58  85 122 156 186 231 293 352
#
# _framework density 20.332013
#
# number of rings (size 3 to 8) (size 9 to 14) (size 15 to 20)
#    0.000    2.000    1.667    3.500    0.000    3.333 
#    0.000    5.833    0.000   11.000    0.000    0.000 
#    0.000    0.000    0.000    0.000    0.000    0.000 
#
# Total GULP energy -133819.575086 kJ/mol
# GULP energy per Si atom -5575.815629 kJ/mol
# Density = 2.028574 g / cm^3
# Si number density = 20.332013 Si / 1000 Ang^3
#
#
#
# Elastic Constant Matrix: (Units=GPa)
#
#
# Indices 1 2 3 4 5 6 
#
# 1 33.1185 18.3570 12.9661 0.0000 0.0000 0.0000
# 2 18.3570 117.8580 26.1534 0.0000 0.0000 0.0000
# 3 12.9661 26.1534 65.4021 0.0000 0.0000 0.0000
# 4 0.0000 0.0000 0.0000 25.6521 0.0000 0.0000
# 5 0.0000 0.0000 0.0000 0.0000 1861.8594 0.0000
# 6 0.0000 0.0000 0.0000 0.0000 0.0000 21.4912
#
#
#
# Elastic Compliance Matrix: (Units=1/GPa)
#
#
# Indices 1 2 3 4 5 6 
#
# 1 0.034563 -0.004239 -0.005157 0.000000 0.000000 0.000000
# 2 -0.004239 0.009831 -0.003091 0.000000 0.000000 0.000000
# 3 -0.005157 -0.003091 0.017548 0.000000 0.000000 0.000000
# 4 0.000000 0.000000 0.000000 0.038983 0.000000 0.000000
# 5 0.000000 0.000000 0.000000 0.000000 0.000537 0.000000
# 6 0.000000 0.000000 0.000000 0.000000 0.000000 0.046531
#
#
# Mechanical properties :
#
#
# Convention : Reuss Voigt Hill
#
# Bulk Modulus (GPa) = 27.04994 36.81461 31.93228
# Shear Modulus (GPa) = 26.98466 392.39402 209.68934
#
# Velocity S-wave (km/s) = 3.64703 13.90727 10.16644
# Velocity P-wave (km/s) = 5.57382 16.61412 12.39146
#
# Compressibility (1/GPa) = 0.03696866
#
# Stress axis : x y z
#
# Youngs Moduli (GPa) = 28.93241 101.71991 56.98517
#
# Poissons Ratio (x) = 0.43119 0.29388
# Poissons Ratio (y) = 0.12264 0.17613
# Poissons Ratio (z) = 0.14921 0.31440
#
# Static dielectric constant tensor:
#      x y z
#    x 0.893930 0.000000 0.000000 
#    y 0.000000 1.759470 0.000000 
#    z 0.000000 0.000000 1.728200 
# 
# From -- ./inp_files/16651.got.cif
#   From: 2010.05.17/outbox.cif.g08.bks.cpg/sg38_9_cif.got.tgz:16651.got - 2010.06.03 18:07:57.
