data_PCOD9359540
_publ_section_title
;
Structure prediction by ZEFSAII (Michael W. Deem and Ramdas Pophale) SiO2 
 PCOD9359540
Probable space group: A M M 2
;
_chemical_formula_sum "Si O2"
_cell_formula_units_Z 56
_cell_length_a 24.727554
_cell_length_b 7.494732
_cell_length_c 14.881581
_cell_angle_alpha 90.000000
_cell_angle_beta 90.000000
_cell_angle_gamma 90.000000
_cell_volume 2757.949688
_symmetry_space_group_name_H-M "A M M 2"
_symmetry_group_IT_number 38
_symmetry_cell_setting 'orthorhombic'
loop_
_space_group_symop_operation_xyz
x,y,z
-x,-y,z
-x,y,z
x,-y,z
x,1/2+y,1/2+z
-x,1/2-y,1/2+z
-x,1/2+y,1/2+z
x,1/2-y,1/2+z
loop_
_atom_site_type_symbol
_atom_site_label
_atom_site_fract_x
_atom_site_fract_y
_atom_site_fract_z
Si Si1 0.231721 0.284391 0.887140
Si Si2 0.856340 0.711647 0.241054
Si Si3 0.559927 0.213377 0.531520
Si Si4 0.440062 0.286684 0.741283
Si Si5 0.061643 0.715637 0.392514
Si Si6 0.850277 0.288393 0.038569
Si Si7 0.355109 0.218657 0.386328
O O1 0.232259 0.500000 0.891525
O O2 0.198672 0.236570 0.797399
O O3 0.293330 0.220764 0.886639
O O4 0.197072 0.217859 0.972890
O O5 0.866205 0.500000 0.232902
O O6 0.903695 0.781980 0.306760
O O7 0.853318 0.784497 0.139808
O O8 0.500000 0.282066 0.505864
O O9 0.567798 0.250228 0.636381
O O10 0.609419 0.277738 0.471611
O O11 0.558077 0.000000 0.519277
O O12 0.500000 0.217877 0.766851
O O13 0.441938 0.500000 0.753775
O O14 0.390528 0.221952 0.801033
O O15 0.060931 0.500000 0.388334
O O16 0.094716 0.763740 0.482176
O O17 0.000000 0.778731 0.392758
O O18 0.840382 0.500000 0.046835
O O19 0.353202 0.000000 0.386194
#
# Coordination Sequence:
#
# PCOD9359540 Si02
#       7
#     8   8   8   8   8   8   8
#     4   9  18  32  48  68  93 121 158 198 229 266
#     4   9  18  33  51  70  95 126 155 186 230 276
#     4   9  17  30  48  69  92 119 152 190 233 280
#     4   9  17  30  47  66  89 118 152 189 231 281
#     4   9  18  32  49  71  98 124 152 187 225 269
#     4   9  18  32  50  70  93 124 158 191 229 271
#     4   9  17  30  48  67  90 123 157 188 229 281
#
# _framework density 20.304939999999998
#
# number of rings (size 3 to 8) (size 9 to 14) (size 15 to 20)
#    0.000    3.000    0.000    0.429    0.000    4.286 
#    0.000    5.000    0.000    3.429    0.000    0.000 
#    0.000    0.000    0.000    0.000    0.000    0.000 
#
# Total GULP energy -156176.794956 kJ/mol
# GULP energy per Si atom -5577.742677 kJ/mol
# Density = 2.025873 g / cm^3
# Si number density = 20.304940 Si / 1000 Ang^3
#
#
#
# Elastic Constant Matrix: (Units=GPa)
#
#
# Indices 1 2 3 4 5 6 
#
# 1 199.4068 -9.9481 118.1453 0.0000 0.0000 0.0000
# 2 -9.9481 49.6462 -1.3754 0.0000 0.0000 0.0000
# 3 118.1453 -1.3754 184.4599 0.0000 0.0000 0.0000
# 4 0.0000 0.0000 0.0000 -0.2713 0.0000 0.0000
# 5 0.0000 0.0000 0.0000 0.0000 9.4147 0.0000
# 6 0.0000 0.0000 0.0000 0.0000 0.0000 10.9004
#
#
#
# Elastic Compliance Matrix: (Units=1/GPa)
#
#
# Indices 1 2 3 4 5 6 
#
# 1 0.008191 0.001496 -0.005235 0.000000 0.000000 0.000000
# 2 0.001496 0.020420 -0.000806 0.000000 0.000000 0.000000
# 3 -0.005235 -0.000806 0.008768 0.000000 0.000000 0.000000
# 4 0.000000 0.000000 0.000000 -3.686522 0.000000 0.000000
# 5 0.000000 0.000000 0.000000 0.000000 0.106216 0.000000
# 6 0.000000 0.000000 0.000000 0.000000 0.000000 0.091740
#
#
# Mechanical properties :
#
#
# Convention : Reuss Voigt Hill
#
# Bulk Modulus (GPa) = 35.34877 71.90628 53.62753
# Shear Modulus (GPa) = -1.45659 25.78818 12.16579
#
# Velocity S-wave (km/s) = -0.84789 3.56763 2.45042
# Velocity P-wave (km/s) = 4.06057 7.24298 5.87150
#
# Compressibility (1/GPa) = 0.02828952
#
# Stress axis : x y z
#
# Youngs Moduli (GPa) = 122.07919 48.97156 114.04524
#
# Poissons Ratio (x) = -0.07328 0.59707
# Poissons Ratio (y) = -0.18267 0.09194
# Poissons Ratio (z) = 0.63913 0.03948
#
# Static dielectric constant tensor:
#      x y z
#    x 1.701140 0.000000 0.000000 
#    y 0.000000 1.763920 0.000000 
#    z 0.000000 0.000000 1.704380 
# 
# From -- ./inp_files/10745.got.cif
#   From: 2010.05.17/outbox.cif.g08.bks.cpg/sg38_6_cif.got.tgz:10745.got - 2010.06.03 18:07:57.
