data_PCOD9359111
_publ_section_title
;
Structure prediction by ZEFSAII (Michael W. Deem and Ramdas Pophale) SiO2 
 PCOD9359111
Probable space group: A M M 2
;
_chemical_formula_sum "Si O2"
_cell_formula_units_Z 56
_cell_length_a 7.666572
_cell_length_b 19.504724
_cell_length_c 15.954437
_cell_angle_alpha 90.000000
_cell_angle_beta 90.000000
_cell_angle_gamma 90.000000
_cell_volume 2385.736700
_symmetry_space_group_name_H-M "A M M 2"
_symmetry_group_IT_number 38
_symmetry_cell_setting 'orthorhombic'
loop_
_space_group_symop_operation_xyz
x,y,z
-x,-y,z
-x,y,z
x,-y,z
x,1/2+y,1/2+z
-x,1/2-y,1/2+z
-x,1/2+y,1/2+z
x,1/2-y,1/2+z
loop_
_atom_site_type_symbol
_atom_site_label
_atom_site_fract_x
_atom_site_fract_y
_atom_site_fract_z
Si Si1 0.705580 0.575471 0.574680
Si Si2 0.706038 0.000000 0.489453
Si Si3 0.214105 0.577989 0.206549
Si Si4 0.197982 0.148374 0.548778
Si Si5 0.298811 0.647856 0.725952
Si Si6 0.210535 0.500000 0.795189
Si Si7 0.197810 0.113072 0.890686
Si Si8 0.294837 0.732743 0.885495
O O1 0.500000 0.572583 0.594409
O O2 0.783332 0.500000 0.592653
O O3 0.777677 0.637982 0.632067
O O4 0.717994 0.588137 0.476196
O O5 0.795968 0.069125 0.520255
O O6 0.500000 0.000000 0.510290
O O7 0.727807 0.000000 0.390282
O O8 0.264408 0.500000 0.182391
O O9 0.274735 0.637724 0.142443
O O10 0.273712 0.590277 0.301494
O O11 0.000000 0.580727 0.205057
O O12 0.279673 0.190529 0.472415
O O13 0.000000 0.173244 0.556419
O O14 0.500000 0.670280 0.718251
O O15 0.285127 0.569247 0.756084
O O16 0.225506 0.691876 0.803468
O O17 0.000000 0.500000 0.790301
O O18 0.201662 0.195048 0.892384
O O19 0.000000 0.087270 0.892533
O O20 0.500000 0.745956 0.873594
#
# Coordination Sequence:
#
# PCOD9359111 Si02
#       8
#     8   4   8   8   8   4   8   8
#     4  10  21  40  66  93 123 159 199 253 313 365
#     4  12  22  34  54  87 128 165 198 243 304 366
#     4   9  19  38  64  92 121 154 195 254 318 356
#     4  11  21  37  63  93 122 156 201 253 307 365
#     4  10  21  39  62  88 123 162 198 249 311 367
#     4  12  22  32  56  91 124 159 200 251 298 360
#     4  11  24  42  63  86 121 165 210 257 301 360
#     4  11  24  41  61  87 125 167 204 245 303 375
#
# _framework density 23.472833999999999
#
# number of rings (size 3 to 8) (size 9 to 14) (size 15 to 20)
#    0.000    1.429    2.857    3.000    0.000    3.143 
#    0.000    5.714    0.000    0.000    0.000    0.000 
#    0.000    0.000    0.000    0.000    0.000    0.000 
#
# Total GULP energy -156330.161407 kJ/mol
# GULP energy per Si atom -5583.220050 kJ/mol
# Density = 2.341941 g / cm^3
# Si number density = 23.472834 Si / 1000 Ang^3
#
#
#
# Elastic Constant Matrix: (Units=GPa)
#
#
# Indices 1 2 3 4 5 6 
#
# 1 72.5335 -5.6026 9.7282 0.0000 0.0000 0.0000
# 2 -5.6026 68.5009 22.1143 0.0000 0.0000 0.0000
# 3 9.7282 22.1143 166.3136 0.0000 0.0000 0.0000
# 4 0.0000 0.0000 0.0000 19.7922 0.0000 0.0000
# 5 0.0000 0.0000 0.0000 0.0000 35.1038 0.0000
# 6 0.0000 0.0000 0.0000 0.0000 0.0000 83.6315
#
#
#
# Elastic Compliance Matrix: (Units=1/GPa)
#
#
# Indices 1 2 3 4 5 6 
#
# 1 0.014037 0.001477 -0.001017 0.000000 0.000000 0.000000
# 2 0.001477 0.015408 -0.002135 0.000000 0.000000 0.000000
# 3 -0.001017 -0.002135 0.006356 0.000000 0.000000 0.000000
# 4 0.000000 0.000000 0.000000 0.050525 0.000000 0.000000
# 5 0.000000 0.000000 0.000000 0.000000 0.028487 0.000000
# 6 0.000000 0.000000 0.000000 0.000000 0.000000 0.011957
#
#
# Mechanical properties :
#
#
# Convention : Reuss Voigt Hill
#
# Bulk Modulus (GPa) = 30.81694 39.98088 35.39891
# Shear Modulus (GPa) = 35.47619 46.44604 40.96112
#
# Velocity S-wave (km/s) = 3.89185 4.45310 4.18190
# Velocity P-wave (km/s) = 5.77518 6.59621 6.19930
#
# Compressibility (1/GPa) = 0.03244968
#
# Stress axis : x y z
#
# Youngs Moduli (GPa) = 71.23906 64.89962 157.32766
#
# Poissons Ratio (x) = -0.09583 0.16007
# Poissons Ratio (y) = -0.10519 0.33592
# Poissons Ratio (z) = 0.07248 0.13857
#
# Static dielectric constant tensor:
#      x y z
#    x 1.861740 0.000000 0.000000 
#    y 0.000000 1.846950 0.000000 
#    z 0.000000 0.000000 2.002540 
# 
# From -- ./inp_files/12526.got.cif
#   From: 2010.05.17/outbox.cif.g08.bks.cpg/sg38_7_cif.got.tgz:12526.got - 2010.06.03 18:07:57.
