data_PCOD9359812
_publ_section_title
;
Structure prediction by ZEFSAII (Michael W. Deem and Ramdas Pophale) SiO2 
 PCOD9359812
Probable space group: A B M 2
;
_chemical_formula_sum "Si O2"
_cell_formula_units_Z 56
_cell_length_a 18.674418
_cell_length_b 8.521982
_cell_length_c 19.472742
_cell_angle_alpha 90.000000
_cell_angle_beta 90.000000
_cell_angle_gamma 90.000000
_cell_volume 3098.951633
_symmetry_space_group_name_H-M "A B M 2"
_symmetry_group_IT_number 39
_symmetry_cell_setting 'orthorhombic'
loop_
_space_group_symop_operation_xyz
x,y,z
-x,-y,z
-x,1/2+y,z
x,1/2-y,z
x,1/2+y,1/2+z
-x,1/2-y,1/2+z
-x,y,1/2+z
x,-y,1/2+z
loop_
_atom_site_type_symbol
_atom_site_label
_atom_site_fract_x
_atom_site_fract_y
_atom_site_fract_z
Si Si1 0.919786 0.437461 0.378010
Si Si2 0.187276 0.070832 0.270445
Si Si3 0.580750 0.063322 0.156916
Si Si4 0.576756 0.938043 0.310320
Si Si5 0.185856 0.067628 0.996031
Si Si6 0.294128 0.571154 0.898905
Si Si7 0.736359 0.941397 0.130383
O O1 0.919852 0.250000 0.382241
O O2 0.877940 0.484133 0.308279
O O3 0.875717 0.499728 0.445366
O O4 0.000000 0.500000 0.378018
O O5 0.164368 0.250000 0.255772
O O6 0.247040 0.075312 0.329719
O O7 0.226365 0.008763 0.202212
O O8 0.578185 0.250000 0.150172
O O9 0.500000 0.000000 0.138367
O O10 0.592712 0.014518 0.236615
O O11 0.654276 0.000499 0.121938
O O12 0.579194 0.750000 0.300766
O O13 0.629636 0.978935 0.371525
O O14 0.500000 0.000000 0.329915
O O15 0.168384 0.250000 0.006344
O O16 0.257121 0.045563 0.950893
O O17 0.209887 0.003955 0.069854
O O18 0.295368 0.750000 0.926697
O O19 0.732789 0.750000 0.130396
#
# Coordination Sequence:
#
# PCOD9359812 Si02
#       7
#     8   8   8   8   8   8   8
#     4  10  20  36  57  83 109 138 176 214 262 319
#     4   9  17  32  55  78 103 136 171 214 262 310
#     4  11  21  32  50  76 106 142 183 228 274 319
#     4  10  18  30  47  72 101 135 176 223 274 318
#     4   9  20  35  55  79 106 140 176 215 259 317
#     4   9  17  31  50  72 100 135 173 215 261 311
#     4  10  19  36  56  78 110 144 180 221 271 321
#
# _framework density 18.070627000000002
#
# number of rings (size 3 to 8) (size 9 to 14) (size 15 to 20)
#    0.000    2.286    1.429    3.000    0.000    2.857 
#    0.000    1.429    0.000    3.429    0.000    0.000 
#    0.000    0.000    0.000    0.000    0.000    0.000 
#
# Total GULP energy -155870.774551 kJ/mol
# GULP energy per Si atom -5566.813377 kJ/mol
# Density = 1.802950 g / cm^3
# Si number density = 18.070627 Si / 1000 Ang^3
#
#
#
# Elastic Constant Matrix: (Units=GPa)
#
#
# Indices 1 2 3 4 5 6 
#
# 1 112.3611 23.4806 36.9792 0.0000 0.0000 0.0000
# 2 23.4806 35.8020 13.6440 0.0000 0.0000 0.0000
# 3 36.9792 13.6440 74.4257 0.0000 0.0000 0.0000
# 4 0.0000 0.0000 0.0000 15.5381 0.0000 0.0000
# 5 0.0000 0.0000 0.0000 0.0000 21.8868 0.0000
# 6 0.0000 0.0000 0.0000 0.0000 0.0000 25.5081
#
#
#
# Elastic Compliance Matrix: (Units=1/GPa)
#
#
# Indices 1 2 3 4 5 6 
#
# 1 0.011681 -0.005858 -0.004730 0.000000 0.000000 0.000000
# 2 -0.005858 0.032968 -0.003133 0.000000 0.000000 0.000000
# 3 -0.004730 -0.003133 0.016361 0.000000 0.000000 0.000000
# 4 0.000000 0.000000 0.000000 0.064358 0.000000 0.000000
# 5 0.000000 0.000000 0.000000 0.000000 0.045690 0.000000
# 6 0.000000 0.000000 0.000000 0.000000 0.000000 0.039203
#
#
# Mechanical properties :
#
#
# Convention : Reuss Voigt Hill
#
# Bulk Modulus (GPa) = 29.79128 41.19958 35.49543
# Shear Modulus (GPa) = 20.08916 22.48560 21.28738
#
# Velocity S-wave (km/s) = 3.33784 3.53132 3.43594
# Velocity P-wave (km/s) = 5.60149 6.28296 5.95199
#
# Compressibility (1/GPa) = 0.03356687
#
# Stress axis : x y z
#
# Youngs Moduli (GPa) = 85.61129 30.33288 61.12251
#
# Poissons Ratio (x) = 0.17770 0.28909
# Poissons Ratio (y) = 0.50153 0.19150
# Poissons Ratio (z) = 0.40492 0.09503
#
# Static dielectric constant tensor:
#      x y z
#    x 1.634740 0.000000 0.000000 
#    y 0.000000 1.643440 0.000000 
#    z 0.000000 0.000000 1.641970 
# 
# From -- ./inp_files/14954.got.cif
#   From: 2010.05.17/outbox.cif.g08.bks.cpg/sg39_8_cif.got.tgz:14954.got - 2010.06.03 18:22:40.
