data_PCOD9359100
_publ_section_title
;
Structure prediction by ZEFSAII (Michael W. Deem and Ramdas Pophale) SiO2 
 PCOD9359100
Probable space group: A M M 2
;
_chemical_formula_sum "Si O2"
_cell_formula_units_Z 48
_cell_length_a 8.658045
_cell_length_b 14.779321
_cell_length_c 20.872317
_cell_angle_alpha 90.000000
_cell_angle_beta 90.000000
_cell_angle_gamma 90.000000
_cell_volume 2670.822232
_symmetry_space_group_name_H-M "A M M 2"
_symmetry_group_IT_number 38
_symmetry_cell_setting 'orthorhombic'
loop_
_space_group_symop_operation_xyz
x,y,z
-x,-y,z
-x,y,z
x,-y,z
x,1/2+y,1/2+z
-x,1/2-y,1/2+z
-x,1/2+y,1/2+z
x,1/2-y,1/2+z
loop_
_atom_site_type_symbol
_atom_site_label
_atom_site_fract_x
_atom_site_fract_y
_atom_site_fract_z
Si Si1 0.815023 0.312334 0.801000
Si Si2 0.314570 0.000000 0.885702
Si Si3 0.184494 0.000000 0.490834
Si Si4 0.814910 0.691217 0.424896
Si Si5 0.312641 0.500000 0.236663
Si Si6 0.683803 0.000000 0.346827
Si Si7 0.686751 0.195315 0.685700
Si Si8 0.685304 0.689229 0.039429
O O1 0.770591 0.249288 0.861750
O O2 0.738067 0.409682 0.810820
O O3 0.760248 0.262964 0.736726
O O4 0.000000 0.322075 0.801501
O O5 0.251735 0.909064 0.917664
O O6 0.500000 0.000000 0.887431
O O7 0.264687 0.000000 0.810943
O O8 0.249908 0.089869 0.523807
O O9 0.238501 0.000000 0.416968
O O10 0.000000 0.000000 0.493026
O O11 0.751268 0.742277 0.486985
O O12 0.000000 0.688055 0.427457
O O13 0.500000 0.500000 0.235299
O O14 0.262913 0.407266 0.203005
O O15 0.500000 0.000000 0.354495
O O16 0.500000 0.199190 0.692056
O O17 0.726711 0.215124 0.612153
O O18 0.500000 0.686370 0.034549
#
# Coordination Sequence:
#
# PCOD9359100 Si02
#       8
#     8   4   4   8   4   4   8   8
#     4  11  23  39  61  89 123 159 199 247 301 363
#     4  11  21  36  63  91 118 153 203 249 291 352
#     4  12  23  37  59  90 127 161 198 251 309 364
#     4  11  23  39  60  87 124 160 198 248 301 359
#     4   9  17  32  58  88 120 152 185 240 295 342
#     4  12  24  39  64  91 119 156 204 256 301 354
#     4  10  21  39  61  89 123 159 202 247 297 357
#     4  11  23  39  62  90 122 162 205 249 300 363
#
# _framework density 17.971993000000001
#
# number of rings (size 3 to 8) (size 9 to 14) (size 15 to 20)
#    0.000    1.167    3.333    3.750    0.000    4.000 
#    0.000    1.250    0.000    5.000    0.000    0.000 
#    0.000    0.000    0.000    0.000    0.000    0.000 
#
# Total GULP energy -134191.146071 kJ/mol
# GULP energy per Si atom -5591.297753 kJ/mol
# Density = 1.793109 g / cm^3
# Si number density = 17.971993 Si / 1000 Ang^3
#
#
#
# Elastic Constant Matrix: (Units=GPa)
#
#
# Indices 1 2 3 4 5 6 
#
# 1 64.6852 52.4547 53.5614 0.0000 0.0000 0.0000
# 2 52.4547 155.6982 84.5262 0.0000 0.0000 0.0000
# 3 53.5614 84.5262 160.0241 0.0000 0.0000 0.0000
# 4 0.0000 0.0000 0.0000 8.0237 0.0000 0.0000
# 5 0.0000 0.0000 0.0000 0.0000 21.4070 0.0000
# 6 0.0000 0.0000 0.0000 0.0000 0.0000 14.9700
#
#
#
# Elastic Compliance Matrix: (Units=1/GPa)
#
#
# Indices 1 2 3 4 5 6 
#
# 1 0.024096 -0.005243 -0.005296 0.000000 0.000000 0.000000
# 2 -0.005243 0.010146 -0.003604 0.000000 0.000000 0.000000
# 3 -0.005296 -0.003604 0.009925 0.000000 0.000000 0.000000
# 4 0.000000 0.000000 0.000000 0.124631 0.000000 0.000000
# 5 0.000000 0.000000 0.000000 0.000000 0.046714 0.000000
# 6 0.000000 0.000000 0.000000 0.000000 0.000000 0.066800
#
#
# Mechanical properties :
#
#
# Convention : Reuss Voigt Hill
#
# Bulk Modulus (GPa) = 62.96695 84.61021 73.78858
# Shear Modulus (GPa) = 15.82820 21.53781 18.68300
#
# Velocity S-wave (km/s) = 2.97090 3.46556 3.22772
# Velocity P-wave (km/s) = 6.84694 7.94950 7.41873
#
# Compressibility (1/GPa) = 0.01588135
#
# Stress axis : x y z
#
# Youngs Moduli (GPa) = 41.50016 98.56390 100.75184
#
# Poissons Ratio (x) = 0.51677 0.53356
# Poissons Ratio (y) = 0.21759 0.36313
# Poissons Ratio (z) = 0.21978 0.35524
#
# Static dielectric constant tensor:
#      x y z
#    x 1.606740 0.000000 0.000000 
#    y 0.000000 1.582980 0.000000 
#    z 0.000000 0.000000 1.595640 
# 
# From -- ./inp_files/16739.got.cif
#   From: 2010.05.17/outbox.cif.g08.bks.cpg/sg38_9_cif.got.tgz:16739.got - 2010.06.03 18:07:57.
