data_PCOD9359014
_publ_section_title
;
Structure prediction by ZEFSAII (Michael W. Deem and Ramdas Pophale) SiO2 
 PCOD9359014
Probable space group: A M M 2
;
_chemical_formula_sum "Si O2"
_cell_formula_units_Z 40
_cell_length_a 8.123962
_cell_length_b 7.892961
_cell_length_c 30.702425
_cell_angle_alpha 90.000000
_cell_angle_beta 90.000000
_cell_angle_gamma 90.000000
_cell_volume 1968.704434
_symmetry_space_group_name_H-M "A M M 2"
_symmetry_group_IT_number 38
_symmetry_cell_setting 'orthorhombic'
loop_
_space_group_symop_operation_xyz
x,y,z
-x,-y,z
-x,y,z
x,-y,z
x,1/2+y,1/2+z
-x,1/2-y,1/2+z
-x,1/2+y,1/2+z
x,1/2-y,1/2+z
loop_
_atom_site_type_symbol
_atom_site_label
_atom_site_fract_x
_atom_site_fract_y
_atom_site_fract_z
Si Si1 0.809745 0.293822 0.313990
Si Si2 0.797735 0.500000 0.560592
Si Si3 0.200906 0.698427 0.408099
Si Si4 0.201020 0.814996 0.502290
Si Si5 0.306344 0.192514 0.719054
Si Si6 0.805470 0.000000 0.159323
O O1 0.807168 0.500000 0.316647
O O2 0.741908 0.235614 0.360877
O O3 0.723928 0.249619 0.268920
O O4 0.000000 0.240370 0.310361
O O5 0.744651 0.335239 0.533597
O O6 0.737468 0.500000 0.610163
O O7 0.000000 0.500000 0.560679
O O8 0.244149 0.500000 0.412317
O O9 0.254450 0.788087 0.452266
O O10 0.000000 0.706481 0.406383
O O11 0.000000 0.809431 0.501465
O O12 0.251505 0.000000 0.517886
O O13 0.500000 0.181513 0.712322
O O14 0.240539 0.332040 0.686057
O O15 0.236457 0.000000 0.714232
O O16 0.000000 0.000000 0.155049
#
# Coordination Sequence:
#
# PCOD9359014 Si02
#       6
#     8   4   8   8   8   4
#     4   8  14  26  47  75 106 141 177 216 264 313
#     4   9  18  31  45  67 101 137 173 217 274 323
#     4   8  12  21  39  63  97 137 170 206 254 309
#     4   9  15  24  40  63  96 135 169 206 258 320
#     4  10  21  38  58  79 108 146 186 229 279 336
#     4  11  23  37  57  83 109 143 187 239 288 329
#
# _framework density 20.317933
#
# number of rings (size 3 to 8) (size 9 to 14) (size 15 to 20)
#    0.000    3.000    1.000    2.100    0.000    2.000 
#    1.800    2.000    0.000    0.000    0.000    2.800 
#    0.000    3.200    0.000    0.000    0.000    0.000 
#
# Total GULP energy -111494.748510 kJ/mol
# GULP energy per Si atom -5574.737425 kJ/mol
# Density = 2.027169 g / cm^3
# Si number density = 20.317933 Si / 1000 Ang^3
#
#
#
# Elastic Constant Matrix: (Units=GPa)
#
#
# Indices 1 2 3 4 5 6 
#
# 1 13.5375 10.5508 13.8860 0.0000 0.0000 0.0000
# 2 10.5508 129.3370 100.3768 0.0000 0.0000 0.0000
# 3 13.8860 100.3768 188.4624 0.0000 0.0000 0.0000
# 4 0.0000 0.0000 0.0000 -11.7524 0.0000 0.0000
# 5 0.0000 0.0000 0.0000 0.0000 -24.0231 0.0000
# 6 0.0000 0.0000 0.0000 0.0000 0.0000 6.8741
#
#
#
# Elastic Compliance Matrix: (Units=1/GPa)
#
#
# Indices 1 2 3 4 5 6 
#
# 1 0.080755 -0.003358 -0.004162 0.000000 0.000000 0.000000
# 2 -0.003358 0.013319 -0.006846 0.000000 0.000000 0.000000
# 3 -0.004162 -0.006846 0.009259 0.000000 0.000000 0.000000
# 4 0.000000 0.000000 0.000000 -0.085089 0.000000 0.000000
# 5 0.000000 0.000000 0.000000 0.000000 -0.041627 0.000000
# 6 0.000000 0.000000 0.000000 0.000000 0.000000 0.145475
#
#
# Mechanical properties :
#
#
# Convention : Reuss Voigt Hill
#
# Bulk Modulus (GPa) = 13.40463 64.55158 38.97811
# Shear Modulus (GPa) = 28.45911 7.98793 18.22352
#
# Velocity S-wave (km/s) = 3.74664 1.98494 2.99811
# Velocity P-wave (km/s) = 5.03271 6.09041 5.58665
#
# Compressibility (1/GPa) = 0.07460106
#
# Stress axis : x y z
#
# Youngs Moduli (GPa) = 12.38319 75.07994 108.00033
#
# Poissons Ratio (x) = 0.25211 0.44946
# Poissons Ratio (y) = 0.04158 0.73942
# Poissons Ratio (z) = 0.05153 0.51403
#
# Static dielectric constant tensor:
#      x y z
#    x 1.708340 0.000000 0.000000 
#    y 0.000000 1.766490 0.000000 
#    z 0.000000 0.000000 1.724480 
# 
# From -- ./inp_files/23210.got.cif
#   From: 2010.05.17/outbox.cif.g08.bks.cpg/sg38_12_cif.got.tgz:23210.got - 2010.06.03 18:07:57.
