data_PCOD9359220
_publ_section_title
;
Structure prediction by ZEFSAII (Michael W. Deem and Ramdas Pophale) SiO2 
 PCOD9359220
Probable space group: A M M 2
;
_chemical_formula_sum "Si O2"
_cell_formula_units_Z 64
_cell_length_a 9.153120
_cell_length_b 33.915498
_cell_length_c 11.937448
_cell_angle_alpha 90.000000
_cell_angle_beta 90.000000
_cell_angle_gamma 90.000000
_cell_volume 3705.773295
_symmetry_space_group_name_H-M "A M M 2"
_symmetry_group_IT_number 38
_symmetry_cell_setting 'orthorhombic'
loop_
_space_group_symop_operation_xyz
x,y,z
-x,-y,z
-x,y,z
x,-y,z
x,1/2+y,1/2+z
-x,1/2-y,1/2+z
-x,1/2+y,1/2+z
x,1/2-y,1/2+z
loop_
_atom_site_type_symbol
_atom_site_label
_atom_site_fract_x
_atom_site_fract_y
_atom_site_fract_z
Si Si1 0.328745 0.325503 0.070240
Si Si2 0.174324 0.456953 0.952948
Si Si3 0.828319 0.820156 0.970389
Si Si4 0.823524 0.545675 0.214364
Si Si5 0.328272 0.314249 0.706741
Si Si6 0.334977 0.113654 0.364368
Si Si7 0.171163 0.730673 0.907375
Si Si8 0.676115 0.874754 0.792809
O O1 0.500000 0.314026 0.078112
O O2 0.284906 0.346662 0.185777
O O3 0.316326 0.358540 0.973210
O O4 0.236067 0.289192 0.020812
O O5 0.229514 0.500000 0.918861
O O6 0.217499 0.450225 0.082680
O O7 0.000000 0.457751 0.953245
O O8 0.227954 0.422446 0.874685
O O9 0.815454 0.777630 0.910885
O O10 0.742025 0.853054 0.900713
O O11 0.000000 0.830012 0.978164
O O12 0.758595 0.813687 0.091937
O O13 0.788721 0.500000 0.246945
O O14 0.743896 0.581662 0.276243
O O15 0.000000 0.549964 0.223673
O O16 0.500000 0.305082 0.691941
O O17 0.316479 0.357990 0.759115
O O18 0.259210 0.286195 0.801517
O O19 0.500000 0.098443 0.366737
O O20 0.000000 0.720048 0.898569
O O21 0.500000 0.877108 0.797095
#
# Coordination Sequence:
#
# PCOD9359220 Si02
#       8
#     8   8   8   8   8   8   8   8
#     4   9  19  34  52  79 111 143 182 222 268 330
#     4   9  17  28  46  77 112 143 176 214 263 324
#     4  11  25  41  57  81 111 145 189 234 279 333
#     4   9  18  33  53  80 116 153 187 229 283 338
#     4  10  22  40  59  79 107 142 184 228 275 331
#     4   9  17  32  52  76 105 138 175 218 265 316
#     4  10  22  38  58  82 109 142 182 230 279 329
#     4  11  22  36  56  84 115 150 190 232 284 339
#
# _framework density 17.270350000000001
#
# number of rings (size 3 to 8) (size 9 to 14) (size 15 to 20)
#    0.000    2.250    1.250    3.000    1.750    6.000 
#    0.000    1.250    0.000    0.750    0.000    3.500 
#    0.000    0.000    0.000    0.000    0.000    0.000 
#
# Total GULP energy -178470.822994 kJ/mol
# GULP energy per Si atom -5577.213219 kJ/mol
# Density = 1.723104 g / cm^3
# Si number density = 17.270350 Si / 1000 Ang^3
#
#
#
# Elastic Constant Matrix: (Units=GPa)
#
#
# Indices 1 2 3 4 5 6 
#
# 1 68.8349 47.8460 30.2212 0.0000 0.0000 0.0000
# 2 47.8460 69.4303 18.9223 0.0000 0.0000 0.0000
# 3 30.2212 18.9223 65.3128 0.0000 0.0000 0.0000
# 4 0.0000 0.0000 0.0000 13.7585 0.0000 0.0000
# 5 0.0000 0.0000 0.0000 0.0000 24.9947 0.0000
# 6 0.0000 0.0000 0.0000 0.0000 0.0000 60.4839
#
#
#
# Elastic Compliance Matrix: (Units=1/GPa)
#
#
# Indices 1 2 3 4 5 6 
#
# 1 0.032304 -0.019747 -0.009227 0.000000 0.000000 0.000000
# 2 -0.019747 0.027709 0.001109 0.000000 0.000000 0.000000
# 3 -0.009227 0.001109 0.019259 0.000000 0.000000 0.000000
# 4 0.000000 0.000000 0.000000 0.072682 0.000000 0.000000
# 5 0.000000 0.000000 0.000000 0.000000 0.040009 0.000000
# 6 0.000000 0.000000 0.000000 0.000000 0.000000 0.016533
#
#
# Mechanical properties :
#
#
# Convention : Reuss Voigt Hill
#
# Bulk Modulus (GPa) = 42.47450 44.17299 43.32374
# Shear Modulus (GPa) = 18.37757 26.95334 22.66545
#
# Velocity S-wave (km/s) = 3.26561 3.95482 3.62662
# Velocity P-wave (km/s) = 6.23428 6.81814 6.53273
#
# Compressibility (1/GPa) = 0.02354354
#
# Stress axis : x y z
#
# Youngs Moduli (GPa) = 30.95592 36.08996 51.92451
#
# Poissons Ratio (x) = 0.71266 0.47908
# Poissons Ratio (y) = 0.61128 -0.05761
# Poissons Ratio (z) = 0.28562 -0.04004
#
# Static dielectric constant tensor:
#      x y z
#    x 1.584040 0.000000 0.000000 
#    y 0.000000 1.584400 0.000000 
#    z 0.000000 0.000000 1.571140 
# 
# From -- ./inp_files/8615.got.cif
#   From: 2010.05.17/outbox.cif.g08.bks.cpg/sg38_5_cif.got.tgz:8615.got - 2010.06.03 18:07:57.
