data_PCOD9359949
_publ_section_title
;
Structure prediction by ZEFSAII (Michael W. Deem and Ramdas Pophale) SiO2 
 PCOD9359949
Probable space group: A B M 2
;
_chemical_formula_sum "Si O2"
_cell_formula_units_Z 64
_cell_length_a 19.916712
_cell_length_b 8.553506
_cell_length_c 21.140301
_cell_angle_alpha 90.000000
_cell_angle_beta 90.000000
_cell_angle_gamma 90.000000
_cell_volume 3601.413385
_symmetry_space_group_name_H-M "A B M 2"
_symmetry_group_IT_number 39
_symmetry_cell_setting 'orthorhombic'
loop_
_space_group_symop_operation_xyz
x,y,z
-x,-y,z
-x,1/2+y,z
x,1/2-y,z
x,1/2+y,1/2+z
-x,1/2-y,1/2+z
-x,y,1/2+z
x,-y,1/2+z
loop_
_atom_site_type_symbol
_atom_site_label
_atom_site_fract_x
_atom_site_fract_y
_atom_site_fract_z
Si Si1 0.215711 0.939547 0.027400
Si Si2 0.927703 0.936862 0.332882
Si Si3 0.706279 0.437732 0.405327
Si Si4 0.208090 0.438535 0.782272
Si Si5 0.072445 0.561777 0.979986
Si Si6 0.572534 0.563608 0.351135
Si Si7 0.572680 0.562193 0.708503
Si Si8 0.713797 0.559339 0.656576
O O1 0.216546 0.750000 0.026176
O O2 0.250693 0.992537 0.092210
O O3 0.137930 0.988946 0.019021
O O4 0.257207 0.000400 0.967541
O O5 0.927900 0.750000 0.331962
O O6 0.917926 0.988054 0.406443
O O7 0.866762 0.999859 0.291525
O O8 0.000000 0.000000 0.312363
O O9 0.703666 0.250000 0.406258
O O10 0.749001 0.487679 0.343576
O O11 0.632072 0.505020 0.395646
O O12 0.206764 0.250000 0.781685
O O13 0.244310 0.491375 0.718188
O O14 0.070004 0.750000 0.980754
O O15 0.000000 0.500000 0.001454
O O16 0.500000 0.500000 0.371557
O O17 0.571107 0.750000 0.348143
O O18 0.584264 0.497316 0.280201
O O19 0.500000 0.500000 0.687675
O O20 0.570503 0.750000 0.710508
O O21 0.636236 0.512290 0.666353
O O22 0.714232 0.750000 0.656361
#
# Coordination Sequence:
#
# PCOD9359949 Si02
#       8
#     8   8   8   8   8   8   8   8
#     4  10  20  37  57  80 109 147 189 228 273 330
#     4  10  19  32  51  80 109 139 178 226 276 326
#     4  11  21  35  56  82 112 143 181 226 274 326
#     4  10  19  34  55  79 107 143 181 222 270 325
#     4   9  18  31  51  77 104 135 178 224 271 327
#     4  11  21  34  55  83 113 145 182 230 279 327
#     4  10  18  33  54  81 109 143 184 225 274 328
#     4   9  19  36  57  78 109 149 186 223 274 332
#
# _framework density 17.770800999999999
#
# number of rings (size 3 to 8) (size 9 to 14) (size 15 to 20)
#    0.000    2.000    2.500    3.000    0.000    1.500 
#    0.000    3.125    0.000    3.000    0.000    0.000 
#    0.000    0.000    0.000    0.000    0.000    0.000 
#
# Total GULP energy -178602.376709 kJ/mol
# GULP energy per Si atom -5581.324272 kJ/mol
# Density = 1.773035 g / cm^3
# Si number density = 17.770801 Si / 1000 Ang^3
#
#
#
# Elastic Constant Matrix: (Units=GPa)
#
#
# Indices 1 2 3 4 5 6 
#
# 1 199.1347 33.1029 91.2056 0.0000 0.0000 0.0000
# 2 33.1029 32.8923 25.9518 0.0000 0.0000 0.0000
# 3 91.2056 25.9518 116.7874 0.0000 0.0000 0.0000
# 4 0.0000 0.0000 0.0000 16.6663 0.0000 0.0000
# 5 0.0000 0.0000 0.0000 0.0000 28.7546 0.0000
# 6 0.0000 0.0000 0.0000 0.0000 0.0000 29.0071
#
#
#
# Elastic Compliance Matrix: (Units=1/GPa)
#
#
# Indices 1 2 3 4 5 6 
#
# 1 0.008208 -0.003884 -0.005547 0.000000 0.000000 0.000000
# 2 -0.003884 0.038704 -0.005567 0.000000 0.000000 0.000000
# 3 -0.005547 -0.005567 0.014132 0.000000 0.000000 0.000000
# 4 0.000000 0.000000 0.000000 0.060001 0.000000 0.000000
# 5 0.000000 0.000000 0.000000 0.000000 0.034777 0.000000
# 6 0.000000 0.000000 0.000000 0.000000 0.000000 0.034474
#
#
# Mechanical properties :
#
#
# Convention : Reuss Voigt Hill
#
# Bulk Modulus (GPa) = 32.20951 72.14833 52.17892
# Shear Modulus (GPa) = 21.67873 28.12256 24.90064
#
# Velocity S-wave (km/s) = 3.49651 3.98240 3.74734
# Velocity P-wave (km/s) = 5.87069 7.86343 6.93897
#
# Compressibility (1/GPa) = 0.03104674
#
# Stress axis : x y z
#
# Youngs Moduli (GPa) = 121.83339 25.83741 70.76338
#
# Poissons Ratio (x) = 0.10035 0.39252
# Poissons Ratio (y) = 0.47320 0.39396
# Poissons Ratio (z) = 0.67580 0.14384
#
# Static dielectric constant tensor:
#      x y z
#    x 1.611420 0.000000 0.000000 
#    y 0.000000 1.605600 0.000000 
#    z 0.000000 0.000000 1.585300 
# 
# From -- ./inp_files/13126.got.cif
#   From: 2010.05.17/outbox.cif.g08.bks.cpg/sg39_7_cif.got.tgz:13126.got - 2010.06.03 18:22:40.
