data_PCOD9359806
_publ_section_title
;
Structure prediction by ZEFSAII (Michael W. Deem and Ramdas Pophale) SiO2 
 PCOD9359806
Probable space group: A B M 2
;
_chemical_formula_sum "Si O2"
_cell_formula_units_Z 64
_cell_length_a 11.664183
_cell_length_b 31.606032
_cell_length_c 9.083096
_cell_angle_alpha 90.000000
_cell_angle_beta 90.000000
_cell_angle_gamma 90.000000
_cell_volume 3348.560921
_symmetry_space_group_name_H-M "A B M 2"
_symmetry_group_IT_number 39
_symmetry_cell_setting 'orthorhombic'
loop_
_space_group_symop_operation_xyz
x,y,z
-x,-y,z
-x,1/2+y,z
x,1/2-y,z
x,1/2+y,1/2+z
-x,1/2-y,1/2+z
-x,y,1/2+z
x,-y,1/2+z
loop_
_atom_site_type_symbol
_atom_site_label
_atom_site_fract_x
_atom_site_fract_y
_atom_site_fract_z
Si Si1 0.304391 0.558502 0.504450
Si Si2 0.063801 0.698706 0.256139
Si Si3 0.554817 0.145699 0.228184
Si Si4 0.635887 0.511496 0.291199
Si Si5 0.761172 0.350166 0.456700
Si Si6 0.844301 0.199348 0.935470
Si Si7 0.561570 0.589908 0.457505
Si Si8 0.653254 0.699981 0.224899
O O1 0.302765 0.529143 0.360127
O O2 0.299416 0.530091 0.650303
O O3 0.225603 0.599954 0.493269
O O4 0.435310 0.575179 0.506662
O O5 0.079258 0.750000 0.267366
O O6 0.135796 0.674157 0.379472
O O7 0.932687 0.689498 0.302448
O O8 0.107634 0.684456 0.094062
O O9 0.657075 0.152558 0.340177
O O10 0.461783 0.115384 0.308147
O O11 0.479904 0.187568 0.206381
O O12 0.600365 0.121052 0.086033
O O13 0.500000 0.500000 0.259534
O O14 0.631255 0.548235 0.415708
O O15 0.719174 0.325774 0.600046
O O16 0.845479 0.250000 0.950346
O O17 0.716706 0.188405 0.879098
O O18 0.667553 0.750000 0.204349
#
# Coordination Sequence:
#
# PCOD9359806 Si02
#       8
#     8   8   8   8   8   8   8   8
#     4  10  20  31  47  75 103 143 183 228 275 330
#     4  10  20  38  61  84 111 143 186 237 287 333
#     4  11  21  35  49  75 114 154 187 232 268 333
#     4  10  18  29  51  71 100 144 189 228 280 331
#     4  11  23  36  52  78 117 153 189 236 275 336
#     4   9  20  37  61  87 106 138 190 245 289 329
#     4  10  18  33  49  68 103 145 186 228 274 319
#     4  11  22  37  54  75 111 156 196 232 279 332
#
# _framework density 19.112689
#
# number of rings (size 3 to 8) (size 9 to 14) (size 15 to 20)
#    0.000    1.750    3.750    2.250    5.250    3.000 
#    0.000    0.000    0.000    0.000    0.000    0.000 
#    0.000   21.000    0.000    0.000    0.000    0.000 
#
# Total GULP energy -178406.952775 kJ/mol
# GULP energy per Si atom -5575.217274 kJ/mol
# Density = 1.906919 g / cm^3
# Si number density = 19.112689 Si / 1000 Ang^3
#
#
#
# Elastic Constant Matrix: (Units=GPa)
#
#
# Indices 1 2 3 4 5 6 
#
# 1 31.7321 16.1424 3.0291 0.0000 0.0000 0.0000
# 2 16.1424 89.9005 30.0514 0.0000 0.0000 0.0000
# 3 3.0291 30.0514 84.6382 0.0000 0.0000 0.0000
# 4 0.0000 0.0000 0.0000 40.3792 0.0000 0.0000
# 5 0.0000 0.0000 0.0000 0.0000 18.5004 0.0000
# 6 0.0000 0.0000 0.0000 0.0000 0.0000 11.5893
#
#
#
# Elastic Compliance Matrix: (Units=1/GPa)
#
#
# Indices 1 2 3 4 5 6 
#
# 1 0.034772 -0.006612 0.001103 0.000000 0.000000 0.000000
# 2 -0.006612 0.013879 -0.004691 0.000000 0.000000 0.000000
# 3 0.001103 -0.004691 0.013441 0.000000 0.000000 0.000000
# 4 0.000000 0.000000 0.000000 0.024765 0.000000 0.000000
# 5 0.000000 0.000000 0.000000 0.000000 0.054053 0.000000
# 6 0.000000 0.000000 0.000000 0.000000 0.000000 0.086287
#
#
# Mechanical properties :
#
#
# Convention : Reuss Voigt Hill
#
# Bulk Modulus (GPa) = 23.98558 33.85741 28.92150
# Shear Modulus (GPa) = 19.12084 24.56363 21.84223
#
# Velocity S-wave (km/s) = 3.16638 3.58886 3.38422
# Velocity P-wave (km/s) = 5.09360 5.90985 5.51684
#
# Compressibility (1/GPa) = 0.04169172
#
# Stress axis : x y z
#
# Youngs Moduli (GPa) = 28.75854 72.05204 74.39852
#
# Poissons Ratio (x) = 0.47644 -0.08209
# Poissons Ratio (y) = 0.19017 0.34901
# Poissons Ratio (z) = -0.03173 0.33801
#
# Static dielectric constant tensor:
#      x y z
#    x 1.669160 0.000000 0.000000 
#    y 0.000000 1.718880 0.000000 
#    z 0.000000 0.000000 1.718690 
# 
# From -- ./inp_files/2890.got.cif
#   From: 2010.05.17/outbox.cif.g08.bks.cpg/sg39_2_cif.got.tgz:2890.got - 2010.06.03 18:22:40.
