data_PCOD9359930
_publ_section_title
;
Structure prediction by ZEFSAII (Michael W. Deem and Ramdas Pophale) SiO2 
 PCOD9359930
Probable space group: A B M 2
;
_chemical_formula_sum "Si O2"
_cell_formula_units_Z 64
_cell_length_a 16.692159
_cell_length_b 22.554495
_cell_length_c 8.700614
_cell_angle_alpha 90.000000
_cell_angle_beta 90.000000
_cell_angle_gamma 90.000000
_cell_volume 3275.635146
_symmetry_space_group_name_H-M "A B M 2"
_symmetry_group_IT_number 39
_symmetry_cell_setting 'orthorhombic'
loop_
_space_group_symop_operation_xyz
x,y,z
-x,-y,z
-x,1/2+y,z
x,1/2-y,z
x,1/2+y,1/2+z
-x,1/2-y,1/2+z
-x,y,1/2+z
x,-y,1/2+z
loop_
_atom_site_type_symbol
_atom_site_label
_atom_site_fract_x
_atom_site_fract_y
_atom_site_fract_z
Si Si1 0.746517 0.819435 0.373490
Si Si2 0.993143 0.889012 0.115612
Si Si3 0.835974 0.033387 0.670397
Si Si4 0.590261 0.177860 0.373747
Si Si5 0.579679 0.678293 0.516062
Si Si6 0.908148 0.318530 0.371160
Si Si7 0.845829 0.920276 0.498111
Si Si8 0.246748 0.860850 0.523866
O O1 0.754246 0.750000 0.404778
O O2 0.656357 0.839593 0.415169
O O3 0.806182 0.856201 0.482622
O O4 0.762923 0.830730 0.193002
O O5 0.047412 0.862175 0.252084
O O6 0.925538 0.938690 0.147113
O O7 0.058656 0.914306 0.998179
O O8 0.947836 0.834416 0.035402
O O9 0.815987 0.047219 0.845245
O O10 0.779859 0.071929 0.558473
O O11 0.828643 0.964281 0.636966
O O12 0.597218 0.250000 0.385401
O O13 0.505428 0.159462 0.447334
O O14 0.590861 0.161556 0.193773
O O15 0.664392 0.149574 0.463391
O O16 0.578102 0.750000 0.511957
O O17 0.918801 0.250000 0.329721
O O18 0.815175 0.333466 0.400736
#
# Coordination Sequence:
#
# PCOD9359930 Si02
#       8
#     8   8   8   8   8   8   8   8
#     4  10  21  39  60  90 126 159 200 252 315 371
#     4  11  23  40  57  84 114 155 205 253 304 364
#     4  10  24  41  59  85 113 154 206 254 307 353
#     4  10  18  32  55  86 123 166 206 248 301 364
#     4   9  19  32  54  87 124 164 204 246 302 367
#     4  11  23  38  57  85 122 162 200 250 316 372
#     4  11  24  40  63  84 113 155 199 255 299 361
#     4  10  22  38  58  87 122 165 206 253 307 362
#
# _framework density 19.538194000000001
#
# number of rings (size 3 to 8) (size 9 to 14) (size 15 to 20)
#    0.000    1.750    1.250    2.625    5.250    4.000 
#    0.000    0.000    0.000    0.750    0.000    5.250 
#    0.000    0.000    0.000    0.000    0.000    0.000 
#
# Total GULP energy -178582.180134 kJ/mol
# GULP energy per Si atom -5580.693129 kJ/mol
# Density = 1.949372 g / cm^3
# Si number density = 19.538194 Si / 1000 Ang^3
#
#
#
# Elastic Constant Matrix: (Units=GPa)
#
#
# Indices 1 2 3 4 5 6 
#
# 1 61.9129 12.3309 22.5783 0.0000 0.0000 0.0000
# 2 12.3309 65.4377 18.7771 0.0000 0.0000 0.0000
# 3 22.5783 18.7771 61.8736 0.0000 0.0000 0.0000
# 4 0.0000 0.0000 0.0000 23.4108 0.0000 0.0000
# 5 0.0000 0.0000 0.0000 0.0000 38.5435 0.0000
# 6 0.0000 0.0000 0.0000 0.0000 0.0000 12.1992
#
#
#
# Elastic Compliance Matrix: (Units=1/GPa)
#
#
# Indices 1 2 3 4 5 6 
#
# 1 0.018807 -0.001725 -0.006339 0.000000 0.000000 0.000000
# 2 -0.001725 0.016898 -0.004499 0.000000 0.000000 0.000000
# 3 -0.006339 -0.004499 0.019841 0.000000 0.000000 0.000000
# 4 0.000000 0.000000 0.000000 0.042715 0.000000 0.000000
# 5 0.000000 0.000000 0.000000 0.000000 0.025945 0.000000
# 6 0.000000 0.000000 0.000000 0.000000 0.000000 0.081973
#
#
# Mechanical properties :
#
#
# Convention : Reuss Voigt Hill
#
# Bulk Modulus (GPa) = 32.87374 32.95521 32.91448
# Shear Modulus (GPa) = 20.70877 23.86656 22.28766
#
# Velocity S-wave (km/s) = 3.25916 3.49884 3.38112
# Velocity P-wave (km/s) = 5.56999 5.76421 5.66793
#
# Compressibility (1/GPa) = 0.03041941
#
# Stress axis : x y z
#
# Youngs Moduli (GPa) = 53.17133 59.18006 50.40191
#
# Poissons Ratio (x) = 0.10208 0.31952
# Poissons Ratio (y) = 0.09171 0.22674
# Poissons Ratio (z) = 0.33708 0.26623
#
# Static dielectric constant tensor:
#      x y z
#    x 1.686240 0.000000 0.000000 
#    y 0.000000 1.676720 0.000000 
#    z 0.000000 0.000000 1.740290 
# 
# From -- ./inp_files/3531.got.cif
#   From: 2010.05.17/outbox.cif.g08.bks.cpg/sg39_2_cif.got.tgz:3531.got - 2010.06.03 18:22:40.
