data_PCOD9359534
_publ_section_title
;
Structure prediction by ZEFSAII (Michael W. Deem and Ramdas Pophale) SiO2 
 PCOD9359534
Probable space group: A M M 2
;
_chemical_formula_sum "Si O2"
_cell_formula_units_Z 56
_cell_length_a 16.220348
_cell_length_b 7.382509
_cell_length_c 20.918998
_cell_angle_alpha 90.000000
_cell_angle_beta 90.000000
_cell_angle_gamma 90.000000
_cell_volume 2504.984431
_symmetry_space_group_name_H-M "A M M 2"
_symmetry_group_IT_number 38
_symmetry_cell_setting 'orthorhombic'
loop_
_space_group_symop_operation_xyz
x,y,z
-x,-y,z
-x,y,z
x,-y,z
x,1/2+y,1/2+z
-x,1/2-y,1/2+z
-x,1/2+y,1/2+z
x,1/2-y,1/2+z
loop_
_atom_site_type_symbol
_atom_site_label
_atom_site_fract_x
_atom_site_fract_y
_atom_site_fract_z
Si Si1 0.730899 0.283143 0.342680
Si Si2 0.087468 0.290520 0.372743
Si Si3 0.134160 0.280394 0.013383
Si Si4 0.730357 0.278979 0.202437
Si Si5 0.408678 0.778603 0.602671
Si Si6 0.318202 0.214980 0.481243
Si Si7 0.909810 0.779467 0.656518
O O1 0.737307 0.500000 0.340548
O O2 0.824333 0.211217 0.353003
O O3 0.702040 0.223103 0.273165
O O4 0.677449 0.245669 0.405570
O O5 0.087686 0.500000 0.351227
O O6 0.089651 0.285925 0.449825
O O7 0.000000 0.210508 0.351377
O O8 0.131720 0.500000 0.011540
O O9 0.228834 0.218672 0.005343
O O10 0.098877 0.227192 0.081832
O O11 0.731620 0.500000 0.199647
O O12 0.665575 0.220055 0.148823
O O13 0.825003 0.220920 0.190213
O O14 0.500000 0.719228 0.621793
O O15 0.387112 0.720274 0.530304
O O16 0.409172 0.000000 0.604540
O O17 0.315380 0.000000 0.489244
O O18 0.000000 0.720788 0.680758
O O19 0.909528 0.000000 0.659124
#
# Coordination Sequence:
#
# PCOD9359534 Si02
#       7
#     8   8   8   8   8   8   8
#     4   9  18  30  46  66  93 127 155 185 230 275
#     4   9  17  27  38  57  88 123 157 188 221 268
#     4   9  15  25  42  64  88 113 147 193 235 266
#     4   9  16  28  43  64  93 121 152 191 228 269
#     4   9  16  28  49  73  93 117 152 192 233 274
#     4   9  16  29  49  70  92 117 150 192 231 271
#     4   9  15  22  37  63  91 116 146 189 234 266
#
# _framework density 22.355428
#
# number of rings (size 3 to 8) (size 9 to 14) (size 15 to 20)
#    0.000    3.000    1.429    0.429    0.000    1.429 
#    0.000    3.571    0.000    3.000    0.000    0.000 
#    0.000    0.000    0.000    0.000    0.000    0.000 
#
# Total GULP energy -156190.962416 kJ/mol
# GULP energy per Si atom -5578.248658 kJ/mol
# Density = 2.230455 g / cm^3
# Si number density = 22.355428 Si / 1000 Ang^3
#
#
#
# Elastic Constant Matrix: (Units=GPa)
#
#
# Indices 1 2 3 4 5 6 
#
# 1 118.0009 2.6633 62.0818 0.0000 0.0000 0.0000
# 2 2.6633 74.7419 -5.9304 0.0000 0.0000 0.0000
# 3 62.0818 -5.9304 136.6693 0.0000 0.0000 0.0000
# 4 0.0000 0.0000 0.0000 12.7376 0.0000 0.0000
# 5 0.0000 0.0000 0.0000 0.0000 -11.4605 0.0000
# 6 0.0000 0.0000 0.0000 0.0000 0.0000 -5.4466
#
#
#
# Elastic Compliance Matrix: (Units=1/GPa)
#
#
# Indices 1 2 3 4 5 6 
#
# 1 0.011184 -0.000804 -0.005115 0.000000 0.000000 0.000000
# 2 -0.000804 0.013483 0.000950 0.000000 0.000000 0.000000
# 3 -0.005115 0.000950 0.009682 0.000000 0.000000 0.000000
# 4 0.000000 0.000000 0.000000 0.078507 0.000000 0.000000
# 5 0.000000 0.000000 0.000000 0.000000 -0.087256 0.000000
# 6 0.000000 0.000000 0.000000 0.000000 0.000000 -0.183600
#
#
# Mechanical properties :
#
#
# Convention : Reuss Voigt Hill
#
# Bulk Modulus (GPa) = 40.96533 49.67129 45.31831
# Shear Modulus (GPa) = -35.73351 17.20593 -9.26379
#
# Velocity S-wave (km/s) = -4.00237 2.77727 -2.03786
# Velocity P-wave (km/s) = 1.73040 5.70539 3.84429
#
# Compressibility (1/GPa) = 0.02441088
#
# Stress axis : x y z
#
# Youngs Moduli (GPa) = 89.41510 74.16497 103.28759
#
# Poissons Ratio (x) = 0.05966 0.52833
# Poissons Ratio (y) = 0.07192 -0.09817
# Poissons Ratio (z) = 0.45737 -0.07049
#
# Static dielectric constant tensor:
#      x y z
#    x 1.810890 0.000000 0.000000 
#    y 0.000000 1.902680 0.000000 
#    z 0.000000 0.000000 1.817700 
# 
# From -- ./inp_files/18731.got.cif
#   From: 2010.05.17/outbox.cif.g08.bks.cpg/sg38_10_cif.got.tgz:18731.got - 2010.06.03 18:07:57.
