data_PCOD9359319
_publ_section_title
;
Structure prediction by ZEFSAII (Michael W. Deem and Ramdas Pophale) SiO2 
 PCOD9359319
Probable space group: A M M 2
;
_chemical_formula_sum "Si O2"
_cell_formula_units_Z 56
_cell_length_a 21.478999
_cell_length_b 13.917182
_cell_length_c 9.056213
_cell_angle_alpha 90.000000
_cell_angle_beta 90.000000
_cell_angle_gamma 90.000000
_cell_volume 2707.147836
_symmetry_space_group_name_H-M "A M M 2"
_symmetry_group_IT_number 38
_symmetry_cell_setting 'orthorhombic'
loop_
_space_group_symop_operation_xyz
x,y,z
-x,-y,z
-x,y,z
x,-y,z
x,1/2+y,1/2+z
-x,1/2-y,1/2+z
-x,1/2+y,1/2+z
x,1/2-y,1/2+z
loop_
_atom_site_type_symbol
_atom_site_label
_atom_site_fract_x
_atom_site_fract_y
_atom_site_fract_z
Si Si1 0.315337 0.614297 0.768000
Si Si2 0.000000 0.106484 0.045579
Si Si3 0.193966 0.225685 0.331743
Si Si4 0.594720 0.885843 0.772863
Si Si5 0.569340 0.703104 0.947799
Si Si6 0.279806 0.890047 0.937491
Si Si7 0.893924 0.759185 0.579514
Si Si8 0.000000 0.105299 0.693710
O O1 0.321108 0.500000 0.778538
O O2 0.250224 0.650102 0.838089
O O3 0.374150 0.660883 0.850281
O O4 0.310127 0.641329 0.594113
O O5 0.000000 0.100381 0.869187
O O6 0.062096 0.165993 0.081624
O O7 0.000000 0.000000 0.110327
O O8 0.223661 0.324140 0.389164
O O9 0.131012 0.206838 0.421662
O O10 0.169107 0.240527 0.168077
O O11 0.569081 0.816925 0.904541
O O12 0.579857 0.832842 0.617146
O O13 0.668225 0.885890 0.809563
O O14 0.575831 0.000000 0.772593
O O15 0.500000 0.667309 0.905862
O O16 0.260114 0.000000 0.958378
O O17 0.938136 0.839668 0.646535
O O18 0.000000 0.000000 0.627629
#
# Coordination Sequence:
#
# PCOD9359319 Si02
#       8
#     8   4   8   8   8   8   8   4
#     4  11  25  44  68 100 137 179 232 292 354 421
#     4  10  22  43  68  93 130 181 223 262 324 398
#     4  12  23  41  66  98 135 170 222 279 344 404
#     4  11  25  46  72 103 139 182 234 292 357 426
#     4  12  26  45  72 103 140 186 235 291 359 430
#     4  10  23  43  68  95 131 178 224 280 351 420
#     4  11  24  40  66 100 131 173 220 275 329 398
#     4  10  22  43  66  95 136 173 219 268 322 398
#
# _framework density 20.685977999999999
#
# number of rings (size 3 to 8) (size 9 to 14) (size 15 to 20)
#    0.000    1.000    4.286    1.714    2.000    4.286 
#    0.000    2.143    0.000    8.571    0.000    0.000 
#    0.000    0.000    0.000    0.000    0.000    0.000 
#
# Total GULP energy -156250.073032 kJ/mol
# GULP energy per Si atom -5580.359751 kJ/mol
# Density = 2.063890 g / cm^3
# Si number density = 20.685978 Si / 1000 Ang^3
#
#
#
# Elastic Constant Matrix: (Units=GPa)
#
#
# Indices 1 2 3 4 5 6 
#
# 1 119.3595 49.5354 25.9624 0.0000 0.0000 0.0000
# 2 49.5354 127.7290 46.3198 0.0000 0.0000 0.0000
# 3 25.9624 46.3198 72.9772 0.0000 0.0000 0.0000
# 4 0.0000 0.0000 0.0000 29.1483 0.0000 0.0000
# 5 0.0000 0.0000 0.0000 0.0000 -32.1833 0.0000
# 6 0.0000 0.0000 0.0000 0.0000 0.0000 -6.5276
#
#
#
# Elastic Compliance Matrix: (Units=1/GPa)
#
#
# Indices 1 2 3 4 5 6 
#
# 1 0.010100 -0.003395 -0.001438 0.000000 0.000000 0.000000
# 2 -0.003395 0.011311 -0.005972 0.000000 0.000000 0.000000
# 3 -0.001438 -0.005972 0.018005 0.000000 0.000000 0.000000
# 4 0.000000 0.000000 0.000000 0.034307 0.000000 0.000000
# 5 0.000000 0.000000 0.000000 0.000000 -0.031072 0.000000
# 6 0.000000 0.000000 0.000000 0.000000 0.000000 -0.153195
#
#
# Mechanical properties :
#
#
# Convention : Reuss Voigt Hill
#
# Bulk Modulus (GPa) = 56.16065 62.63343 59.39704
# Shear Modulus (GPa) = -60.24224 11.30401 -24.46911
#
# Velocity S-wave (km/s) = -5.40236 2.34018 -3.44304
# Velocity P-wave (km/s) = 3.42139 6.13562 3.60139
#
# Compressibility (1/GPa) = 0.01780606
#
# Stress axis : x y z
#
# Youngs Moduli (GPa) = 99.00998 88.40612 55.54086
#
# Poissons Ratio (x) = 0.30018 0.07987
# Poissons Ratio (y) = 0.33618 0.33167
# Poissons Ratio (z) = 0.14238 0.52792
#
# Static dielectric constant tensor:
#      x y z
#    x 1.885410 0.000000 0.000000 
#    y 0.000000 1.751080 0.000000 
#    z 0.000000 0.000000 1.754570 
# 
# From -- ./inp_files/6768.got.cif
#   From: 2010.05.17/outbox.cif.g08.bks.cpg/sg38_4_cif.got.tgz:6768.got - 2010.06.03 18:07:57.
