data_PCOD9359563
_publ_section_title
;
Structure prediction by ZEFSAII (Michael W. Deem and Ramdas Pophale) SiO2 
 PCOD9359563
Probable space group: A M M 2
;
_chemical_formula_sum "Si O2"
_cell_formula_units_Z 32
_cell_length_a 9.000000
_cell_length_b 21.000000
_cell_length_c 21.000000
_cell_angle_alpha 90.000000
_cell_angle_beta 90.000000
_cell_angle_gamma 90.000000
_cell_volume 3969.000000
_symmetry_space_group_name_H-M "A M M 2"
_symmetry_group_IT_number 38
_symmetry_cell_setting 'orthorhombic'
loop_
_space_group_symop_operation_xyz
x,y,z
-x,-y,z
-x,y,z
x,-y,z
x,1/2+y,1/2+z
-x,1/2-y,1/2+z
-x,1/2+y,1/2+z
x,1/2-y,1/2+z
loop_
_atom_site_type_symbol
_atom_site_label
_atom_site_fract_x
_atom_site_fract_y
_atom_site_fract_z
Si Si1 0.822651 0.724925 0.672620
Si Si2 0.679996 0.812138 0.893690
Si Si3 0.179439 0.074344 0.811337
Si Si4 0.819752 0.807543 0.316786
Si Si5 0.677414 0.877082 0.537046
Si Si6 0.821219 0.573068 0.907043
Si Si7 0.677625 0.774668 0.037551
Si Si8 0.177352 0.876775 0.670838
O O1 0.777304 0.694777 0.741287
O O2 0.749765 0.703855 0.605119
O O3 0.793534 0.800973 0.678504
O O4 0.000000 0.716158 0.666624
O O5 0.500000 0.810781 0.890183
O O6 0.742740 0.875457 0.858906
O O7 0.745897 0.751361 0.855033
O O8 0.721649 0.806009 0.969310
O O9 0.220584 0.090214 0.737552
O O10 0.000000 0.082968 0.815881
O O11 0.213102 0.000000 0.824794
O O12 0.781336 0.873096 0.354258
O O13 0.000000 0.799764 0.318958
O O14 0.500000 0.885710 0.536606
O O15 0.748376 0.910107 0.475209
O O16 0.709821 0.801121 0.531477
O O17 0.742788 0.898216 0.605643
O O18 0.782534 0.500000 0.889145
O O19 0.000000 0.576194 0.914258
O O20 0.500000 0.782038 0.043572
O O21 0.000000 0.885477 0.662661
#
# Coordination Sequence:
#
# PCOD9359563 Si02
#       8
#     8   8   8   8   8   8   8   8
#     4   9  17  30  51  77 101 130 170 213 258 304
#     4  11  21  34  54  79 106 136 174 216 260 307
#     4  10  21  37  55  76 105 140 176 215 259 308
#     4  10  19  34  55  78 104 134 174 218 261 308
#     4  10  19  32  49  73 106 140 175 213 253 303
#     4  10  21  35  52  75 104 140 177 214 260 310
#     4   9  19  33  49  75 107 135 167 209 258 306
#     4   9  17  31  49  73 104 137 175 212 251 303
#
# _framework density 8.0624839999999995
#
# number of rings (size 3 to 8) (size 9 to 14) (size 15 to 20)
#    0.000    2.250    2.500    0.750    0.000    3.500 
#    0.000    1.250    0.000    0.750    0.000    1.750 
#    0.000    0.000    0.000    0.000    0.000    0.000 
#
# Total GULP energy -178407.175966 kJ/mol
# GULP energy per Si atom -5575.224249 kJ/mol
# Density = 0.804413 g / cm^3
# Si number density = 8.062484 Si / 1000 Ang^3
#
#
#
# Elastic Constant Matrix: (Units=GPa)
#
#
# Indices 1 2 3 4 5 6 
#
# 1 35.3173 35.8238 45.1055 0.0000 0.0000 0.0000
# 2 35.8238 103.5117 73.4615 0.0000 0.0000 0.0000
# 3 45.1055 73.4615 177.1838 0.0000 0.0000 0.0000
# 4 0.0000 0.0000 0.0000 27.8958 0.0000 0.0000
# 5 0.0000 0.0000 0.0000 0.0000 30.0511 0.0000
# 6 0.0000 0.0000 0.0000 0.0000 0.0000 17.5770
#
#
#
# Elastic Compliance Matrix: (Units=1/GPa)
#
#
# Indices 1 2 3 4 5 6 
#
# 1 0.050450 -0.011825 -0.007940 0.000000 0.000000 0.000000
# 2 -0.011825 0.016460 -0.003814 0.000000 0.000000 0.000000
# 3 -0.007940 -0.003814 0.009247 0.000000 0.000000 0.000000
# 4 0.000000 0.000000 0.000000 0.035848 0.000000 0.000000
# 5 0.000000 0.000000 0.000000 0.000000 0.033277 0.000000
# 6 0.000000 0.000000 0.000000 0.000000 0.000000 0.056892
#
#
# Mechanical properties :
#
#
# Convention : Reuss Voigt Hill
#
# Bulk Modulus (GPa) = 34.48512 69.42159 51.95336
# Shear Modulus (GPa) = 19.30515 25.87958 22.59237
#
# Velocity S-wave (km/s) = 3.46384 4.01051 3.74716
# Velocity P-wave (km/s) = 6.11802 8.03687 7.14218
#
# Compressibility (1/GPa) = 0.02899801
#
# Stress axis : x y z
#
# Youngs Moduli (GPa) = 19.82158 60.75318 108.14738
#
# Poissons Ratio (x) = 0.71839 0.85873
# Poissons Ratio (y) = 0.23439 0.41250
# Poissons Ratio (z) = 0.15739 0.23173
#
# Static dielectric constant tensor:
#      x y z
#    x 1.543640 0.000000 0.000000 
#    y 0.000000 1.537920 0.000000 
#    z 0.000000 0.000000 1.539790 
# 
# From -- ./inp_files/17171.got.cif
#   From: 2010.05.17/outbox.ucp.g08.bks.cvg/sg38_9_cif.got.tgz:17171.got - 2010.06.11 10:39:43.
