data_PCOD9359090
_publ_section_title
;
Structure prediction by ZEFSAII (Michael W. Deem and Ramdas Pophale) SiO2 
 PCOD9359090
Probable space group: A M M 2
;
_chemical_formula_sum "Si O2"
_cell_formula_units_Z 58
_cell_length_a 7.438062
_cell_length_b 26.789012
_cell_length_c 13.506942
_cell_angle_alpha 90.000000
_cell_angle_beta 90.000000
_cell_angle_gamma 90.000000
_cell_volume 2691.370736
_symmetry_space_group_name_H-M "A M M 2"
_symmetry_group_IT_number 38
_symmetry_cell_setting 'orthorhombic'
loop_
_space_group_symop_operation_xyz
x,y,z
-x,-y,z
-x,y,z
x,-y,z
x,1/2+y,1/2+z
-x,1/2-y,1/2+z
-x,1/2+y,1/2+z
x,1/2-y,1/2+z
loop_
_atom_site_type_symbol
_atom_site_label
_atom_site_fract_x
_atom_site_fract_y
_atom_site_fract_z
Si Si1 0.000000 0.500000 0.911551
Si Si2 0.785021 0.656933 0.704113
Si Si3 0.281909 0.055386 0.718723
Si Si4 0.282811 0.615236 0.404617
Si Si5 0.715055 0.943835 0.099679
Si Si6 0.781581 0.182286 0.422684
Si Si7 0.211574 0.285461 0.512049
Si Si8 0.709559 0.573293 0.992931
O O1 0.158455 0.456535 0.920993
O O2 0.751321 0.598569 0.681286
O O3 0.718716 0.675811 0.809524
O O4 0.712806 0.689593 0.612168
O O5 0.000000 0.662280 0.704256
O O6 0.500000 0.057683 0.717122
O O7 0.218966 0.095203 0.799007
O O8 0.227014 0.061617 0.605146
O O9 0.230766 0.000000 0.753038
O O10 0.500000 0.613047 0.405134
O O11 0.219895 0.579724 0.495248
O O12 0.230170 0.671505 0.429794
O O13 0.500000 0.947396 0.091971
O O14 0.783910 0.000000 0.118614
O O15 0.715742 0.232836 0.474517
O O16 0.724410 0.132260 0.477821
O O17 0.000000 0.183698 0.421291
O O18 0.000000 0.277652 0.529743
O O19 0.500000 0.558766 0.982240
#
# Coordination Sequence:
#
# PCOD9359090 Si02
#       8
#     2   8   8   8   8   8   8   8
#     4  12  22  44  64  86 124 162 198 248 290 350
#     4   9  19  36  56  78 111 150 188 237 300 354
#     4   9  17  32  53  80 115 153 191 239 297 354
#     4   9  17  31  53  79 110 148 192 241 296 352
#     4   9  17  31  51  77 108 146 190 237 288 347
#     4  10  21  39  59  82 113 153 195 241 298 355
#     4   9  19  36  56  80 112 150 194 246 299 354
#     4  11  23  40  63  89 121 160 200 242 293 353
#
# _framework density 21.550357000000002
#
# number of rings (size 3 to 8) (size 9 to 14) (size 15 to 20)
#    0.000    2.483    1.379    0.621    0.000    4.138 
#    2.483    1.379    0.000    0.828    0.000    0.000 
#    0.000    0.000    0.000    0.000    0.000    0.000 
#
# Total GULP energy -161671.846972 kJ/mol
# GULP energy per Si atom -5574.891275 kJ/mol
# Density = 2.150131 g / cm^3
# Si number density = 21.550357 Si / 1000 Ang^3
#
#
#
# Elastic Constant Matrix: (Units=GPa)
#
#
# Indices 1 2 3 4 5 6 
#
# 1 89.4367 8.9966 3.1030 0.0000 0.0000 0.0000
# 2 8.9966 188.9300 45.1063 0.0000 0.0000 0.0000
# 3 3.1030 45.1063 49.0968 0.0000 0.0000 0.0000
# 4 0.0000 0.0000 0.0000 16.4206 0.0000 0.0000
# 5 0.0000 0.0000 0.0000 0.0000 6.8695 0.0000
# 6 0.0000 0.0000 0.0000 0.0000 0.0000 20.4783
#
#
#
# Elastic Compliance Matrix: (Units=1/GPa)
#
#
# Indices 1 2 3 4 5 6 
#
# 1 0.011238 -0.000468 -0.000280 0.000000 0.000000 0.000000
# 2 -0.000468 0.006800 -0.006217 0.000000 0.000000 0.000000
# 3 -0.000280 -0.006217 0.026098 0.000000 0.000000 0.000000
# 4 0.000000 0.000000 0.000000 0.060899 0.000000 0.000000
# 5 0.000000 0.000000 0.000000 0.000000 0.145572 0.000000
# 6 0.000000 0.000000 0.000000 0.000000 0.000000 0.048832
#
#
# Mechanical properties :
#
#
# Convention : Reuss Voigt Hill
#
# Bulk Modulus (GPa) = 33.10839 49.09726 41.10283
# Shear Modulus (GPa) = 15.45893 26.77084 21.11489
#
# Velocity S-wave (km/s) = 2.68123 3.52837 3.13356
# Velocity P-wave (km/s) = 4.99819 6.27943 5.67509
#
# Compressibility (1/GPa) = 0.03020382
#
# Stress axis : x y z
#
# Youngs Moduli (GPa) = 88.98448 147.06666 38.31758
#
# Poissons Ratio (x) = 0.06887 0.01073
# Poissons Ratio (y) = 0.04167 0.23824
# Poissons Ratio (z) = 0.02492 0.91437
#
# Static dielectric constant tensor:
#      x y z
#    x 1.829810 0.000000 0.000000 
#    y 0.000000 1.751520 0.000000 
#    z 0.000000 0.000000 1.790370 
# 
# From -- ./inp_files/12701.got.cif
#   From: 2010.05.17/outbox.cif.g08.bks.cpg/sg38_7_cif.got.tgz:12701.got - 2010.06.03 18:07:57.
