data_PCOD9359148
_publ_section_title
;
Structure prediction by ZEFSAII (Michael W. Deem and Ramdas Pophale) SiO2 
 PCOD9359148
Probable space group: A M M 2
;
_chemical_formula_sum "Si O2"
_cell_formula_units_Z 48
_cell_length_a 17.912365
_cell_length_b 7.503775
_cell_length_c 15.942099
_cell_angle_alpha 90.000000
_cell_angle_beta 90.000000
_cell_angle_gamma 90.000000
_cell_volume 2142.783213
_symmetry_space_group_name_H-M "A M M 2"
_symmetry_group_IT_number 38
_symmetry_cell_setting 'orthorhombic'
loop_
_space_group_symop_operation_xyz
x,y,z
-x,-y,z
-x,y,z
x,-y,z
x,1/2+y,1/2+z
-x,1/2-y,1/2+z
-x,1/2+y,1/2+z
x,1/2-y,1/2+z
loop_
_atom_site_type_symbol
_atom_site_label
_atom_site_fract_x
_atom_site_fract_y
_atom_site_fract_z
Si Si1 0.662153 0.715877 0.412140
Si Si2 0.500000 0.788551 0.712181
Si Si3 0.819016 0.280640 0.149992
Si Si4 0.660595 0.782696 0.715433
Si Si5 0.825785 0.205793 0.467812
Si Si6 0.083390 0.708217 0.304316
Si Si7 0.500000 0.288530 0.416065
O O1 0.662147 0.500000 0.415181
O O2 0.668427 0.766194 0.313668
O O3 0.736357 0.780152 0.457419
O O4 0.580991 0.780648 0.444454
O O5 0.580027 0.717354 0.683154
O O6 0.500000 0.770823 0.814108
O O7 0.500000 0.000000 0.694429
O O8 0.818090 0.500000 0.149666
O O9 0.733744 0.224300 0.166660
O O10 0.870210 0.216610 0.226212
O O11 0.845599 0.219851 0.058931
O O12 0.658774 0.000000 0.713815
O O13 0.867456 0.284393 0.388125
O O14 0.847082 0.000000 0.467111
O O15 0.075424 0.500000 0.284651
O O16 0.000000 0.782787 0.315158
O O17 0.500000 0.500000 0.433537
#
# Coordination Sequence:
#
# PCOD9359148 Si02
#       7
#     8   4   8   8   8   8   4
#     4   9  15  29  53  76 104 144 190 228 259 306
#     4   7  10  16  35  71  99 120 165 225 262 280
#     4   9  18  33  53  78 107 140 176 215 261 317
#     4   8  12  23  46  71  97 131 175 219 253 293
#     4  11  22  34  53  84 118 143 168 213 276 329
#     4  10  21  40  64  82  99 134 182 223 262 319
#     4   7  12  22  44  77 101 132 187 237 262 288
#
# _framework density 22.400772
#
# number of rings (size 3 to 8) (size 9 to 14) (size 15 to 20)
#    0.000    3.000    1.667    2.500    0.000    1.000 
#    0.000    4.583    0.000    2.000    0.000    0.000 
#    0.000    0.000    0.000    0.000    0.000    0.000 
#
# Total GULP energy -133890.386346 kJ/mol
# GULP energy per Si atom -5578.766098 kJ/mol
# Density = 2.234979 g / cm^3
# Si number density = 22.400772 Si / 1000 Ang^3
#
#
#
# Elastic Constant Matrix: (Units=GPa)
#
#
# Indices 1 2 3 4 5 6 
#
# 1 161.9905 0.0100 71.0181 0.0000 0.0000 0.0000
# 2 0.0100 56.8819 -0.3531 0.0000 0.0000 0.0000
# 3 71.0181 -0.3531 119.8878 0.0000 0.0000 0.0000
# 4 0.0000 0.0000 0.0000 2.5388 0.0000 0.0000
# 5 0.0000 0.0000 0.0000 0.0000 -9.5514 0.0000
# 6 0.0000 0.0000 0.0000 0.0000 0.0000 -8.4604
#
#
#
# Elastic Compliance Matrix: (Units=1/GPa)
#
#
# Indices 1 2 3 4 5 6 
#
# 1 0.008339 -0.000032 -0.004940 0.000000 0.000000 0.000000
# 2 -0.000032 0.017581 0.000071 0.000000 0.000000 0.000000
# 3 -0.004940 0.000071 0.011268 0.000000 0.000000 0.000000
# 4 0.000000 0.000000 0.000000 0.393888 0.000000 0.000000
# 5 0.000000 0.000000 0.000000 0.000000 -0.104697 0.000000
# 6 0.000000 0.000000 0.000000 0.000000 0.000000 -0.118198
#
#
# Mechanical properties :
#
#
# Convention : Reuss Voigt Hill
#
# Bulk Modulus (GPa) = 36.51647 53.34557 44.93102
# Shear Modulus (GPa) = 22.01575 14.77775 18.39675
#
# Velocity S-wave (km/s) = 3.13838 2.57125 2.86886
# Velocity P-wave (km/s) = 5.42858 5.71672 5.57451
#
# Compressibility (1/GPa) = 0.02738490
#
# Stress axis : x y z
#
# Youngs Moduli (GPa) = 119.92047 56.88046 88.75050
#
# Poissons Ratio (x) = 0.00183 0.43841
# Poissons Ratio (y) = 0.00385 -0.00629
# Poissons Ratio (z) = 0.59238 -0.00403
#
# Static dielectric constant tensor:
#      x y z
#    x 1.842790 0.000000 0.000000 
#    y 0.000000 1.840880 0.000000 
#    z 0.000000 0.000000 1.809180 
# 
# From -- ./inp_files/15067.got.cif
#   From: 2010.05.17/outbox.cif.g08.bks.cpg/sg38_8_cif.got.tgz:15067.got - 2010.06.03 18:07:57.
