data_PCOD9359952
_publ_section_title
;
Structure prediction by ZEFSAII (Michael W. Deem and Ramdas Pophale) SiO2 
 PCOD9359952
Probable space group: A B M 2
;
_chemical_formula_sum "Si O2"
_cell_formula_units_Z 56
_cell_length_a 11.741763
_cell_length_b 19.520040
_cell_length_c 12.230826
_cell_angle_alpha 90.000000
_cell_angle_beta 90.000000
_cell_angle_gamma 90.000000
_cell_volume 2803.301447
_symmetry_space_group_name_H-M "A B M 2"
_symmetry_group_IT_number 39
_symmetry_cell_setting 'orthorhombic'
loop_
_space_group_symop_operation_xyz
x,y,z
-x,-y,z
-x,1/2+y,z
x,1/2-y,z
x,1/2+y,1/2+z
-x,1/2-y,1/2+z
-x,y,1/2+z
x,-y,1/2+z
loop_
_atom_site_type_symbol
_atom_site_label
_atom_site_fract_x
_atom_site_fract_y
_atom_site_fract_z
Si Si1 0.883133 0.987848 0.231170
Si Si2 0.461106 0.930061 0.051396
Si Si3 0.691300 0.328393 0.193758
Si Si4 0.354068 0.673109 0.450324
Si Si5 0.250804 0.983735 0.925025
Si Si6 0.108103 0.612127 0.060447
Si Si7 0.147616 0.114438 0.054700
O O1 0.900661 0.044760 0.137948
O O2 0.771437 0.001780 0.300354
O O3 0.865060 0.913885 0.177731
O O4 0.000000 0.000000 0.299469
O O5 0.390618 0.881597 0.132377
O O6 0.500000 0.000000 0.110697
O O7 0.558009 0.883803 0.994694
O O8 0.375555 0.962185 0.961187
O O9 0.654537 0.250000 0.175090
O O10 0.685837 0.339481 0.324746
O O11 0.814283 0.338521 0.134846
O O12 0.403699 0.750000 0.454432
O O13 0.242399 0.669558 0.527035
O O14 0.175800 0.916810 0.956223
O O15 0.198467 0.048291 0.990106
O O16 0.981800 0.634283 0.026222
#
# Coordination Sequence:
#
# PCOD9359952 Si02
#       7
#     8   8   8   8   8   8   8
#     4   9  17  30  54  87 122 156 188 244 302 358
#     4  11  23  40  61  92 118 157 210 260 305 358
#     4  10  23  42  62  85 121 166 206 252 309 367
#     4  11  24  42  62  87 125 167 206 253 309 365
#     4  10  18  33  55  85 122 153 198 248 308 355
#     4   9  19  32  56  85 119 155 195 248 296 364
#     4  10  19  34  54  87 119 154 199 242 305 359
#
# _framework density 19.976445999999999
#
# number of rings (size 3 to 8) (size 9 to 14) (size 15 to 20)
#    0.000    2.000    1.429    3.429    0.000    3.429 
#    0.000    0.000    0.000    3.429    0.000    0.000 
#    0.000    0.000    0.000    0.000    0.000    0.000 
#
# Total GULP energy -155927.996473 kJ/mol
# GULP energy per Si atom -5568.857017 kJ/mol
# Density = 1.993098 g / cm^3
# Si number density = 19.976446 Si / 1000 Ang^3
#
#
#
# Elastic Constant Matrix: (Units=GPa)
#
#
# Indices 1 2 3 4 5 6 
#
# 1 121.1579 44.5521 31.4189 0.0000 0.0000 0.0000
# 2 44.5521 112.7829 24.6637 0.0000 0.0000 0.0000
# 3 31.4189 24.6637 40.8266 0.0000 0.0000 0.0000
# 4 0.0000 0.0000 0.0000 16.4048 0.0000 0.0000
# 5 0.0000 0.0000 0.0000 0.0000 19.4367 0.0000
# 6 0.0000 0.0000 0.0000 0.0000 0.0000 22.9118
#
#
#
# Elastic Compliance Matrix: (Units=1/GPa)
#
#
# Indices 1 2 3 4 5 6 
#
# 1 0.011074 -0.002893 -0.006775 0.000000 0.000000 0.000000
# 2 -0.002893 0.010972 -0.004402 0.000000 0.000000 0.000000
# 3 -0.006775 -0.004402 0.032367 0.000000 0.000000 0.000000
# 4 0.000000 0.000000 0.000000 0.060958 0.000000 0.000000
# 5 0.000000 0.000000 0.000000 0.000000 0.051449 0.000000
# 6 0.000000 0.000000 0.000000 0.000000 0.000000 0.043646
#
#
# Mechanical properties :
#
#
# Convention : Reuss Voigt Hill
#
# Bulk Modulus (GPa) = 38.06092 52.89297 45.47695
# Shear Modulus (GPa) = 20.21323 23.35952 21.78637
#
# Velocity S-wave (km/s) = 3.18441 3.42329 3.30601
# Velocity P-wave (km/s) = 5.71095 6.49310 6.11454
#
# Compressibility (1/GPa) = 0.02627367
#
# Stress axis : x y z
#
# Youngs Moduli (GPa) = 90.29839 91.14057 30.89601
#
# Poissons Ratio (x) = 0.26368 0.20931
# Poissons Ratio (y) = 0.26125 0.13600
# Poissons Ratio (z) = 0.61175 0.40119
#
# Static dielectric constant tensor:
#      x y z
#    x 1.812100 0.000000 0.000000 
#    y 0.000000 1.723420 0.000000 
#    z 0.000000 0.000000 1.734180 
# 
# From -- ./inp_files/5945.got.cif
#   From: 2010.05.17/outbox.cif.g08.bks.cpg/sg39_3_cif.got.tgz:5945.got - 2010.06.03 18:22:40.
