data_PCOD9359151
_publ_section_title
;
Structure prediction by ZEFSAII (Michael W. Deem and Ramdas Pophale) SiO2 
 PCOD9359151
Probable space group: A M M 2
;
_chemical_formula_sum "Si O2"
_cell_formula_units_Z 56
_cell_length_a 19.976273
_cell_length_b 7.633877
_cell_length_c 16.551232
_cell_angle_alpha 90.000000
_cell_angle_beta 90.000000
_cell_angle_gamma 90.000000
_cell_volume 2524.003478
_symmetry_space_group_name_H-M "A M M 2"
_symmetry_group_IT_number 38
_symmetry_cell_setting 'orthorhombic'
loop_
_space_group_symop_operation_xyz
x,y,z
-x,-y,z
-x,y,z
x,-y,z
x,1/2+y,1/2+z
-x,1/2-y,1/2+z
-x,1/2+y,1/2+z
x,1/2-y,1/2+z
loop_
_atom_site_type_symbol
_atom_site_label
_atom_site_fract_x
_atom_site_fract_y
_atom_site_fract_z
Si Si1 0.573377 0.711277 0.149180
Si Si2 0.847426 0.284792 0.331541
Si Si3 0.852865 0.800761 0.656052
Si Si4 0.711763 0.714106 0.407962
Si Si5 0.427544 0.786830 0.838665
Si Si6 0.075123 0.292424 0.490950
Si Si7 0.719233 0.795513 0.088876
O O1 0.500000 0.770318 0.118031
O O2 0.574495 0.500000 0.144395
O O3 0.576586 0.758895 0.244012
O O4 0.640928 0.777104 0.108490
O O5 0.848855 0.500000 0.329927
O O6 0.870730 0.222090 0.243431
O O7 0.770358 0.233950 0.347434
O O8 0.888704 0.224354 0.409966
O O9 0.883426 0.726753 0.573658
O O10 0.772055 0.795367 0.647583
O O11 0.876073 0.000000 0.657507
O O12 0.709958 0.500000 0.409324
O O13 0.638305 0.776548 0.383522
O O14 0.729727 0.771447 0.498073
O O15 0.500000 0.727563 0.870278
O O16 0.427186 0.000000 0.842389
O O17 0.070248 0.500000 0.477616
O O18 0.000000 0.221311 0.500197
O O19 0.736774 0.000000 0.091426
#
# Coordination Sequence:
#
# PCOD9359151 Si02
#       7
#     8   8   8   8   8   8   8
#     4   9  18  33  52  74 104 143 189 242 296 346
#     4   9  18  35  59  84 110 150 199 236 273 333
#     4  11  22  37  62  90 117 152 195 241 285 336
#     4   9  16  28  49  74 102 137 184 236 275 323
#     4   8  14  26  46  71  97 131 180 234 280 326
#     4  10  21  40  64  88 118 153 188 232 287 344
#     4  11  21  33  53  80 113 149 189 240 293 345
#
# _framework density 22.186975
#
# number of rings (size 3 to 8) (size 9 to 14) (size 15 to 20)
#    0.000    2.429    1.429    2.571    0.000    4.000 
#    0.000    4.286    0.000    0.857    0.000    0.000 
#    0.000    0.000    0.000    0.000    0.000    0.000 
#
# Total GULP energy -156279.043669 kJ/mol
# GULP energy per Si atom -5581.394417 kJ/mol
# Density = 2.213648 g / cm^3
# Si number density = 22.186975 Si / 1000 Ang^3
#
#
#
# Elastic Constant Matrix: (Units=GPa)
#
#
# Indices 1 2 3 4 5 6 
#
# 1 128.2343 -1.0931 62.4580 0.0000 0.0000 0.0000
# 2 -1.0931 41.3716 4.9206 0.0000 0.0000 0.0000
# 3 62.4580 4.9206 143.2380 0.0000 0.0000 0.0000
# 4 0.0000 0.0000 0.0000 9.0982 0.0000 0.0000
# 5 0.0000 0.0000 0.0000 0.0000 13.9960 0.0000
# 6 0.0000 0.0000 0.0000 0.0000 0.0000 7.7393
#
#
#
# Elastic Compliance Matrix: (Units=1/GPa)
#
#
# Indices 1 2 3 4 5 6 
#
# 1 0.009926 0.000780 -0.004355 0.000000 0.000000 0.000000
# 2 0.000780 0.024332 -0.001176 0.000000 0.000000 0.000000
# 3 -0.004355 -0.001176 0.008921 0.000000 0.000000 0.000000
# 4 0.000000 0.000000 0.000000 0.109912 0.000000 0.000000
# 5 0.000000 0.000000 0.000000 0.000000 0.071449 0.000000
# 6 0.000000 0.000000 0.000000 0.000000 0.000000 0.129210
#
#
# Mechanical properties :
#
#
# Convention : Reuss Voigt Hill
#
# Bulk Modulus (GPa) = 29.69406 49.49056 39.59231
# Shear Modulus (GPa) = 13.35195 22.60393 17.97794
#
# Velocity S-wave (km/s) = 2.45581 3.19532 2.84965
# Velocity P-wave (km/s) = 4.63184 5.99733 5.35826
#
# Compressibility (1/GPa) = 0.03367676
#
# Stress axis : x y z
#
# Youngs Moduli (GPa) = 100.74532 41.09874 112.09822
#
# Poissons Ratio (x) = -0.03207 0.48819
# Poissons Ratio (y) = -0.07860 0.13183
# Poissons Ratio (z) = 0.43874 0.04833
#
# Static dielectric constant tensor:
#      x y z
#    x 1.811880 0.000000 0.000000 
#    y 0.000000 1.836030 0.000000 
#    z 0.000000 0.000000 1.805710 
# 
# From -- ./inp_files/15454.got.cif
#   From: 2010.05.17/outbox.cif.g08.bks.cpg/sg38_8_cif.got.tgz:15454.got - 2010.06.03 18:07:57.
