data_PCOD9359542
_publ_section_title
;
Structure prediction by ZEFSAII (Michael W. Deem and Ramdas Pophale) SiO2 
 PCOD9359542
Probable space group: A M M 2
;
_chemical_formula_sum "Si O2"
_cell_formula_units_Z 32
_cell_length_a 15.000000
_cell_length_b 9.000000
_cell_length_c 30.000000
_cell_angle_alpha 90.000000
_cell_angle_beta 90.000000
_cell_angle_gamma 90.000000
_cell_volume 4050.000000
_symmetry_space_group_name_H-M "A M M 2"
_symmetry_group_IT_number 38
_symmetry_cell_setting 'orthorhombic'
loop_
_space_group_symop_operation_xyz
x,y,z
-x,-y,z
-x,y,z
x,-y,z
x,1/2+y,1/2+z
-x,1/2-y,1/2+z
-x,1/2+y,1/2+z
x,1/2-y,1/2+z
loop_
_atom_site_type_symbol
_atom_site_label
_atom_site_fract_x
_atom_site_fract_y
_atom_site_fract_z
Si Si1 0.276289 0.175470 0.080990
Si Si2 0.899399 0.821348 0.448892
Si Si3 0.604105 0.325504 0.843293
Si Si4 0.277057 0.677010 0.415843
Si Si5 0.392472 0.834886 0.754964
Si Si6 0.395841 0.673249 0.667374
Si Si7 0.900486 0.321538 0.053528
Si Si8 0.602186 0.318895 0.499518
O O1 0.332401 0.192637 0.125606
O O2 0.181415 0.254137 0.080092
O O3 0.261188 0.000000 0.073312
O O4 0.340549 0.231991 0.041637
O O5 0.819808 0.747490 0.422062
O O6 0.889043 0.781155 0.501230
O O7 0.000000 0.778405 0.435301
O O8 0.893147 0.000000 0.445871
O O9 0.500000 0.283166 0.851393
O O10 0.612456 0.500000 0.851862
O O11 0.671080 0.232531 0.872924
O O12 0.626687 0.284855 0.792635
O O13 0.269504 0.500000 0.416677
O O14 0.341543 0.724496 0.456438
O O15 0.500000 0.841968 0.752890
O O16 0.364246 0.777868 0.707013
O O17 0.359542 0.000000 0.765998
O O18 0.500000 0.704114 0.656221
O O19 0.392847 0.500000 0.681439
O O20 0.897951 0.500000 0.055953
O O21 0.000000 0.272985 0.067324
O O22 0.500000 0.266594 0.499099
O O23 0.598699 0.500000 0.500874
#
# Coordination Sequence:
#
# PCOD9359542 Si02
#       8
#     8   8   8   8   8   8   8   8
#     4  10  18  29  46  69  93 123 162 198 231 273
#     4   9  18  33  50  66  89 123 161 202 246 288
#     4  10  20  33  49  69  96 129 163 197 235 283
#     4  11  20  30  47  71  97 126 160 199 240 282
#     4   9  17  30  48  69  93 121 157 200 240 276
#     4   9  17  29  46  68  96 128 159 191 231 281
#     4   9  18  32  48  65  89 122 157 198 246 286
#     4   9  17  28  41  61  93 129 160 189 224 268
#
# _framework density 7.9012349999999998
#
# number of rings (size 3 to 8) (size 9 to 14) (size 15 to 20)
#    0.000    2.500    1.250    2.625    0.000    5.250 
#    0.000    1.250    0.000    1.875    0.000    0.875 
#    0.000    3.000    0.000    0.000    0.000    0.000 
#
# Total GULP energy -178258.632851 kJ/mol
# GULP energy per Si atom -5570.582277 kJ/mol
# Density = 0.788325 g / cm^3
# Si number density = 7.901235 Si / 1000 Ang^3
#
#
#
# Elastic Constant Matrix: (Units=GPa)
#
#
# Indices 1 2 3 4 5 6 
#
# 1 101.6826 31.4285 20.7180 0.0000 0.0000 0.0000
# 2 31.4285 14.8655 21.3500 0.0000 0.0000 0.0000
# 3 20.7180 21.3500 25.7910 0.0000 0.0000 0.0000
# 4 0.0000 0.0000 0.0000 19.2780 0.0000 0.0000
# 5 0.0000 0.0000 0.0000 0.0000 47.0373 0.0000
# 6 0.0000 0.0000 0.0000 0.0000 0.0000 24.7197
#
#
#
# Elastic Compliance Matrix: (Units=1/GPa)
#
#
# Indices 1 2 3 4 5 6 
#
# 1 0.006344 0.032255 -0.031796 0.000000 0.000000 0.000000
# 2 0.032255 -0.192108 0.133118 0.000000 0.000000 0.000000
# 3 -0.031796 0.133118 -0.045880 0.000000 0.000000 0.000000
# 4 0.000000 0.000000 0.000000 0.051873 0.000000 0.000000
# 5 0.000000 0.000000 0.000000 0.000000 0.021260 0.000000
# 6 0.000000 0.000000 0.000000 0.000000 0.000000 0.040453
#
#
# Mechanical properties :
#
#
# Convention : Reuss Voigt Hill
#
# Bulk Modulus (GPa) = 28.16318 32.14801 30.15559
# Shear Modulus (GPa) = -13.39136 22.79651 4.70258
#
# Velocity S-wave (km/s) = -2.91421 3.80227 1.72694
# Velocity P-wave (km/s) = 2.55680 6.29795 4.80632
#
# Compressibility (1/GPa) = 0.03550735
#
# Stress axis : x y z
#
# Youngs Moduli (GPa) = 157.63613 -5.20540 -21.79585
#
# Poissons Ratio (x) = 0.16790 -0.69303
# Poissons Ratio (y) = -5.08449 2.90142
# Poissons Ratio (z) = 5.01228 0.69293
#
# Static dielectric constant tensor:
#      x y z
#    x 1.504890 0.000000 0.000000 
#    y 0.000000 1.538550 0.000000 
#    z 0.000000 0.000000 1.533030 
# 
# From -- ./inp_files/25047.got.cif
#   From: 2010.05.17/outbox.ucp.g08.bks.cvg/sg38_13_cif.got.tgz:25047.got - 2010.06.11 10:39:43.
