data_PCOD9359039
_publ_section_title
;
Structure prediction by ZEFSAII (Michael W. Deem and Ramdas Pophale) SiO2 
 PCOD9359039
Probable space group: A M M 2
;
_chemical_formula_sum "Si O2"
_cell_formula_units_Z 34
_cell_length_a 7.186485
_cell_length_b 10.933841
_cell_length_c 20.029396
_cell_angle_alpha 90.000000
_cell_angle_beta 90.000000
_cell_angle_gamma 90.000000
_cell_volume 1573.827503
_symmetry_space_group_name_H-M "A M M 2"
_symmetry_group_IT_number 38
_symmetry_cell_setting 'orthorhombic'
loop_
_space_group_symop_operation_xyz
x,y,z
-x,-y,z
-x,y,z
x,-y,z
x,1/2+y,1/2+z
-x,1/2-y,1/2+z
-x,1/2+y,1/2+z
x,1/2-y,1/2+z
loop_
_atom_site_type_symbol
_atom_site_label
_atom_site_fract_x
_atom_site_fract_y
_atom_site_fract_z
Si Si1 0.224020 0.864775 0.406840
Si Si2 0.500000 0.500000 0.506139
Si Si3 0.773842 0.137497 0.817827
Si Si4 0.223062 0.721412 0.535257
Si Si5 0.225358 0.862502 0.664044
O O1 0.289767 0.749772 0.363023
O O2 0.259156 0.831899 0.483721
O O3 0.000000 0.866907 0.398687
O O4 0.291570 0.000000 0.388758
O O5 0.338175 0.606658 0.510729
O O6 0.719203 0.158037 0.740738
O O7 0.000000 0.135461 0.820038
O O8 0.713317 0.000000 0.838568
O O9 0.280257 0.763658 0.609355
O O10 0.000000 0.697775 0.534060
O O11 0.000000 0.862372 0.663781
O O12 0.283491 0.000000 0.645313
#
# Coordination Sequence:
#
# PCOD9359039 Si02
#       5
#     8   2   8   8   8
#     4   9  17  30  52  85 119 151 191 239 289 342
#     4  12  26  40  54  86 120 152 196 242 296 350
#     4   8  14  25  47  82 118 151 192 236 280 340
#     4  10  21  38  60  84 114 153 195 241 289 343
#     4   8  14  29  54  84 114 147 191 238 284 341
#
# _framework density 21.603383999999998
#
# number of rings (size 3 to 8) (size 9 to 14) (size 15 to 20)
#    0.000    3.059    0.000    2.471    1.647    2.824 
#    2.118    2.353    0.000    1.412    0.000    0.000 
#    0.000    0.000    0.000    0.000    0.000    0.000 
#
# Total GULP energy -94657.241950 kJ/mol
# GULP energy per Si atom -5568.073056 kJ/mol
# Density = 2.155421 g / cm^3
# Si number density = 21.603384 Si / 1000 Ang^3
#
#
#
# Elastic Constant Matrix: (Units=GPa)
#
#
# Indices 1 2 3 4 5 6 
#
# 1 118.4091 22.8961 7.5909 0.0000 0.0000 0.0000
# 2 22.8961 172.8204 67.1932 0.0000 0.0000 0.0000
# 3 7.5909 67.1932 77.4387 0.0000 0.0000 0.0000
# 4 0.0000 0.0000 0.0000 6.7060 0.0000 0.0000
# 5 0.0000 0.0000 0.0000 0.0000 -25.8280 0.0000
# 6 0.0000 0.0000 0.0000 0.0000 0.0000-1146.0356
#
#
#
# Elastic Compliance Matrix: (Units=1/GPa)
#
#
# Indices 1 2 3 4 5 6 
#
# 1 0.008670 -0.001235 0.000222 0.000000 0.000000 0.000000
# 2 -0.001235 0.008908 -0.007609 0.000000 0.000000 0.000000
# 3 0.000222 -0.007609 0.019494 0.000000 0.000000 0.000000
# 4 0.000000 0.000000 0.000000 0.149121 0.000000 0.000000
# 5 0.000000 0.000000 0.000000 0.000000 -0.038718 0.000000
# 6 0.000000 0.000000 0.000000 0.000000 0.000000 -0.000873
#
#
# Mechanical properties :
#
#
# Convention : Reuss Voigt Hill
#
# Bulk Modulus (GPa) = 50.43343 62.66984 56.55164
# Shear Modulus (GPa) = 29.33320 -214.96565 -92.81623
#
# Velocity S-wave (km/s) = 3.68884 -9.98607 -6.56178
# Velocity P-wave (km/s) = 6.44509 10.19264 5.58349
#
# Compressibility (1/GPa) = 0.01982812
#
# Stress axis : x y z
#
# Youngs Moduli (GPa) = 115.34223 112.25645 51.29878
#
# Poissons Ratio (x) = 0.13861 -0.01136
# Poissons Ratio (y) = 0.14242 0.39031
# Poissons Ratio (z) = -0.02555 0.85411
#
# Static dielectric constant tensor:
#      x y z
#    x 1.830790 0.000000 0.000000 
#    y 0.000000 1.735090 0.000000 
#    z 0.000000 0.000000 1.772300 
# 
# From -- ./inp_files/16264.got.cif
#   From: 2010.05.17/outbox.cif.g08.bks.cpg/sg38_9_cif.got.tgz:16264.got - 2010.06.03 18:07:57.
