data_PCOD9359233
_publ_section_title
;
Structure prediction by ZEFSAII (Michael W. Deem and Ramdas Pophale) SiO2 
 PCOD9359233
Probable space group: A M M 2
;
_chemical_formula_sum "Si O2"
_cell_formula_units_Z 32
_cell_length_a 8.496133
_cell_length_b 7.903461
_cell_length_c 24.873155
_cell_angle_alpha 90.000000
_cell_angle_beta 90.000000
_cell_angle_gamma 90.000000
_cell_volume 1670.203899
_symmetry_space_group_name_H-M "A M M 2"
_symmetry_group_IT_number 38
_symmetry_cell_setting 'orthorhombic'
loop_
_space_group_symop_operation_xyz
x,y,z
-x,-y,z
-x,y,z
x,-y,z
x,1/2+y,1/2+z
-x,1/2-y,1/2+z
-x,1/2+y,1/2+z
x,1/2-y,1/2+z
loop_
_atom_site_type_symbol
_atom_site_label
_atom_site_fract_x
_atom_site_fract_y
_atom_site_fract_z
Si Si1 0.307284 0.000000 0.525590
Si Si2 0.311981 0.500000 0.902357
Si Si3 0.692104 0.686823 0.598158
Si Si4 0.813002 0.194273 0.831205
Si Si5 0.316633 0.296881 0.214897
O O1 0.255627 0.165173 0.558592
O O2 0.500000 0.000000 0.525524
O O3 0.254757 0.000000 0.464000
O O4 0.500000 0.500000 0.903105
O O5 0.256959 0.667712 0.871212
O O6 0.500000 0.694631 0.599762
O O7 0.737919 0.500000 0.579905
O O8 0.743965 0.717050 0.659633
O O9 0.771649 0.243839 0.769851
O O10 0.000000 0.192739 0.837400
O O11 0.754330 0.000000 0.839388
O O12 0.500000 0.248581 0.221792
O O13 0.310628 0.500000 0.207478
#
# Coordination Sequence:
#
# PCOD9359233 Si02
#       5
#     4   4   8   8   8
#     4   9  18  33  49  75 113 145 178 229 282 329
#     4  11  23  37  59  85 113 151 198 243 280 331
#     4   9  16  27  47  76 109 143 175 217 278 336
#     4  10  22  39  57  80 114 154 191 234 288 342
#     4   9  16  29  52  81 113 142 177 227 276 334
#
# _framework density 19.159338000000002
#
# number of rings (size 3 to 8) (size 9 to 14) (size 15 to 20)
#    0.000    2.500    1.250    1.125    1.750    2.500 
#    0.000    2.500    0.000    3.000    0.000    0.000 
#    0.000    0.000    0.000    0.000    0.000    0.000 
#
# Total GULP energy -89280.863975 kJ/mol
# GULP energy per Si atom -5580.053998 kJ/mol
# Density = 1.911573 g / cm^3
# Si number density = 19.159338 Si / 1000 Ang^3
#
#
#
# Elastic Constant Matrix: (Units=GPa)
#
#
# Indices 1 2 3 4 5 6 
#
# 1 20.2740 22.5536 22.0119 0.0000 0.0000 0.0000
# 2 22.5536 154.0099 114.1697 0.0000 0.0000 0.0000
# 3 22.0119 114.1697 167.1353 0.0000 0.0000 0.0000
# 4 0.0000 0.0000 0.0000 9.7609 0.0000 0.0000
# 5 0.0000 0.0000 0.0000 0.0000 -16.7553 0.0000
# 6 0.0000 0.0000 0.0000 0.0000 0.0000 15.5146
#
#
#
# Elastic Compliance Matrix: (Units=1/GPa)
#
#
# Indices 1 2 3 4 5 6 
#
# 1 0.060126 -0.005946 -0.003857 0.000000 0.000000 0.000000
# 2 -0.005946 0.013742 -0.008604 0.000000 0.000000 0.000000
# 3 -0.003857 -0.008604 0.012369 0.000000 0.000000 0.000000
# 4 0.000000 0.000000 0.000000 0.102449 0.000000 0.000000
# 5 0.000000 0.000000 0.000000 0.000000 -0.059683 0.000000
# 6 0.000000 0.000000 0.000000 0.000000 0.000000 0.064455
#
#
# Mechanical properties :
#
#
# Convention : Reuss Voigt Hill
#
# Bulk Modulus (GPa) = 20.23350 73.20997 46.72174
# Shear Modulus (GPa) = 20.26363 13.88299 17.07331
#
# Velocity S-wave (km/s) = 3.25566 2.69477 2.98841
# Velocity P-wave (km/s) = 4.97152 6.92651 6.02878
#
# Compressibility (1/GPa) = 0.04942299
#
# Stress axis : x y z
#
# Youngs Moduli (GPa) = 16.63167 72.76847 80.84910
#
# Poissons Ratio (x) = 0.43265 0.31186
# Poissons Ratio (y) = 0.09888 0.69564
# Poissons Ratio (z) = 0.06415 0.62612
#
# Static dielectric constant tensor:
#      x y z
#    x 1.651350 0.000000 0.000000 
#    y 0.000000 1.679560 0.000000 
#    z 0.000000 0.000000 1.642580 
# 
# From -- ./inp_files/21618.got.cif
#   From: 2010.05.17/outbox.cif.g08.bks.cpg/sg38_11_cif.got.tgz:21618.got - 2010.06.03 18:07:57.
