data_PCOD9359502
_publ_section_title
;
Structure prediction by ZEFSAII (Michael W. Deem and Ramdas Pophale) SiO2 
 PCOD9359502
Probable space group: A M M 2
;
_chemical_formula_sum "Si O2"
_cell_formula_units_Z 64
_cell_length_a 22.895060
_cell_length_b 7.315304
_cell_length_c 14.661526
_cell_angle_alpha 90.000000
_cell_angle_beta 90.000000
_cell_angle_gamma 90.000000
_cell_volume 2455.575771
_symmetry_space_group_name_H-M "A M M 2"
_symmetry_group_IT_number 38
_symmetry_cell_setting 'orthorhombic'
loop_
_space_group_symop_operation_xyz
x,y,z
-x,-y,z
-x,y,z
x,-y,z
x,1/2+y,1/2+z
-x,1/2-y,1/2+z
-x,1/2+y,1/2+z
x,1/2-y,1/2+z
loop_
_atom_site_type_symbol
_atom_site_label
_atom_site_fract_x
_atom_site_fract_y
_atom_site_fract_z
Si Si1 0.188583 0.714323 0.414580
Si Si2 0.062997 0.777301 0.618317
Si Si3 0.689638 0.723808 0.089307
Si Si4 0.308800 0.794033 0.879023
Si Si5 0.562913 0.289152 0.354480
Si Si6 0.938042 0.281345 0.903163
Si Si7 0.561851 0.789663 0.636505
Si Si8 0.188062 0.292893 0.128678
O O1 0.198896 0.500000 0.428801
O O2 0.244474 0.783753 0.357211
O O3 0.125456 0.728034 0.367737
O O4 0.184999 0.800410 0.516278
O O5 0.062118 0.729179 0.510591
O O6 0.125422 0.710042 0.655210
O O7 0.000000 0.716838 0.656258
O O8 0.064308 0.000000 0.623132
O O9 0.690387 0.500000 0.089908
O O10 0.625375 0.787886 0.116862
O O11 0.747036 0.783812 0.144816
O O12 0.696855 0.795491 0.987838
O O13 0.372869 0.706030 0.868749
O O14 0.313397 0.000000 0.838329
O O15 0.500000 0.212338 0.386952
O O16 0.565664 0.500000 0.388858
O O17 0.558750 0.294890 0.245506
O O18 0.939343 0.500000 0.899417
O O19 0.000000 0.212539 0.864583
O O20 0.500000 0.708148 0.604086
O O21 0.562965 0.000000 0.603020
O O22 0.188819 0.500000 0.164523
#
# Coordination Sequence:
#
# PCOD9359502 Si02
#       8
#     8   8   8   8   8   8   8   8
#     4   9  15  21  30  47  72  97 122 156 193 227
#     4   7   9  14  25  39  55  80 113 141 164 198
#     4   9  16  25  39  59  80 101 126 159 200 241
#     4   9  17  27  39  58  82 106 133 164 199 240
#     4   8  14  26  43  59  76 102 136 170 200 235
#     4   8  13  21  32  45  64  94 129 158 185 223
#     4   8  14  25  41  60  79  99 128 167 204 235
#     4   8  13  21  31  44  66  94 121 148 183 228
#
# _framework density 26.063133000000001
#
# number of rings (size 3 to 8) (size 9 to 14) (size 15 to 20)
#    0.000    3.750    0.000    2.625    0.000    1.250 
#    0.000    0.000    0.000    0.750    0.000    1.750 
#    0.000    1.000    0.000   10.500    0.000   25.125 
#
# Total GULP energy -178206.121479 kJ/mol
# GULP energy per Si atom -5568.941296 kJ/mol
# Density = 2.600381 g / cm^3
# Si number density = 26.063133 Si / 1000 Ang^3
#
#
#
# Elastic Constant Matrix: (Units=GPa)
#
#
# Indices 1 2 3 4 5 6 
#
# 1 378.8595 19.4383 7.9106 0.0000 0.0000 0.0000
# 2 19.4383 113.6037 -5.6449 0.0000 0.0000 0.0000
# 3 7.9106 -5.6449 62.1730 0.0000 0.0000 0.0000
# 4 0.0000 0.0000 0.0000 -3.2512 0.0000 0.0000
# 5 0.0000 0.0000 0.0000 0.0000 71.8539 0.0000
# 6 0.0000 0.0000 0.0000 0.0000 0.0000 0.8705
#
#
#
# Elastic Compliance Matrix: (Units=1/GPa)
#
#
# Indices 1 2 3 4 5 6 
#
# 1 0.002672 -0.000476 -0.000383 0.000000 0.000000 0.000000
# 2 -0.000476 0.008927 0.000871 0.000000 0.000000 0.000000
# 3 -0.000383 0.000871 0.016212 0.000000 0.000000 0.000000
# 4 0.000000 0.000000 0.000000 -0.307581 0.000000 0.000000
# 5 0.000000 0.000000 0.000000 0.000000 0.013917 0.000000
# 6 0.000000 0.000000 0.000000 0.000000 0.000000 1.148823
#
#
# Mechanical properties :
#
#
# Convention : Reuss Voigt Hill
#
# Bulk Modulus (GPa) = 35.92643 66.44935 51.18789
# Shear Modulus (GPa) = 5.60397 49.42345 27.51371
#
# Velocity S-wave (km/s) = 1.46793 4.35937 3.25261
# Velocity P-wave (km/s) = 4.08502 7.13370 5.81279
#
# Compressibility (1/GPa) = 0.02783466
#
# Stress axis : x y z
#
# Youngs Moduli (GPa) = 374.26044 112.01589 61.68267
#
# Poissons Ratio (x) = 0.05335 0.02364
# Poissons Ratio (y) = 0.17823 -0.05373
# Poissons Ratio (z) = 0.14342 -0.09758
#
# Static dielectric constant tensor:
#      x y z
#    x 2.250860 0.000000 0.000000 
#    y 0.000000 2.031700 0.000000 
#    z 0.000000 0.000000 2.011680 
# 
# From -- ./inp_files/23143.got.cif
#   From: 2010.05.17/outbox.cif.g08.bks.cpg/sg38_12_cif.got.tgz:23143.got - 2010.06.03 18:07:57.
