data_PCOD9359114
_publ_section_title
;
Structure prediction by ZEFSAII (Michael W. Deem and Ramdas Pophale) SiO2 
 PCOD9359114
Probable space group: A M M 2
;
_chemical_formula_sum "Si O2"
_cell_formula_units_Z 48
_cell_length_a 17.201504
_cell_length_b 8.763429
_cell_length_c 16.292491
_cell_angle_alpha 90.000000
_cell_angle_beta 90.000000
_cell_angle_gamma 90.000000
_cell_volume 2455.997854
_symmetry_space_group_name_H-M "A M M 2"
_symmetry_group_IT_number 38
_symmetry_cell_setting 'orthorhombic'
loop_
_space_group_symop_operation_xyz
x,y,z
-x,-y,z
-x,y,z
x,-y,z
x,1/2+y,1/2+z
-x,1/2-y,1/2+z
-x,1/2+y,1/2+z
x,1/2-y,1/2+z
loop_
_atom_site_type_symbol
_atom_site_label
_atom_site_fract_x
_atom_site_fract_y
_atom_site_fract_z
Si Si1 0.500000 0.318444 0.273310
Si Si2 0.178078 0.315883 0.105290
Si Si3 0.184489 0.183051 0.276906
Si Si4 0.333595 0.818063 0.851723
Si Si5 0.910515 0.314216 0.939153
Si Si6 0.659917 0.817676 0.529723
Si Si7 0.500000 0.320205 0.594929
O O1 0.500000 0.500000 0.252876
O O2 0.421634 0.286446 0.323372
O O3 0.500000 0.223332 0.190324
O O4 0.172778 0.500000 0.111587
O O5 0.151788 0.242227 0.190482
O O6 0.130803 0.267200 0.024026
O O7 0.268350 0.275279 0.088505
O O8 0.270404 0.251802 0.289381
O O9 0.134993 0.233093 0.356824
O O10 0.188021 0.000000 0.276520
O O11 0.319854 0.740371 0.939146
O O12 0.324517 0.000000 0.857820
O O13 0.909123 0.500000 0.939175
O O14 0.000000 0.264927 0.937039
O O15 0.578086 0.748539 0.556349
O O16 0.654213 0.000000 0.529390
O O17 0.500000 0.500000 0.581812
#
# Coordination Sequence:
#
# PCOD9359114 Si02
#       7
#     4   8   8   8   8   8   4
#     4  10  23  40  55  79 115 157 201 249 302 357
#     4  10  21  39  62  90 121 160 205 250 305 365
#     4  11  22  38  61  92 124 161 206 250 305 369
#     4  11  22  38  61  87 119 158 204 255 305 359
#     4   9  19  39  64  88 121 162 201 247 306 371
#     4  11  22  39  61  85 118 160 205 252 304 361
#     4  12  25  38  55  85 119 157 205 253 300 357
#
# _framework density 19.543990999999998
#
# number of rings (size 3 to 8) (size 9 to 14) (size 15 to 20)
#    0.000    1.500    1.667    3.750    0.000    8.000 
#    0.000    0.000    0.000    3.500    0.000    0.000 
#    0.000    0.000    0.000    0.000    0.000    0.000 
#
# Total GULP energy -134141.884268 kJ/mol
# GULP energy per Si atom -5589.245178 kJ/mol
# Density = 1.949951 g / cm^3
# Si number density = 19.543991 Si / 1000 Ang^3
#
#
#
# Elastic Constant Matrix: (Units=GPa)
#
#
# Indices 1 2 3 4 5 6 
#
# 1 121.3274 29.4915 56.3107 0.0000 0.0000 0.0000
# 2 29.4915 32.3728 32.7166 0.0000 0.0000 0.0000
# 3 56.3107 32.7166 145.4590 0.0000 0.0000 0.0000
# 4 0.0000 0.0000 0.0000 31.5316 0.0000 0.0000
# 5 0.0000 0.0000 0.0000 0.0000 12.7441 0.0000
# 6 0.0000 0.0000 0.0000 0.0000 0.0000 9.8096
#
#
#
# Elastic Compliance Matrix: (Units=1/GPa)
#
#
# Indices 1 2 3 4 5 6 
#
# 1 0.011337 -0.007626 -0.002673 0.000000 0.000000 0.000000
# 2 -0.007626 0.045107 -0.007193 0.000000 0.000000 0.000000
# 3 -0.002673 -0.007193 0.009528 0.000000 0.000000 0.000000
# 4 0.000000 0.000000 0.000000 0.031714 0.000000 0.000000
# 5 0.000000 0.000000 0.000000 0.000000 0.078468 0.000000
# 6 0.000000 0.000000 0.000000 0.000000 0.000000 0.101941
#
#
# Mechanical properties :
#
#
# Convention : Reuss Voigt Hill
#
# Bulk Modulus (GPa) = 32.27253 59.57740 45.92497
# Shear Modulus (GPa) = 15.46038 22.85976 19.16007
#
# Velocity S-wave (km/s) = 2.81562 3.42373 3.13446
# Velocity P-wave (km/s) = 5.20758 6.79553 6.05385
#
# Compressibility (1/GPa) = 0.03098611
#
# Stress axis : x y z
#
# Youngs Moduli (GPa) = 88.20993 22.16956 104.95729
#
# Poissons Ratio (x) = 0.16906 0.28060
# Poissons Ratio (y) = 0.67266 0.75499
# Poissons Ratio (z) = 0.23583 0.15947
#
# Static dielectric constant tensor:
#      x y z
#    x 1.683860 0.000000 0.000000 
#    y 0.000000 1.667350 0.000000 
#    z 0.000000 0.000000 1.686920 
# 
# From -- ./inp_files/14999.got.cif
#   From: 2010.05.17/outbox.cif.g08.bks.cpg/sg38_8_cif.got.tgz:14999.got - 2010.06.03 18:07:57.
