data_PCOD9359195
_publ_section_title
;
Structure prediction by ZEFSAII (Michael W. Deem and Ramdas Pophale) SiO2 
 PCOD9359195
Probable space group: A M M 2
;
_chemical_formula_sum "Si O2"
_cell_formula_units_Z 64
_cell_length_a 7.723469
_cell_length_b 15.037969
_cell_length_c 25.837542
_cell_angle_alpha 90.000000
_cell_angle_beta 90.000000
_cell_angle_gamma 90.000000
_cell_volume 3000.908741
_symmetry_space_group_name_H-M "A M M 2"
_symmetry_group_IT_number 38
_symmetry_cell_setting 'orthorhombic'
loop_
_space_group_symop_operation_xyz
x,y,z
-x,-y,z
-x,y,z
x,-y,z
x,1/2+y,1/2+z
-x,1/2-y,1/2+z
-x,1/2+y,1/2+z
x,1/2-y,1/2+z
loop_
_atom_site_type_symbol
_atom_site_label
_atom_site_fract_x
_atom_site_fract_y
_atom_site_fract_z
Si Si1 0.199312 0.891413 0.413250
Si Si2 0.706897 0.255120 0.605020
Si Si3 0.293111 0.898801 0.801262
Si Si4 0.205788 0.601769 0.413246
Si Si5 0.706897 0.744885 0.221476
Si Si6 0.706889 0.101199 0.025231
Si Si7 0.209852 0.397981 0.800457
Si Si8 0.209852 0.602019 0.026043
O O1 0.275723 0.867482 0.357365
O O2 0.275723 0.867483 0.469135
O O3 0.000000 0.858863 0.413250
O O4 0.194066 0.000000 0.413250
O O5 0.500000 0.268296 0.609061
O O6 0.776772 0.250005 0.663248
O O7 0.777172 0.336261 0.570361
O O8 0.736661 0.166454 0.571892
O O9 0.500000 0.904147 0.795555
O O10 0.259805 0.858994 0.858332
O O11 0.222828 0.836260 0.756133
O O12 0.223615 0.000000 0.799698
O O13 0.277203 0.500000 0.413247
O O14 0.259803 0.641006 0.468160
O O15 0.000000 0.598060 0.413246
O O16 0.500000 0.731710 0.217435
O O17 0.736662 0.833547 0.254607
O O18 0.500000 0.095853 0.030937
O O19 0.776385 0.000000 0.026795
O O20 0.265156 0.500000 0.791888
O O21 0.000000 0.398110 0.803416
O O22 0.265155 0.500000 0.034612
O O23 0.000000 0.601890 0.023084
#
# Coordination Sequence:
#
# PCOD9359195 Si02
#       8
#     8   8   8   8   8   8   8   8
#     4   7  12  27  51  76 101 129 162 199 245 306
#     4  10  22  37  52  74 103 137 179 220 256 298
#     4   9  18  34  54  74 101 138 174 209 254 308
#     4   9  17  30  51  80 107 129 162 210 261 311
#     4  10  22  37  52  74 103 137 179 220 256 298
#     4   9  18  34  54  74 101 138 174 209 254 308
#     4   9  18  34  56  80 106 137 170 206 254 310
#     4   9  18  34  56  80 106 137 170 206 254 310
#
# _framework density 21.326874
#
# number of rings (size 3 to 8) (size 9 to 14) (size 15 to 20)
#    0.000    3.000    0.000    1.875    0.000    5.500 
#    0.000    5.625    0.000    5.250    0.000    0.000 
#    0.000    0.000    0.000    0.000    0.000    0.000 
#
# Total GULP energy -178492.874360 kJ/mol
# GULP energy per Si atom -5577.902324 kJ/mol
# Density = 2.127833 g / cm^3
# Si number density = 21.326874 Si / 1000 Ang^3
#
#
#
# Elastic Constant Matrix: (Units=GPa)
#
#
# Indices 1 2 3 4 5 6 
#
# 1 34.3174 -0.9368 5.0396 0.0000 0.0000 0.0000
# 2 -0.9368 103.0675 95.4566 0.0000 0.0000 0.0000
# 3 5.0396 95.4566 250.8623 0.0000 0.0000 0.0000
# 4 0.0000 0.0000 0.0000 33.6041 0.0000 0.0000
# 5 0.0000 0.0000 0.0000 0.0000 1.4704 0.0000
# 6 0.0000 0.0000 0.0000 0.0000 0.0000 23.1804
#
#
#
# Elastic Compliance Matrix: (Units=1/GPa)
#
#
# Indices 1 2 3 4 5 6 
#
# 1 0.029331 0.001254 -0.001067 0.000000 0.000000 0.000000
# 2 0.001254 0.015036 -0.005747 0.000000 0.000000 0.000000
# 3 -0.001067 -0.005747 0.006194 0.000000 0.000000 0.000000
# 4 0.000000 0.000000 0.000000 0.029758 0.000000 0.000000
# 5 0.000000 0.000000 0.000000 0.000000 0.680068 0.000000
# 6 0.000000 0.000000 0.000000 0.000000 0.000000 0.043140
#
#
# Mechanical properties :
#
#
# Convention : Reuss Voigt Hill
#
# Bulk Modulus (GPa) = 25.35276 65.26290 45.30783
# Shear Modulus (GPa) = 6.04016 30.89684 18.46850
#
# Velocity S-wave (km/s) = 1.68473 3.81035 2.94593
# Velocity P-wave (km/s) = 3.96206 7.07291 5.73254
#
# Compressibility (1/GPa) = 0.03944344
#
# Stress axis : x y z
#
# Youngs Moduli (GPa) = 34.09406 66.50678 161.43742
#
# Poissons Ratio (x) = -0.08342 0.17218
# Poissons Ratio (y) = -0.04277 0.92772
# Poissons Ratio (z) = 0.03636 0.38219
#
# Static dielectric constant tensor:
#      x y z
#    x 1.775780 0.000000 0.000000 
#    y 0.000000 1.789830 0.000000 
#    z 0.000000 0.000000 1.779760 
# 
# From -- ./inp_files/22162.got.cif
#   From: 2010.05.17/outbox.cif.g08.bks.cpg/sg38_12_cif.got.tgz:22162.got - 2010.06.03 18:07:57.
