data_PCOD9359962
_publ_section_title
;
Structure prediction by ZEFSAII (Michael W. Deem and Ramdas Pophale) SiO2 
 PCOD9359962
Probable space group: A B M 2
;
_chemical_formula_sum "Si O2"
_cell_formula_units_Z 56
_cell_length_a 6.703767
_cell_length_b 26.368858
_cell_length_c 14.244871
_cell_angle_alpha 90.000000
_cell_angle_beta 90.000000
_cell_angle_gamma 90.000000
_cell_volume 2518.075534
_symmetry_space_group_name_H-M "A B M 2"
_symmetry_group_IT_number 39
_symmetry_cell_setting 'orthorhombic'
loop_
_space_group_symop_operation_xyz
x,y,z
-x,-y,z
-x,1/2+y,z
x,1/2-y,z
x,1/2+y,1/2+z
-x,1/2-y,1/2+z
-x,y,1/2+z
x,-y,1/2+z
loop_
_atom_site_type_symbol
_atom_site_label
_atom_site_fract_x
_atom_site_fract_y
_atom_site_fract_z
Si Si1 0.290638 0.889469 0.831440
Si Si2 0.606419 0.904783 0.674490
Si Si3 0.244648 0.691266 0.484671
Si Si4 0.116941 0.807840 0.129166
Si Si5 0.114719 0.947117 0.334868
Si Si6 0.957810 0.306906 0.834672
Si Si7 0.574213 0.084027 0.487955
O O1 0.420305 0.888164 0.738624
O O2 0.065327 0.907865 0.819763
O O3 0.244105 0.833502 0.867117
O O4 0.402670 0.920970 0.910072
O O5 0.734285 0.855726 0.639860
O O6 0.739231 0.938517 0.746166
O O7 0.514513 0.934801 0.586024
O O8 0.314569 0.750000 0.493302
O O9 0.171428 0.678485 0.379028
O O10 0.382781 0.643768 0.508622
O O11 0.040889 0.686197 0.545048
O O12 0.204694 0.750000 0.124619
O O13 0.982667 0.808862 0.223425
O O14 0.233056 0.938219 0.433195
O O15 0.000000 0.000000 0.334822
O O16 0.938739 0.250000 0.867140
#
# Coordination Sequence:
#
# PCOD9359962 Si02
#       7
#     8   8   8   8   8   8   8
#     4  11  22  42  66  96 133 176 220 284 337 398
#     4  11  24  40  70 102 132 175 233 275 333 414
#     4  10  20  36  61  95 138 181 222 267 324 399
#     4  10  20  36  61  95 138 181 222 267 324 399
#     4  11  26  50  72  93 134 178 215 291 357 388
#     4  10  18  33  59  89 129 180 219 253 326 399
#     4  11  24  40  70 102 132 175 233 275 333 414
#
# _framework density 22.239204999999998
#
# number of rings (size 3 to 8) (size 9 to 14) (size 15 to 20)
#    0.000    1.429    2.857    2.571    0.000    4.000 
#    0.000    4.286    0.000    0.000    0.000    0.000 
#    0.000    0.000    0.000    0.000    0.000    0.000 
#
# Total GULP energy -156164.215775 kJ/mol
# GULP energy per Si atom -5577.293421 kJ/mol
# Density = 2.218859 g / cm^3
# Si number density = 22.239205 Si / 1000 Ang^3
#
#
#
# Elastic Constant Matrix: (Units=GPa)
#
#
# Indices 1 2 3 4 5 6 
#
# 1 96.0089 28.2876 36.5281 0.0000 0.0000 0.0000
# 2 28.2876 65.9498 19.5324 0.0000 0.0000 0.0000
# 3 36.5281 19.5324 94.2210 0.0000 0.0000 0.0000
# 4 0.0000 0.0000 0.0000 9.5497 0.0000 0.0000
# 5 0.0000 0.0000 0.0000 0.0000 30.2828 0.0000
# 6 0.0000 0.0000 0.0000 0.0000 0.0000 19.6793
#
#
#
# Elastic Compliance Matrix: (Units=1/GPa)
#
#
# Indices 1 2 3 4 5 6 
#
# 1 0.013348 -0.004467 -0.004249 0.000000 0.000000 0.000000
# 2 -0.004467 0.017650 -0.001927 0.000000 0.000000 0.000000
# 3 -0.004249 -0.001927 0.012660 0.000000 0.000000 0.000000
# 4 0.000000 0.000000 0.000000 0.104716 0.000000 0.000000
# 5 0.000000 0.000000 0.000000 0.000000 0.033022 0.000000
# 6 0.000000 0.000000 0.000000 0.000000 0.000000 0.050815
#
#
# Mechanical properties :
#
#
# Convention : Reuss Voigt Hill
#
# Bulk Modulus (GPa) = 44.69837 47.20844 45.95341
# Shear Modulus (GPa) = 19.16043 23.35779 21.25911
#
# Velocity S-wave (km/s) = 2.93842 3.24435 3.09517
# Velocity P-wave (km/s) = 5.62627 5.94206 5.78632
#
# Compressibility (1/GPa) = 0.02237218
#
# Stress axis : x y z
#
# Youngs Moduli (GPa) = 74.91512 56.65771 78.98831
#
# Poissons Ratio (x) = 0.25309 0.33562
# Poissons Ratio (y) = 0.33465 0.15222
# Poissons Ratio (z) = 0.31831 0.10918
#
# Static dielectric constant tensor:
#      x y z
#    x 1.996050 0.000000 0.000000 
#    y 0.000000 2.271580 0.000000 
#    z 0.000000 0.000000 1.827860 
# 
# From -- ./inp_files/7656.got.cif
#   From: 2010.05.17/outbox.cif.g08.bks.cpg/sg39_4_cif.got.tgz:7656.got - 2010.06.03 18:22:40.
