data_PCOD9359504
_publ_section_title
;
Structure prediction by ZEFSAII (Michael W. Deem and Ramdas Pophale) SiO2 
 PCOD9359504
Probable space group: A M M 2
;
_chemical_formula_sum "Si O2"
_cell_formula_units_Z 64
_cell_length_a 22.964843
_cell_length_b 7.353925
_cell_length_c 14.689862
_cell_angle_alpha 90.000000
_cell_angle_beta 90.000000
_cell_angle_gamma 90.000000
_cell_volume 2480.849353
_symmetry_space_group_name_H-M "A M M 2"
_symmetry_group_IT_number 38
_symmetry_cell_setting 'orthorhombic'
loop_
_space_group_symop_operation_xyz
x,y,z
-x,-y,z
-x,y,z
x,-y,z
x,1/2+y,1/2+z
-x,1/2-y,1/2+z
-x,1/2+y,1/2+z
x,1/2-y,1/2+z
loop_
_atom_site_type_symbol
_atom_site_label
_atom_site_fract_x
_atom_site_fract_y
_atom_site_fract_z
Si Si1 0.685344 0.207309 0.331090
Si Si2 0.810122 0.292060 0.824417
Si Si3 0.189002 0.296559 0.607536
Si Si4 0.937765 0.279620 0.866861
Si Si5 0.937529 0.711855 0.579877
Si Si6 0.563105 0.709860 0.082474
Si Si7 0.562817 0.220937 0.298920
Si Si8 0.684366 0.713211 0.118736
O O1 0.748301 0.289774 0.356234
O O2 0.621282 0.286029 0.348709
O O3 0.685174 0.200571 0.219652
O O4 0.685817 0.000000 0.366043
O O5 0.812229 0.500000 0.860988
O O6 0.804803 0.303184 0.715985
O O7 0.874151 0.211115 0.838207
O O8 0.182910 0.500000 0.569110
O O9 0.126072 0.204885 0.596652
O O10 0.251707 0.228573 0.574820
O O11 0.936551 0.500000 0.857934
O O12 0.000000 0.221174 0.824652
O O13 0.941258 0.223737 0.971554
O O14 0.935373 0.500000 0.611407
O O15 0.000000 0.785933 0.613528
O O16 0.500000 0.789616 0.055869
O O17 0.562309 0.500000 0.050768
O O18 0.562903 0.715999 0.193602
O O19 0.628150 0.783196 0.063594
O O20 0.500000 0.273182 0.338077
O O21 0.565397 0.000000 0.297211
O O22 0.674833 0.500000 0.134410
#
# Coordination Sequence:
#
# PCOD9359504 Si02
#       8
#     8   8   8   8   8   8   8   8
#     4   8  13  22  34  48  72 104 133 162 197 236
#     4   8  14  25  41  60  80 104 133 161 193 234
#     4   9  17  29  44  61  83 110 137 167 202 240
#     4   9  17  29  45  63  82 104 130 163 201 239
#     4   9  18  32  48  64  82 106 135 166 202 243
#     4   8  13  20  29  43  67 100 133 161 192 232
#     4   8  12  17  27  44  65  92 127 162 194 229
#     4   9  15  22  34  53  77 104 134 167 201 237
#
# _framework density 25.797615
#
# number of rings (size 3 to 8) (size 9 to 14) (size 15 to 20)
#    0.000    3.500    0.000    1.125    0.000    1.500 
#    0.000    5.000    0.000    0.000    0.000    3.500 
#    0.000    1.000    0.000    7.750    0.000    4.000 
#
# Total GULP energy -178138.543112 kJ/mol
# GULP energy per Si atom -5566.829472 kJ/mol
# Density = 2.573890 g / cm^3
# Si number density = 25.797615 Si / 1000 Ang^3
#
#
#
# Elastic Constant Matrix: (Units=GPa)
#
#
# Indices 1 2 3 4 5 6 
#
# 1 382.6136 19.5024 8.4175 0.0000 0.0000 0.0000
# 2 19.5024 103.6511 -9.0549 0.0000 0.0000 0.0000
# 3 8.4175 -9.0549 57.8533 0.0000 0.0000 0.0000
# 4 0.0000 0.0000 0.0000 -4.3949 0.0000 0.0000
# 5 0.0000 0.0000 0.0000 0.0000 75.2285 0.0000
# 6 0.0000 0.0000 0.0000 0.0000 0.0000 13.9621
#
#
#
# Elastic Compliance Matrix: (Units=1/GPa)
#
#
# Indices 1 2 3 4 5 6 
#
# 1 0.002651 -0.000540 -0.000470 0.000000 0.000000 0.000000
# 2 -0.000540 0.009891 0.001627 0.000000 0.000000 0.000000
# 3 -0.000470 0.001627 0.017608 0.000000 0.000000 0.000000
# 4 0.000000 0.000000 0.000000 -0.227537 0.000000 0.000000
# 5 0.000000 0.000000 0.000000 0.000000 0.013293 0.000000
# 6 0.000000 0.000000 0.000000 0.000000 0.000000 0.071622
#
#
# Mechanical properties :
#
#
# Convention : Reuss Voigt Hill
#
# Bulk Modulus (GPa) = 31.86341 64.64979 48.25660
# Shear Modulus (GPa) = -48.42970 51.97602 1.77316
#
# Velocity S-wave (km/s) = -4.33748 4.49348 0.82996
# Velocity P-wave (km/s) = 3.56466 7.21364 4.43451
#
# Compressibility (1/GPa) = 0.03138396
#
# Stress axis : x y z
#
# Youngs Moduli (GPa) = 377.14892 101.09729 56.79198
#
# Poissons Ratio (x) = 0.05459 0.02671
# Poissons Ratio (y) = 0.20365 -0.09238
# Poissons Ratio (z) = 0.17737 -0.16446
#
# Static dielectric constant tensor:
#      x y z
#    x 2.180880 0.000000 0.000000 
#    y 0.000000 2.087290 0.000000 
#    z 0.000000 0.000000 1.989270 
# 
# From -- ./inp_files/19018.got.cif
#   From: 2010.05.17/outbox.cif.g08.bks.cpg/sg38_10_cif.got.tgz:19018.got - 2010.06.03 18:07:57.
