data_PCOD9359625
_publ_section_title
;
Structure prediction by ZEFSAII (Michael W. Deem and Ramdas Pophale) SiO2 
 PCOD9359625
Probable space group: A M M 2
;
_chemical_formula_sum "Si O2"
_cell_formula_units_Z 32
_cell_length_a 9.000000
_cell_length_b 15.000000
_cell_length_c 30.000000
_cell_angle_alpha 90.000000
_cell_angle_beta 90.000000
_cell_angle_gamma 90.000000
_cell_volume 4050.000000
_symmetry_space_group_name_H-M "A M M 2"
_symmetry_group_IT_number 38
_symmetry_cell_setting 'orthorhombic'
loop_
_space_group_symop_operation_xyz
x,y,z
-x,-y,z
-x,y,z
x,-y,z
x,1/2+y,1/2+z
-x,1/2-y,1/2+z
-x,1/2+y,1/2+z
x,1/2-y,1/2+z
loop_
_atom_site_type_symbol
_atom_site_label
_atom_site_fract_x
_atom_site_fract_y
_atom_site_fract_z
Si Si1 0.818931 0.723338 0.059590
Si Si2 0.320357 0.393736 0.140889
Si Si3 0.180849 0.103291 0.372387
Si Si4 0.175031 0.393548 0.418502
Si Si5 0.819292 0.713493 0.328919
Si Si6 0.180008 0.602417 0.974561
Si Si7 0.179197 0.105417 0.739127
Si Si8 0.321136 0.893934 0.014887
O O1 0.752523 0.670905 0.102994
O O2 0.754514 0.822576 0.048719
O O3 0.000000 0.726242 0.062977
O O4 0.776005 0.665982 0.015226
O O5 0.500000 0.383267 0.140577
O O6 0.287890 0.500000 0.131799
O O7 0.256784 0.374994 0.191129
O O8 0.227037 0.183644 0.339253
O O9 0.226269 0.125666 0.423731
O O10 0.000000 0.102659 0.371944
O O11 0.226862 0.000000 0.362806
O O12 0.185954 0.500000 0.410732
O O13 0.223823 0.342664 0.373429
O O14 0.261806 0.373891 0.464499
O O15 0.000000 0.371487 0.425922
O O16 0.773799 0.666492 0.281952
O O17 0.000000 0.712015 0.327930
O O18 0.226524 0.500000 0.983034
O O19 0.000000 0.603663 0.973952
O O20 0.000000 0.115549 0.733764
O O21 0.207180 0.000000 0.749204
O O22 0.500000 0.884356 0.016436
O O23 0.286464 0.000000 0.023488
#
# Coordination Sequence:
#
# PCOD9359625 Si02
#       8
#     8   8   8   8   8   8   8   8
#     4  11  20  31  52  76  96 123 163 207 245 286
#     4  10  21  36  52  72 100 129 155 190 242 303
#     4   8  13  21  34  57  92 127 152 178 219 271
#     4   9  16  27  45  69  95 123 158 199 241 286
#     4   9  15  24  42  67  93 121 156 199 244 285
#     4   8  14  24  40  67 100 127 152 186 230 279
#     4   9  17  30  48  69  92 119 154 197 244 291
#     4  10  21  35  48  66  98 136 168 200 241 290
#
# _framework density 7.9012349999999998
#
# number of rings (size 3 to 8) (size 9 to 14) (size 15 to 20)
#    0.000    2.750    0.000    3.375    0.000    5.500 
#    0.000    0.625    0.000    3.750    0.000    1.750 
#    0.000    1.000    0.000    0.000    0.000    0.000 
#
# Total GULP energy -178240.405028 kJ/mol
# GULP energy per Si atom -5570.012657 kJ/mol
# Density = 0.788325 g / cm^3
# Si number density = 7.901235 Si / 1000 Ang^3
#
#
#
# Elastic Constant Matrix: (Units=GPa)
#
#
# Indices 1 2 3 4 5 6 
#
# 1 47.3325 33.1836 35.6604 0.0000 0.0000 0.0000
# 2 33.1836 118.5617 83.7263 0.0000 0.0000 0.0000
# 3 35.6604 83.7263 132.1140 0.0000 0.0000 0.0000
# 4 0.0000 0.0000 0.0000 38.4276 0.0000 0.0000
# 5 0.0000 0.0000 0.0000 0.0000 18.6366 0.0000
# 6 0.0000 0.0000 0.0000 0.0000 0.0000 19.2931
#
#
#
# Elastic Compliance Matrix: (Units=1/GPa)
#
#
# Indices 1 2 3 4 5 6 
#
# 1 0.027780 -0.004489 -0.004654 0.000000 0.000000 0.000000
# 2 -0.004489 0.015992 -0.008923 0.000000 0.000000 0.000000
# 3 -0.004654 -0.008923 0.014480 0.000000 0.000000 0.000000
# 4 0.000000 0.000000 0.000000 0.026023 0.000000 0.000000
# 5 0.000000 0.000000 0.000000 0.000000 0.053658 0.000000
# 6 0.000000 0.000000 0.000000 0.000000 0.000000 0.051832
#
#
# Mechanical properties :
#
#
# Convention : Reuss Voigt Hill
#
# Bulk Modulus (GPa) = 45.20556 67.01654 56.11105
# Shear Modulus (GPa) = 21.43423 24.96731 23.20077
#
# Velocity S-wave (km/s) = 3.68691 3.97919 3.83583
# Velocity P-wave (km/s) = 6.84055 7.97577 7.42987
#
# Compressibility (1/GPa) = 0.02212117
#
# Stress axis : x y z
#
# Youngs Moduli (GPa) = 35.99670 62.52988 69.05854
#
# Poissons Ratio (x) = 0.28069 0.32138
# Poissons Ratio (y) = 0.16159 0.61624
# Poissons Ratio (z) = 0.16752 0.55798
#
# Static dielectric constant tensor:
#      x y z
#    x 1.528730 0.000000 0.000000 
#    y 0.000000 1.556600 0.000000 
#    z 0.000000 0.000000 1.518160 
# 
# From -- ./inp_files/24823.got.cif
#   From: 2010.05.17/outbox.ucp.g08.bks.cvg/sg38_13_cif.got.tgz:24823.got - 2010.06.11 10:39:43.
