data_PCOD9359729
_publ_section_title
;
Structure prediction by ZEFSAII (Michael W. Deem and Ramdas Pophale) SiO2 
 PCOD9359729
Probable space group: A B M 2
;
_chemical_formula_sum "Si O2"
_cell_formula_units_Z 48
_cell_length_a 9.877859
_cell_length_b 8.680657
_cell_length_c 32.237145
_cell_angle_alpha 90.000000
_cell_angle_beta 90.000000
_cell_angle_gamma 90.000000
_cell_volume 2764.216096
_symmetry_space_group_name_H-M "A B M 2"
_symmetry_group_IT_number 39
_symmetry_cell_setting 'orthorhombic'
loop_
_space_group_symop_operation_xyz
x,y,z
-x,-y,z
-x,1/2+y,z
x,1/2-y,z
x,1/2+y,1/2+z
-x,1/2-y,1/2+z
-x,y,1/2+z
x,-y,1/2+z
loop_
_atom_site_type_symbol
_atom_site_label
_atom_site_fract_x
_atom_site_fract_y
_atom_site_fract_z
Si Si1 0.653012 0.934419 0.001000
Si Si2 0.149927 0.934856 0.162252
Si Si3 0.652092 0.065553 0.593029
Si Si4 0.652070 0.935465 0.830349
Si Si5 0.653815 0.066068 0.916585
Si Si6 0.850920 0.064579 0.256699
O O1 0.648341 0.750000 0.996198
O O2 0.708682 0.972073 0.046747
O O3 0.500000 0.000000 0.002512
O O4 0.717565 0.007371 0.959750
O O5 0.146874 0.750000 0.160218
O O6 0.186921 0.981137 0.209600
O O7 0.254403 0.998758 0.128879
O O8 0.000000 0.000000 0.154238
O O9 0.645487 0.250000 0.596030
O O10 0.500000 0.000000 0.596351
O O11 0.646044 0.750000 0.832731
O O12 0.743545 0.983277 0.791401
O O13 0.500000 0.000000 0.825594
O O14 0.711432 0.000469 0.873623
O O15 0.649762 0.250000 0.915832
O O16 0.500000 0.000000 0.916846
O O17 0.857730 0.250000 0.257522
O O18 0.000000 0.000000 0.265417
#
# Coordination Sequence:
#
# PCOD9359729 Si02
#       6
#     8   8   8   8   8   8
#     4   9  16  27  44  67  97 130 163 199 241 289
#     4  10  20  36  55  75 100 132 170 208 250 302
#     4  10  20  33  51  77 105 134 168 208 253 297
#     4  10  19  32  49  73 102 130 163 203 246 289
#     4  10  17  26  43  68  97 129 163 198 241 289
#     4   9  20  36  54  74  97 129 167 204 245 296
#
# _framework density 17.364778000000001
#
# number of rings (size 3 to 8) (size 9 to 14) (size 15 to 20)
#    0.000    2.333    0.000    5.500    0.000    4.667 
#    0.000    1.667    0.000    1.000    0.000    4.667 
#    0.000    0.000    0.000    0.000    0.000    0.000 
#
# Total GULP energy -133773.908144 kJ/mol
# GULP energy per Si atom -5573.912839 kJ/mol
# Density = 1.732525 g / cm^3
# Si number density = 17.364778 Si / 1000 Ang^3
#
#
#
# Elastic Constant Matrix: (Units=GPa)
#
#
# Indices 1 2 3 4 5 6 
#
# 1 53.2098 28.9568 84.8121 0.0000 0.0000 0.0000
# 2 28.9568 81.0556 64.7845 0.0000 0.0000 0.0000
# 3 84.8121 64.7845 198.2705 0.0000 0.0000 0.0000
# 4 0.0000 0.0000 0.0000 32.5803 0.0000 0.0000
# 5 0.0000 0.0000 0.0000 0.0000 -8.0067 0.0000
# 6 0.0000 0.0000 0.0000 0.0000 0.0000 22.5992
#
#
#
# Elastic Compliance Matrix: (Units=1/GPa)
#
#
# Indices 1 2 3 4 5 6 
#
# 1 0.059155 -0.001229 -0.024902 0.000000 0.000000 0.000000
# 2 -0.001229 0.016724 -0.004939 0.000000 0.000000 0.000000
# 3 -0.024902 -0.004939 0.017310 0.000000 0.000000 0.000000
# 4 0.000000 0.000000 0.000000 0.030693 0.000000 0.000000
# 5 0.000000 0.000000 0.000000 0.000000 -0.124896 0.000000
# 6 0.000000 0.000000 0.000000 0.000000 0.000000 0.044249
#
#
# Mechanical properties :
#
#
# Convention : Reuss Voigt Hill
#
# Bulk Modulus (GPa) = 32.20876 76.62698 54.41787
# Shear Modulus (GPa) = 43.20582 19.70007 31.45295
#
# Velocity S-wave (km/s) = 4.99353 3.37186 4.26056
# Velocity P-wave (km/s) = 7.19970 7.70603 7.45716
#
# Compressibility (1/GPa) = 0.03104745
#
# Stress axis : x y z
#
# Youngs Moduli (GPa) = 16.90473 59.79592 57.77168
#
# Poissons Ratio (x) = 0.07351 1.43866
# Poissons Ratio (y) = 0.02078 0.28531
# Poissons Ratio (z) = 0.42097 0.29530
#
# Static dielectric constant tensor:
#      x y z
#    x 1.545310 0.000000 0.000000 
#    y 0.000000 1.582150 0.000000 
#    z 0.000000 0.000000 1.651970 
# 
# From -- ./inp_files/16909.got.cif
#   From: 2010.05.17/outbox.cif.g08.bks.cpg/sg39_9_cif.got.tgz:16909.got - 2010.06.03 18:22:40.
