data_PCOD9359570
_publ_section_title
;
Structure prediction by ZEFSAII (Michael W. Deem and Ramdas Pophale) SiO2 
 PCOD9359570
Probable space group: A M M 2
;
_chemical_formula_sum "Si O2"
_cell_formula_units_Z 32
_cell_length_a 18.000000
_cell_length_b 9.000000
_cell_length_c 21.000000
_cell_angle_alpha 90.000000
_cell_angle_beta 90.000000
_cell_angle_gamma 90.000000
_cell_volume 3402.000000
_symmetry_space_group_name_H-M "A M M 2"
_symmetry_group_IT_number 38
_symmetry_cell_setting 'orthorhombic'
loop_
_space_group_symop_operation_xyz
x,y,z
-x,-y,z
-x,y,z
x,-y,z
x,1/2+y,1/2+z
-x,1/2-y,1/2+z
-x,1/2+y,1/2+z
x,1/2-y,1/2+z
loop_
_atom_site_type_symbol
_atom_site_label
_atom_site_fract_x
_atom_site_fract_y
_atom_site_fract_z
Si Si1 0.755386 0.323506 0.350400
Si Si2 0.414201 0.321431 0.300303
Si Si3 0.914081 0.827041 0.309458
Si Si4 0.083213 0.829669 0.156259
Si Si5 0.229309 0.328535 0.121249
Si Si6 0.719753 0.828775 0.475990
Si Si7 0.414620 0.170081 0.025721
Si Si8 0.629181 0.324606 0.670990
O O1 0.758869 0.500000 0.338920
O O2 0.669834 0.274643 0.327496
O O3 0.834650 0.253367 0.325803
O O4 0.754727 0.279451 0.424540
O O5 0.500000 0.275921 0.323093
O O6 0.413784 0.500000 0.305569
O O7 0.408599 0.266254 0.227369
O O8 0.916879 0.824988 0.232802
O O9 0.000000 0.776166 0.329507
O O10 0.907942 0.000000 0.330254
O O11 0.145671 0.719645 0.132516
O O12 0.000000 0.793893 0.134022
O O13 0.100631 0.000000 0.137367
O O14 0.242548 0.500000 0.138638
O O15 0.285680 0.227826 0.161937
O O16 0.247209 0.310426 0.046647
O O17 0.634313 0.782404 0.485626
O O18 0.727825 0.000000 0.456199
O O19 0.500000 0.176203 0.007675
O O20 0.406464 0.201400 0.101224
O O21 0.387349 0.000000 0.015954
O O22 0.624782 0.500000 0.684598
#
# Coordination Sequence:
#
# PCOD9359570 Si02
#       8
#     8   8   8   8   8   8   8   8
#     4  11  23  38  57  80 107 144 189 233 276 321
#     4  10  22  38  54  77 112 149 182 222 275 330
#     4   9  19  37  60  85 113 144 177 218 272 329
#     4   9  18  33  55  84 114 141 170 208 259 319
#     4  10  20  34  53  78 107 140 177 217 267 323
#     4  10  22  38  54  74 102 139 183 225 266 317
#     4   9  18  33  53  77 105 136 172 219 272 321
#     4  10  19  32  53  80 108 139 177 220 267 321
#
# _framework density 9.4062319999999993
#
# number of rings (size 3 to 8) (size 9 to 14) (size 15 to 20)
#    0.000    2.250    0.000    3.375    0.000    7.500 
#    0.000    3.125    0.000    0.750    0.000    0.000 
#    0.000    0.000    0.000    0.000    0.000    0.000 
#
# Total GULP energy -178187.500912 kJ/mol
# GULP energy per Si atom -5568.359403 kJ/mol
# Density = 0.938482 g / cm^3
# Si number density = 9.406232 Si / 1000 Ang^3
#
#
#
# Elastic Constant Matrix: (Units=GPa)
#
#
# Indices 1 2 3 4 5 6 
#
# 1 131.3072 31.7204 18.9225 0.0000 0.0000 0.0000
# 2 31.7204 19.2474 13.8743 0.0000 0.0000 0.0000
# 3 18.9225 13.8743 17.2316 0.0000 0.0000 0.0000
# 4 0.0000 0.0000 0.0000 22.2746 0.0000 0.0000
# 5 0.0000 0.0000 0.0000 0.0000 14.9504 0.0000
# 6 0.0000 0.0000 0.0000 0.0000 0.0000 35.6814
#
#
#
# Elastic Compliance Matrix: (Units=1/GPa)
#
#
# Indices 1 2 3 4 5 6 
#
# 1 0.013007 -0.026549 0.007093 0.000000 0.000000 0.000000
# 2 -0.026549 0.178010 -0.114173 0.000000 0.000000 0.000000
# 3 0.007093 -0.114173 0.142172 0.000000 0.000000 0.000000
# 4 0.000000 0.000000 0.000000 0.044894 0.000000 0.000000
# 5 0.000000 0.000000 0.000000 0.000000 0.066888 0.000000
# 6 0.000000 0.000000 0.000000 0.000000 0.000000 0.028026
#
#
# Mechanical properties :
#
#
# Convention : Reuss Voigt Hill
#
# Bulk Modulus (GPa) = 15.16745 32.98007 24.07376
# Shear Modulus (GPa) = 6.55968 21.46587 14.01278
#
# Velocity S-wave (km/s) = 1.86934 3.38160 2.73219
# Velocity P-wave (km/s) = 3.56920 5.72852 4.77259
#
# Compressibility (1/GPa) = 0.06593064
#
# Stress axis : x y z
#
# Youngs Moduli (GPa) = 76.88076 5.61767 7.03373
#
# Poissons Ratio (x) = 0.14914 -0.04989
# Poissons Ratio (y) = 2.04112 0.80306
# Poissons Ratio (z) = -0.54531 0.64139
#
# Static dielectric constant tensor:
#      x y z
#    x 1.693190 0.000000 0.000000 
#    y 0.000000 1.656480 0.000000 
#    z 0.000000 0.000000 1.652200 
# 
# From -- ./inp_files/21418.got.cif
#   From: 2010.05.17/outbox.ucp.g08.bks.cvg/sg38_11_cif.got.tgz:21418.got - 2010.06.11 10:39:43.
