data_PCOD9359775
_publ_section_title
;
Structure prediction by ZEFSAII (Michael W. Deem and Ramdas Pophale) SiO2 
 PCOD9359775
Probable space group: A B M 2
;
_chemical_formula_sum "Si O2"
_cell_formula_units_Z 56
_cell_length_a 8.947380
_cell_length_b 19.863256
_cell_length_c 18.895698
_cell_angle_alpha 90.000000
_cell_angle_beta 90.000000
_cell_angle_gamma 90.000000
_cell_volume 3358.220911
_symmetry_space_group_name_H-M "A B M 2"
_symmetry_group_IT_number 39
_symmetry_cell_setting 'orthorhombic'
loop_
_space_group_symop_operation_xyz
x,y,z
-x,-y,z
-x,1/2+y,z
x,1/2-y,z
x,1/2+y,1/2+z
-x,1/2-y,1/2+z
-x,y,1/2+z
x,-y,1/2+z
loop_
_atom_site_type_symbol
_atom_site_label
_atom_site_fract_x
_atom_site_fract_y
_atom_site_fract_z
Si Si1 0.923498 0.933015 0.894880
Si Si2 0.670992 0.328549 0.872472
Si Si3 0.413655 0.570003 0.353570
Si Si4 0.656715 0.529338 0.705793
Si Si5 0.076209 0.670401 0.988669
Si Si6 0.062162 0.575646 0.124522
Si Si7 0.132946 0.591331 0.761421
O O1 0.747307 0.939037 0.888067
O O2 0.956577 0.865647 0.938002
O O3 0.005485 0.926911 0.818815
O O4 0.000000 0.000000 0.927730
O O5 0.641498 0.250000 0.864089
O O6 0.520255 0.371058 0.879507
O O7 0.772045 0.338445 0.942703
O O8 0.765967 0.355033 0.804272
O O9 0.500000 0.500000 0.362126
O O10 0.386954 0.578747 0.269620
O O11 0.500000 0.500000 0.676939
O O12 0.769504 0.563719 0.652055
O O13 0.754254 0.469673 0.742548
O O14 0.052702 0.750000 0.999325
O O15 0.068887 0.627400 0.060164
O O16 0.000000 0.500000 0.107623
O O17 0.956712 0.603899 0.188379
#
# Coordination Sequence:
#
# PCOD9359775 Si02
#       7
#     8   8   8   8   8   8   8
#     4  11  18  33  59  87 106 137 186 232 275 327
#     4  10  21  36  54  80 114 150 182 225 278 332
#     4  11  18  31  58  87 111 139 174 230 280 329
#     4  10  17  31  57  85 113 136 171 227 284 319
#     4  10  23  40  54  73 115 155 187 228 275 323
#     4  10  20  35  57  85 109 146 187 231 274 327
#     4  10  17  32  57  83 110 137 178 231 276 319
#
# _framework density 16.675495999999999
#
# number of rings (size 3 to 8) (size 9 to 14) (size 15 to 20)
#    0.000    1.714    5.714    1.714    0.000    1.143 
#    0.000    5.714    0.000    0.000    0.000    0.000 
#    0.000    0.000    0.000    0.000    0.000    0.000 
#
# Total GULP energy -155988.548256 kJ/mol
# GULP energy per Si atom -5571.019581 kJ/mol
# Density = 1.663754 g / cm^3
# Si number density = 16.675496 Si / 1000 Ang^3
#
#
#
# Elastic Constant Matrix: (Units=GPa)
#
#
# Indices 1 2 3 4 5 6 
#
# 1 140.9113 54.1564 42.7360 0.0000 0.0000 0.0000
# 2 54.1564 104.1156 59.4627 0.0000 0.0000 0.0000
# 3 42.7360 59.4627 94.3519 0.0000 0.0000 0.0000
# 4 0.0000 0.0000 0.0000 20.5371 0.0000 0.0000
# 5 0.0000 0.0000 0.0000 0.0000 5.0788 0.0000
# 6 0.0000 0.0000 0.0000 0.0000 0.0000 24.3898
#
#
#
# Elastic Compliance Matrix: (Units=1/GPa)
#
#
# Indices 1 2 3 4 5 6 
#
# 1 0.009055 -0.003699 -0.001770 0.000000 0.000000 0.000000
# 2 -0.003699 0.016517 -0.008734 0.000000 0.000000 0.000000
# 3 -0.001770 -0.008734 0.016905 0.000000 0.000000 0.000000
# 4 0.000000 0.000000 0.000000 0.048692 0.000000 0.000000
# 5 0.000000 0.000000 0.000000 0.000000 0.196899 0.000000
# 6 0.000000 0.000000 0.000000 0.000000 0.000000 0.041001
#
#
# Mechanical properties :
#
#
# Convention : Reuss Voigt Hill
#
# Bulk Modulus (GPa) = 71.07091 72.45433 71.76262
# Shear Modulus (GPa) = 13.80585 22.20270 18.00428
#
# Velocity S-wave (km/s) = 2.88047 3.65287 3.28942
# Velocity P-wave (km/s) = 7.33316 7.83168 7.58652
#
# Compressibility (1/GPa) = 0.01407046
#
# Stress axis : x y z
#
# Youngs Moduli (GPa) = 110.43344 60.54392 59.15512
#
# Poissons Ratio (x) = 0.22396 0.10472
# Poissons Ratio (y) = 0.40851 0.51665
# Poissons Ratio (z) = 0.19549 0.52878
#
# Static dielectric constant tensor:
#      x y z
#    x 1.571300 0.000000 0.000000 
#    y 0.000000 1.556210 0.000000 
#    z 0.000000 0.000000 1.584780 
# 
# From -- ./inp_files/11864.got.cif
#   From: 2010.05.17/outbox.cif.g08.bks.cpg/sg39_6_cif.got.tgz:11864.got - 2010.06.03 18:22:40.
