data_PCOD9359742
_publ_section_title
;
Structure prediction by ZEFSAII (Michael W. Deem and Ramdas Pophale) SiO2 
 PCOD9359742
Probable space group: A B M 2
;
_chemical_formula_sum "Si O2"
_cell_formula_units_Z 64
_cell_length_a 21.979322
_cell_length_b 8.678611
_cell_length_c 18.149519
_cell_angle_alpha 90.000000
_cell_angle_beta 90.000000
_cell_angle_gamma 90.000000
_cell_volume 3462.020489
_symmetry_space_group_name_H-M "A B M 2"
_symmetry_group_IT_number 39
_symmetry_cell_setting 'orthorhombic'
loop_
_space_group_symop_operation_xyz
x,y,z
-x,-y,z
-x,1/2+y,z
x,1/2-y,z
x,1/2+y,1/2+z
-x,1/2-y,1/2+z
-x,y,1/2+z
x,-y,1/2+z
loop_
_atom_site_type_symbol
_atom_site_label
_atom_site_fract_x
_atom_site_fract_y
_atom_site_fract_z
Si Si1 0.062197 0.566029 0.216410
Si Si2 0.186810 0.065750 0.218043
Si Si3 0.438188 0.934601 0.966121
Si Si4 0.561090 0.933084 0.132879
Si Si5 0.696314 0.067262 0.961769
Si Si6 0.306457 0.434752 0.124557
Si Si7 0.062397 0.434047 0.384110
Si Si8 0.812488 0.932598 0.882457
O O1 0.939717 0.250000 0.218589
O O2 0.125614 0.506445 0.183387
O O3 0.063450 0.500263 0.300296
O O4 0.000000 0.500000 0.182365
O O5 0.179190 0.250000 0.222939
O O6 0.247656 0.031299 0.172993
O O7 0.193530 0.997637 0.299747
O O8 0.442284 0.750000 0.970242
O O9 0.371852 0.974267 0.933500
O O10 0.500000 0.000000 0.930666
O O11 0.437092 0.002239 0.049220
O O12 0.554418 0.750000 0.129925
O O13 0.628452 0.969859 0.162926
O O14 0.500000 0.000000 0.168849
O O15 0.704657 0.250000 0.951073
O O16 0.751352 0.977789 0.924491
O O17 0.696966 0.025960 0.048195
O O18 0.306724 0.250000 0.108758
O O19 0.060133 0.250000 0.381758
O O20 0.126437 0.491429 0.416619
O O21 0.000000 0.500000 0.418129
O O22 0.821073 0.750000 0.880294
#
# Coordination Sequence:
#
# PCOD9359742 Si02
#       8
#     8   8   8   8   8   8   8   8
#     4  10  17  27  44  68  95 123 158 198 240 282
#     4  10  19  33  51  72  99 129 162 200 244 289
#     4   9  16  26  43  67  93 121 155 196 239 282
#     4   9  15  25  42  66  93 121 155 194 236 279
#     4  10  20  33  50  73 100 130 163 200 243 290
#     4   9  19  33  50  72  99 130 161 197 242 291
#     4  10  17  28  46  69  96 124 158 199 242 284
#     4  11  21  33  50  73 100 130 165 202 243 289
#
# _framework density 18.486315000000001
#
# number of rings (size 3 to 8) (size 9 to 14) (size 15 to 20)
#    0.000    2.250    0.000    7.875    0.000    3.000 
#    0.000    0.000    0.000    1.500    0.000    3.500 
#    0.000    0.000    0.000    0.000    0.000    0.000 
#
# Total GULP energy -178324.481088 kJ/mol
# GULP energy per Si atom -5572.640034 kJ/mol
# Density = 1.844424 g / cm^3
# Si number density = 18.486315 Si / 1000 Ang^3
#
#
#
# Elastic Constant Matrix: (Units=GPa)
#
#
# Indices 1 2 3 4 5 6 
#
# 1 213.8362 81.8349 26.7626 0.0000 0.0000 0.0000
# 2 81.8349 118.0843 14.8971 0.0000 0.0000 0.0000
# 3 26.7626 14.8971 8.7017 0.0000 0.0000 0.0000
# 4 0.0000 0.0000 0.0000 13.5685 0.0000 0.0000
# 5 0.0000 0.0000 0.0000 0.0000 21.4239 0.0000
# 6 0.0000 0.0000 0.0000 0.0000 0.0000 33.8236
#
#
#
# Elastic Compliance Matrix: (Units=1/GPa)
#
#
# Indices 1 2 3 4 5 6 
#
# 1 0.008510 -0.003311 -0.020504 0.000000 0.000000 0.000000
# 2 -0.003311 0.012089 -0.010515 0.000000 0.000000 0.000000
# 3 -0.020504 -0.010515 0.195984 0.000000 0.000000 0.000000
# 4 0.000000 0.000000 0.000000 0.073700 0.000000 0.000000
# 5 0.000000 0.000000 0.000000 0.000000 0.046677 0.000000
# 6 0.000000 0.000000 0.000000 0.000000 0.000000 0.029565
#
#
# Mechanical properties :
#
#
# Convention : Reuss Voigt Hill
#
# Bulk Modulus (GPa) = 6.76025 65.29014 36.02519
# Shear Modulus (GPa) = 10.32009 28.23838 19.27923
#
# Velocity S-wave (km/s) = 2.36531 3.91260 3.23289
# Velocity P-wave (km/s) = 3.33533 7.47034 5.78491
#
# Compressibility (1/GPa) = 0.14792362
#
# Stress axis : x y z
#
# Youngs Moduli (GPa) = 117.51348 82.71747 5.10246
#
# Poissons Ratio (x) = 0.27385 0.10462
# Poissons Ratio (y) = 0.38904 0.05365
# Poissons Ratio (z) = 2.40954 0.86974
#
# Static dielectric constant tensor:
#      x y z
#    x 1.737750 0.000000 0.000000 
#    y 0.000000 1.618050 0.000000 
#    z 0.000000 0.000000 1.620180 
# 
# From -- ./inp_files/15048.got.cif
#   From: 2010.05.17/outbox.cif.g08.bks.cpg/sg39_8_cif.got.tgz:15048.got - 2010.06.03 18:22:40.
