data_PCOD9359869
_publ_section_title
;
Structure prediction by ZEFSAII (Michael W. Deem and Ramdas Pophale) SiO2 
 PCOD9359869
Probable space group: A B M 2
;
_chemical_formula_sum "Si O2"
_cell_formula_units_Z 60
_cell_length_a 15.862751
_cell_length_b 9.395387
_cell_length_c 21.757510
_cell_angle_alpha 90.000000
_cell_angle_beta 90.000000
_cell_angle_gamma 90.000000
_cell_volume 3242.667154
_symmetry_space_group_name_H-M "A B M 2"
_symmetry_group_IT_number 39
_symmetry_cell_setting 'orthorhombic'
loop_
_space_group_symop_operation_xyz
x,y,z
-x,-y,z
-x,1/2+y,z
x,1/2-y,z
x,1/2+y,1/2+z
-x,1/2-y,1/2+z
-x,y,1/2+z
x,-y,1/2+z
loop_
_atom_site_type_symbol
_atom_site_label
_atom_site_fract_x
_atom_site_fract_y
_atom_site_fract_z
Si Si1 0.916236 0.919255 0.619770
Si Si2 0.412049 0.919847 0.504161
Si Si3 0.733658 0.412381 0.816612
Si Si4 0.772622 0.915930 0.049210
Si Si5 0.164087 0.407303 0.910313
Si Si6 0.891184 0.405220 0.736321
Si Si7 0.000000 0.000000 0.347739
Si Si8 0.585332 0.917374 0.859031
O O1 0.921611 0.750000 0.611722
O O2 0.831296 0.984815 0.590696
O O3 0.912362 0.966035 0.691336
O O4 0.000000 0.000000 0.594676
O O5 0.424609 0.750000 0.511614
O O6 0.325971 0.958333 0.540506
O O7 0.393550 0.944364 0.431390
O O8 0.500000 0.000000 0.519124
O O9 0.706729 0.250000 0.826535
O O10 0.788337 0.469643 0.873766
O O11 0.794816 0.417536 0.758172
O O12 0.655825 0.517649 0.815402
O O13 0.774678 0.750000 0.069945
O O14 0.815599 0.919371 0.981760
O O15 0.195356 0.250000 0.890153
O O16 0.066675 0.419651 0.890675
O O17 0.905064 0.250000 0.706295
O O18 0.944874 0.409953 0.799125
O O19 0.575843 0.750000 0.851390
O O20 0.500000 0.000000 0.846955
#
# Coordination Sequence:
#
# PCOD9359869 Si02
#       8
#     8   8   8   8   8   8   4   8
#     4  12  26  42  61  83 110 149 195 240 286 338
#     4   9  18  33  55  82 113 149 187 229 277 336
#     4  10  20  33  53  83 114 145 183 230 279 331
#     4  10  21  39  58  82 118 154 189 234 285 336
#     4  10  20  35  54  79 113 149 184 225 278 336
#     4  10  21  38  58  81 110 145 191 238 280 326
#     4  10  20  32  58  86 108 146 190 234 274 330
#     4  10  18  31  51  80 116 153 188 223 275 336
#
# _framework density 18.503288000000001
#
# number of rings (size 3 to 8) (size 9 to 14) (size 15 to 20)
#    0.000    1.867    2.000    2.400    0.933    4.800 
#    0.000    0.000    0.000    0.800    0.000    3.733 
#    0.000    0.000    0.000    0.000    0.000    0.000 
#
# Total GULP energy -167266.210011 kJ/mol
# GULP energy per Si atom -5575.540334 kJ/mol
# Density = 1.846117 g / cm^3
# Si number density = 18.503288 Si / 1000 Ang^3
#
#
#
# Elastic Constant Matrix: (Units=GPa)
#
#
# Indices 1 2 3 4 5 6 
#
# 1 139.9903 59.2992 29.7692 0.0000 0.0000 0.0000
# 2 59.2992 112.5293 21.6816 0.0000 0.0000 0.0000
# 3 29.7692 21.6816 29.7947 0.0000 0.0000 0.0000
# 4 0.0000 0.0000 0.0000 27.7107 0.0000 0.0000
# 5 0.0000 0.0000 0.0000 0.0000 22.6791 0.0000
# 6 0.0000 0.0000 0.0000 0.0000 0.0000 31.6104
#
#
#
# Elastic Compliance Matrix: (Units=1/GPa)
#
#
# Indices 1 2 3 4 5 6 
#
# 1 0.010460 -0.004069 -0.007490 0.000000 0.000000 0.000000
# 2 -0.004069 0.011918 -0.004608 0.000000 0.000000 0.000000
# 3 -0.007490 -0.004608 0.044400 0.000000 0.000000 0.000000
# 4 0.000000 0.000000 0.000000 0.036087 0.000000 0.000000
# 5 0.000000 0.000000 0.000000 0.000000 0.044093 0.000000
# 6 0.000000 0.000000 0.000000 0.000000 0.000000 0.031635
#
#
# Mechanical properties :
#
#
# Convention : Reuss Voigt Hill
#
# Bulk Modulus (GPa) = 29.03188 55.97935 42.50561
# Shear Modulus (GPa) = 22.48125 27.83768 25.15946
#
# Velocity S-wave (km/s) = 3.48945 3.88296 3.69145
# Velocity P-wave (km/s) = 5.65324 7.10089 6.41801
#
# Compressibility (1/GPa) = 0.03444489
#
# Stress axis : x y z
#
# Youngs Moduli (GPa) = 95.60629 83.90328 22.52275
#
# Poissons Ratio (x) = 0.34138 0.16869
# Poissons Ratio (y) = 0.38900 0.10378
# Poissons Ratio (z) = 0.71607 0.38661
#
# Static dielectric constant tensor:
#      x y z
#    x 1.692950 0.000000 0.000000 
#    y 0.000000 1.276220 0.000000 
#    z 0.000000 0.000000 1.627200 
# 
# From -- ./inp_files/16073.got.cif
#   From: 2010.05.17/outbox.cif.g08.bks.cpg/sg39_9_cif.got.tgz:16073.got - 2010.06.03 18:22:40.
