data_PCOD9359605
_publ_section_title
;
Structure prediction by ZEFSAII (Michael W. Deem and Ramdas Pophale) SiO2 
 PCOD9359605
Probable space group: A M M 2
;
_chemical_formula_sum "Si O2"
_cell_formula_units_Z 24
_cell_length_a 9.000000
_cell_length_b 30.000000
_cell_length_c 9.000000
_cell_angle_alpha 90.000000
_cell_angle_beta 90.000000
_cell_angle_gamma 90.000000
_cell_volume 2430.000000
_symmetry_space_group_name_H-M "A M M 2"
_symmetry_group_IT_number 38
_symmetry_cell_setting 'orthorhombic'
loop_
_space_group_symop_operation_xyz
x,y,z
-x,-y,z
-x,y,z
x,-y,z
x,1/2+y,1/2+z
-x,1/2-y,1/2+z
-x,1/2+y,1/2+z
x,1/2-y,1/2+z
loop_
_atom_site_type_symbol
_atom_site_label
_atom_site_fract_x
_atom_site_fract_y
_atom_site_fract_z
Si Si1 0.321190 0.360321 0.700240
Si Si2 0.670263 0.793568 0.451250
Si Si3 0.678267 0.550180 0.154214
Si Si4 0.173656 0.199794 0.967915
Si Si5 0.329285 0.351414 0.237781
Si Si6 0.821706 0.050656 0.327823
O O1 0.500000 0.363213 0.706192
O O2 0.271169 0.319862 0.808544
O O3 0.261199 0.340482 0.548019
O O4 0.252834 0.408139 0.741544
O O5 0.500000 0.778412 0.423819
O O6 0.759912 0.749118 0.492509
O O7 0.663284 0.833590 0.569473
O O8 0.500000 0.552112 0.128256
O O9 0.709772 0.500000 0.217140
O O10 0.713002 0.596072 0.242272
O O11 0.762216 0.552929 0.996982
O O12 0.211923 0.183817 0.802418
O O13 0.000000 0.199177 0.001843
O O14 0.500000 0.346451 0.296004
O O15 0.000000 0.055442 0.325191
O O16 0.785463 0.000000 0.273741
#
# Coordination Sequence:
#
# PCOD9359605 Si02
#       6
#     8   8   8   8   8   8
#     4  11  22  40  63  86 113 153 199 242 284 335
#     4  10  21  39  62  86 110 147 197 243 285 336
#     4   9  17  33  59  88 114 144 189 237 279 334
#     4  12  26  39  54  83 119 156 191 236 296 349
#     4  10  20  38  60  85 114 150 191 234 283 339
#     4  10  20  34  56  88 122 151 183 232 291 345
#
# _framework density 9.8765429999999999
#
# number of rings (size 3 to 8) (size 9 to 14) (size 15 to 20)
#    0.000    1.667    1.667    3.500    0.000    7.667 
#    0.000    0.833    0.000    3.000    0.000    0.000 
#    0.000    0.000    0.000    0.000    0.000    0.000 
#
# Total GULP energy -133726.878929 kJ/mol
# GULP energy per Si atom -5571.953289 kJ/mol
# Density = 0.985406 g / cm^3
# Si number density = 9.876543 Si / 1000 Ang^3
#
#
#
# Elastic Constant Matrix: (Units=GPa)
#
#
# Indices 1 2 3 4 5 6 
#
# 1 58.9384 47.7019 -3.2939 0.0000 0.0000 0.0000
# 2 47.7019 158.5252 -6.2300 0.0000 0.0000 0.0000
# 3 -3.2939 -6.2300 6.6179 0.0000 0.0000 0.0000
# 4 0.0000 0.0000 0.0000 -3.4775 0.0000 0.0000
# 5 0.0000 0.0000 0.0000 0.0000 12.5753 0.0000
# 6 0.0000 0.0000 0.0000 0.0000 0.0000 35.5388
#
#
#
# Elastic Compliance Matrix: (Units=1/GPa)
#
#
# Indices 1 2 3 4 5 6 
#
# 1 0.022589 -0.006600 0.005031 0.000000 0.000000 0.000000
# 2 -0.006600 0.008479 0.004697 0.000000 0.000000 0.000000
# 3 0.005031 0.004697 0.158031 0.000000 0.000000 0.000000
# 4 0.000000 0.000000 0.000000 -0.287559 0.000000 0.000000
# 5 0.000000 0.000000 0.000000 0.000000 0.079521 0.000000
# 6 0.000000 0.000000 0.000000 0.000000 0.000000 0.028138
#
#
# Mechanical properties :
#
#
# Convention : Reuss Voigt Hill
#
# Bulk Modulus (GPa) = 5.11891 33.38195 19.25043
# Shear Modulus (GPa) = 73.46328 21.32087 47.39208
#
# Velocity S-wave (km/s) = 6.10504 3.28894 4.90350
# Velocity P-wave (km/s) = 7.23135 5.59992 6.46729
#
# Compressibility (1/GPa) = 0.19535397
#
# Stress axis : x y z
#
# Youngs Moduli (GPa) = 44.26837 117.94335 6.32789
#
# Poissons Ratio (x) = 0.77839 -0.03183
# Poissons Ratio (y) = 0.29216 -0.02972
# Poissons Ratio (z) = -0.22269 -0.55395
#
# Static dielectric constant tensor:
#      x y z
#    x 1.684870 0.000000 0.000000 
#    y 0.000000 1.666120 0.000000 
#    z 0.000000 0.000000 1.736490 
# 
# From -- ./inp_files/3729.got.cif
#   From: 2010.05.17/outbox.ucp.g08.bks.cvg/sg38_2_cif.got.tgz:3729.got - 2010.06.11 10:39:43.
