data_PCOD9359744
_publ_section_title
;
Structure prediction by ZEFSAII (Michael W. Deem and Ramdas Pophale) SiO2 
 PCOD9359744
Probable space group: A B M 2
;
_chemical_formula_sum "Si O2"
_cell_formula_units_Z 48
_cell_length_a 9.478675
_cell_length_b 8.616373
_cell_length_c 32.383305
_cell_angle_alpha 90.000000
_cell_angle_beta 90.000000
_cell_angle_gamma 90.000000
_cell_volume 2644.802788
_symmetry_space_group_name_H-M "A B M 2"
_symmetry_group_IT_number 39
_symmetry_cell_setting 'orthorhombic'
loop_
_space_group_symop_operation_xyz
x,y,z
-x,-y,z
-x,1/2+y,z
x,1/2-y,z
x,1/2+y,1/2+z
-x,1/2-y,1/2+z
-x,y,1/2+z
x,-y,1/2+z
loop_
_atom_site_type_symbol
_atom_site_label
_atom_site_fract_x
_atom_site_fract_y
_atom_site_fract_z
Si Si1 0.842310 0.563896 0.586070
Si Si2 0.339111 0.564507 0.336853
Si Si3 0.341560 0.435834 0.666205
Si Si4 0.159217 0.064405 0.998399
Si Si5 0.339178 0.935167 0.751879
Si Si6 0.340597 0.435595 0.423008
O O1 0.847510 0.750000 0.581353
O O2 0.748156 0.525635 0.625714
O O3 0.787409 0.490384 0.543396
O O4 0.000000 0.500000 0.592258
O O5 0.500000 0.500000 0.336862
O O6 0.658013 0.250000 0.336930
O O7 0.273979 0.502591 0.294060
O O8 0.278428 0.500651 0.379784
O O9 0.500000 0.500000 0.661202
O O10 0.347742 0.250000 0.670911
O O11 0.278046 0.507529 0.708319
O O12 0.158106 0.250000 0.996312
O O13 0.251619 0.994457 0.961716
O O14 0.000000 0.000000 0.994919
O O15 0.342673 0.750000 0.753800
O O16 0.500000 0.000000 0.750872
O O17 0.500000 0.500000 0.426807
O O18 0.344713 0.250000 0.421340
#
# Coordination Sequence:
#
# PCOD9359744 Si02
#       6
#     8   8   8   8   8   8
#     4  10  21  37  56  77 102 135 175 215 258 311
#     4  10  17  28  46  71 103 137 172 210 255 305
#     4  10  20  33  51  77 106 135 170 213 259 305
#     4  11  22  38  58  79 104 138 177 216 261 314
#     4  10  17  27  45  70 101 136 171 208 253 303
#     4  11  21  35  54  80 110 139 175 218 264 310
#
# _framework density 18.148802
#
# number of rings (size 3 to 8) (size 9 to 14) (size 15 to 20)
#    0.000    1.667    0.000   11.000    0.000    3.333 
#    0.000    1.667    0.000    1.000    0.000    4.667 
#    0.000    0.000    0.000    0.000    0.000    0.000 
#
# Total GULP energy -133963.954413 kJ/mol
# GULP energy per Si atom -5581.831434 kJ/mol
# Density = 1.810749 g / cm^3
# Si number density = 18.148802 Si / 1000 Ang^3
#
#
#
# Elastic Constant Matrix: (Units=GPa)
#
#
# Indices 1 2 3 4 5 6 
#
# 1 28.8195 29.1889 57.3151 0.0000 0.0000 0.0000
# 2 29.1889 175.6673 100.0941 0.0000 0.0000 0.0000
# 3 57.3151 100.0941 221.7309 0.0000 0.0000 0.0000
# 4 0.0000 0.0000 0.0000 49.6611 0.0000 0.0000
# 5 0.0000 0.0000 0.0000 0.0000 -25.9072 0.0000
# 6 0.0000 0.0000 0.0000 0.0000 0.0000 21.8802
#
#
#
# Elastic Compliance Matrix: (Units=1/GPa)
#
#
# Indices 1 2 3 4 5 6 
#
# 1 0.071840 -0.001825 -0.017746 0.000000 0.000000 0.000000
# 2 -0.001825 0.007710 -0.003009 0.000000 0.000000 0.000000
# 3 -0.017746 -0.003009 0.010455 0.000000 0.000000 0.000000
# 4 0.000000 0.000000 0.000000 0.020136 0.000000 0.000000
# 5 0.000000 0.000000 0.000000 0.000000 -0.038599 0.000000
# 6 0.000000 0.000000 0.000000 0.000000 0.000000 0.045703
#
#
# Mechanical properties :
#
#
# Convention : Reuss Voigt Hill
#
# Bulk Modulus (GPa) = 22.29888 88.82378 55.56133
# Shear Modulus (GPa) = 28.19219 25.10145 26.64682
#
# Velocity S-wave (km/s) = 3.94558 3.72303 3.83592
# Velocity P-wave (km/s) = 5.75067 8.21763 7.09224
#
# Compressibility (1/GPa) = 0.04484531
#
# Stress axis : x y z
#
# Youngs Moduli (GPa) = 13.91989 129.69765 95.64582
#
# Poissons Ratio (x) = 0.23676 1.69730
# Poissons Ratio (y) = 0.02541 0.28777
# Poissons Ratio (z) = 0.24702 0.39022
#
# Static dielectric constant tensor:
#      x y z
#    x 1.600300 0.000000 0.000000 
#    y 0.000000 1.603520 0.000000 
#    z 0.000000 0.000000 1.680250 
# 
# From -- ./inp_files/16912.got.cif
#   From: 2010.05.17/outbox.cif.g08.bks.cpg/sg39_9_cif.got.tgz:16912.got - 2010.06.03 18:22:40.
