data_PCOD9359160
_publ_section_title
;
Structure prediction by ZEFSAII (Michael W. Deem and Ramdas Pophale) SiO2 
 PCOD9359160
Probable space group: A M M 2
;
_chemical_formula_sum "Si O2"
_cell_formula_units_Z 48
_cell_length_a 11.006060
_cell_length_b 14.133468
_cell_length_c 14.780663
_cell_angle_alpha 90.000000
_cell_angle_beta 90.000000
_cell_angle_gamma 90.000000
_cell_volume 2299.188249
_symmetry_space_group_name_H-M "A M M 2"
_symmetry_group_IT_number 38
_symmetry_cell_setting 'orthorhombic'
loop_
_space_group_symop_operation_xyz
x,y,z
-x,-y,z
-x,y,z
x,-y,z
x,1/2+y,1/2+z
-x,1/2-y,1/2+z
-x,1/2+y,1/2+z
x,1/2-y,1/2+z
loop_
_atom_site_type_symbol
_atom_site_label
_atom_site_fract_x
_atom_site_fract_y
_atom_site_fract_z
Si Si1 0.856795 0.000000 0.925110
Si Si2 0.368898 0.209906 0.504345
Si Si3 0.301930 0.000000 0.544501
Si Si4 0.631102 0.709906 0.300402
Si Si5 0.143204 0.000000 0.379637
Si Si6 0.698069 0.000000 0.760246
Si Si7 0.859240 0.673070 0.754552
Si Si8 0.140761 0.326930 0.550196
O O1 0.818379 0.000000 0.821642
O O2 0.817635 0.906439 0.979120
O O3 0.000000 0.000000 0.933122
O O4 0.500000 0.242657 0.543138
O O5 0.366501 0.096783 0.514312
O O6 0.366652 0.250001 0.402374
O O7 0.242880 0.246432 0.546786
O O8 0.181619 0.000000 0.483105
O O9 0.286226 0.000000 0.652373
O O10 0.500000 0.742658 0.261610
O O11 0.633498 0.596784 0.290435
O O12 0.757120 0.746432 0.257961
O O13 0.182364 0.906439 0.325628
O O14 0.000000 0.000000 0.371623
O O15 0.861130 0.633760 0.652374
O O16 0.000000 0.702804 0.774812
O O17 0.000000 0.297197 0.529935
#
# Coordination Sequence:
#
# PCOD9359160 Si02
#       8
#     4   8   4   8   4   4   8   8
#     4  10  21  40  65  95 135 173 212 271 329 383
#     4  11  24  43  68  95 129 174 222 270 327 392
#     4  12  25  42  65  96 133 177 219 264 330 393
#     4  11  24  43  68  95 129 174 222 270 327 392
#     4  10  21  40  65  95 135 173 212 271 329 383
#     4  12  25  42  65  96 133 177 219 264 330 393
#     4  10  21  40  68  98 128 168 217 269 331 395
#     4  10  21  40  68  98 128 168 217 269 331 395
#
# _framework density 20.876932
#
# number of rings (size 3 to 8) (size 9 to 14) (size 15 to 20)
#    0.000    1.333    3.333    2.000    0.000    7.667 
#    0.000    0.833    0.000    2.000    0.000    0.000 
#    0.000    0.000    0.000    0.000    0.000    0.000 
#
# Total GULP energy -133813.337388 kJ/mol
# GULP energy per Si atom -5575.555725 kJ/mol
# Density = 2.082941 g / cm^3
# Si number density = 20.876932 Si / 1000 Ang^3
#
#
#
# Elastic Constant Matrix: (Units=GPa)
#
#
# Indices 1 2 3 4 5 6 
#
# 1 110.1762 62.4848 16.4436 0.0000 0.0000 0.0000
# 2 62.4848 122.8200 49.0044 0.0000 0.0000 0.0000
# 3 16.4436 49.0044 132.4514 0.0000 0.0000 0.0000
# 4 0.0000 0.0000 0.0000 13.9916 0.0000 0.0000
# 5 0.0000 0.0000 0.0000 0.0000 -25.3862 0.0000
# 6 0.0000 0.0000 0.0000 0.0000 0.0000 -363.5166
#
#
#
# Elastic Compliance Matrix: (Units=1/GPa)
#
#
# Indices 1 2 3 4 5 6 
#
# 1 0.012862 -0.006929 0.000967 0.000000 0.000000 0.000000
# 2 -0.006929 0.013285 -0.004055 0.000000 0.000000 0.000000
# 3 0.000967 -0.004055 0.008930 0.000000 0.000000 0.000000
# 4 0.000000 0.000000 0.000000 0.071472 0.000000 0.000000
# 5 0.000000 0.000000 0.000000 0.000000 -0.039391 0.000000
# 6 0.000000 0.000000 0.000000 0.000000 0.000000 -0.002751
#
#
# Mechanical properties :
#
#
# Convention : Reuss Voigt Hill
#
# Bulk Modulus (GPa) = 66.47826 69.03480 67.75653
# Shear Modulus (GPa) = 55.89370 -59.14793 -1.62711
#
# Velocity S-wave (km/s) = 5.17987 -5.32853 -0.88378
# Velocity P-wave (km/s) = 8.22720 2.17217 5.61108
#
# Compressibility (1/GPa) = 0.01504251
#
# Stress axis : x y z
#
# Youngs Moduli (GPa) = 77.74903 75.27179 111.98005
#
# Poissons Ratio (x) = 0.52158 -0.10827
# Poissons Ratio (y) = 0.53875 0.45408
# Poissons Ratio (z) = -0.07518 0.30523
#
# Static dielectric constant tensor:
#      x y z
#    x 1.764480 0.000000 0.000000 
#    y 0.000000 1.776380 0.000000 
#    z 0.000000 0.000000 1.745470 
# 
# From -- ./inp_files/13756.got.cif
#   From: 2010.05.17/outbox.cif.g08.bks.cpg/sg38_7_cif.got.tgz:13756.got - 2010.06.03 18:07:57.
