data_PCOD9359250
_publ_section_title
;
Structure prediction by ZEFSAII (Michael W. Deem and Ramdas Pophale) SiO2 
 PCOD9359250
Probable space group: A M M 2
;
_chemical_formula_sum "Si O2"
_cell_formula_units_Z 54
_cell_length_a 15.746242
_cell_length_b 31.901934
_cell_length_c 5.007758
_cell_angle_alpha 90.000000
_cell_angle_beta 90.000000
_cell_angle_gamma 90.000000
_cell_volume 2515.574985
_symmetry_space_group_name_H-M "A M M 2"
_symmetry_group_IT_number 38
_symmetry_cell_setting 'orthorhombic'
loop_
_space_group_symop_operation_xyz
x,y,z
-x,-y,z
-x,y,z
x,-y,z
x,1/2+y,1/2+z
-x,1/2-y,1/2+z
-x,1/2+y,1/2+z
x,1/2-y,1/2+z
loop_
_atom_site_type_symbol
_atom_site_label
_atom_site_fract_x
_atom_site_fract_y
_atom_site_fract_z
Si Si1 0.143499 0.067490 0.545940
Si Si2 0.333230 0.127949 0.249722
Si Si3 0.148504 0.659607 0.903857
Si Si4 0.000000 0.281284 0.704241
Si Si5 0.403283 0.327947 0.246360
Si Si6 0.761463 0.223283 0.763994
Si Si7 0.000000 0.500000 0.169693
Si Si8 0.745763 0.548398 0.542403
O O1 0.112828 0.114809 0.498513
O O2 0.178835 0.050860 0.262668
O O3 0.219334 0.066416 0.762776
O O4 0.073374 0.036421 0.655604
O O5 0.236599 0.146635 0.253888
O O6 0.373391 0.136760 0.536363
O O7 0.324070 0.080027 0.159865
O O8 0.388254 0.153515 0.038792
O O9 0.080176 0.687910 0.751731
O O10 0.179472 0.686104 0.160043
O O11 0.000000 0.255817 0.427317
O O12 0.500000 0.315650 0.201353
O O13 0.335398 0.290813 0.218723
O O14 0.776510 0.261491 0.561329
O O15 0.720577 0.500000 0.510326
#
# Coordination Sequence:
#
# PCOD9359250 Si02
#       8
#     8   8   8   4   8   8   2   8
#     4  11  24  36  63  85 127 163 209 256 323 379
#     4  10  22  39  67  89 125 170 210 255 315 388
#     4  10  23  44  61  93 123 173 218 263 316 384
#     4  12  27  42  64  89 124 167 222 282 319 362
#     4  11  23  41  64  96 128 162 207 258 324 389
#     4  11  22  37  62  88 122 161 207 260 311 373
#     4  12  22  42  56  94 128 162 198 270 330 362
#     4  11  20  39  59  92 118 161 212 256 301 380
#
# _framework density 21.466263999999999
#
# number of rings (size 3 to 8) (size 9 to 14) (size 15 to 20)
#    0.000    1.185    1.481    6.222    0.000    7.704 
#    0.000    0.741    0.000    2.667    0.000    0.000 
#    0.000    0.000    0.000    0.000    0.000    0.000 
#
# Total GULP energy -150784.785432 kJ/mol
# GULP energy per Si atom -5584.621683 kJ/mol
# Density = 2.141741 g / cm^3
# Si number density = 21.466264 Si / 1000 Ang^3
#
#
#
# Elastic Constant Matrix: (Units=GPa)
#
#
# Indices 1 2 3 4 5 6 
#
# 1 85.5094 22.8541 7.3832 0.0000 0.0000 0.0000
# 2 22.8541 134.8520 3.6049 0.0000 0.0000 0.0000
# 3 7.3832 3.6049 67.3051 0.0000 0.0000 0.0000
# 4 0.0000 0.0000 0.0000 9.8075 0.0000 0.0000
# 5 0.0000 0.0000 0.0000 0.0000 -21.6886 0.0000
# 6 0.0000 0.0000 0.0000 0.0000 0.0000 21.4434
#
#
#
# Elastic Compliance Matrix: (Units=1/GPa)
#
#
# Indices 1 2 3 4 5 6 
#
# 1 0.012353 -0.002060 -0.001245 0.000000 0.000000 0.000000
# 2 -0.002060 0.007770 -0.000190 0.000000 0.000000 0.000000
# 3 -0.001245 -0.000190 0.015004 0.000000 0.000000 0.000000
# 4 0.000000 0.000000 0.000000 0.101963 0.000000 0.000000
# 5 0.000000 0.000000 0.000000 0.000000 -0.046107 0.000000
# 6 0.000000 0.000000 0.000000 0.000000 0.000000 0.046634
#
#
# Mechanical properties :
#
#
# Convention : Reuss Voigt Hill
#
# Bulk Modulus (GPa) = 35.54069 39.48345 37.51207
# Shear Modulus (GPa) = 32.47046 18.83407 25.65227
#
# Velocity S-wave (km/s) = 3.89347 2.96527 3.46063
# Velocity P-wave (km/s) = 6.06668 5.49154 5.78626
#
# Compressibility (1/GPa) = 0.02813677
#
# Stress axis : x y z
#
# Youngs Moduli (GPa) = 80.95377 128.70389 66.64693
#
# Poissons Ratio (x) = 0.26516 0.08296
# Poissons Ratio (y) = 0.16678 0.01267
# Poissons Ratio (z) = 0.10077 0.02447
#
# Static dielectric constant tensor:
#      x y z
#    x 1.790620 0.000000 0.000000 
#    y 0.000000 1.778650 0.000000 
#    z 0.000000 0.000000 1.773790 
# 
# From -- ./inp_files/1425.got.cif
#   From: 2010.05.17/outbox.cif.g08.bks.cpg/sg38_1_cif.got.tgz:1425.got - 2010.06.03 18:07:57.
