data_PCOD9359453
_publ_section_title
;
Structure prediction by ZEFSAII (Michael W. Deem and Ramdas Pophale) SiO2 
 PCOD9359453
Probable space group: A M M 2
;
_chemical_formula_sum "Si O2"
_cell_formula_units_Z 48
_cell_length_a 8.473775
_cell_length_b 31.246015
_cell_length_c 9.217966
_cell_angle_alpha 90.000000
_cell_angle_beta 90.000000
_cell_angle_gamma 90.000000
_cell_volume 2440.656535
_symmetry_space_group_name_H-M "A M M 2"
_symmetry_group_IT_number 38
_symmetry_cell_setting 'orthorhombic'
loop_
_space_group_symop_operation_xyz
x,y,z
-x,-y,z
-x,y,z
x,-y,z
x,1/2+y,1/2+z
-x,1/2-y,1/2+z
-x,1/2+y,1/2+z
x,1/2-y,1/2+z
loop_
_atom_site_type_symbol
_atom_site_label
_atom_site_fract_x
_atom_site_fract_y
_atom_site_fract_z
Si Si1 0.813669 0.370579 0.281700
Si Si2 0.314693 0.293599 0.088416
Si Si3 0.308143 0.548020 0.776760
Si Si4 0.689628 0.450380 0.113521
Si Si5 0.689171 0.868023 0.106191
Si Si6 0.184882 0.215247 0.267631
O O1 0.745180 0.335617 0.171059
O O2 0.775011 0.417029 0.216342
O O3 0.733573 0.365471 0.437992
O O4 0.000000 0.364295 0.296575
O O5 0.500000 0.297573 0.058407
O O6 0.281090 0.253145 0.191104
O O7 0.225653 0.287174 0.937009
O O8 0.500000 0.547056 0.772905
O O9 0.253649 0.500000 0.737291
O O10 0.257374 0.586512 0.673614
O O11 0.265535 0.556587 0.944672
O O12 0.500000 0.444137 0.124952
O O13 0.722521 0.500000 0.148305
O O14 0.500000 0.864822 0.122905
O O15 0.768267 0.829338 0.192949
O O16 0.000000 0.223786 0.247311
#
# Coordination Sequence:
#
# PCOD9359453 Si02
#       6
#     8   8   8   8   8   8
#     4  12  25  40  58  86 124 162 201 252 310 358
#     4  12  25  44  67  91 119 157 204 247 293 357
#     4   8  16  33  59  88 115 147 194 249 297 345
#     4   9  18  36  62  89 117 154 202 253 304 363
#     4  11  22  38  61  89 121 161 206 248 295 358
#     4  12  25  43  65  93 126 157 193 245 307 359
#
# _framework density 19.666839
#
# number of rings (size 3 to 8) (size 9 to 14) (size 15 to 20)
#    0.000    1.333    0.000    8.000    0.000    2.333 
#    0.000    2.500    0.000    3.500    0.000    0.000 
#    0.000    0.000    0.000    0.000    0.000    0.000 
#
# Total GULP energy -134247.311381 kJ/mol
# GULP energy per Si atom -5593.637974 kJ/mol
# Density = 1.962208 g / cm^3
# Si number density = 19.666839 Si / 1000 Ang^3
#
#
#
# Elastic Constant Matrix: (Units=GPa)
#
#
# Indices 1 2 3 4 5 6 
#
# 1 34.1861 -8.6551 -21.0991 0.0000 0.0000 0.0000
# 2 -8.6551 66.2108 26.0992 0.0000 0.0000 0.0000
# 3 -21.0991 26.0992 81.6000 0.0000 0.0000 0.0000
# 4 0.0000 0.0000 0.0000 34.8733 0.0000 0.0000
# 5 0.0000 0.0000 0.0000 0.0000 13.5793 0.0000
# 6 0.0000 0.0000 0.0000 0.0000 0.0000 -79.2016
#
#
#
# Elastic Compliance Matrix: (Units=1/GPa)
#
#
# Indices 1 2 3 4 5 6 
#
# 1 0.034882 0.001149 0.008652 0.000000 0.000000 0.000000
# 2 0.001149 0.017320 -0.005242 0.000000 0.000000 0.000000
# 3 0.008652 -0.005242 0.016169 0.000000 0.000000 0.000000
# 4 0.000000 0.000000 0.000000 0.028675 0.000000 0.000000
# 5 0.000000 0.000000 0.000000 0.000000 0.073642 0.000000
# 6 0.000000 0.000000 0.000000 0.000000 0.000000 -0.012626
#
#
# Mechanical properties :
#
#
# Convention : Reuss Voigt Hill
#
# Bulk Modulus (GPa) = 12.90507 19.40964 16.15735
# Shear Modulus (GPa) = 28.60837 6.22699 17.41768
#
# Velocity S-wave (km/s) = 3.81813 1.78132 2.97919
# Velocity P-wave (km/s) = 5.10035 3.75785 4.47968
#
# Compressibility (1/GPa) = 0.07748891
#
# Stress axis : x y z
#
# Youngs Moduli (GPa) = 28.66769 57.73664 61.84767
#
# Poissons Ratio (x) = -0.06637 -0.53510
# Poissons Ratio (y) = -0.03295 0.32423
# Poissons Ratio (z) = -0.24803 0.30268
#
# Static dielectric constant tensor:
#      x y z
#    x 1.677050 0.000000 0.000000 
#    y 0.000000 1.675230 0.000000 
#    z 0.000000 0.000000 1.650440 
# 
# From -- ./inp_files/3754.got.cif
#   From: 2010.05.17/outbox.cif.g08.bks.cpg/sg38_2_cif.got.tgz:3754.got - 2010.06.03 18:07:57.
