data_PCOD9359591
_publ_section_title
;
Structure prediction by ZEFSAII (Michael W. Deem and Ramdas Pophale) SiO2 
 PCOD9359591
Probable space group: A M M 2
;
_chemical_formula_sum "Si O2"
_cell_formula_units_Z 32
_cell_length_a 9.000000
_cell_length_b 21.000000
_cell_length_c 18.000000
_cell_angle_alpha 90.000000
_cell_angle_beta 90.000000
_cell_angle_gamma 90.000000
_cell_volume 3402.000000
_symmetry_space_group_name_H-M "A M M 2"
_symmetry_group_IT_number 38
_symmetry_cell_setting 'orthorhombic'
loop_
_space_group_symop_operation_xyz
x,y,z
-x,-y,z
-x,y,z
x,-y,z
x,1/2+y,1/2+z
-x,1/2-y,1/2+z
-x,1/2+y,1/2+z
x,1/2-y,1/2+z
loop_
_atom_site_type_symbol
_atom_site_label
_atom_site_fract_x
_atom_site_fract_y
_atom_site_fract_z
Si Si1 0.676057 0.830691 0.232720
Si Si2 0.670448 0.303674 0.215865
Si Si3 0.669947 0.572123 0.979817
Si Si4 0.175127 0.571245 0.455680
Si Si5 0.166859 0.925973 0.132874
Si Si6 0.675262 0.932088 0.657874
Si Si7 0.667839 0.806145 0.894348
Si Si8 0.173841 0.321990 0.891315
O O1 0.500000 0.824047 0.243897
O O2 0.734936 0.764858 0.196331
O O3 0.714554 0.887418 0.178745
O O4 0.750703 0.838047 0.312551
O O5 0.500000 0.304449 0.186890
O O6 0.745576 0.368035 0.188921
O O7 0.665956 0.304544 0.304893
O O8 0.500000 0.589213 0.958877
O O9 0.698445 0.500000 0.953732
O O10 0.781838 0.622350 0.946854
O O11 0.677369 0.571168 0.068930
O O12 0.225620 0.500000 0.434912
O O13 0.188986 0.577951 0.544624
O O14 0.264123 0.627421 0.418395
O O15 0.000000 0.576199 0.438172
O O16 0.000000 0.902155 0.150005
O O17 0.172497 0.000000 0.152876
O O18 0.500000 0.933090 0.680348
O O19 0.740614 0.000000 0.681721
O O20 0.500000 0.799637 0.921729
O O21 0.761784 0.745280 0.919010
O O22 0.000000 0.316549 0.881083
#
# Coordination Sequence:
#
# PCOD9359591 Si02
#       8
#     8   8   8   8   8   8   8   8
#     4  10  20  34  52  76 105 134 168 214 261 305
#     4   8  16  30  47  72 104 132 162 204 252 300
#     4   9  18  33  53  77 104 133 167 210 258 307
#     4   9  19  36  55  76 107 144 178 214 259 314
#     4   9  19  36  55  75 102 136 173 213 258 312
#     4   8  14  27  49  75 102 131 161 197 246 300
#     4  10  20  34  53  78 107 137 174 221 265 307
#     4  11  22  36  54  74 101 139 177 214 261 316
#
# _framework density 9.4062319999999993
#
# number of rings (size 3 to 8) (size 9 to 14) (size 15 to 20)
#    0.000    2.750    0.000    4.125    0.000    3.250 
#    0.000    3.750    0.000    3.750    0.000    0.000 
#    0.000    0.000    0.000    0.000    0.000    0.000 
#
# Total GULP energy -178230.427715 kJ/mol
# GULP energy per Si atom -5569.700866 kJ/mol
# Density = 0.938482 g / cm^3
# Si number density = 9.406232 Si / 1000 Ang^3
#
#
#
# Elastic Constant Matrix: (Units=GPa)
#
#
# Indices 1 2 3 4 5 6 
#
# 1 65.0544 44.6135 15.0317 0.0000 0.0000 0.0000
# 2 44.6135 76.7730 24.2357 0.0000 0.0000 0.0000
# 3 15.0317 24.2357 -2.2473 0.0000 0.0000 0.0000
# 4 0.0000 0.0000 0.0000 82.9666 0.0000 0.0000
# 5 0.0000 0.0000 0.0000 0.0000 13.3965 0.0000
# 6 0.0000 0.0000 0.0000 0.0000 0.0000 21.4015
#
#
#
# Elastic Compliance Matrix: (Units=1/GPa)
#
#
# Indices 1 2 3 4 5 6 
#
# 1 0.025497 -0.015588 0.002442 0.000000 0.000000 0.000000
# 2 -0.015588 0.012487 0.030400 0.000000 0.000000 0.000000
# 3 0.002442 0.030400 -0.100797 0.000000 0.000000 0.000000
# 4 0.000000 0.000000 0.000000 0.012053 0.000000 0.000000
# 5 0.000000 0.000000 0.000000 0.000000 0.074647 0.000000
# 6 0.000000 0.000000 0.000000 0.000000 0.000000 0.046726
#
#
# Mechanical properties :
#
#
# Convention : Reuss Voigt Hill
#
# Bulk Modulus (GPa) = -35.33218 34.14910 -0.59154
# Shear Modulus (GPa) = 187.48432 27.26620 107.37526
#
# Velocity S-wave (km/s) = 9.99380 3.81119 7.56311
# Velocity P-wave (km/s) = 10.69327 6.12851 8.71506
#
# Compressibility (1/GPa) = -0.02830281
#
# Stress axis : x y z
#
# Youngs Moduli (GPa) = 39.21990 80.08444 -9.92097
#
# Poissons Ratio (x) = 1.24833 0.02423
# Poissons Ratio (y) = 0.61135 0.30160
# Poissons Ratio (z) = -0.09579 -2.43458
#
# Static dielectric constant tensor:
#      x y z
#    x 1.642010 0.000000 0.000000 
#    y 0.000000 1.688200 0.000000 
#    z 0.000000 0.000000 1.629870 
# 
# From -- ./inp_files/17167.got.cif
#   From: 2010.05.17/outbox.ucp.g08.bks.cvg/sg38_9_cif.got.tgz:17167.got - 2010.06.11 10:39:43.
