data_PCOD9359330
_publ_section_title
;
Structure prediction by ZEFSAII (Michael W. Deem and Ramdas Pophale) SiO2 
 PCOD9359330
Probable space group: A M M 2
;
_chemical_formula_sum "Si O2"
_cell_formula_units_Z 56
_cell_length_a 21.903547
_cell_length_b 9.283266
_cell_length_c 15.078577
_cell_angle_alpha 90.000000
_cell_angle_beta 90.000000
_cell_angle_gamma 90.000000
_cell_volume 3066.024366
_symmetry_space_group_name_H-M "A M M 2"
_symmetry_group_IT_number 38
_symmetry_cell_setting 'orthorhombic'
loop_
_space_group_symop_operation_xyz
x,y,z
-x,-y,z
-x,y,z
x,-y,z
x,1/2+y,1/2+z
-x,1/2-y,1/2+z
-x,1/2+y,1/2+z
x,1/2-y,1/2+z
loop_
_atom_site_type_symbol
_atom_site_label
_atom_site_fract_x
_atom_site_fract_y
_atom_site_fract_z
Si Si1 0.276495 0.330362 0.250000
Si Si2 0.190193 0.828089 0.911206
Si Si3 0.500000 0.674121 0.583643
Si Si4 0.500000 0.326042 0.890875
Si Si5 0.404514 0.673013 0.737083
Si Si6 0.069299 0.666776 0.642727
Si Si7 0.187464 0.331993 0.083118
Si Si8 0.931449 0.332156 0.857169
O O1 0.290675 0.500000 0.260110
O O2 0.236676 0.282988 0.334275
O O3 0.338632 0.244373 0.238707
O O4 0.231505 0.314882 0.166768
O O5 0.123103 0.763424 0.893534
O O6 0.186760 0.000000 0.912606
O O7 0.212261 0.762659 0.003051
O O8 0.500000 0.500000 0.571626
O O9 0.500000 0.749740 0.487158
O O10 0.442605 0.712038 0.647964
O O11 0.500000 0.500000 0.903444
O O12 0.557310 0.288727 0.826358
O O13 0.399822 0.500000 0.736756
O O14 0.082077 0.500000 0.617456
O O15 0.120432 0.771925 0.606062
O O16 0.070938 0.673431 0.749899
O O17 0.000000 0.701905 0.615119
O O18 0.184351 0.500000 0.059626
O O19 0.923311 0.500000 0.882475
O O20 0.000000 0.286881 0.883974
#
# Coordination Sequence:
#
# PCOD9359330 Si02
#       8
#     8   8   4   4   8   8   8   8
#     4  10  23  41  58  81 116 150 190 237 278 328
#     4  11  23  39  57  81 111 147 190 237 286 340
#     4   9  19  37  60  90 122 151 187 229 270 322
#     4   9  19  37  60  90 122 151 187 229 270 322
#     4   9  20  38  60  85 117 155 190 224 273 330
#     4   9  18  34  57  83 109 140 182 233 289 347
#     4  11  23  39  57  81 111 147 190 237 286 340
#     4   9  18  34  57  83 109 140 182 233 289 347
#
# _framework density 18.264697000000002
#
# number of rings (size 3 to 8) (size 9 to 14) (size 15 to 20)
#    0.000    2.286    1.429    2.571    0.000    5.714 
#    0.000    8.571    0.000    0.000    0.000    0.000 
#    0.000    0.000    0.000    0.000    0.000    0.000 
#
# Total GULP energy -156268.186457 kJ/mol
# GULP energy per Si atom -5581.006659 kJ/mol
# Density = 1.822313 g / cm^3
# Si number density = 18.264697 Si / 1000 Ang^3
#
#
#
# Elastic Constant Matrix: (Units=GPa)
#
#
# Indices 1 2 3 4 5 6 
#
# 1 92.9032 35.8108 14.5408 0.0000 0.0000 0.0000
# 2 35.8108 39.7990 18.4585 0.0000 0.0000 0.0000
# 3 14.5408 18.4585 73.2677 0.0000 0.0000 0.0000
# 4 0.0000 0.0000 0.0000 33.0009 0.0000 0.0000
# 5 0.0000 0.0000 0.0000 0.0000 -327.4909 0.0000
# 6 0.0000 0.0000 0.0000 0.0000 0.0000 36.1437
#
#
#
# Elastic Compliance Matrix: (Units=1/GPa)
#
#
# Indices 1 2 3 4 5 6 
#
# 1 0.016498 -0.015089 0.000527 0.000000 0.000000 0.000000
# 2 -0.015089 0.042251 -0.007650 0.000000 0.000000 0.000000
# 3 0.000527 -0.007650 0.015471 0.000000 0.000000 0.000000
# 4 0.000000 0.000000 0.000000 0.030302 0.000000 0.000000
# 5 0.000000 0.000000 0.000000 0.000000 -0.003054 0.000000
# 6 0.000000 0.000000 0.000000 0.000000 0.000000 0.027667
#
#
# Mechanical properties :
#
#
# Convention : Reuss Voigt Hill
#
# Bulk Modulus (GPa) = 33.56061 38.17667 35.86864
# Shear Modulus (GPa) = 27.24922 -42.52529 -7.63804
#
# Velocity S-wave (km/s) = 3.86671 -4.83046 -2.04718
# Velocity P-wave (km/s) = 6.19272 3.18808 3.75406
#
# Compressibility (1/GPa) = 0.02979684
#
# Stress axis : x y z
#
# Youngs Moduli (GPa) = 60.61484 23.66798 64.63624
#
# Poissons Ratio (x) = 0.35713 -0.03408
# Poissons Ratio (y) = 0.91461 0.49446
# Poissons Ratio (z) = -0.03196 0.18106
#
# Static dielectric constant tensor:
#      x y z
#    x 1.606880 0.000000 0.000000 
#    y 0.000000 1.607100 0.000000 
#    z 0.000000 0.000000 1.645670 
# 
# From -- ./inp_files/15544.got.cif
#   From: 2010.05.17/outbox.cif.g08.bks.cpg/sg38_8_cif.got.tgz:15544.got - 2010.06.03 18:07:57.
