data_PCOD9359241
_publ_section_title
;
Structure prediction by ZEFSAII (Michael W. Deem and Ramdas Pophale) SiO2 
 PCOD9359241
Probable space group: A M M 2
;
_chemical_formula_sum "Si O2"
_cell_formula_units_Z 64
_cell_length_a 19.688794
_cell_length_b 19.916226
_cell_length_c 7.565000
_cell_angle_alpha 90.000000
_cell_angle_beta 90.000000
_cell_angle_gamma 90.000000
_cell_volume 2966.436753
_symmetry_space_group_name_H-M "A M M 2"
_symmetry_group_IT_number 38
_symmetry_cell_setting 'orthorhombic'
loop_
_space_group_symop_operation_xyz
x,y,z
-x,-y,z
-x,y,z
x,-y,z
x,1/2+y,1/2+z
-x,1/2-y,1/2+z
-x,1/2+y,1/2+z
x,1/2-y,1/2+z
loop_
_atom_site_type_symbol
_atom_site_label
_atom_site_fract_x
_atom_site_fract_y
_atom_site_fract_z
Si Si1 0.421561 0.294142 0.887200
Si Si2 0.422043 0.595602 0.606227
Si Si3 0.926682 0.317331 0.568721
Si Si4 0.719772 0.424955 0.745703
Si Si5 0.777092 0.820522 0.957790
Si Si6 0.225353 0.161269 0.560216
Si Si7 0.583107 0.844933 0.757543
Si Si8 0.073802 0.839859 0.488042
O O1 0.500000 0.280354 0.932495
O O2 0.422884 0.331434 0.700109
O O3 0.396441 0.338008 0.052951
O O4 0.388877 0.222759 0.849775
O O5 0.500000 0.571742 0.625662
O O6 0.360336 0.565931 0.714733
O O7 0.402256 0.597233 0.399421
O O8 0.858088 0.336000 0.469299
O O9 0.929068 0.236640 0.557896
O O10 0.921061 0.336938 0.774405
O O11 0.000000 0.341918 0.499510
O O12 0.750860 0.500000 0.730158
O O13 0.743639 0.369464 0.601678
O O14 0.736546 0.388949 0.929784
O O15 0.770756 0.739939 0.995733
O O16 0.751750 0.837564 0.762469
O O17 0.146682 0.136417 0.554166
O O18 0.500000 0.844703 0.759080
O O19 0.000000 0.871168 0.532102
#
# Coordination Sequence:
#
# PCOD9359241 Si02
#       8
#     8   8   8   8   8   8   8   8
#     4   9  15  27  49  81 118 147 180 236 307 378
#     4  10  22  39  60  83 111 155 206 259 326 401
#     4   9  15  26  52  93 136 171 212 270 321 362
#     4  12  28  47  65  94 133 170 217 275 338 404
#     4  11  21  41  69  98 133 177 226 270 319 382
#     4  11  21  41  69  98 133 177 226 270 319 382
#     4   9  15  27  49  81 118 147 180 236 307 378
#     4   9  15  26  52  93 136 171 212 270 321 362
#
# _framework density 21.574707
#
# number of rings (size 3 to 8) (size 9 to 14) (size 15 to 20)
#    0.000    2.000    3.750    2.250    0.000    4.250 
#    0.000    0.000    0.000    1.500    0.000    7.000 
#    0.000    0.000    0.000    0.000    0.000    0.000 
#
# Total GULP energy -178286.469428 kJ/mol
# GULP energy per Si atom -5571.452170 kJ/mol
# Density = 2.152560 g / cm^3
# Si number density = 21.574707 Si / 1000 Ang^3
#
#
#
# Elastic Constant Matrix: (Units=GPa)
#
#
# Indices 1 2 3 4 5 6 
#
# 1 117.8507 22.7857 14.0499 0.0000 0.0000 0.0000
# 2 22.7857 67.6667 13.5473 0.0000 0.0000 0.0000
# 3 14.0499 13.5473 101.8762 0.0000 0.0000 0.0000
# 4 0.0000 0.0000 0.0000 -45.2740 0.0000 0.0000
# 5 0.0000 0.0000 0.0000 0.0000 30.7494 0.0000
# 6 0.0000 0.0000 0.0000 0.0000 0.0000 -8.9270
#
#
#
# Elastic Compliance Matrix: (Units=1/GPa)
#
#
# Indices 1 2 3 4 5 6 
#
# 1 0.009152 -0.002906 -0.000876 0.000000 0.000000 0.000000
# 2 -0.002906 0.016106 -0.001741 0.000000 0.000000 0.000000
# 3 -0.000876 -0.001741 0.010168 0.000000 0.000000 0.000000
# 4 0.000000 0.000000 0.000000 -0.022088 0.000000 0.000000
# 5 0.000000 0.000000 0.000000 0.000000 0.032521 0.000000
# 6 0.000000 0.000000 0.000000 0.000000 0.000000 -0.112019
#
#
# Mechanical properties :
#
#
# Convention : Reuss Voigt Hill
#
# Bulk Modulus (GPa) = 41.01800 43.12882 42.07341
# Shear Modulus (GPa) = -106.40886 11.11038 -47.64924
#
# Velocity S-wave (km/s) = -7.03052 2.27176 -4.70464
# Velocity P-wave (km/s) = 6.84477 5.18797 3.15720
#
# Compressibility (1/GPa) = 0.02437954
#
# Stress axis : x y z
#
# Youngs Moduli (GPa) = 109.27015 62.09050 98.34690
#
# Poissons Ratio (x) = 0.18046 0.08612
# Poissons Ratio (y) = 0.31758 0.17121
# Poissons Ratio (z) = 0.09568 0.10809
#
# Static dielectric constant tensor:
#      x y z
#    x 1.887570 0.000000 0.000000 
#    y 0.000000 1.797780 0.000000 
#    z 0.000000 0.000000 1.793410 
# 
# From -- ./inp_files/10672.got.cif
#   From: 2010.05.17/outbox.cif.g08.bks.cpg/sg38_6_cif.got.tgz:10672.got - 2010.06.03 18:07:57.
