data_PCOD9359207
_publ_section_title
;
Structure prediction by ZEFSAII (Michael W. Deem and Ramdas Pophale) SiO2 
 PCOD9359207
Probable space group: A M M 2
;
_chemical_formula_sum "Si O2"
_cell_formula_units_Z 48
_cell_length_a 8.642287
_cell_length_b 17.552656
_cell_length_c 17.096372
_cell_angle_alpha 90.000000
_cell_angle_beta 90.000000
_cell_angle_gamma 90.000000
_cell_volume 2593.435702
_symmetry_space_group_name_H-M "A M M 2"
_symmetry_group_IT_number 38
_symmetry_cell_setting 'orthorhombic'
loop_
_space_group_symop_operation_xyz
x,y,z
-x,-y,z
-x,y,z
x,-y,z
x,1/2+y,1/2+z
-x,1/2-y,1/2+z
-x,1/2+y,1/2+z
x,1/2-y,1/2+z
loop_
_atom_site_type_symbol
_atom_site_label
_atom_site_fract_x
_atom_site_fract_y
_atom_site_fract_z
Si Si1 0.313112 0.653643 0.824150
Si Si2 0.314432 0.000000 0.056157
Si Si3 0.814757 0.351418 0.470893
Si Si4 0.311199 0.000000 0.237142
Si Si5 0.814826 0.316642 0.292892
Si Si6 0.686744 0.811560 0.501569
Si Si7 0.687129 0.087666 0.649086
O O1 0.500000 0.657032 0.819834
O O2 0.261130 0.576662 0.781587
O O3 0.246440 0.730330 0.786219
O O4 0.269642 0.656227 0.915979
O O5 0.500000 0.000000 0.054999
O O6 0.262942 0.000000 0.146765
O O7 0.254373 0.075182 0.012756
O O8 0.768172 0.346433 0.379279
O O9 0.756116 0.272761 0.508822
O O10 0.000000 0.354479 0.474470
O O11 0.500000 0.000000 0.238574
O O12 0.748068 0.369345 0.225259
O O13 0.000000 0.316314 0.289346
O O14 0.500000 0.805601 0.503252
O O15 0.736191 0.866537 0.571567
O O16 0.500000 0.088286 0.650676
O O17 0.738491 0.000000 0.647050
#
# Coordination Sequence:
#
# PCOD9359207 Si02
#       7
#     8   4   8   4   8   8   8
#     4   9  18  36  61  85 112 147 185 227 280 335
#     4  11  23  37  57  86 117 146 188 237 283 333
#     4  10  22  40  59  81 113 151 191 233 282 337
#     4   9  20  35  57  88 115 142 180 231 279 327
#     4  10  22  39  58  81 112 150 190 232 281 335
#     4   9  19  36  60  86 113 147 186 229 279 335
#     4  10  22  37  57  87 117 145 185 234 280 331
#
# _framework density 18.508268999999999
#
# number of rings (size 3 to 8) (size 9 to 14) (size 15 to 20)
#    0.000    2.333    0.000    1.250    4.667    3.000 
#    0.000    1.250    0.000    0.000    0.000    0.000 
#    0.000    0.000    0.000    0.000    0.000    0.000 
#
# Total GULP energy -134009.183031 kJ/mol
# GULP energy per Si atom -5583.715960 kJ/mol
# Density = 1.846614 g / cm^3
# Si number density = 18.508269 Si / 1000 Ang^3
#
#
#
# Elastic Constant Matrix: (Units=GPa)
#
#
# Indices 1 2 3 4 5 6 
#
# 1 16.4958 40.7163 31.4578 0.0000 0.0000 0.0000
# 2 40.7163 222.9519 136.4831 0.0000 0.0000 0.0000
# 3 31.4578 136.4831 126.2322 0.0000 0.0000 0.0000
# 4 0.0000 0.0000 0.0000 31.9031 0.0000 0.0000
# 5 0.0000 0.0000 0.0000 0.0000 19.5170 0.0000
# 6 0.0000 0.0000 0.0000 0.0000 0.0000 -18.8816
#
#
#
# Elastic Compliance Matrix: (Units=1/GPa)
#
#
# Indices 1 2 3 4 5 6 
#
# 1 0.124067 -0.011033 -0.018989 0.000000 0.000000 0.000000
# 2 -0.011033 0.014246 -0.012654 0.000000 0.000000 0.000000
# 3 -0.018989 -0.012654 0.026335 0.000000 0.000000 0.000000
# 4 0.000000 0.000000 0.000000 0.031345 0.000000 0.000000
# 5 0.000000 0.000000 0.000000 0.000000 0.051237 0.000000
# 6 0.000000 0.000000 0.000000 0.000000 0.000000 -0.052962
#
#
# Mechanical properties :
#
#
# Convention : Reuss Voigt Hill
#
# Bulk Modulus (GPa) = 12.61084 86.99938 49.80511
# Shear Modulus (GPa) = 16.33702 16.97590 16.65646
#
# Velocity S-wave (km/s) = 2.97423 3.03183 3.00317
# Velocity P-wave (km/s) = 4.31545 7.70478 6.24447
#
# Compressibility (1/GPa) = 0.07929685
#
# Stress axis : x y z
#
# Youngs Moduli (GPa) = 8.06015 70.19362 37.97180
#
# Poissons Ratio (x) = 0.77446 0.72105
# Poissons Ratio (y) = 0.08893 0.48048
# Poissons Ratio (z) = 0.15306 0.88821
#
# Static dielectric constant tensor:
#      x y z
#    x 1.623870 0.000000 0.000000 
#    y 0.000000 1.601250 0.000000 
#    z 0.000000 0.000000 1.629680 
# 
# From -- ./inp_files/12099.got.cif
#   From: 2010.05.17/outbox.cif.g08.bks.cpg/sg38_7_cif.got.tgz:12099.got - 2010.06.03 18:07:57.
