data_PCOD9359592
_publ_section_title
;
Structure prediction by ZEFSAII (Michael W. Deem and Ramdas Pophale) SiO2 
 PCOD9359592
Probable space group: A M M 2
;
_chemical_formula_sum "Si O2"
_cell_formula_units_Z 32
_cell_length_a 18.000000
_cell_length_b 9.000000
_cell_length_c 21.000000
_cell_angle_alpha 90.000000
_cell_angle_beta 90.000000
_cell_angle_gamma 90.000000
_cell_volume 3402.000000
_symmetry_space_group_name_H-M "A M M 2"
_symmetry_group_IT_number 38
_symmetry_cell_setting 'orthorhombic'
loop_
_space_group_symop_operation_xyz
x,y,z
-x,-y,z
-x,y,z
x,-y,z
x,1/2+y,1/2+z
-x,1/2-y,1/2+z
-x,1/2+y,1/2+z
x,1/2-y,1/2+z
loop_
_atom_site_type_symbol
_atom_site_label
_atom_site_fract_x
_atom_site_fract_y
_atom_site_fract_z
Si Si1 0.090482 0.169798 0.516170
Si Si2 0.590776 0.170991 0.570956
Si Si3 0.914478 0.681822 0.154907
Si Si4 0.346046 0.176362 0.807965
Si Si5 0.412258 0.164261 0.194279
Si Si6 0.914790 0.821885 0.889631
Si Si7 0.586636 0.820791 0.429962
Si Si8 0.817777 0.181360 0.771821
O O1 0.111154 0.229806 0.585151
O O2 0.114646 0.265020 0.456666
O O3 0.000000 0.168046 0.517014
O O4 0.115499 0.000000 0.508997
O O5 0.500000 0.170120 0.570837
O O6 0.619288 0.267424 0.629386
O O7 0.612006 0.224392 0.500665
O O8 0.614078 0.000000 0.579553
O O9 0.915342 0.500000 0.153684
O O10 0.858626 0.732764 0.208626
O O11 0.000000 0.726502 0.167162
O O12 0.401835 0.228212 0.753535
O O13 0.365881 0.251732 0.874161
O O14 0.266343 0.225864 0.781589
O O15 0.346662 0.000000 0.815602
O O16 0.500000 0.151630 0.183467
O O17 0.382800 0.000000 0.208555
O O18 0.865476 0.768345 0.831866
O O19 0.000000 0.771836 0.881688
O O20 0.915145 0.000000 0.889308
O O21 0.500000 0.777668 0.421444
O O22 0.589187 0.000000 0.427701
O O23 0.819259 0.000000 0.770671
#
# Coordination Sequence:
#
# PCOD9359592 Si02
#       8
#     8   8   8   8   8   8   8   8
#     4   8  14  25  44  71  96 115 144 191 239 279
#     4   8  15  30  53  78  99 119 150 196 246 291
#     4   8  13  25  48  72  91 117 156 198 235 273
#     4  11  22  33  47  69 100 135 166 200 240 283
#     4  10  20  34  53  75  98 125 159 200 242 286
#     4   9  16  28  49  72  92 119 154 191 233 280
#     4   9  18  34  55  76  98 125 159 201 244 286
#     4   9  18  31  45  66  96 125 158 199 235 270
#
# _framework density 9.4062319999999993
#
# number of rings (size 3 to 8) (size 9 to 14) (size 15 to 20)
#    0.000    3.000    0.000    3.000    0.000    4.500 
#    0.000    3.750    0.000    6.750    0.000    3.500 
#    0.000    0.000    0.000    0.000    0.000    0.000 
#
# Total GULP energy -178189.134988 kJ/mol
# GULP energy per Si atom -5568.410468 kJ/mol
# Density = 0.938482 g / cm^3
# Si number density = 9.406232 Si / 1000 Ang^3
#
#
#
# Elastic Constant Matrix: (Units=GPa)
#
#
# Indices 1 2 3 4 5 6 
#
# 1 9.2492 11.1604 6.6942 0.0000 0.0000 0.0000
# 2 11.1604 0.9779 15.4485 0.0000 0.0000 0.0000
# 3 6.6942 15.4485 87.0827 0.0000 0.0000 0.0000
# 4 0.0000 0.0000 0.0000 24.6089 0.0000 0.0000
# 5 0.0000 0.0000 0.0000 0.0000 -102.7200 0.0000
# 6 0.0000 0.0000 0.0000 0.0000 0.0000 5.7206
#
#
#
# Elastic Compliance Matrix: (Units=1/GPa)
#
#
# Indices 1 2 3 4 5 6 
#
# 1 0.015347 0.086831 -0.016584 0.000000 0.000000 0.000000
# 2 0.086831 -0.076050 0.006816 0.000000 0.000000 0.000000
# 3 -0.016584 0.006816 0.011549 0.000000 0.000000 0.000000
# 4 0.000000 0.000000 0.000000 0.040636 0.000000 0.000000
# 5 0.000000 0.000000 0.000000 0.000000 -0.009735 0.000000
# 6 0.000000 0.000000 0.000000 0.000000 0.000000 0.174808
#
#
# Mechanical properties :
#
#
# Convention : Reuss Voigt Hill
#
# Bulk Modulus (GPa) = 9.52620 18.21287 13.86954
# Shear Modulus (GPa) = 133.62134 -10.21100 61.70517
#
# Velocity S-wave (km/s) = 8.43696 -2.33229 5.73336
# Velocity P-wave (km/s) = 9.99922 1.56510 7.15661
#
# Compressibility (1/GPa) = 0.10497360
#
# Stress axis : x y z
#
# Youngs Moduli (GPa) = 65.15827 -13.14932 86.58820
#
# Poissons Ratio (x) = 1.14176 1.43594
# Poissons Ratio (y) = -5.65774 -0.59022
# Poissons Ratio (z) = 1.08055 0.08963
#
# Static dielectric constant tensor:
#      x y z
#    x 1.652180 0.000000 0.000000 
#    y 0.000000 1.646130 0.000000 
#    z 0.000000 0.000000 1.658310 
# 
# From -- ./inp_files/21401.got.cif
#   From: 2010.05.17/outbox.ucp.g08.bks.cvg/sg38_11_cif.got.tgz:21401.got - 2010.06.11 10:39:43.
