data_PCOD9359734
_publ_section_title
;
Structure prediction by ZEFSAII (Michael W. Deem and Ramdas Pophale) SiO2 
 PCOD9359734
Probable space group: A B M 2
;
_chemical_formula_sum "Si O2"
_cell_formula_units_Z 40
_cell_length_a 9.268546
_cell_length_b 8.725437
_cell_length_c 27.092182
_cell_angle_alpha 90.000000
_cell_angle_beta 90.000000
_cell_angle_gamma 90.000000
_cell_volume 2191.002037
_symmetry_space_group_name_H-M "A B M 2"
_symmetry_group_IT_number 39
_symmetry_cell_setting 'orthorhombic'
loop_
_space_group_symop_operation_xyz
x,y,z
-x,-y,z
-x,1/2+y,z
x,1/2-y,z
x,1/2+y,1/2+z
-x,1/2-y,1/2+z
-x,y,1/2+z
x,-y,1/2+z
loop_
_atom_site_type_symbol
_atom_site_label
_atom_site_fract_x
_atom_site_fract_y
_atom_site_fract_z
Si Si1 0.159678 0.566601 0.961450
Si Si2 0.336310 0.067028 0.761737
Si Si3 0.661886 0.933525 0.052252
Si Si4 0.338543 0.933826 0.863476
Si Si5 0.662716 0.433415 0.661721
O O1 0.154777 0.750000 0.964915
O O2 0.246167 0.526470 0.911552
O O3 0.000000 0.500000 0.959331
O O4 0.242585 0.501108 0.008785
O O5 0.341490 0.250000 0.761916
O O6 0.500000 0.000000 0.761828
O O7 0.273906 0.003788 0.813004
O O8 0.268258 0.006722 0.710634
O O9 0.653792 0.750000 0.048097
O O10 0.722672 0.969389 0.107257
O O11 0.500000 0.000000 0.048555
O O12 0.347238 0.750000 0.858557
O O13 0.500000 0.000000 0.869676
O O14 0.500000 0.500000 0.659796
O O15 0.656626 0.250000 0.667669
#
# Coordination Sequence:
#
# PCOD9359734 Si02
#       5
#     8   8   8   8   8
#     4  11  24  39  56  76 103 139 177 219 267 316
#     4  10  17  26  45  73 104 136 167 207 254 302
#     4  10  20  34  55  81 109 140 176 217 261 309
#     4  10  20  34  53  78 105 136 172 213 258 307
#     4   9  16  27  45  72 105 137 167 206 253 302
#
# _framework density 18.256487
#
# number of rings (size 3 to 8) (size 9 to 14) (size 15 to 20)
#    0.000    2.000    0.000    7.200    0.000    7.200 
#    0.000    0.000    0.000    1.200    0.000    5.600 
#    0.000    0.000    0.000    0.000    0.000    0.000 
#
# Total GULP energy -111569.630099 kJ/mol
# GULP energy per Si atom -5578.481505 kJ/mol
# Density = 1.821493 g / cm^3
# Si number density = 18.256487 Si / 1000 Ang^3
#
#
#
# Elastic Constant Matrix: (Units=GPa)
#
#
# Indices 1 2 3 4 5 6 
#
# 1 56.6823 30.5418 68.4646 0.0000 0.0000 0.0000
# 2 30.5418 98.3534 91.9037 0.0000 0.0000 0.0000
# 3 68.4646 91.9037 236.1338 0.0000 0.0000 0.0000
# 4 0.0000 0.0000 0.0000 37.5251 0.0000 0.0000
# 5 0.0000 0.0000 0.0000 0.0000 -5.4253 0.0000
# 6 0.0000 0.0000 0.0000 0.0000 0.0000 20.3259
#
#
#
# Elastic Compliance Matrix: (Units=1/GPa)
#
#
# Indices 1 2 3 4 5 6 
#
# 1 0.027330 -0.001701 -0.007262 0.000000 0.000000 0.000000
# 2 -0.001701 0.016084 -0.005767 0.000000 0.000000 0.000000
# 3 -0.007262 -0.005767 0.008585 0.000000 0.000000 0.000000
# 4 0.000000 0.000000 0.000000 0.026649 0.000000 0.000000
# 5 0.000000 0.000000 0.000000 0.000000 -0.184321 0.000000
# 6 0.000000 0.000000 0.000000 0.000000 0.000000 0.049198
#
#
# Mechanical properties :
#
#
# Convention : Reuss Voigt Hill
#
# Bulk Modulus (GPa) = 44.36626 85.88775 65.12700
# Shear Modulus (GPa) = -256.40383 23.83576 -116.28404
#
# Velocity S-wave (km/s) = -11.86382 3.61724 -7.98955
# Velocity P-wave (km/s) = 12.77938 8.03698 7.02565
#
# Compressibility (1/GPa) = 0.02253965
#
# Stress axis : x y z
#
# Youngs Moduli (GPa) = 36.58919 62.17229 116.48304
#
# Poissons Ratio (x) = 0.10576 0.84592
# Poissons Ratio (y) = 0.06224 0.67174
# Poissons Ratio (z) = 0.26572 0.35854
#
# Static dielectric constant tensor:
#      x y z
#    x 1.577040 0.000000 0.000000 
#    y 0.000000 1.608570 0.000000 
#    z 0.000000 0.000000 1.696730 
# 
# From -- ./inp_files/16734.got.cif
#   From: 2010.05.17/outbox.cif.g08.bks.cpg/sg39_9_cif.got.tgz:16734.got - 2010.06.03 18:22:40.
