data_PCOD9359313
_publ_section_title
;
Structure prediction by ZEFSAII (Michael W. Deem and Ramdas Pophale) SiO2 
 PCOD9359313
Probable space group: A M M 2
;
_chemical_formula_sum "Si O2"
_cell_formula_units_Z 40
_cell_length_a 13.391235
_cell_length_b 16.274935
_cell_length_c 8.730710
_cell_angle_alpha 90.000000
_cell_angle_beta 90.000000
_cell_angle_gamma 90.000000
_cell_volume 1902.783852
_symmetry_space_group_name_H-M "A M M 2"
_symmetry_group_IT_number 38
_symmetry_cell_setting 'orthorhombic'
loop_
_space_group_symop_operation_xyz
x,y,z
-x,-y,z
-x,y,z
x,-y,z
x,1/2+y,1/2+z
-x,1/2-y,1/2+z
-x,1/2+y,1/2+z
x,1/2-y,1/2+z
loop_
_atom_site_type_symbol
_atom_site_label
_atom_site_fract_x
_atom_site_fract_y
_atom_site_fract_z
Si Si1 0.689605 0.087622 0.623630
Si Si2 0.200995 0.686641 0.703582
Si Si3 0.390642 0.230772 0.417176
Si Si4 0.668829 0.908600 0.987503
Si Si5 0.886819 0.659591 0.018481
O O1 0.629355 0.161596 0.546060
O O2 0.691811 0.089306 0.806683
O O3 0.803684 0.095019 0.569674
O O4 0.646246 0.000000 0.574147
O O5 0.298080 0.719358 0.799710
O O6 0.238622 0.611374 0.599435
O O7 0.122825 0.665698 0.835664
O O8 0.154516 0.756114 0.594679
O O9 0.500000 0.217937 0.347330
O O10 0.389031 0.321595 0.491720
O O11 0.627557 0.000000 0.025549
O O12 0.000000 0.643934 0.065907
#
# Coordination Sequence:
#
# PCOD9359313 Si02
#       5
#     8   8   8   8   8
#     4  10  22  42  65  93 128 169 216 265 316 382
#     4  11  21  40  62 100 128 169 209 270 321 380
#     4  11  23  42  67  95 128 170 215 262 324 386
#     4  11  22  40  64  91 129 168 210 261 318 377
#     4  11  21  38  67  95 127 168 215 264 324 385
#
# _framework density 21.021830999999999
#
# number of rings (size 3 to 8) (size 9 to 14) (size 15 to 20)
#    0.000    1.200    6.000    0.600    0.000    7.600 
#    0.000    3.000    0.000    4.200    0.000    0.000 
#    0.000    0.000    0.000    0.000    0.000    0.000 
#
# Total GULP energy -111509.688548 kJ/mol
# GULP energy per Si atom -5575.484427 kJ/mol
# Density = 2.097398 g / cm^3
# Si number density = 21.021831 Si / 1000 Ang^3
#
#
#
# Elastic Constant Matrix: (Units=GPa)
#
#
# Indices 1 2 3 4 5 6 
#
# 1 95.7945 20.9956 6.6296 0.0000 0.0000 0.0000
# 2 20.9956 166.8761 37.2334 0.0000 0.0000 0.0000
# 3 6.6296 37.2334 72.7634 0.0000 0.0000 0.0000
# 4 0.0000 0.0000 0.0000 27.6609 0.0000 0.0000
# 5 0.0000 0.0000 0.0000 0.0000 17.1285 0.0000
# 6 0.0000 0.0000 0.0000 0.0000 0.0000 -15.7478
#
#
#
# Elastic Compliance Matrix: (Units=1/GPa)
#
#
# Indices 1 2 3 4 5 6 
#
# 1 0.010742 -0.001279 -0.000324 0.000000 0.000000 0.000000
# 2 -0.001279 0.006917 -0.003423 0.000000 0.000000 0.000000
# 3 -0.000324 -0.003423 0.015524 0.000000 0.000000 0.000000
# 4 0.000000 0.000000 0.000000 0.036152 0.000000 0.000000
# 5 0.000000 0.000000 0.000000 0.000000 0.058382 0.000000
# 6 0.000000 0.000000 0.000000 0.000000 0.000000 -0.063501
#
#
# Mechanical properties :
#
#
# Convention : Reuss Voigt Hill
#
# Bulk Modulus (GPa) = 43.23276 51.68347 47.45811
# Shear Modulus (GPa) = 60.99097 23.84668 42.41883
#
# Velocity S-wave (km/s) = 5.39223 3.37171 4.49692
# Velocity P-wave (km/s) = 7.70574 6.30847 7.04185
#
# Compressibility (1/GPa) = 0.02313060
#
# Stress axis : x y z
#
# Youngs Moduli (GPa) = 93.09423 144.56828 64.41525
#
# Poissons Ratio (x) = 0.18493 0.02088
# Poissons Ratio (y) = 0.11908 0.22049
# Poissons Ratio (z) = 0.03018 0.49486
#
# Static dielectric constant tensor:
#      x y z
#    x 1.763320 0.000000 0.000000 
#    y 0.000000 1.805860 0.000000 
#    z 0.000000 0.000000 1.781140 
# 
# From -- ./inp_files/5223.got.cif
#   From: 2010.05.17/outbox.cif.g08.bks.cpg/sg38_3_cif.got.tgz:5223.got - 2010.06.03 18:07:57.
