data_PCOD9359385
_publ_section_title
;
Structure prediction by ZEFSAII (Michael W. Deem and Ramdas Pophale) SiO2 
 PCOD9359385
Probable space group: A M M 2
;
_chemical_formula_sum "Si O2"
_cell_formula_units_Z 56
_cell_length_a 21.943866
_cell_length_b 8.317783
_cell_length_c 15.919868
_cell_angle_alpha 90.000000
_cell_angle_beta 90.000000
_cell_angle_gamma 90.000000
_cell_volume 2905.763011
_symmetry_space_group_name_H-M "A M M 2"
_symmetry_group_IT_number 38
_symmetry_cell_setting 'orthorhombic'
loop_
_space_group_symop_operation_xyz
x,y,z
-x,-y,z
-x,y,z
x,-y,z
x,1/2+y,1/2+z
-x,1/2-y,1/2+z
-x,1/2+y,1/2+z
x,1/2-y,1/2+z
loop_
_atom_site_type_symbol
_atom_site_label
_atom_site_fract_x
_atom_site_fract_y
_atom_site_fract_z
Si Si1 0.349384 0.308236 0.657930
Si Si2 0.430080 0.193992 0.812189
Si Si3 0.000000 0.804659 0.555603
Si Si4 0.000000 0.693339 0.252527
Si Si5 0.570115 0.196039 0.002469
Si Si6 0.868358 0.807951 0.306747
Si Si7 0.131857 0.303337 0.993549
Si Si8 0.788586 0.691557 0.151104
O O1 0.351872 0.500000 0.655391
O O2 0.384583 0.252787 0.741163
O O3 0.385038 0.245930 0.575223
O O4 0.279476 0.256337 0.657608
O O5 0.500000 0.246035 0.794959
O O6 0.429758 0.000000 0.811911
O O7 0.414096 0.246678 0.907321
O O8 0.937320 0.749842 0.513171
O O9 0.000000 0.761427 0.653840
O O10 0.000000 0.000000 0.551774
O O11 0.938702 0.760535 0.293290
O O12 0.000000 0.500000 0.257700
O O13 0.500000 0.243558 0.019601
O O14 0.571156 0.000000 0.002688
O O15 0.849376 0.753650 0.400113
O O16 0.828166 0.735296 0.232585
O O17 0.863036 0.000000 0.302576
O O18 0.131279 0.500000 0.995020
O O19 0.176138 0.248100 0.067919
O O20 0.785694 0.500000 0.145099
#
# Coordination Sequence:
#
# PCOD9359385 Si02
#       8
#     8   8   4   4   8   8   8   8
#     4  11  22  36  56  83 115 149 188 233 281 328
#     4   9  18  35  59  86 115 148 186 227 275 334
#     4   9  15  31  59  84 107 141 182 218 267 332
#     4  11  20  35  61  88 117 151 186 222 275 342
#     4   8  16  33  57  83 112 146 183 227 280 331
#     4  11  22  38  61  88 114 142 186 239 287 328
#     4   9  19  36  60  83 108 147 186 228 282 340
#     4  11  23  41  59  78 110 154 195 230 278 339
#
# _framework density 19.272048000000002
#
# number of rings (size 3 to 8) (size 9 to 14) (size 15 to 20)
#    0.000    2.143    1.429    3.214    0.000    3.143 
#    0.000    7.143    0.000    1.714    0.000    0.000 
#    0.000    0.000    0.000    0.000    0.000    0.000 
#
# Total GULP energy -156346.920821 kJ/mol
# GULP energy per Si atom -5583.818601 kJ/mol
# Density = 1.922818 g / cm^3
# Si number density = 19.272048 Si / 1000 Ang^3
#
#
#
# Elastic Constant Matrix: (Units=GPa)
#
#
# Indices 1 2 3 4 5 6 
#
# 1 141.8114 3.8564 90.7700 0.0000 0.0000 0.0000
# 2 3.8564 11.7691 4.6049 0.0000 0.0000 0.0000
# 3 90.7700 4.6049 156.8836 0.0000 0.0000 0.0000
# 4 0.0000 0.0000 0.0000 21.7694 0.0000 0.0000
# 5 0.0000 0.0000 0.0000 0.0000 -1.1411 0.0000
# 6 0.0000 0.0000 0.0000 0.0000 0.0000 7.2797
#
#
#
# Elastic Compliance Matrix: (Units=1/GPa)
#
#
# Indices 1 2 3 4 5 6 
#
# 1 0.011214 -0.001149 -0.006455 0.000000 0.000000 0.000000
# 2 -0.001149 0.086073 -0.001862 0.000000 0.000000 0.000000
# 3 -0.006455 -0.001862 0.010163 0.000000 0.000000 0.000000
# 4 0.000000 0.000000 0.000000 0.045936 0.000000 0.000000
# 5 0.000000 0.000000 0.000000 0.000000 -0.876376 0.000000
# 6 0.000000 0.000000 0.000000 0.000000 0.000000 0.137368
#
#
# Mechanical properties :
#
#
# Convention : Reuss Voigt Hill
#
# Bulk Modulus (GPa) = 11.29691 56.54741 33.92216
# Shear Modulus (GPa) = -9.30779 19.66381 5.17801
#
# Velocity S-wave (km/s) = -2.20004 3.19772 1.64092
# Velocity P-wave (km/s) = 0.76093 6.56043 4.60762
#
# Compressibility (1/GPa) = 0.08851979
#
# Stress axis : x y z
#
# Youngs Moduli (GPa) = 89.17144 11.61807 98.39267
#
# Poissons Ratio (x) = 0.01335 0.63509
# Poissons Ratio (y) = 0.10246 0.18317
# Poissons Ratio (z) = 0.57557 0.02163
#
# Static dielectric constant tensor:
#      x y z
#    x 1.627620 0.000000 0.000000 
#    y 0.000000 1.669210 0.000000 
#    z 0.000000 0.000000 1.679090 
# 
# From -- ./inp_files/15546.got.cif
#   From: 2010.05.17/outbox.cif.g08.bks.cpg/sg38_8_cif.got.tgz:15546.got - 2010.06.03 18:07:57.
