data_PCOD9359598
_publ_section_title
;
Structure prediction by ZEFSAII (Michael W. Deem and Ramdas Pophale) SiO2 
 PCOD9359598
Probable space group: A M M 2
;
_chemical_formula_sum "Si O2"
_cell_formula_units_Z 32
_cell_length_a 9.000000
_cell_length_b 24.000000
_cell_length_c 15.000000
_cell_angle_alpha 90.000000
_cell_angle_beta 90.000000
_cell_angle_gamma 90.000000
_cell_volume 3240.000000
_symmetry_space_group_name_H-M "A M M 2"
_symmetry_group_IT_number 38
_symmetry_cell_setting 'orthorhombic'
loop_
_space_group_symop_operation_xyz
x,y,z
-x,-y,z
-x,y,z
x,-y,z
x,1/2+y,1/2+z
-x,1/2-y,1/2+z
-x,1/2+y,1/2+z
x,1/2-y,1/2+z
loop_
_atom_site_type_symbol
_atom_site_label
_atom_site_fract_x
_atom_site_fract_y
_atom_site_fract_z
Si Si1 0.823505 0.379430 0.104250
Si Si2 0.168399 0.564745 0.925361
Si Si3 0.820470 0.346569 0.467447
Si Si4 0.177529 0.440850 0.596116
Si Si5 0.178131 0.222963 0.483136
Si Si6 0.673804 0.394987 0.758340
Si Si7 0.676682 0.347453 0.274839
Si Si8 0.677806 0.223080 0.289551
O O1 0.739712 0.385422 0.196630
O O2 0.000000 0.375366 0.121866
O O3 0.799389 0.425953 0.029211
O O4 0.772046 0.323449 0.052547
O O5 0.169772 0.500000 0.904419
O O6 0.281884 0.594516 0.860139
O O7 0.000000 0.586807 0.909949
O O8 0.763306 0.392369 0.534838
O O9 0.782610 0.286086 0.506326
O O10 0.750617 0.355659 0.370675
O O11 0.000000 0.349435 0.458949
O O12 0.220682 0.500000 0.557154
O O13 0.235521 0.435128 0.695428
O O14 0.000000 0.437028 0.598343
O O15 0.244722 0.216387 0.384939
O O16 0.000000 0.218448 0.477324
O O17 0.500000 0.403164 0.745601
O O18 0.716760 0.331571 0.734335
O O19 0.500000 0.352018 0.281525
O O20 0.716984 0.283068 0.250768
O O21 0.500000 0.222046 0.303222
#
# Coordination Sequence:
#
# PCOD9359598 Si02
#       8
#     8   8   8   8   8   8   8   8
#     4  10  20  34  54  82 111 141 181 226 271 317
#     4  10  21  38  58  79 108 146 185 224 267 319
#     4   9  19  37  58  80 106 138 181 230 276 318
#     4  10  22  39  58  80 107 142 184 226 270 322
#     4   9  17  31  53  80 105 135 176 222 267 312
#     4  11  22  35  54  82 114 147 180 219 268 322
#     4  10  21  36  55  80 112 147 180 220 272 329
#     4   9  19  34  50  76 112 146 177 210 261 323
#
# _framework density 9.8765429999999999
#
# number of rings (size 3 to 8) (size 9 to 14) (size 15 to 20)
#    0.000    2.250    1.250    1.125    1.750    4.500 
#    0.000    0.625    0.000    3.750    0.000    0.000 
#    0.000    0.000    0.000    0.000    0.000    0.000 
#
# Total GULP energy -178337.384487 kJ/mol
# GULP energy per Si atom -5573.043265 kJ/mol
# Density = 0.985406 g / cm^3
# Si number density = 9.876543 Si / 1000 Ang^3
#
#
#
# Elastic Constant Matrix: (Units=GPa)
#
#
# Indices 1 2 3 4 5 6 
#
# 1 -18.6853 17.2329 -0.9901 0.0000 0.0000 0.0000
# 2 17.2329 75.1272 13.8372 0.0000 0.0000 0.0000
# 3 -0.9901 13.8372 32.3209 0.0000 0.0000 0.0000
# 4 0.0000 0.0000 0.0000 19.7792 0.0000 0.0000
# 5 0.0000 0.0000 0.0000 0.0000 78.7351 0.0000
# 6 0.0000 0.0000 0.0000 0.0000 0.0000 3.4915
#
#
#
# Elastic Compliance Matrix: (Units=1/GPa)
#
#
# Indices 1 2 3 4 5 6 
#
# 1 -0.043065 0.010988 -0.006023 0.000000 0.000000 0.000000
# 2 0.010988 0.011647 -0.004650 0.000000 0.000000 0.000000
# 3 -0.006023 -0.004650 0.032746 0.000000 0.000000 0.000000
# 4 0.000000 0.000000 0.000000 0.050558 0.000000 0.000000
# 5 0.000000 0.000000 0.000000 0.000000 0.012701 0.000000
# 6 0.000000 0.000000 0.000000 0.000000 0.000000 0.286409
#
#
# Mechanical properties :
#
#
# Convention : Reuss Voigt Hill
#
# Bulk Modulus (GPa) = 510.96478 16.54698 263.75588
# Shear Modulus (GPa) = 14.24430 24.31336 19.27883
#
# Velocity S-wave (km/s) = 2.68828 3.51217 3.12747
# Velocity P-wave (km/s) = 16.39736 4.98420 12.11849
#
# Compressibility (1/GPa) = 0.00195708
#
# Stress axis : x y z
#
# Youngs Moduli (GPa) = -23.22059 85.86109 30.53830
#
# Poissons Ratio (x) = -0.94343 0.18394
# Poissons Ratio (y) = 0.25514 0.14199
# Poissons Ratio (z) = -0.13986 0.39922
#
# Static dielectric constant tensor:
#      x y z
#    x 1.663050 0.000000 0.000000 
#    y 0.000000 1.760280 0.000000 
#    z 0.000000 0.000000 1.657160 
# 
# From -- ./inp_files/12734.got.cif
#   From: 2010.05.17/outbox.ucp.g08.bks.cvg/sg38_7_cif.got.tgz:12734.got - 2010.06.11 10:39:43.
