data_PCOD9359663
_publ_section_title
;
Structure prediction by ZEFSAII (Michael W. Deem and Ramdas Pophale) SiO2 
 PCOD9359663
Probable space group: A B M 2
;
_chemical_formula_sum "Si O2"
_cell_formula_units_Z 28
_cell_length_a 13.852847
_cell_length_b 5.579626
_cell_length_c 14.285786
_cell_angle_alpha 90.000000
_cell_angle_beta 90.000000
_cell_angle_gamma 90.000000
_cell_volume 1104.201333
_symmetry_space_group_name_H-M "A B M 2"
_symmetry_group_IT_number 39
_symmetry_cell_setting 'orthorhombic'
loop_
_space_group_symop_operation_xyz
x,y,z
-x,-y,z
-x,1/2+y,z
x,1/2-y,z
x,1/2+y,1/2+z
-x,1/2-y,1/2+z
-x,y,1/2+z
x,-y,1/2+z
loop_
_atom_site_type_symbol
_atom_site_label
_atom_site_fract_x
_atom_site_fract_y
_atom_site_fract_z
Si Si1 0.041335 0.250000 0.614491
Si Si2 0.625252 0.750000 0.527962
Si Si3 0.555924 0.250000 0.761961
Si Si4 0.243919 0.750000 0.811401
Si Si5 0.244743 0.750000 0.198067
Si Si6 0.957807 0.250000 0.896646
Si Si7 0.394964 0.250000 0.041817
O O1 0.155828 0.250000 0.626471
O O2 0.014835 0.250000 0.505499
O O3 0.000000 0.500000 0.653708
O O4 0.655947 0.750000 0.639413
O O5 0.508877 0.750000 0.516972
O O6 0.657308 0.483770 0.503136
O O7 0.500000 0.500000 0.774464
O O8 0.643033 0.250000 0.836420
O O9 0.598401 0.250000 0.655410
O O10 0.234896 0.497430 0.755342
O O11 0.157270 0.750000 0.884248
O O12 0.000000 0.500000 0.857615
#
# Coordination Sequence:
#
# PCOD9359663 Si02
#       7
#     4   4   4   4   4   4   4
#     4  10  23  42  61  80 110 156 191 226 292 360
#     4  10  16  25  41  69 101 137 164 212 260 307
#     4  12  18  30  48  78 117 154 184 228 273 342
#     4  12  23  34  58  93 116 149 191 243 296 326
#     4  12  21  34  55  89 119 133 190 245 283 330
#     4  10  23  44  62  80 114 156 195 232 289 365
#     4  10  14  25  41  61 107 137 169 196 263 316
#
# _framework density 25.357690999999999
#
# number of rings (size 3 to 8) (size 9 to 14) (size 15 to 20)
#    0.000    1.143    5.714    2.571    0.000    3.429 
#    0.000    0.000    0.000    0.000    7.429    0.000 
#    0.000    0.000    0.000    0.000    0.000    0.000 
#
# Total GULP energy -78206.284354 kJ/mol
# GULP energy per Si atom -5586.163168 kJ/mol
# Density = 2.529998 g / cm^3
# Si number density = 25.357691 Si / 1000 Ang^3
#
#
#
# Elastic Constant Matrix: (Units=GPa)
#
#
# Indices 1 2 3 4 5 6 
#
# 1 94.3608 48.3431 -2.3770 0.0000 0.0000 0.0000
# 2 48.3431 331.4425 44.3306 0.0000 0.0000 0.0000
# 3 -2.3770 44.3306 60.3543 0.0000 0.0000 0.0000
# 4 0.0000 0.0000 0.0000 4.4834 0.0000 0.0000
# 5 0.0000 0.0000 0.0000 0.0000 36.2332 0.0000
# 6 0.0000 0.0000 0.0000 0.0000 0.0000 40.2197
#
#
#
# Elastic Compliance Matrix: (Units=1/GPa)
#
#
# Indices 1 2 3 4 5 6 
#
# 1 0.011645 -0.001952 0.001892 0.000000 0.000000 0.000000
# 2 -0.001952 0.003673 -0.002775 0.000000 0.000000 0.000000
# 3 0.001892 -0.002775 0.018681 0.000000 0.000000 0.000000
# 4 0.000000 0.000000 0.000000 0.223044 0.000000 0.000000
# 5 0.000000 0.000000 0.000000 0.000000 0.027599 0.000000
# 6 0.000000 0.000000 0.000000 0.000000 0.000000 0.024863
#
#
# Mechanical properties :
#
#
# Convention : Reuss Voigt Hill
#
# Bulk Modulus (GPa) = 35.29694 74.08347 54.69021
# Shear Modulus (GPa) = 15.40272 42.57798 28.99035
#
# Velocity S-wave (km/s) = 2.46726 4.10212 3.38488
# Velocity P-wave (km/s) = 4.69748 7.19134 6.07378
#
# Compressibility (1/GPa) = 0.02833106
#
# Stress axis : x y z
#
# Youngs Moduli (GPa) = 85.87286 272.26650 53.52946
#
# Poissons Ratio (x) = 0.53135 -0.10128
# Poissons Ratio (y) = 0.16759 0.14852
# Poissons Ratio (z) = -0.16248 0.75543
#
# Static dielectric constant tensor:
#      x y z
#    x 1.913460 0.000000 0.000000 
#    y 0.000000 2.001840 0.000000 
#    z 0.000000 0.000000 2.109210 
# 
# From -- ./inp_files/12023.got.cif
#   From: 2010.05.17/outbox.cif.g08.bks.cpg/sg39_7_cif.got.tgz:12023.got - 2010.06.03 18:22:40.
