data_PCOD9359216
_publ_section_title
;
Structure prediction by ZEFSAII (Michael W. Deem and Ramdas Pophale) SiO2 
 PCOD9359216
Probable space group: A M M 2
;
_chemical_formula_sum "Si O2"
_cell_formula_units_Z 48
_cell_length_a 9.696808
_cell_length_b 7.484259
_cell_length_c 35.396245
_cell_angle_alpha 90.000000
_cell_angle_beta 90.000000
_cell_angle_gamma 90.000000
_cell_volume 2568.826645
_symmetry_space_group_name_H-M "A M M 2"
_symmetry_group_IT_number 38
_symmetry_cell_setting 'orthorhombic'
loop_
_space_group_symop_operation_xyz
x,y,z
-x,-y,z
-x,y,z
x,-y,z
x,1/2+y,1/2+z
-x,1/2-y,1/2+z
-x,1/2+y,1/2+z
x,1/2-y,1/2+z
loop_
_atom_site_type_symbol
_atom_site_label
_atom_site_fract_x
_atom_site_fract_y
_atom_site_fract_z
Si Si1 0.342870 0.214411 0.008300
Si Si2 0.342964 0.287212 0.093233
Si Si3 0.836859 0.711351 0.437196
Si Si4 0.835260 0.000000 0.374612
Si Si5 0.338497 0.211878 0.734880
Si Si6 0.663082 0.000000 0.298335
Si Si7 0.841778 0.218197 0.662459
O O1 0.500000 0.282334 0.004922
O O2 0.292821 0.258053 0.050460
O O3 0.347474 0.000000 0.006016
O O4 0.248139 0.273957 0.973781
O O5 0.500000 0.215727 0.096110
O O6 0.352141 0.500000 0.098771
O O7 0.241427 0.219046 0.125546
O O8 0.811221 0.500000 0.431026
O O9 0.000000 0.734106 0.444474
O O10 0.801964 0.828287 0.400630
O O11 0.752537 0.000000 0.335896
O O12 0.000000 0.000000 0.367548
O O13 0.500000 0.240497 0.724788
O O14 0.308927 0.328452 0.771817
O O15 0.242121 0.267024 0.700074
O O16 0.320130 0.000000 0.741675
O O17 0.500000 0.000000 0.307515
O O18 0.000000 0.277897 0.663002
O O19 0.843496 0.000000 0.661596
#
# Coordination Sequence:
#
# PCOD9359216 Si02
#       7
#     8   8   8   4   8   4   8
#     4   9  18  32  49  72 101 133 173 217 259 305
#     4   9  17  29  46  69  99 136 174 214 260 308
#     4   9  19  36  55  75 103 139 174 210 257 313
#     4  10  22  38  56  80 108 138 172 212 262 318
#     4   9  18  35  57  77 103 139 172 209 260 312
#     4  10  22  38  56  84 110 132 172 218 260 314
#     4   9  17  30  49  74 102 134 175 216 255 304
#
# _framework density 18.685575
#
# number of rings (size 3 to 8) (size 9 to 14) (size 15 to 20)
#    0.000    2.833    0.000    0.500    1.167    4.667 
#    1.500    0.000    0.000    0.000    0.000    0.000 
#    0.000    0.000    0.000    0.000    0.000    0.000 
#
# Total GULP energy -133898.761196 kJ/mol
# GULP energy per Si atom -5579.115050 kJ/mol
# Density = 1.864305 g / cm^3
# Si number density = 18.685575 Si / 1000 Ang^3
#
#
#
# Elastic Constant Matrix: (Units=GPa)
#
#
# Indices 1 2 3 4 5 6 
#
# 1 99.6229 40.4385 121.9968 0.0000 0.0000 0.0000
# 2 40.4385 67.8676 51.6458 0.0000 0.0000 0.0000
# 3 121.9968 51.6458 207.8712 0.0000 0.0000 0.0000
# 4 0.0000 0.0000 0.0000 34.6827 0.0000 0.0000
# 5 0.0000 0.0000 0.0000 0.0000 73.3441 0.0000
# 6 0.0000 0.0000 0.0000 0.0000 0.0000 -3.7757
#
#
#
# Elastic Compliance Matrix: (Units=1/GPa)
#
#
# Indices 1 2 3 4 5 6 
#
# 1 0.038225 -0.007035 -0.020686 0.000000 0.000000 0.000000
# 2 -0.007035 0.019464 -0.000707 0.000000 0.000000 0.000000
# 3 -0.020686 -0.000707 0.017127 0.000000 0.000000 0.000000
# 4 0.000000 0.000000 0.000000 0.028833 0.000000 0.000000
# 5 0.000000 0.000000 0.000000 0.000000 0.013634 0.000000
# 6 0.000000 0.000000 0.000000 0.000000 0.000000 -0.264852
#
#
# Mechanical properties :
#
#
# Convention : Reuss Voigt Hill
#
# Bulk Modulus (GPa) = 55.67866 89.28044 72.47955
# Shear Modulus (GPa) = -59.01429 31.60227 -13.70601
#
# Velocity S-wave (km/s) = -5.62595 4.11696 -2.71127
# Velocity P-wave (km/s) = 3.51276 8.39543 5.39184
#
# Compressibility (1/GPa) = 0.01796020
#
# Stress axis : x y z
#
# Youngs Moduli (GPa) = 26.16074 51.37578 58.38788
#
# Poissons Ratio (x) = 0.36141 1.20782
# Poissons Ratio (y) = 0.18403 0.04131
# Poissons Ratio (z) = 0.54116 0.03635
#
# Static dielectric constant tensor:
#      x y z
#    x 1.636180 0.000000 0.000000 
#    y 0.000000 1.680510 0.000000 
#    z 0.000000 0.000000 1.601850 
# 
# From -- ./inp_files/24329.got.cif
#   From: 2010.05.17/outbox.cif.g08.bks.cpg/sg38_13_cif.got.tgz:24329.got - 2010.06.03 18:07:57.
