data_PCOD9359115
_publ_section_title
;
Structure prediction by ZEFSAII (Michael W. Deem and Ramdas Pophale) SiO2 
 PCOD9359115
Probable space group: A M M 2
;
_chemical_formula_sum "Si O2"
_cell_formula_units_Z 56
_cell_length_a 19.820064
_cell_length_b 8.937927
_cell_length_c 16.192313
_cell_angle_alpha 90.000000
_cell_angle_beta 90.000000
_cell_angle_gamma 90.000000
_cell_volume 2868.472865
_symmetry_space_group_name_H-M "A M M 2"
_symmetry_group_IT_number 38
_symmetry_cell_setting 'orthorhombic'
loop_
_space_group_symop_operation_xyz
x,y,z
-x,-y,z
-x,y,z
x,-y,z
x,1/2+y,1/2+z
-x,1/2-y,1/2+z
-x,1/2+y,1/2+z
x,1/2-y,1/2+z
loop_
_atom_site_type_symbol
_atom_site_label
_atom_site_fract_x
_atom_site_fract_y
_atom_site_fract_z
Si Si1 0.346732 0.821454 0.626080
Si Si2 0.076185 0.175092 0.110357
Si Si3 0.660555 0.320985 0.796266
Si Si4 0.208408 0.823559 0.541490
Si Si5 0.075999 0.325209 0.809559
Si Si6 0.422262 0.182237 0.458499
Si Si7 0.789294 0.176255 0.867191
O O1 0.367220 0.740617 0.710009
O O2 0.267460 0.794949 0.607482
O O3 0.386646 0.771759 0.543920
O O4 0.356259 0.000000 0.635413
O O5 0.135374 0.274005 0.073186
O O6 0.078728 0.184472 0.209950
O O7 0.000000 0.217779 0.084690
O O8 0.086627 0.000000 0.088277
O O9 0.661625 0.500000 0.795054
O O10 0.617780 0.270333 0.876376
O O11 0.736038 0.259422 0.808831
O O12 0.225139 0.731334 0.459657
O O13 0.209891 0.000000 0.521833
O O14 0.086657 0.500000 0.831620
O O15 0.134777 0.226093 0.846768
O O16 0.000000 0.282713 0.835313
O O17 0.500000 0.229621 0.455965
O O18 0.420627 0.000000 0.458323
O O19 0.781444 0.000000 0.858571
#
# Coordination Sequence:
#
# PCOD9359115 Si02
#       7
#     8   8   8   8   8   8   8
#     4  10  21  39  62  91 123 159 203 248 298 359
#     4   9  19  36  56  80 111 148 192 243 298 357
#     4  11  22  39  63  92 124 162 205 249 301 360
#     4  11  22  37  57  82 114 153 199 249 301 358
#     4   9  19  37  59  82 112 151 195 245 302 362
#     4   9  19  39  65  91 125 165 200 241 298 362
#     4  12  24  37  57  84 116 155 201 253 304 355
#
# _framework density 19.522583000000001
#
# number of rings (size 3 to 8) (size 9 to 14) (size 15 to 20)
#    0.000    1.857    1.429    3.857    0.000    5.714 
#    0.000    1.429    0.000    3.000    0.000    0.000 
#    0.000    0.000    0.000    0.000    0.000    0.000 
#
# Total GULP energy -156424.854262 kJ/mol
# GULP energy per Si atom -5586.601938 kJ/mol
# Density = 1.947815 g / cm^3
# Si number density = 19.522583 Si / 1000 Ang^3
#
#
#
# Elastic Constant Matrix: (Units=GPa)
#
#
# Indices 1 2 3 4 5 6 
#
# 1 104.4515 36.8416 49.9023 0.0000 0.0000 0.0000
# 2 36.8416 53.2008 43.6178 0.0000 0.0000 0.0000
# 3 49.9023 43.6178 122.4000 0.0000 0.0000 0.0000
# 4 0.0000 0.0000 0.0000 29.1238 0.0000 0.0000
# 5 0.0000 0.0000 0.0000 0.0000 15.2217 0.0000
# 6 0.0000 0.0000 0.0000 0.0000 0.0000 12.8558
#
#
#
# Elastic Compliance Matrix: (Units=1/GPa)
#
#
# Indices 1 2 3 4 5 6 
#
# 1 0.013430 -0.006797 -0.003053 0.000000 0.000000 0.000000
# 2 -0.006797 0.029995 -0.007918 0.000000 0.000000 0.000000
# 3 -0.003053 -0.007918 0.012236 0.000000 0.000000 0.000000
# 4 0.000000 0.000000 0.000000 0.034336 0.000000 0.000000
# 5 0.000000 0.000000 0.000000 0.000000 0.065696 0.000000
# 6 0.000000 0.000000 0.000000 0.000000 0.000000 0.077786
#
#
# Mechanical properties :
#
#
# Convention : Reuss Voigt Hill
#
# Bulk Modulus (GPa) = 49.68849 60.08618 54.88733
# Shear Modulus (GPa) = 18.13410 21.41963 19.77686
#
# Velocity S-wave (km/s) = 3.05106 3.31595 3.18626
# Velocity P-wave (km/s) = 6.15784 6.74576 6.45849
#
# Compressibility (1/GPa) = 0.02012539
#
# Stress axis : x y z
#
# Youngs Moduli (GPa) = 74.46067 33.33862 81.72420
#
# Poissons Ratio (x) = 0.22660 0.24952
# Poissons Ratio (y) = 0.50611 0.64708
# Poissons Ratio (z) = 0.22734 0.26397
#
# Static dielectric constant tensor:
#      x y z
#    x 1.679540 0.000000 0.000000 
#    y 0.000000 1.655920 0.000000 
#    z 0.000000 0.000000 1.691250 
# 
# From -- ./inp_files/15434.got.cif
#   From: 2010.05.17/outbox.cif.g08.bks.cpg/sg38_8_cif.got.tgz:15434.got - 2010.06.03 18:07:57.
