data_PCOD9359192
_publ_section_title
;
Structure prediction by ZEFSAII (Michael W. Deem and Ramdas Pophale) SiO2 
 PCOD9359192
Probable space group: A M M 2
;
_chemical_formula_sum "Si O2"
_cell_formula_units_Z 32
_cell_length_a 10.260492
_cell_length_b 16.606551
_cell_length_c 9.556676
_cell_angle_alpha 90.000000
_cell_angle_beta 90.000000
_cell_angle_gamma 90.000000
_cell_volume 1628.375247
_symmetry_space_group_name_H-M "A M M 2"
_symmetry_group_IT_number 38
_symmetry_cell_setting 'orthorhombic'
loop_
_space_group_symop_operation_xyz
x,y,z
-x,-y,z
-x,y,z
x,-y,z
x,1/2+y,1/2+z
-x,1/2-y,1/2+z
-x,1/2+y,1/2+z
x,1/2-y,1/2+z
loop_
_atom_site_type_symbol
_atom_site_label
_atom_site_fract_x
_atom_site_fract_y
_atom_site_fract_z
Si Si1 0.000000 0.401877 0.202621
Si Si2 0.158956 0.833154 0.157387
Si Si3 0.759955 0.184710 0.841074
Si Si4 0.239120 0.500000 0.786789
Si Si5 0.500000 0.407413 0.247876
Si Si6 0.500000 0.500000 0.968155
Si Si7 0.000000 0.500000 0.992218
O O1 0.874082 0.371376 0.277932
O O2 0.000000 0.500000 0.187367
O O3 0.000000 0.398250 0.036962
O O4 0.216663 0.770222 0.268311
O O5 0.000000 0.830461 0.156757
O O6 0.210947 0.921459 0.194414
O O7 0.214034 0.809847 0.005420
O O8 0.625610 0.141950 0.798365
O O9 0.376081 0.500000 0.866968
O O10 0.132622 0.500000 0.908169
O O11 0.500000 0.500000 0.305604
O O12 0.500000 0.425044 0.079494
#
# Coordination Sequence:
#
# PCOD9359192 Si02
#       7
#     4   8   8   4   4   2   2
#     4  10  22  36  72  98 136 190 242 288 356 424
#     4  12  27  46  74 109 150 187 248 304 360 424
#     4  12  26  44  73 103 151 189 240 300 363 421
#     4  12  26  44  73 103 151 189 240 300 363 421
#     4  10  26  48  74 104 146 192 242 288 362 454
#     4  10  26  48  74 104 146 192 242 288 362 454
#     4  10  22  36  72  98 136 190 242 288 356 424
#
# _framework density 19.651489999999999
#
# number of rings (size 3 to 8) (size 9 to 14) (size 15 to 20)
#    0.750    0.000    3.750    2.250   10.500    3.000 
#    0.000    0.000    0.000    0.000    0.000    0.000 
#    0.000    0.000    0.000    0.000    0.000    0.000 
#
# Total GULP energy -89228.334510 kJ/mol
# GULP energy per Si atom -5576.770907 kJ/mol
# Density = 1.960676 g / cm^3
# Si number density = 19.651490 Si / 1000 Ang^3
#
#
#
# Elastic Constant Matrix: (Units=GPa)
#
#
# Indices 1 2 3 4 5 6 
#
# 1 183.0813 65.5032 66.4427 0.0000 0.0000 0.0000
# 2 65.5032 160.6319 77.4877 0.0000 0.0000 0.0000
# 3 66.4427 77.4877 155.4181 0.0000 0.0000 0.0000
# 4 0.0000 0.0000 0.0000 50.4701 0.0000 0.0000
# 5 0.0000 0.0000 0.0000 0.0000 32.0607 0.0000
# 6 0.0000 0.0000 0.0000 0.0000 0.0000 39.4377
#
#
#
# Elastic Compliance Matrix: (Units=1/GPa)
#
#
# Indices 1 2 3 4 5 6 
#
# 1 0.006845 -0.001817 -0.002021 0.000000 0.000000 0.000000
# 2 -0.001817 0.008679 -0.003550 0.000000 0.000000 0.000000
# 3 -0.002021 -0.003550 0.009068 0.000000 0.000000 0.000000
# 4 0.000000 0.000000 0.000000 0.019814 0.000000 0.000000
# 5 0.000000 0.000000 0.000000 0.000000 0.031191 0.000000
# 6 0.000000 0.000000 0.000000 0.000000 0.000000 0.025356
#
#
# Mechanical properties :
#
#
# Convention : Reuss Voigt Hill
#
# Bulk Modulus (GPa) = 101.86487 101.99984 101.93235
# Shear Modulus (GPa) = 42.01623 43.70687 42.86155
#
# Velocity S-wave (km/s) = 4.62894 4.72115 4.67527
# Velocity P-wave (km/s) = 8.97317 9.04080 9.00705
#
# Compressibility (1/GPa) = 0.00981693
#
# Stress axis : x y z
#
# Youngs Moduli (GPa) = 146.08418 115.22140 110.27407
#
# Poissons Ratio (x) = 0.20932 0.22283
# Poissons Ratio (y) = 0.26538 0.39153
# Poissons Ratio (z) = 0.29520 0.40909
#
# Static dielectric constant tensor:
#      x y z
#    x 1.648340 0.000000 0.000000 
#    y 0.000000 1.733300 0.000000 
#    z 0.000000 0.000000 1.724020 
# 
# From -- ./inp_files/7640.got.cif
#   From: 2010.05.17/outbox.cif.g08.bks.cpg/sg38_4_cif.got.tgz:7640.got - 2010.06.03 18:07:57.
