data_PCOD9359943
_publ_section_title
;
Structure prediction by ZEFSAII (Michael W. Deem and Ramdas Pophale) SiO2 
 PCOD9359943
Probable space group: A B M 2
;
_chemical_formula_sum "Si O2"
_cell_formula_units_Z 56
_cell_length_a 15.695088
_cell_length_b 8.816377
_cell_length_c 20.872223
_cell_angle_alpha 90.000000
_cell_angle_beta 90.000000
_cell_angle_gamma 90.000000
_cell_volume 2888.169079
_symmetry_space_group_name_H-M "A B M 2"
_symmetry_group_IT_number 39
_symmetry_cell_setting 'orthorhombic'
loop_
_space_group_symop_operation_xyz
x,y,z
-x,-y,z
-x,1/2+y,z
x,1/2-y,z
x,1/2+y,1/2+z
-x,1/2-y,1/2+z
-x,y,1/2+z
x,-y,1/2+z
loop_
_atom_site_type_symbol
_atom_site_label
_atom_site_fract_x
_atom_site_fract_y
_atom_site_fract_z
Si Si1 0.589651 0.069019 0.133160
Si Si2 0.765264 0.933510 0.085434
Si Si3 0.089638 0.933599 0.686580
Si Si4 0.630272 0.928697 0.270624
Si Si5 0.225932 0.931433 0.443830
Si Si6 0.826216 0.427715 0.813293
Si Si7 0.415453 0.431119 0.905578
O O1 0.586629 0.250000 0.130244
O O2 0.500000 0.000000 0.109881
O O3 0.673032 0.006134 0.097168
O O4 0.602237 0.012951 0.206556
O O5 0.754900 0.750000 0.087725
O O6 0.832517 0.977382 0.140123
O O7 0.800735 0.975644 0.015276
O O8 0.086629 0.750000 0.686960
O O9 0.110175 0.987288 0.758985
O O10 0.000000 0.000000 0.664814
O O11 0.608798 0.750000 0.266312
O O12 0.732035 0.941181 0.281698
O O13 0.591042 0.003404 0.333727
O O14 0.221956 0.750000 0.439043
O O15 0.325771 0.975304 0.437275
O O16 0.176888 0.996650 0.382734
O O17 0.842606 0.250000 0.822730
O O18 0.500000 0.500000 0.936558
O O19 0.421477 0.250000 0.904286
#
# Coordination Sequence:
#
# PCOD9359943 Si02
#       7
#     8   8   8   8   8   8   8
#     4  12  24  36  54  82 116 157 202 247 294 347
#     4  10  21  42  62  83 120 159 198 243 296 350
#     4  10  21  39  64  92 119 152 192 241 297 354
#     4  10  18  33  54  77 109 149 190 240 296 342
#     4   9  20  36  58  82 111 153 193 238 290 345
#     4   9  18  35  59  85 114 148 185 235 291 344
#     4  10  19  31  47  75 108 145 194 241 289 341
#
# _framework density 19.389447000000001
#
# number of rings (size 3 to 8) (size 9 to 14) (size 15 to 20)
#    0.000    2.000    1.429    2.571    0.000    3.429 
#    0.000    2.143    0.000    3.429    0.000    0.000 
#    0.000    0.000    0.000    0.000    0.000    0.000 
#
# Total GULP energy -156335.416435 kJ/mol
# GULP energy per Si atom -5583.407730 kJ/mol
# Density = 1.934532 g / cm^3
# Si number density = 19.389447 Si / 1000 Ang^3
#
#
#
# Elastic Constant Matrix: (Units=GPa)
#
#
# Indices 1 2 3 4 5 6 
#
# 1 73.2137 26.3218 40.8905 0.0000 0.0000 0.0000
# 2 26.3218 46.1225 29.7922 0.0000 0.0000 0.0000
# 3 40.8905 29.7922 126.7073 0.0000 0.0000 0.0000
# 4 0.0000 0.0000 0.0000 21.6625 0.0000 0.0000
# 5 0.0000 0.0000 0.0000 0.0000 -3.7947 0.0000
# 6 0.0000 0.0000 0.0000 0.0000 0.0000 25.7420
#
#
#
# Elastic Compliance Matrix: (Units=1/GPa)
#
#
# Indices 1 2 3 4 5 6 
#
# 1 0.018910 -0.008077 -0.004204 0.000000 0.000000 0.000000
# 2 -0.008077 0.029014 -0.004215 0.000000 0.000000 0.000000
# 3 -0.004204 -0.004215 0.010240 0.000000 0.000000 0.000000
# 4 0.000000 0.000000 0.000000 0.046163 0.000000 0.000000
# 5 0.000000 0.000000 0.000000 0.000000 -0.263522 0.000000
# 6 0.000000 0.000000 0.000000 0.000000 0.000000 0.038847
#
#
# Mechanical properties :
#
#
# Convention : Reuss Voigt Hill
#
# Bulk Modulus (GPa) = 39.72606 48.89473 44.31039
# Shear Modulus (GPa) = -63.31759 18.65787 -22.32986
#
# Velocity S-wave (km/s) = -5.72072 3.10541 -3.39728
# Velocity P-wave (km/s) = 4.80650 6.17495 2.74113
#
# Compressibility (1/GPa) = 0.02517239
#
# Stress axis : x y z
#
# Youngs Moduli (GPa) = 52.88182 34.46668 97.65706
#
# Poissons Ratio (x) = 0.27837 0.41051
# Poissons Ratio (y) = 0.42711 0.41166
# Poissons Ratio (z) = 0.22229 0.14529
#
# Static dielectric constant tensor:
#      x y z
#    x 1.695800 0.000000 0.000000 
#    y 0.000000 1.650570 0.000000 
#    z 0.000000 0.000000 1.685990 
# 
# From -- ./inp_files/14730.got.cif
#   From: 2010.05.17/outbox.cif.g08.bks.cpg/sg39_8_cif.got.tgz:14730.got - 2010.06.03 18:22:40.
