data_PCOD9359412
_publ_section_title
;
Structure prediction by ZEFSAII (Michael W. Deem and Ramdas Pophale) SiO2 
 PCOD9359412
Probable space group: A M M 2
;
_chemical_formula_sum "Si O2"
_cell_formula_units_Z 48
_cell_length_a 8.475231
_cell_length_b 17.169572
_cell_length_c 18.936354
_cell_angle_alpha 90.000000
_cell_angle_beta 90.000000
_cell_angle_gamma 90.000000
_cell_volume 2755.544172
_symmetry_space_group_name_H-M "A M M 2"
_symmetry_group_IT_number 38
_symmetry_cell_setting 'orthorhombic'
loop_
_space_group_symop_operation_xyz
x,y,z
-x,-y,z
-x,y,z
x,-y,z
x,1/2+y,1/2+z
-x,1/2-y,1/2+z
-x,1/2+y,1/2+z
x,1/2-y,1/2+z
loop_
_atom_site_type_symbol
_atom_site_label
_atom_site_fract_x
_atom_site_fract_y
_atom_site_fract_z
Si Si1 0.692723 0.500000 0.111990
Si Si2 0.690795 0.178962 0.215683
Si Si3 0.309471 0.260624 0.491976
Si Si4 0.308022 0.829932 0.633727
Si Si5 0.186765 0.845329 0.372370
Si Si6 0.692370 0.088147 0.075088
Si Si7 0.311268 0.000000 0.448004
O O1 0.500000 0.500000 0.114186
O O2 0.746419 0.581820 0.144678
O O3 0.739690 0.500000 0.029700
O O4 0.500000 0.177839 0.218486
O O5 0.742124 0.264913 0.189738
O O6 0.755058 0.159372 0.292134
O O7 0.738103 0.119954 0.152728
O O8 0.500000 0.259889 0.487932
O O9 0.264000 0.202040 0.555983
O O10 0.243423 0.227865 0.419267
O O11 0.259201 0.346554 0.518005
O O12 0.500000 0.830223 0.634580
O O13 0.253836 0.922802 0.408983
O O14 0.000000 0.848725 0.373694
O O15 0.500000 0.087717 0.074228
O O16 0.746736 0.000000 0.062762
O O17 0.500000 0.000000 0.448066
#
# Coordination Sequence:
#
# PCOD9359412 Si02
#       7
#     4   8   8   8   8   8   4
#     4   9  14  25  53  83 101 116 155 216 265 299
#     4   9  18  32  52  75 102 136 172 207 257 311
#     4   9  16  31  54  76 100 134 174 211 257 308
#     4   8  14  27  49  78 101 124 166 217 255 299
#     4  12  24  35  48  74 112 141 170 207 251 308
#     4   8  15  29  53  83 104 123 168 228 264 294
#     4  11  21  35  57  79 103 134 167 206 259 307
#
# _framework density 17.419426999999999
#
# number of rings (size 3 to 8) (size 9 to 14) (size 15 to 20)
#    0.000    2.667    1.667    3.750    1.167    0.000 
#    0.000    3.333    1.833    1.500    0.000    0.000 
#    0.000    0.000    0.000    0.000    0.000    0.000 
#
# Total GULP energy -133779.399079 kJ/mol
# GULP energy per Si atom -5574.141628 kJ/mol
# Density = 1.737978 g / cm^3
# Si number density = 17.419427 Si / 1000 Ang^3
#
#
#
# Elastic Constant Matrix: (Units=GPa)
#
#
# Indices 1 2 3 4 5 6 
#
# 1 23.8565 16.0631 15.7147 0.0000 0.0000 0.0000
# 2 16.0631 148.6983 36.5488 0.0000 0.0000 0.0000
# 3 15.7147 36.5488 66.9445 0.0000 0.0000 0.0000
# 4 0.0000 0.0000 0.0000 21.7835 0.0000 0.0000
# 5 0.0000 0.0000 0.0000 0.0000 -25.7750 0.0000
# 6 0.0000 0.0000 0.0000 0.0000 0.0000 1.3853
#
#
#
# Elastic Compliance Matrix: (Units=1/GPa)
#
#
# Indices 1 2 3 4 5 6 
#
# 1 0.050678 -0.002946 -0.010288 0.000000 0.000000 0.000000
# 2 -0.002946 0.007939 -0.003643 0.000000 0.000000 0.000000
# 3 -0.010288 -0.003643 0.019341 0.000000 0.000000 0.000000
# 4 0.000000 0.000000 0.000000 0.045906 0.000000 0.000000
# 5 0.000000 0.000000 0.000000 0.000000 -0.038797 0.000000
# 6 0.000000 0.000000 0.000000 0.000000 0.000000 0.721844
#
#
# Mechanical properties :
#
#
# Convention : Reuss Voigt Hill
#
# Bulk Modulus (GPa) = 22.62182 41.79471 32.20827
# Shear Modulus (GPa) = 5.84523 10.89028 8.36775
#
# Velocity S-wave (km/s) = 1.83381 2.50307 2.19411
# Velocity P-wave (km/s) = 4.18313 5.69202 4.99488
#
# Compressibility (1/GPa) = 0.04420510
#
# Stress axis : x y z
#
# Youngs Moduli (GPa) = 19.73257 125.96736 51.70242
#
# Poissons Ratio (x) = 0.37107 0.53191
# Poissons Ratio (y) = 0.05813 0.18833
# Poissons Ratio (z) = 0.20301 0.45885
#
# Static dielectric constant tensor:
#      x y z
#    x 1.587570 0.000000 0.000000 
#    y 0.000000 1.613280 0.000000 
#    z 0.000000 0.000000 1.564070 
# 
# From -- ./inp_files/16665.got.cif
#   From: 2010.05.17/outbox.cif.g08.bks.cpg/sg38_9_cif.got.tgz:16665.got - 2010.06.03 18:07:57.
