data_PCOD9359816
_publ_section_title
;
Structure prediction by ZEFSAII (Michael W. Deem and Ramdas Pophale) SiO2 
 PCOD9359816
Probable space group: A B M 2
;
_chemical_formula_sum "Si O2"
_cell_formula_units_Z 56
_cell_length_a 10.065654
_cell_length_b 27.760381
_cell_length_c 9.370151
_cell_angle_alpha 90.000000
_cell_angle_beta 90.000000
_cell_angle_gamma 90.000000
_cell_volume 2618.267468
_symmetry_space_group_name_H-M "A B M 2"
_symmetry_group_IT_number 39
_symmetry_cell_setting 'orthorhombic'
loop_
_space_group_symop_operation_xyz
x,y,z
-x,-y,z
-x,1/2+y,z
x,1/2-y,z
x,1/2+y,1/2+z
-x,1/2-y,1/2+z
-x,y,1/2+z
x,-y,1/2+z
loop_
_atom_site_type_symbol
_atom_site_label
_atom_site_fract_x
_atom_site_fract_y
_atom_site_fract_z
Si Si1 0.754325 0.132277 0.588170
Si Si2 0.801400 0.056335 0.359733
Si Si3 0.476477 0.691866 0.499721
Si Si4 0.089523 0.604868 0.852726
Si Si5 0.065777 0.192730 0.892226
Si Si6 0.861397 0.026658 0.079118
Si Si7 0.681104 0.192313 0.211448
O O1 0.875906 0.077231 0.997128
O O2 0.625998 0.165044 0.605144
O O3 0.809613 0.101872 0.720885
O O4 0.866495 0.169773 0.532837
O O5 0.729667 0.095813 0.455981
O O6 0.759909 0.036292 0.207086
O O7 0.815342 0.010472 0.459864
O O8 0.465091 0.750000 0.512895
O O9 0.421391 0.680654 0.341444
O O10 0.620568 0.676349 0.559863
O O11 0.065340 0.661689 0.871755
O O12 0.945737 0.580201 0.822578
O O13 0.049914 0.250000 0.901405
O O14 0.171364 0.179993 0.765603
O O15 0.000000 0.000000 0.128559
O O16 0.684962 0.250000 0.205082
#
# Coordination Sequence:
#
# PCOD9359816 Si02
#       7
#     8   8   8   8   8   8   8
#     4  10  19  31  47  71 105 137 167 203 258 314
#     4  10  18  30  48  69  98 129 161 203 249 301
#     4   9  17  32  52  72  98 134 177 221 258 296
#     4  10  19  30  46  72 106 137 169 204 247 310
#     4   9  18  31  47  68  99 139 176 212 255 299
#     4  10  18  30  49  71  99 133 168 207 247 297
#     4   8  15  30  51  69  88 123 172 219 256 290
#
# _framework density 21.388190000000002
#
# number of rings (size 3 to 8) (size 9 to 14) (size 15 to 20)
#    0.000    2.571    0.000    6.000    0.000    1.143 
#    0.000    7.143    0.000    2.571    0.000    0.000 
#    0.000  182.857    0.000    0.000    0.000    0.000 
#
# Total GULP energy -155915.810395 kJ/mol
# GULP energy per Si atom -5568.421800 kJ/mol
# Density = 2.133951 g / cm^3
# Si number density = 21.388190 Si / 1000 Ang^3
#
#
#
# Elastic Constant Matrix: (Units=GPa)
#
#
# Indices 1 2 3 4 5 6 
#
# 1 21.0129 17.3979 16.3696 0.0000 0.0000 0.0000
# 2 17.3979 93.6415 52.2836 0.0000 0.0000 0.0000
# 3 16.3696 52.2836 71.3210 0.0000 0.0000 0.0000
# 4 0.0000 0.0000 0.0000 24.1713 0.0000 0.0000
# 5 0.0000 0.0000 0.0000 0.0000 13.6378 0.0000
# 6 0.0000 0.0000 0.0000 0.0000 0.0000 10.5713
#
#
#
# Elastic Compliance Matrix: (Units=1/GPa)
#
#
# Indices 1 2 3 4 5 6 
#
# 1 0.059777 -0.005833 -0.009444 0.000000 0.000000 0.000000
# 2 -0.005833 0.018648 -0.012331 0.000000 0.000000 0.000000
# 3 -0.009444 -0.012331 0.025229 0.000000 0.000000 0.000000
# 4 0.000000 0.000000 0.000000 0.041371 0.000000 0.000000
# 5 0.000000 0.000000 0.000000 0.000000 0.073326 0.000000
# 6 0.000000 0.000000 0.000000 0.000000 0.000000 0.094596
#
#
# Mechanical properties :
#
#
# Convention : Reuss Voigt Hill
#
# Bulk Modulus (GPa) = 20.64577 39.78640 30.21609
# Shear Modulus (GPa) = 13.01040 16.33769 14.67404
#
# Velocity S-wave (km/s) = 2.46905 2.76681 2.62216
# Velocity P-wave (km/s) = 4.21925 5.37116 4.82967
#
# Compressibility (1/GPa) = 0.04843606
#
# Stress axis : x y z
#
# Youngs Moduli (GPa) = 16.72898 53.62525 39.63768
#
# Poissons Ratio (x) = 0.31281 0.37433
# Poissons Ratio (y) = 0.09758 0.48879
# Poissons Ratio (z) = 0.15798 0.66128
#
# Static dielectric constant tensor:
#      x y z
#    x 1.790200 0.000000 0.000000 
#    y 0.000000 1.796830 0.000000 
#    z 0.000000 0.000000 1.874640 
# 
# From -- ./inp_files/6105.got.cif
#   From: 2010.05.17/outbox.cif.g08.bks.cpg/sg39_4_cif.got.tgz:6105.got - 2010.06.03 18:22:40.
