data_PCOD9359574
_publ_section_title
;
Structure prediction by ZEFSAII (Michael W. Deem and Ramdas Pophale) SiO2 
 PCOD9359574
Probable space group: A M M 2
;
_chemical_formula_sum "Si O2"
_cell_formula_units_Z 32
_cell_length_a 21.000000
_cell_length_b 18.000000
_cell_length_c 9.000000
_cell_angle_alpha 90.000000
_cell_angle_beta 90.000000
_cell_angle_gamma 90.000000
_cell_volume 3402.000000
_symmetry_space_group_name_H-M "A M M 2"
_symmetry_group_IT_number 38
_symmetry_cell_setting 'orthorhombic'
loop_
_space_group_symop_operation_xyz
x,y,z
-x,-y,z
-x,y,z
x,-y,z
x,1/2+y,1/2+z
-x,1/2-y,1/2+z
-x,1/2+y,1/2+z
x,1/2-y,1/2+z
loop_
_atom_site_type_symbol
_atom_site_label
_atom_site_fract_x
_atom_site_fract_y
_atom_site_fract_z
Si Si1 0.812397 0.084513 0.496190
Si Si2 0.808318 0.671131 0.284408
Si Si3 0.929633 0.349165 0.858837
Si Si4 0.427131 0.810886 0.290545
Si Si5 0.325440 0.413963 0.949824
Si Si6 0.315324 0.917456 0.798809
Si Si7 0.122305 0.720589 0.573090
Si Si8 0.427868 0.345359 0.444899
O O1 0.829596 0.110839 0.661678
O O2 0.871386 0.096245 0.389452
O O3 0.746518 0.119913 0.437285
O O4 0.794669 0.000000 0.508562
O O5 0.736331 0.647728 0.318503
O O6 0.845549 0.674854 0.439466
O O7 0.824063 0.744162 0.184613
O O8 0.922783 0.319861 0.690685
O O9 0.000000 0.379169 0.884117
O O10 0.915298 0.283815 0.979557
O O11 0.500000 0.830736 0.333512
O O12 0.376526 0.863932 0.368209
O O13 0.417307 0.726320 0.341020
O O14 0.421691 0.818939 0.114099
O O15 0.328999 0.500000 0.896854
O O16 0.336778 0.414262 0.127089
O O17 0.374911 0.904562 0.903841
O O18 0.287400 0.000000 0.824110
O O19 0.500000 0.372449 0.422088
#
# Coordination Sequence:
#
# PCOD9359574 Si02
#       8
#     8   8   8   8   8   8   8   8
#     4   9  19  36  55  75 105 144 180 215 258 312
#     4   9  18  34  54  79 109 136 173 217 264 321
#     4  10  19  33  54  78 106 137 174 218 262 314
#     4  10  21  37  56  79 107 139 177 220 269 322
#     4   9  19  36  56  79 107 139 176 217 263 317
#     4  10  21  36  55  77 104 141 180 219 264 317
#     4   9  19  33  53  82 108 135 168 214 272 319
#     4  10  22  37  53  75 104 138 176 221 268 317
#
# _framework density 9.4062319999999993
#
# number of rings (size 3 to 8) (size 9 to 14) (size 15 to 20)
#    0.000    2.500    0.000    2.250    0.000    8.750 
#    0.000    5.625    0.000    0.000    0.000    0.000 
#    0.000    0.000    0.000    0.000    0.000    0.000 
#
# Total GULP energy -178164.413644 kJ/mol
# GULP energy per Si atom -5567.637926 kJ/mol
# Density = 0.938482 g / cm^3
# Si number density = 9.406232 Si / 1000 Ang^3
#
#
#
# Elastic Constant Matrix: (Units=GPa)
#
#
# Indices 1 2 3 4 5 6 
#
# 1 95.6871 30.5470 38.8053 0.0000 0.0000 0.0000
# 2 30.5470 21.6560 4.0510 0.0000 0.0000 0.0000
# 3 38.8053 4.0510 59.5489 0.0000 0.0000 0.0000
# 4 0.0000 0.0000 0.0000 17.8260 0.0000 0.0000
# 5 0.0000 0.0000 0.0000 0.0000 24.3271 0.0000
# 6 0.0000 0.0000 0.0000 0.0000 0.0000 8.2079
#
#
#
# Elastic Compliance Matrix: (Units=1/GPa)
#
#
# Indices 1 2 3 4 5 6 
#
# 1 0.029435 -0.038420 -0.016568 0.000000 0.000000 0.000000
# 2 -0.038420 0.096920 0.018443 0.000000 0.000000 0.000000
# 3 -0.016568 0.018443 0.026335 0.000000 0.000000 0.000000
# 4 0.000000 0.000000 0.000000 0.056098 0.000000 0.000000
# 5 0.000000 0.000000 0.000000 0.000000 0.041106 0.000000
# 6 0.000000 0.000000 0.000000 0.000000 0.000000 0.121835
#
#
# Mechanical properties :
#
#
# Convention : Reuss Voigt Hill
#
# Bulk Modulus (GPa) = 12.56274 35.96654 24.26464
# Shear Modulus (GPa) = 10.60782 16.97145 13.78963
#
# Velocity S-wave (km/s) = 2.37717 3.00682 2.71034
# Velocity P-wave (km/s) = 3.77187 5.58700 4.76663
#
# Compressibility (1/GPa) = 0.07960046
#
# Stress axis : x y z
#
# Youngs Moduli (GPa) = 33.97341 10.31779 37.97284
#
# Poissons Ratio (x) = 0.39641 0.62912
# Poissons Ratio (y) = 1.30526 -0.70034
# Poissons Ratio (z) = 0.56286 -0.19029
#
# Static dielectric constant tensor:
#      x y z
#    x 1.689510 0.000000 0.000000 
#    y 0.000000 1.695310 0.000000 
#    z 0.000000 0.000000 1.620710 
# 
# From -- ./inp_files/6812.got.cif
#   From: 2010.05.17/outbox.ucp.g08.bks.cvg/sg38_4_cif.got.tgz:6812.got - 2010.06.11 10:39:43.
