data_PCOD9359005
_publ_section_title
;
Structure prediction by ZEFSAII (Michael W. Deem and Ramdas Pophale) SiO2 
 PCOD9359005
Probable space group: A M M 2
;
_chemical_formula_sum "Si O2"
_cell_formula_units_Z 48
_cell_length_a 34.462323
_cell_length_b 12.991646
_cell_length_c 4.967874
_cell_angle_alpha 90.000000
_cell_angle_beta 90.000000
_cell_angle_gamma 90.000000
_cell_volume 2224.227977
_symmetry_space_group_name_H-M "A M M 2"
_symmetry_group_IT_number 38
_symmetry_cell_setting 'orthorhombic'
loop_
_space_group_symop_operation_xyz
x,y,z
-x,-y,z
-x,y,z
x,-y,z
x,1/2+y,1/2+z
-x,1/2-y,1/2+z
-x,1/2+y,1/2+z
x,1/2-y,1/2+z
loop_
_atom_site_type_symbol
_atom_site_label
_atom_site_fract_x
_atom_site_fract_y
_atom_site_fract_z
Si Si1 0.289178 0.678601 0.794120
Si Si2 0.455513 0.182105 0.772360
Si Si3 0.348092 0.000000 0.436685
Si Si4 0.876574 0.177168 0.279037
Si Si5 0.042070 0.177090 0.409902
Si Si6 0.794901 0.678982 0.912167
Si Si7 0.399155 0.500000 0.436675
O O1 0.291678 0.723512 0.494655
O O2 0.322598 0.599323 0.864928
O O3 0.246522 0.629968 0.846459
O O4 0.500000 0.145459 0.809155
O O5 0.450775 0.219298 0.466978
O O6 0.424784 0.098351 0.861115
O O7 0.361476 0.000000 0.744800
O O8 0.385623 0.000000 0.244115
O O9 0.876657 0.276803 0.479623
O O10 0.917305 0.122451 0.343924
O O11 0.835469 0.124524 0.342729
O O12 0.042754 0.224237 0.708524
O O13 0.000000 0.125861 0.368122
O O14 0.795196 0.780069 0.716788
#
# Coordination Sequence:
#
# PCOD9359005 Si02
#       7
#     8   8   4   8   8   8   4
#     4  10  21  38  56  75 105 140 178 225 270 317
#     4  10  22  41  65  91 119 153 190 228 271 315
#     4  12  26  38  57  86 112 150 189 220 272 326
#     4   8  12  18  29  46  66  92 134 178 221 281
#     4   8  12  16  22  35  59  90 122 162 214 271
#     4   8  14  25  42  60  79 111 152 197 247 292
#     4  12  25  40  60  88 120 150 186 228 269 318
#
# _framework density 21.58052
#
# number of rings (size 3 to 8) (size 9 to 14) (size 15 to 20)
#    0.000    2.667    0.000    2.250    0.000    4.000 
#    0.000    3.333    0.000    0.000    0.000    0.000 
#    0.000    0.000    0.000    0.750    0.000    3.667 
#
# Total GULP energy -133827.672819 kJ/mol
# GULP energy per Si atom -5576.153034 kJ/mol
# Density = 2.153140 g / cm^3
# Si number density = 21.580520 Si / 1000 Ang^3
#
#
#
# Elastic Constant Matrix: (Units=GPa)
#
#
# Indices 1 2 3 4 5 6 
#
# 1 113.1089 29.8858 -12.8420 0.0000 0.0000 0.0000
# 2 29.8858 41.2385 -8.7314 0.0000 0.0000 0.0000
# 3 -12.8420 -8.7314 77.8228 0.0000 0.0000 0.0000
# 4 0.0000 0.0000 0.0000 4.2584 0.0000 0.0000
# 5 0.0000 0.0000 0.0000 0.0000 37.6198 0.0000
# 6 0.0000 0.0000 0.0000 0.0000 0.0000 -42.6445
#
#
#
# Elastic Compliance Matrix: (Units=1/GPa)
#
#
# Indices 1 2 3 4 5 6 
#
# 1 0.011002 -0.007774 0.000943 0.000000 0.000000 0.000000
# 2 -0.007774 0.030332 0.002120 0.000000 0.000000 0.000000
# 3 0.000943 0.002120 0.013243 0.000000 0.000000 0.000000
# 4 0.000000 0.000000 0.000000 0.234828 0.000000 0.000000
# 5 0.000000 0.000000 0.000000 0.000000 0.026582 0.000000
# 6 0.000000 0.000000 0.000000 0.000000 0.000000 -0.023450
#
#
# Mechanical properties :
#
#
# Convention : Reuss Voigt Hill
#
# Bulk Modulus (GPa) = 22.14482 27.64388 24.89435
# Shear Modulus (GPa) = 15.77244 14.77060 15.27152
#
# Velocity S-wave (km/s) = 2.70638 2.61902 2.66306
# Velocity P-wave (km/s) = 4.47770 4.68862 4.58437
#
# Compressibility (1/GPa) = 0.04515728
#
# Stress axis : x y z
#
# Youngs Moduli (GPa) = 90.89192 32.96890 75.51004
#
# Poissons Ratio (x) = 0.25628 -0.07123
# Poissons Ratio (y) = 0.70655 -0.16011
# Poissons Ratio (z) = -0.08574 -0.06990
#
# Static dielectric constant tensor:
#      x y z
#    x 1.877690 0.000000 0.000000 
#    y 0.000000 2.361630 0.000000 
#    z 0.000000 0.000000 1.725580 
# 
# From -- ./inp_files/2277.got.cif
#   From: 2010.05.17/outbox.cif.g08.bks.cpg/sg38_2_cif.got.tgz:2277.got - 2010.06.03 18:07:57.
