data_PCOD9359739
_publ_section_title
;
Structure prediction by ZEFSAII (Michael W. Deem and Ramdas Pophale) SiO2 
 PCOD9359739
Probable space group: A B M 2
;
_chemical_formula_sum "Si O2"
_cell_formula_units_Z 64
_cell_length_a 15.610663
_cell_length_b 8.717884
_cell_length_c 31.536559
_cell_angle_alpha 90.000000
_cell_angle_beta 90.000000
_cell_angle_gamma 90.000000
_cell_volume 4291.871785
_symmetry_space_group_name_H-M "A B M 2"
_symmetry_group_IT_number 39
_symmetry_cell_setting 'orthorhombic'
loop_
_space_group_symop_operation_xyz
x,y,z
-x,-y,z
-x,1/2+y,z
x,1/2-y,z
x,1/2+y,1/2+z
-x,1/2-y,1/2+z
-x,y,1/2+z
x,-y,1/2+z
loop_
_atom_site_type_symbol
_atom_site_label
_atom_site_fract_x
_atom_site_fract_y
_atom_site_fract_z
Si Si1 0.087550 0.074910 0.722400
Si Si2 0.403502 0.066125 0.891331
Si Si3 0.910320 0.572922 0.825526
Si Si4 0.596448 0.433325 0.565896
Si Si5 0.403920 0.566142 0.660385
Si Si6 0.274267 0.435593 0.728469
Si Si7 0.597009 0.566473 0.479932
Si Si8 0.272624 0.433209 0.323120
O O1 0.086304 0.250000 0.708451
O O2 0.086175 0.071705 0.773946
O O3 0.180828 0.009009 0.711787
O O4 0.000000 0.000000 0.707221
O O5 0.407856 0.250000 0.892676
O O6 0.500000 0.000000 0.885856
O O7 0.367715 0.001683 0.936146
O O8 0.342301 0.008323 0.853994
O O9 0.903504 0.750000 0.838769
O O10 0.823684 0.482885 0.836627
O O11 0.000000 0.500000 0.840346
O O12 0.500000 0.500000 0.567861
O O13 0.592596 0.250000 0.560118
O O14 0.631968 0.466363 0.612850
O O15 0.637496 0.508829 0.524133
O O16 0.500000 0.500000 0.662894
O O17 0.406964 0.750000 0.665403
O O18 0.346442 0.490584 0.696408
O O19 0.272281 0.250000 0.731737
O O20 0.286333 0.503928 0.775411
O O21 0.500000 0.500000 0.480657
O O22 0.594833 0.750000 0.478489
O O23 0.279994 0.250000 0.323574
#
# Coordination Sequence:
#
# PCOD9359739 Si02
#       8
#     8   8   8   8   8   8   8   8
#     4   8  15  26  42  62  83 107 137 175 218 261
#     4  11  21  34  48  64  88 118 152 188 224 263
#     4   9  16  28  45  66  88 113 144 181 225 267
#     4   9  16  27  43  63  85 109 140 178 221 264
#     4  10  20  32  46  64  87 118 153 187 222 260
#     4  10  20  33  46  63  88 118 152 187 222 261
#     4  10  17  27  44  65  86 110 141 177 221 266
#     4  11  21  33  47  65  89 119 154 189 224 264
#
# _framework density 14.911909
#
# number of rings (size 3 to 8) (size 9 to 14) (size 15 to 20)
#    0.000    2.250    0.000    7.125    0.000    5.500 
#    0.000    2.500    0.000    0.000    0.000    0.000 
#    0.000    1.000    0.000    7.000    0.000    6.875 
#
# Total GULP energy -178237.419187 kJ/mol
# GULP energy per Si atom -5569.919350 kJ/mol
# Density = 1.487797 g / cm^3
# Si number density = 14.911909 Si / 1000 Ang^3
#
#
#
# Elastic Constant Matrix: (Units=GPa)
#
#
# Indices 1 2 3 4 5 6 
#
# 1 80.8516 40.4789 53.7815 0.0000 0.0000 0.0000
# 2 40.4789 118.8171 49.4573 0.0000 0.0000 0.0000
# 3 53.7815 49.4573 93.7880 0.0000 0.0000 0.0000
# 4 0.0000 0.0000 0.0000 22.0702 0.0000 0.0000
# 5 0.0000 0.0000 0.0000 0.0000 -1.1962 0.0000
# 6 0.0000 0.0000 0.0000 0.0000 0.0000 22.2177
#
#
#
# Elastic Compliance Matrix: (Units=1/GPa)
#
#
# Indices 1 2 3 4 5 6 
#
# 1 0.020649 -0.002698 -0.010418 0.000000 0.000000 0.000000
# 2 -0.002698 0.011136 -0.004325 0.000000 0.000000 0.000000
# 3 -0.010418 -0.004325 0.018917 0.000000 0.000000 0.000000
# 4 0.000000 0.000000 0.000000 0.045310 0.000000 0.000000
# 5 0.000000 0.000000 0.000000 0.000000 -0.835959 0.000000
# 6 0.000000 0.000000 0.000000 0.000000 0.000000 0.045009
#
#
# Mechanical properties :
#
#
# Convention : Reuss Voigt Hill
#
# Bulk Modulus (GPa) = 63.21337 64.54358 63.87847
# Shear Modulus (GPa) = -7.63613 18.60094 5.48240
#
# Velocity S-wave (km/s) = -2.26538 3.53567 1.91951
# Velocity P-wave (km/s) = 5.96998 7.74888 6.91686
#
# Compressibility (1/GPa) = 0.01581944
#
# Stress axis : x y z
#
# Youngs Moduli (GPa) = 48.42771 89.80043 52.86198
#
# Poissons Ratio (x) = 0.24231 0.55073
# Poissons Ratio (y) = 0.13067 0.22862
# Poissons Ratio (z) = 0.50453 0.38838
#
# Static dielectric constant tensor:
#      x y z
#    x 1.490070 0.000000 0.000000 
#    y 0.000000 1.501420 0.000000 
#    z 0.000000 0.000000 1.513650 
# 
# From -- ./inp_files/18003.got.cif
#   From: 2010.05.17/outbox.cif.g08.bks.cpg/sg39_10_cif.got.tgz:18003.got - 2010.06.03 18:22:40.
