data_PCOD9359236
_publ_section_title
;
Structure prediction by ZEFSAII (Michael W. Deem and Ramdas Pophale) SiO2 
 PCOD9359236
Probable space group: A M M 2
;
_chemical_formula_sum "Si O2"
_cell_formula_units_Z 48
_cell_length_a 19.145723
_cell_length_b 15.812499
_cell_length_c 7.122488
_cell_angle_alpha 90.000000
_cell_angle_beta 90.000000
_cell_angle_gamma 90.000000
_cell_volume 2156.274309
_symmetry_space_group_name_H-M "A M M 2"
_symmetry_group_IT_number 38
_symmetry_cell_setting 'orthorhombic'
loop_
_space_group_symop_operation_xyz
x,y,z
-x,-y,z
-x,y,z
x,-y,z
x,1/2+y,1/2+z
-x,1/2-y,1/2+z
-x,1/2+y,1/2+z
x,1/2-y,1/2+z
loop_
_atom_site_type_symbol
_atom_site_label
_atom_site_fract_x
_atom_site_fract_y
_atom_site_fract_z
Si Si1 0.787010 0.250047 0.399510
Si Si2 0.692252 0.410933 0.375932
Si Si3 0.581469 0.669976 0.632336
Si Si4 0.348526 0.657096 0.001965
Si Si5 0.892889 0.749842 0.150295
Si Si6 0.000000 0.099054 0.176326
Si Si7 0.000000 0.598956 0.124381
O O1 0.750521 0.340938 0.403078
O O2 0.724963 0.181410 0.404291
O O3 0.874210 0.238062 0.400636
O O4 0.805504 0.248676 0.651409
O O5 0.721352 0.500000 0.436202
O O6 0.623098 0.388921 0.490880
O O7 0.669282 0.408960 0.160275
O O8 0.500000 0.677592 0.592302
O O9 0.596727 0.636848 0.840621
O O10 0.619284 0.761159 0.609756
O O11 0.935215 0.838446 0.127198
O O12 0.935165 0.661207 0.173837
O O13 0.000000 0.092490 0.400379
O O14 0.000000 0.000000 0.109102
O O15 0.000000 0.500000 0.191648
#
# Coordination Sequence:
#
# PCOD9359236 Si02
#       7
#     8   8   8   8   8   4   4
#     4  11  20  40  62  88 121 162 214 257 318 385
#     4  11  25  42  62  95 135 166 212 278 331 390
#     4  11  22  39  67  96 125 170 220 263 320 397
#     4  11  21  40  65  95 127 165 220 269 315 390
#     4  11  21  38  65  88 122 170 205 268 323 381
#     4  10  22  39  58  91 126 159 211 264 316 386
#     4  10  22  39  60  91 126 163 213 262 316 394
#
# _framework density 22.260619999999999
#
# number of rings (size 3 to 8) (size 9 to 14) (size 15 to 20)
#    0.000    1.167    6.667    1.500    0.000    3.000 
#    0.000    1.667    0.000    0.000    0.000    0.000 
#    0.000    0.000    0.000    0.000    0.000    0.000 
#
# Total GULP energy -133752.908366 kJ/mol
# GULP energy per Si atom -5573.037849 kJ/mol
# Density = 2.220995 g / cm^3
# Si number density = 22.260620 Si / 1000 Ang^3
#
#
#
# Elastic Constant Matrix: (Units=GPa)
#
#
# Indices 1 2 3 4 5 6 
#
# 1 130.2382 60.1133 44.5511 0.0000 0.0000 0.0000
# 2 60.1133 148.0727 31.4175 0.0000 0.0000 0.0000
# 3 44.5511 31.4175 133.9324 0.0000 0.0000 0.0000
# 4 0.0000 0.0000 0.0000 1131.3076 0.0000 0.0000
# 5 0.0000 0.0000 0.0000 0.0000 37.7021 0.0000
# 6 0.0000 0.0000 0.0000 0.0000 0.0000 -0.5887
#
#
#
# Elastic Compliance Matrix: (Units=1/GPa)
#
#
# Indices 1 2 3 4 5 6 
#
# 1 0.010216 -0.003606 -0.002552 0.000000 0.000000 0.000000
# 2 -0.003606 0.008380 -0.000766 0.000000 0.000000 0.000000
# 3 -0.002552 -0.000766 0.008495 0.000000 0.000000 0.000000
# 4 0.000000 0.000000 0.000000 0.000884 0.000000 0.000000
# 5 0.000000 0.000000 0.000000 0.000000 0.026524 0.000000
# 6 0.000000 0.000000 0.000000 0.000000 0.000000 -1.698795
#
#
# Mechanical properties :
#
#
# Convention : Reuss Voigt Hill
#
# Bulk Modulus (GPa) = 75.51724 76.04524 75.78124
# Shear Modulus (GPa) = -3.07497 252.09497 124.51000
#
# Velocity S-wave (km/s) = -1.17658 10.65330 7.48694
# Velocity P-wave (km/s) = 5.67027 13.62202 10.43339
#
# Compressibility (1/GPa) = 0.01324201
#
# Stress axis : x y z
#
# Youngs Moduli (GPa) = 97.88981 119.33394 117.71353
#
# Poissons Ratio (x) = 0.43028 0.30044
# Poissons Ratio (y) = 0.35296 0.09021
# Poissons Ratio (z) = 0.24984 0.09145
#
# Static dielectric constant tensor:
#      x y z
#    x 1.754700 0.000000 0.000000 
#    y 0.000000 -4.066750 0.000000 
#    z 0.000000 0.000000 2.495550 
# 
# From -- ./inp_files/6198.got.cif
#   From: 2010.05.17/outbox.cif.g08.bks.cpg/sg38_4_cif.got.tgz:6198.got - 2010.06.03 18:07:57.
