data_PCOD9359611
_publ_section_title
;
Structure prediction by ZEFSAII (Michael W. Deem and Ramdas Pophale) SiO2 
 PCOD9359611
Probable space group: A M M 2
;
_chemical_formula_sum "Si O2"
_cell_formula_units_Z 24
_cell_length_a 9.000000
_cell_length_b 18.000000
_cell_length_c 15.000000
_cell_angle_alpha 90.000000
_cell_angle_beta 90.000000
_cell_angle_gamma 90.000000
_cell_volume 2430.000000
_symmetry_space_group_name_H-M "A M M 2"
_symmetry_group_IT_number 38
_symmetry_cell_setting 'orthorhombic'
loop_
_space_group_symop_operation_xyz
x,y,z
-x,-y,z
-x,y,z
x,-y,z
x,1/2+y,1/2+z
-x,1/2-y,1/2+z
-x,1/2+y,1/2+z
x,1/2-y,1/2+z
loop_
_atom_site_type_symbol
_atom_site_label
_atom_site_fract_x
_atom_site_fract_y
_atom_site_fract_z
Si Si1 0.827399 0.778896 0.302310
Si Si2 0.827387 0.000000 0.874863
Si Si3 0.663019 0.106382 0.995349
Si Si4 0.821328 0.164241 0.655867
Si Si5 0.166956 0.581598 0.672100
Si Si6 0.181715 0.000000 0.677984
Si Si7 0.665869 0.780879 0.482965
O O1 0.770076 0.708107 0.244804
O O2 0.821743 0.849492 0.237298
O O3 0.737815 0.801152 0.389401
O O4 0.000000 0.764527 0.326357
O O5 0.759216 0.000000 0.778287
O O6 0.779828 0.929458 0.930066
O O7 0.000000 0.000000 0.861287
O O8 0.500000 0.076693 0.977270
O O9 0.713580 0.088770 0.094914
O O10 0.657453 0.192709 0.980356
O O11 0.766610 0.203736 0.567762
O O12 0.000000 0.166159 0.661129
O O13 0.771152 0.079539 0.642729
O O14 0.180636 0.500000 0.715171
O O15 0.000000 0.584899 0.631767
O O16 0.000000 0.000000 0.673691
O O17 0.500000 0.811999 0.494262
#
# Coordination Sequence:
#
# PCOD9359611 Si02
#       7
#     8   4   8   8   8   4   8
#     4  10  21  38  62  88 115 153 200 247 292 347
#     4  11  21  35  59  88 119 150 191 243 296 356
#     4  11  22  35  54  84 121 154 189 234 293 355
#     4  10  20  39  64  87 115 151 197 247 295 347
#     4  10  20  36  59  87 115 147 191 243 293 339
#     4   9  20  37  59  88 115 146 191 249 298 336
#     4  11  24  39  58  86 120 159 198 240 293 354
#
# _framework density 9.8765429999999999
#
# number of rings (size 3 to 8) (size 9 to 14) (size 15 to 20)
#    0.000    1.667    2.500    2.250    0.000    4.667 
#    1.500    2.083    0.000    0.000    0.000    0.000 
#    0.000    0.000    0.000    0.000    0.000    0.000 
#
# Total GULP energy -133681.328578 kJ/mol
# GULP energy per Si atom -5570.055357 kJ/mol
# Density = 0.985406 g / cm^3
# Si number density = 9.876543 Si / 1000 Ang^3
#
#
#
# Elastic Constant Matrix: (Units=GPa)
#
#
# Indices 1 2 3 4 5 6 
#
# 1 -2.3999 -11.1527 -12.1885 0.0000 0.0000 0.0000
# 2 -11.1527 -30.9967 -56.2650 0.0000 0.0000 0.0000
# 3 -12.1885 -56.2650 6.9421 0.0000 0.0000 0.0000
# 4 0.0000 0.0000 0.0000 2.7630 0.0000 0.0000
# 5 0.0000 0.0000 0.0000 0.0000 2.6243 0.0000
# 6 0.0000 0.0000 0.0000 0.0000 0.0000 -0.4942
#
#
#
# Elastic Compliance Matrix: (Units=1/GPa)
#
#
# Indices 1 2 3 4 5 6 
#
# 1 0.982435 -0.221774 -0.072560 0.000000 0.000000 0.000000
# 2 -0.221774 0.048010 -0.000262 0.000000 0.000000 0.000000
# 3 -0.072560 -0.000262 0.014527 0.000000 0.000000 0.000000
# 4 0.000000 0.000000 0.000000 0.361923 0.000000 0.000000
# 5 0.000000 0.000000 0.000000 0.000000 0.381050 0.000000
# 6 0.000000 0.000000 0.000000 0.000000 0.000000 -2.023345
#
#
# Mechanical properties :
#
#
# Convention : Reuss Voigt Hill
#
# Bulk Modulus (GPa) = 2.19405 -20.62967 -9.21781
# Shear Modulus (GPa) = 9.88692 4.52207 7.20450
#
# Velocity S-wave (km/s) = 2.23967 1.51468 1.91186
# Velocity P-wave (km/s) = 2.79308 2.72166 0.44378
#
# Compressibility (1/GPa) = 0.45577886
#
# Stress axis : x y z
#
# Youngs Moduli (GPa) = 1.01788 20.82903 68.83662
#
# Poissons Ratio (x) = 4.61934 4.99478
# Poissons Ratio (y) = 0.22574 0.01805
# Poissons Ratio (z) = 0.07386 0.00546
#
# Static dielectric constant tensor:
#      x y z
#    x 1.743840 0.000000 0.000000 
#    y 0.000000 1.726670 0.000000 
#    z 0.000000 0.000000 1.646190 
# 
# From -- ./inp_files/12067.got.cif
#   From: 2010.05.17/outbox.ucp.g08.bks.cvg/sg38_7_cif.got.tgz:12067.got - 2010.06.11 10:39:43.
