data_PCOD9359767
_publ_section_title
;
Structure prediction by ZEFSAII (Michael W. Deem and Ramdas Pophale) SiO2 
 PCOD9359767
Probable space group: A B M 2
;
_chemical_formula_sum "Si O2"
_cell_formula_units_Z 64
_cell_length_a 10.774485
_cell_length_b 17.734267
_cell_length_c 18.849056
_cell_angle_alpha 90.000000
_cell_angle_beta 90.000000
_cell_angle_gamma 90.000000
_cell_volume 3601.632265
_symmetry_space_group_name_H-M "A B M 2"
_symmetry_group_IT_number 39
_symmetry_cell_setting 'orthorhombic'
loop_
_space_group_symop_operation_xyz
x,y,z
-x,-y,z
-x,1/2+y,z
x,1/2-y,z
x,1/2+y,1/2+z
-x,1/2-y,1/2+z
-x,y,1/2+z
x,-y,1/2+z
loop_
_atom_site_type_symbol
_atom_site_label
_atom_site_fract_x
_atom_site_fract_y
_atom_site_fract_z
Si Si1 0.367058 0.333882 0.031960
Si Si2 0.510334 0.663717 0.683391
Si Si3 0.749815 0.339669 0.737449
Si Si4 0.791736 0.338818 0.895936
Si Si5 0.070087 0.837345 0.036898
Si Si6 0.434651 0.425131 0.461492
Si Si7 0.287606 0.419663 0.605155
Si Si8 0.157235 0.576260 0.600377
O O1 0.319567 0.250000 0.018960
O O2 0.443230 0.332905 0.106135
O O3 0.256808 0.391778 0.044040
O O4 0.461336 0.361658 0.972670
O O5 0.547919 0.750000 0.701241
O O6 0.397188 0.638410 0.734471
O O7 0.626635 0.608524 0.670077
O O8 0.749630 0.250000 0.723552
O O9 0.813603 0.352796 0.813055
O O10 0.819896 0.379917 0.673744
O O11 0.757013 0.250000 0.903215
O O12 0.678166 0.391821 0.917621
O O13 0.900260 0.350927 0.953574
O O14 0.030649 0.750000 0.046707
O O15 0.201418 0.851729 0.076525
O O16 0.973171 0.897315 0.068169
O O17 0.500000 0.500000 0.433532
O O18 0.378717 0.441787 0.540098
O O19 0.196680 0.490500 0.616019
#
# Coordination Sequence:
#
# PCOD9359767 Si02
#       8
#     8   8   8   8   8   8   8   8
#     4   9  16  26  45  72 100 130 165 214 266 317
#     4   8  15  28  48  73 103 136 169 209 263 322
#     4   9  18  33  53  77 106 139 180 222 264 321
#     4   9  19  35  53  74 102 142 183 219 263 322
#     4  10  20  34  54  75 100 139 188 227 261 315
#     4  10  17  30  47  73 103 132 167 216 272 322
#     4  10  19  30  49  75 108 131 169 219 277 315
#     4  11  19  31  51  79 106 135 177 230 272 312
#
# _framework density 17.76972
#
# number of rings (size 3 to 8) (size 9 to 14) (size 15 to 20)
#    0.000    2.500    1.250    3.000    0.000    3.000 
#    2.250    0.000    0.000    7.500    0.000    7.000 
#    0.000    0.000    0.000    0.000    0.000    0.000 
#
# Total GULP energy -178181.449747 kJ/mol
# GULP energy per Si atom -5568.170305 kJ/mol
# Density = 1.772928 g / cm^3
# Si number density = 17.769720 Si / 1000 Ang^3
#
#
#
# Elastic Constant Matrix: (Units=GPa)
#
#
# Indices 1 2 3 4 5 6 
#
# 1 71.3837 34.0447 25.2335 0.0000 0.0000 0.0000
# 2 34.0447 64.3333 23.6564 0.0000 0.0000 0.0000
# 3 25.2335 23.6564 67.1646 0.0000 0.0000 0.0000
# 4 0.0000 0.0000 0.0000 8.9558 0.0000 0.0000
# 5 0.0000 0.0000 0.0000 0.0000 15.7599 0.0000
# 6 0.0000 0.0000 0.0000 0.0000 0.0000 31.0454
#
#
#
# Elastic Compliance Matrix: (Units=1/GPa)
#
#
# Indices 1 2 3 4 5 6 
#
# 1 0.019762 -0.008878 -0.004298 0.000000 0.000000 0.000000
# 2 -0.008878 0.021845 -0.004359 0.000000 0.000000 0.000000
# 3 -0.004298 -0.004359 0.018039 0.000000 0.000000 0.000000
# 4 0.000000 0.000000 0.000000 0.111659 0.000000 0.000000
# 5 0.000000 0.000000 0.000000 0.000000 0.063452 0.000000
# 6 0.000000 0.000000 0.000000 0.000000 0.000000 0.032211
#
#
# Mechanical properties :
#
#
# Convention : Reuss Voigt Hill
#
# Bulk Modulus (GPa) = 40.68792 40.97230 40.83011
# Shear Modulus (GPa) = 16.11717 19.14869 17.63293
#
# Velocity S-wave (km/s) = 3.01491 3.28625 3.15350
# Velocity P-wave (km/s) = 5.92171 6.12427 6.02384
#
# Compressibility (1/GPa) = 0.02457732
#
# Stress axis : x y z
#
# Youngs Moduli (GPa) = 50.60244 45.77749 55.43649
#
# Poissons Ratio (x) = 0.40639 0.23825
# Poissons Ratio (y) = 0.44923 0.24164
# Poissons Ratio (z) = 0.21747 0.19954
#
# Static dielectric constant tensor:
#      x y z
#    x 1.631390 0.000000 0.000000 
#    y 0.000000 1.632460 0.000000 
#    z 0.000000 0.000000 1.595360 
# 
# From -- ./inp_files/12462.got.cif
#   From: 2010.05.17/outbox.cif.g08.bks.cpg/sg39_7_cif.got.tgz:12462.got - 2010.06.03 18:22:40.
