data_PCOD9359125
_publ_section_title
;
Structure prediction by ZEFSAII (Michael W. Deem and Ramdas Pophale) SiO2 
 PCOD9359125
Probable space group: A M M 2
;
_chemical_formula_sum "Si O2"
_cell_formula_units_Z 64
_cell_length_a 19.167222
_cell_length_b 19.617020
_cell_length_c 9.258991
_cell_angle_alpha 90.000000
_cell_angle_beta 90.000000
_cell_angle_gamma 90.000000
_cell_volume 3481.415590
_symmetry_space_group_name_H-M "A M M 2"
_symmetry_group_IT_number 38
_symmetry_cell_setting 'orthorhombic'
loop_
_space_group_symop_operation_xyz
x,y,z
-x,-y,z
-x,y,z
x,-y,z
x,1/2+y,1/2+z
-x,1/2-y,1/2+z
-x,1/2+y,1/2+z
x,1/2-y,1/2+z
loop_
_atom_site_type_symbol
_atom_site_label
_atom_site_fract_x
_atom_site_fract_y
_atom_site_fract_z
Si Si1 0.580288 0.675396 0.266080
Si Si2 0.321120 0.080600 0.614068
Si Si3 0.178579 0.578737 0.714077
Si Si4 0.080798 0.081231 0.487557
Si Si5 0.180387 0.333604 0.162622
Si Si6 0.204185 0.303488 0.495979
Si Si7 0.342962 0.078010 0.288227
Si Si8 0.632196 0.698085 0.577517
O O1 0.500000 0.666826 0.224859
O O2 0.625907 0.608476 0.233488
O O3 0.586466 0.693901 0.434111
O O4 0.614852 0.735421 0.171036
O O5 0.249357 0.122149 0.626687
O O6 0.354780 0.093625 0.456540
O O7 0.307614 0.000000 0.625670
O O8 0.164974 0.500000 0.671210
O O9 0.127477 0.596734 0.845994
O O10 0.174095 0.632353 0.584720
O O11 0.258825 0.581766 0.768365
O O12 0.114462 0.120444 0.621679
O O13 0.000000 0.098667 0.465044
O O14 0.086205 0.000000 0.510101
O O15 0.186976 0.311133 0.328258
O O16 0.177617 0.266773 0.063341
O O17 0.287702 0.301724 0.522689
O O18 0.376037 0.132730 0.181390
O O19 0.364073 0.000000 0.257710
#
# Coordination Sequence:
#
# PCOD9359125 Si02
#       8
#     8   8   8   8   8   8   8   8
#     4  12  25  40  59  85 120 158 198 247 306 369
#     4  11  22  38  62  88 116 154 202 252 300 354
#     4   9  18  35  59  91 121 152 196 244 295 353
#     4  10  21  39  63  90 126 167 201 242 300 363
#     4  12  22  38  60  93 121 159 203 252 300 355
#     4  11  22  36  62  90 120 154 199 258 302 345
#     4   9  19  35  61  89 116 148 194 250 296 345
#     4  11  21  39  60  89 118 154 199 246 303 359
#
# _framework density 18.383327999999999
#
# number of rings (size 3 to 8) (size 9 to 14) (size 15 to 20)
#    0.000    1.375    3.750    2.250    1.750    1.750 
#    0.000    3.750    0.000    4.125    0.000    0.000 
#    0.000    0.000    0.000    0.000    0.000    0.000 
#
# Total GULP energy -178775.179422 kJ/mol
# GULP energy per Si atom -5586.724357 kJ/mol
# Density = 1.834149 g / cm^3
# Si number density = 18.383328 Si / 1000 Ang^3
#
#
#
# Elastic Constant Matrix: (Units=GPa)
#
#
# Indices 1 2 3 4 5 6 
#
# 1 55.0326 26.1487 17.5609 0.0000 0.0000 0.0000
# 2 26.1487 86.7546 57.8643 0.0000 0.0000 0.0000
# 3 17.5609 57.8643 107.1219 0.0000 0.0000 0.0000
# 4 0.0000 0.0000 0.0000 35.3847 0.0000 0.0000
# 5 0.0000 0.0000 0.0000 0.0000 20.3101 0.0000
# 6 0.0000 0.0000 0.0000 0.0000 0.0000 15.1153
#
#
#
# Elastic Compliance Matrix: (Units=1/GPa)
#
#
# Indices 1 2 3 4 5 6 
#
# 1 0.021208 -0.006368 -0.000037 0.000000 0.000000 0.000000
# 2 -0.006368 0.019931 -0.009722 0.000000 0.000000 0.000000
# 3 -0.000037 -0.009722 0.014593 0.000000 0.000000 0.000000
# 4 0.000000 0.000000 0.000000 0.028261 0.000000 0.000000
# 5 0.000000 0.000000 0.000000 0.000000 0.049236 0.000000
# 6 0.000000 0.000000 0.000000 0.000000 0.000000 0.066158
#
#
# Mechanical properties :
#
#
# Convention : Reuss Voigt Hill
#
# Bulk Modulus (GPa) = 42.59283 50.22854 46.41069
# Shear Modulus (GPa) = 20.87970 23.98438 22.43204
#
# Velocity S-wave (km/s) = 3.37381 3.61596 3.49698
# Velocity P-wave (km/s) = 6.19648 6.69445 6.45027
#
# Compressibility (1/GPa) = 0.02347813
#
# Stress axis : x y z
#
# Youngs Moduli (GPa) = 47.15091 50.17432 68.52680
#
# Poissons Ratio (x) = 0.31949 0.00255
# Poissons Ratio (y) = 0.30024 0.66622
# Poissons Ratio (z) = 0.00175 0.48780
#
# Static dielectric constant tensor:
#      x y z
#    x 1.618270 0.000000 0.000000 
#    y 0.000000 1.638080 0.000000 
#    z 0.000000 0.000000 1.623560 
# 
# From -- ./inp_files/6499.got.cif
#   From: 2010.05.17/outbox.cif.g08.bks.cpg/sg38_4_cif.got.tgz:6499.got - 2010.06.03 18:07:57.
