data_PCOD9359815
_publ_section_title
;
Structure prediction by ZEFSAII (Michael W. Deem and Ramdas Pophale) SiO2 
 PCOD9359815
Probable space group: A B M 2
;
_chemical_formula_sum "Si O2"
_cell_formula_units_Z 64
_cell_length_a 14.673106
_cell_length_b 8.673903
_cell_length_c 32.014527
_cell_angle_alpha 90.000000
_cell_angle_beta 90.000000
_cell_angle_gamma 90.000000
_cell_volume 4074.588037
_symmetry_space_group_name_H-M "A B M 2"
_symmetry_group_IT_number 39
_symmetry_cell_setting 'orthorhombic'
loop_
_space_group_symop_operation_xyz
x,y,z
-x,-y,z
-x,1/2+y,z
x,1/2-y,z
x,1/2+y,1/2+z
-x,1/2-y,1/2+z
-x,y,1/2+z
x,-y,1/2+z
loop_
_atom_site_type_symbol
_atom_site_label
_atom_site_fract_x
_atom_site_fract_y
_atom_site_fract_z
Si Si1 0.896825 0.565710 0.425540
Si Si2 0.217359 0.435721 0.756983
Si Si3 0.402326 0.065679 0.225913
Si Si4 0.897355 0.564569 0.838567
Si Si5 0.597320 0.564608 0.128606
Si Si6 0.101635 0.565019 0.175690
Si Si7 0.897293 0.064614 0.512496
Si Si8 0.790818 0.063725 0.596268
O O1 0.898314 0.750000 0.425409
O O2 0.858211 0.501865 0.382041
O O3 0.858223 0.502718 0.469142
O O4 0.000000 0.500000 0.425622
O O5 0.223670 0.250000 0.756250
O O6 0.317686 0.504424 0.752270
O O7 0.164249 0.479569 0.799064
O O8 0.158671 0.484403 0.716515
O O9 0.404510 0.250000 0.227006
O O10 0.388772 0.017030 0.177195
O O11 0.500000 0.000000 0.239336
O O12 0.902643 0.750000 0.841293
O O13 0.000000 0.500000 0.832951
O O14 0.500000 0.500000 0.114585
O O15 0.592752 0.750000 0.127852
O O16 0.685719 0.515451 0.102471
O O17 0.098360 0.750000 0.174940
O O18 0.151267 0.504940 0.134267
O O19 0.000000 0.500000 0.177820
O O20 0.902586 0.250000 0.509427
O O21 0.836046 0.021421 0.552232
O O22 0.000000 0.000000 0.518331
O O23 0.794072 0.250000 0.599555
#
# Coordination Sequence:
#
# PCOD9359815 Si02
#       8
#     8   8   8   8   8   8   8   8
#     4  10  18  30  48  69  94 122 158 199 241 287
#     4  10  21  34  48  70  97 128 165 200 238 286
#     4  10  19  32  52  71  95 125 160 204 246 287
#     4  10  19  32  49  70  98 129 163 201 240 286
#     4   9  18  32  49  70  93 122 158 200 243 282
#     4  11  22  33  46  65  95 132 166 197 232 276
#     4  10  19  31  48  68  95 127 160 198 237 283
#     4  10  20  34  49  69  96 127 164 199 238 285
#
# _framework density 15.70711
#
# number of rings (size 3 to 8) (size 9 to 14) (size 15 to 20)
#    0.000    2.000    1.250    4.875    0.000    4.500 
#    0.000    0.000    0.000    0.000    0.000    0.875 
#    0.000    2.000    0.000    0.000    0.000    0.000 
#
# Total GULP energy -178533.156252 kJ/mol
# GULP energy per Si atom -5579.161133 kJ/mol
# Density = 1.567136 g / cm^3
# Si number density = 15.707110 Si / 1000 Ang^3
#
#
#
# Elastic Constant Matrix: (Units=GPa)
#
#
# Indices 1 2 3 4 5 6 
#
# 1 123.0205 33.3858 75.0014 0.0000 0.0000 0.0000
# 2 33.3858 44.8501 47.4261 0.0000 0.0000 0.0000
# 3 75.0014 47.4261 149.8920 0.0000 0.0000 0.0000
# 4 0.0000 0.0000 0.0000 22.1109 0.0000 0.0000
# 5 0.0000 0.0000 0.0000 0.0000 6.7109 0.0000
# 6 0.0000 0.0000 0.0000 0.0000 0.0000 24.9742
#
#
#
# Elastic Compliance Matrix: (Units=1/GPa)
#
#
# Indices 1 2 3 4 5 6 
#
# 1 0.012141 -0.003928 -0.004832 0.000000 0.000000 0.000000
# 2 -0.003928 0.034778 -0.009038 0.000000 0.000000 0.000000
# 3 -0.004832 -0.009038 0.011949 0.000000 0.000000 0.000000
# 4 0.000000 0.000000 0.000000 0.045227 0.000000 0.000000
# 5 0.000000 0.000000 0.000000 0.000000 0.149011 0.000000
# 6 0.000000 0.000000 0.000000 0.000000 0.000000 0.040041
#
#
# Mechanical properties :
#
#
# Convention : Reuss Voigt Hill
#
# Bulk Modulus (GPa) = 42.97191 69.93213 56.45202
# Shear Modulus (GPa) = 14.85885 21.55584 18.20734
#
# Velocity S-wave (km/s) = 3.07904 3.70856 3.40836
# Velocity P-wave (km/s) = 6.32916 7.93455 7.17689
#
# Compressibility (1/GPa) = 0.02327101
#
# Stress axis : x y z
#
# Youngs Moduli (GPa) = 82.36847 28.75401 83.68869
#
# Poissons Ratio (x) = 0.11294 0.40439
# Poissons Ratio (y) = 0.32352 0.75641
# Poissons Ratio (z) = 0.39801 0.25989
#
# Static dielectric constant tensor:
#      x y z
#    x 1.504480 0.000000 0.000000 
#    y 0.000000 1.531680 0.000000 
#    z 0.000000 0.000000 1.539290 
# 
# From -- ./inp_files/17979.got.cif
#   From: 2010.05.17/outbox.cif.g08.bks.cpg/sg39_9_cif.got.tgz:17979.got - 2010.06.03 18:22:40.
