data_PCOD9359539
_publ_section_title
;
Structure prediction by ZEFSAII (Michael W. Deem and Ramdas Pophale) SiO2 
 PCOD9359539
Probable space group: A M M 2
;
_chemical_formula_sum "Si O2"
_cell_formula_units_Z 56
_cell_length_a 8.131631
_cell_length_b 14.691296
_cell_length_c 23.532429
_cell_angle_alpha 90.000000
_cell_angle_beta 90.000000
_cell_angle_gamma 90.000000
_cell_volume 2811.282757
_symmetry_space_group_name_H-M "A M M 2"
_symmetry_group_IT_number 38
_symmetry_cell_setting 'orthorhombic'
loop_
_space_group_symop_operation_xyz
x,y,z
-x,-y,z
-x,y,z
x,-y,z
x,1/2+y,1/2+z
-x,1/2-y,1/2+z
-x,1/2+y,1/2+z
x,1/2-y,1/2+z
loop_
_atom_site_type_symbol
_atom_site_label
_atom_site_fract_x
_atom_site_fract_y
_atom_site_fract_z
Si Si1 0.298841 0.394981 0.611430
Si Si2 0.693167 0.402590 0.257814
Si Si3 0.814012 0.356825 0.845563
Si Si4 0.301262 0.201944 0.995928
Si Si5 0.185988 0.143175 0.877297
Si Si6 0.301262 0.298056 0.726932
Si Si7 0.306833 0.597410 0.965045
O O1 0.500000 0.394485 0.611430
O O2 0.246446 0.500000 0.611430
O O3 0.245633 0.343119 0.554468
O O4 0.245633 0.343119 0.668392
O O5 0.500000 0.402880 0.243637
O O6 0.764472 0.500000 0.238203
O O7 0.711167 0.399309 0.326211
O O8 0.761180 0.306287 0.234817
O O9 0.815802 0.250000 0.861430
O O10 0.748847 0.358023 0.781537
O O11 0.711167 0.399310 0.896649
O O12 0.000000 0.391358 0.848119
O O13 0.500000 0.205874 0.995791
O O14 0.251153 0.141977 0.941323
O O15 0.238820 0.306287 0.988043
O O16 0.000000 0.108642 0.874741
O O17 0.500000 0.294126 0.727069
O O18 0.500000 0.597120 0.979223
O O19 0.235528 0.500000 0.984657
#
# Coordination Sequence:
#
# PCOD9359539 Si02
#       7
#     8   8   8   8   8   8   8
#     4   9  18  32  50  70  90 117 155 195 234 276
#     4   9  17  29  46  69  96 125 155 187 228 279
#     4   9  17  29  46  69  96 124 153 188 231 275
#     4   9  17  31  49  68  93 124 157 193 231 274
#     4   9  17  29  46  69  96 124 153 188 231 275
#     4   9  17  31  49  68  93 124 157 193 231 274
#     4   9  17  29  46  69  96 125 155 187 228 279
#
# _framework density 19.919733999999998
#
# number of rings (size 3 to 8) (size 9 to 14) (size 15 to 20)
#    0.000    3.000    0.000    0.857    0.000    5.143 
#    0.000    4.286    0.000    5.143    0.000    0.000 
#    0.000    9.143    0.000    0.000    0.000    0.000 
#
# Total GULP energy -155957.030997 kJ/mol
# GULP energy per Si atom -5569.893964 kJ/mol
# Density = 1.987440 g / cm^3
# Si number density = 19.919734 Si / 1000 Ang^3
#
#
#
# Elastic Constant Matrix: (Units=GPa)
#
#
# Indices 1 2 3 4 5 6 
#
# 1 13.6036 -0.4914 -2.4607 0.0000 0.0000 0.0000
# 2 -0.4914 131.9906 55.4563 0.0000 0.0000 0.0000
# 3 -2.4607 55.4563 137.8725 0.0000 0.0000 0.0000
# 4 0.0000 0.0000 0.0000 -1.1176 0.0000 0.0000
# 5 0.0000 0.0000 0.0000 0.0000 -8.5037 0.0000
# 6 0.0000 0.0000 0.0000 0.0000 0.0000 -1.6017
#
#
#
# Elastic Compliance Matrix: (Units=1/GPa)
#
#
# Indices 1 2 3 4 5 6 
#
# 1 0.073761 -0.000335 0.001451 0.000000 0.000000 0.000000
# 2 -0.000335 0.009119 -0.003674 0.000000 0.000000 0.000000
# 3 0.001451 -0.003674 0.008757 0.000000 0.000000 0.000000
# 4 0.000000 0.000000 0.000000 -0.894762 0.000000 0.000000
# 5 0.000000 0.000000 0.000000 0.000000 -0.117596 0.000000
# 6 0.000000 0.000000 0.000000 0.000000 0.000000 -0.624322
#
#
# Mechanical properties :
#
#
# Convention : Reuss Voigt Hill
#
# Bulk Modulus (GPa) = 11.55794 43.16390 27.36092
# Shear Modulus (GPa) = -3.30887 13.15289 4.92201
#
# Velocity S-wave (km/s) = -1.29024 2.57241 1.57362
# Velocity P-wave (km/s) = 1.89611 5.52621 4.13124
#
# Compressibility (1/GPa) = 0.08652063
#
# Stress axis : x y z
#
# Youngs Moduli (GPa) = 13.55737 109.66614 114.19874
#
# Poissons Ratio (x) = 0.03675 -0.16573
# Poissons Ratio (y) = 0.00454 0.41954
# Poissons Ratio (z) = -0.01968 0.40288
#
# Static dielectric constant tensor:
#      x y z
#    x 1.703490 0.000000 0.000000 
#    y 0.000000 1.771190 0.000000 
#    z 0.000000 0.000000 1.670520 
# 
# From -- ./inp_files/19814.got.cif
#   From: 2010.05.17/outbox.cif.g08.bks.cpg/sg38_10_cif.got.tgz:19814.got - 2010.06.03 18:07:57.
