data_PCOD9359023
_publ_section_title
;
Structure prediction by ZEFSAII (Michael W. Deem and Ramdas Pophale) SiO2 
 PCOD9359023
Probable space group: A M M 2
;
_chemical_formula_sum "Si O2"
_cell_formula_units_Z 40
_cell_length_a 7.439277
_cell_length_b 9.050468
_cell_length_c 30.886157
_cell_angle_alpha 90.000000
_cell_angle_beta 90.000000
_cell_angle_gamma 90.000000
_cell_volume 2079.532163
_symmetry_space_group_name_H-M "A M M 2"
_symmetry_group_IT_number 38
_symmetry_cell_setting 'orthorhombic'
loop_
_space_group_symop_operation_xyz
x,y,z
-x,-y,z
-x,y,z
x,-y,z
x,1/2+y,1/2+z
-x,1/2-y,1/2+z
-x,1/2+y,1/2+z
x,1/2-y,1/2+z
loop_
_atom_site_type_symbol
_atom_site_label
_atom_site_fract_x
_atom_site_fract_y
_atom_site_fract_z
Si Si1 0.500000 0.322302 0.863400
Si Si2 0.219496 0.170723 0.100178
Si Si3 0.794205 0.680329 0.695648
Si Si4 0.500000 0.180011 0.263606
Si Si5 0.785766 0.825269 0.924567
Si Si6 0.218872 0.831439 0.513410
O O1 0.500000 0.500000 0.865113
O O2 0.500000 0.273429 0.813296
O O3 0.327428 0.259502 0.888520
O O4 0.273873 0.225244 0.147897
O O5 0.000000 0.171452 0.100908
O O6 0.274439 0.000000 0.094833
O O7 0.279289 0.264232 0.059050
O O8 0.793238 0.500000 0.694464
O O9 0.671364 0.727570 0.735360
O O10 0.000000 0.727768 0.701003
O O11 0.500000 0.000000 0.263996
O O12 0.730608 0.765107 0.971867
O O13 0.000000 0.799964 0.919669
O O14 0.752529 0.000000 0.922048
O O15 0.000000 0.830608 0.514623
O O16 0.277460 0.000000 0.507919
#
# Coordination Sequence:
#
# PCOD9359023 Si02
#       6
#     4   8   8   4   8   8
#     4  11  23  37  56  83 112 139 174 229 288 333
#     4   8  13  23  42  68  99 136 173 207 248 302
#     4   8  14  26  45  69  98 133 172 210 248 300
#     4   9  18  31  48  73 102 131 166 213 268 317
#     4  10  21  38  59  80 106 144 187 226 266 321
#     4   9  16  27  47  76 108 139 172 214 264 315
#
# _framework density 19.235095000000001
#
# number of rings (size 3 to 8) (size 9 to 14) (size 15 to 20)
#    0.000    3.000    0.000    2.700    0.000    4.400 
#    0.000    3.000    0.000    4.800    0.000    2.800 
#    0.000    0.000    0.000    0.000    0.000    0.000 
#
# Total GULP energy -111586.618936 kJ/mol
# GULP energy per Si atom -5579.330947 kJ/mol
# Density = 1.919131 g / cm^3
# Si number density = 19.235095 Si / 1000 Ang^3
#
#
#
# Elastic Constant Matrix: (Units=GPa)
#
#
# Indices 1 2 3 4 5 6 
#
# 1 83.7582 31.9518 68.3080 0.0000 0.0000 0.0000
# 2 31.9518 69.8468 63.5494 0.0000 0.0000 0.0000
# 3 68.3080 63.5494 210.6791 0.0000 0.0000 0.0000
# 4 0.0000 0.0000 0.0000 25.5391 0.0000 0.0000
# 5 0.0000 0.0000 0.0000 0.0000 33.4457 0.0000
# 6 0.0000 0.0000 0.0000 0.0000 0.0000 13.7578
#
#
#
# Elastic Compliance Matrix: (Units=1/GPa)
#
#
# Indices 1 2 3 4 5 6 
#
# 1 0.016929 -0.003791 -0.004345 0.000000 0.000000 0.000000
# 2 -0.003791 0.020581 -0.004979 0.000000 0.000000 0.000000
# 3 -0.004345 -0.004979 0.007657 0.000000 0.000000 0.000000
# 4 0.000000 0.000000 0.000000 0.039156 0.000000 0.000000
# 5 0.000000 0.000000 0.000000 0.000000 0.029899 0.000000
# 6 0.000000 0.000000 0.000000 0.000000 0.000000 0.072686
#
#
# Mechanical properties :
#
#
# Convention : Reuss Voigt Hill
#
# Bulk Modulus (GPa) = 52.80578 76.87805 64.84191
# Shear Modulus (GPa) = 22.78404 27.91348 25.34876
#
# Velocity S-wave (km/s) = 3.44540 3.81356 3.63414
# Velocity P-wave (km/s) = 6.58332 7.71008 7.16887
#
# Compressibility (1/GPa) = 0.01893732
#
# Stress axis : x y z
#
# Youngs Moduli (GPa) = 59.07002 48.58774 130.59283
#
# Poissons Ratio (x) = 0.18418 0.56749
# Poissons Ratio (y) = 0.22391 0.65024
# Poissons Ratio (z) = 0.25669 0.24193
#
# Static dielectric constant tensor:
#      x y z
#    x 1.718920 0.000000 0.000000 
#    y 0.000000 1.642870 0.000000 
#    z 0.000000 0.000000 1.649130 
# 
# From -- ./inp_files/23224.got.cif
#   From: 2010.05.17/outbox.cif.g08.bks.cpg/sg38_12_cif.got.tgz:23224.got - 2010.06.03 18:07:57.
