data_PCOD9359621
_publ_section_title
;
Structure prediction by ZEFSAII (Michael W. Deem and Ramdas Pophale) SiO2 
 PCOD9359621
Probable space group: A M M 2
;
_chemical_formula_sum "Si O2"
_cell_formula_units_Z 28
_cell_length_a 15.000000
_cell_length_b 15.000000
_cell_length_c 12.000000
_cell_angle_alpha 90.000000
_cell_angle_beta 90.000000
_cell_angle_gamma 90.000000
_cell_volume 2700.000000
_symmetry_space_group_name_H-M "A M M 2"
_symmetry_group_IT_number 38
_symmetry_cell_setting 'orthorhombic'
loop_
_space_group_symop_operation_xyz
x,y,z
-x,-y,z
-x,y,z
x,-y,z
x,1/2+y,1/2+z
-x,1/2-y,1/2+z
-x,1/2+y,1/2+z
x,1/2-y,1/2+z
loop_
_atom_site_type_symbol
_atom_site_label
_atom_site_fract_x
_atom_site_fract_y
_atom_site_fract_z
Si Si1 0.401602 0.894073 0.151520
Si Si2 0.105474 0.720087 0.131024
Si Si3 0.205848 0.895965 0.068843
Si Si4 0.398027 0.788024 0.384433
Si Si5 0.605658 0.601235 0.274336
Si Si6 0.101510 0.099840 0.844529
Si Si7 0.270655 0.893626 0.553671
O O1 0.500000 0.875034 0.099676
O O2 0.310445 0.875696 0.085529
O O3 0.396099 0.838078 0.265016
O O4 0.400792 0.000000 0.175899
O O5 0.146891 0.819567 0.128658
O O6 0.108785 0.676111 0.253367
O O7 0.174972 0.656291 0.063887
O O8 0.000000 0.719301 0.096289
O O9 0.190729 0.000000 0.104379
O O10 0.172949 0.890928 0.941551
O O11 0.500000 0.796190 0.427402
O O12 0.379484 0.684233 0.356726
O O13 0.329564 0.838648 0.464662
O O14 0.500000 0.607000 0.240287
O O15 0.618168 0.500000 0.320758
O O16 0.673176 0.611119 0.170069
O O17 0.000000 0.102870 0.891028
O O18 0.112253 0.000000 0.793636
O O19 0.262168 0.000000 0.527452
#
# Coordination Sequence:
#
# PCOD9359621 Si02
#       7
#     8   8   8   8   8   8   8
#     4   9  18  34  59  93 130 165 204 252 306 368
#     4  11  24  41  63  92 125 160 205 263 322 376
#     4  10  21  39  66  96 126 163 208 256 308 372
#     4  10  20  37  63  92 127 171 212 252 308 375
#     4   9  19  37  62  94 129 162 204 259 309 361
#     4   9  19  39  66  92 119 157 204 251 305 370
#     4  11  23  39  63  93 124 163 213 263 314 374
#
# _framework density 10.370369999999999
#
# number of rings (size 3 to 8) (size 9 to 14) (size 15 to 20)
#    0.000    2.143    0.000    2.571    0.000    5.429 
#    0.000    2.857    0.000    6.000    0.000   22.000 
#    0.000    0.000    0.000    0.000    0.000    0.000 
#
# Total GULP energy -156521.290525 kJ/mol
# GULP energy per Si atom -5590.046090 kJ/mol
# Density = 1.034677 g / cm^3
# Si number density = 10.370370 Si / 1000 Ang^3
#
#
#
# Elastic Constant Matrix: (Units=GPa)
#
#
# Indices 1 2 3 4 5 6 
#
# 1 196.4309 95.4404 60.5591 0.0000 0.0000 0.0000
# 2 95.4404 166.8131 61.2341 0.0000 0.0000 0.0000
# 3 60.5591 61.2341 57.9926 0.0000 0.0000 0.0000
# 4 0.0000 0.0000 0.0000 39.4571 0.0000 0.0000
# 5 0.0000 0.0000 0.0000 0.0000 42.0176 0.0000
# 6 0.0000 0.0000 0.0000 0.0000 0.0000 39.2878
#
#
#
# Elastic Compliance Matrix: (Units=1/GPa)
#
#
# Indices 1 2 3 4 5 6 
#
# 1 0.008098 -0.002497 -0.005820 0.000000 0.000000 0.000000
# 2 -0.002497 0.010559 -0.008542 0.000000 0.000000 0.000000
# 3 -0.005820 -0.008542 0.032341 0.000000 0.000000 0.000000
# 4 0.000000 0.000000 0.000000 0.025344 0.000000 0.000000
# 5 0.000000 0.000000 0.000000 0.000000 0.023800 0.000000
# 6 0.000000 0.000000 0.000000 0.000000 0.000000 0.025453
#
#
# Mechanical properties :
#
#
# Convention : Reuss Voigt Hill
#
# Bulk Modulus (GPa) = 57.87007 95.07820 76.47414
# Shear Modulus (GPa) = 30.28980 37.75271 34.02126
#
# Velocity S-wave (km/s) = 3.82567 4.27103 4.05447
# Velocity P-wave (km/s) = 6.89032 8.38231 7.67267
#
# Compressibility (1/GPa) = 0.01728009
#
# Stress axis : x y z
#
# Youngs Moduli (GPa) = 123.48096 94.70828 30.92092
#
# Poissons Ratio (x) = 0.23647 0.17997
# Poissons Ratio (y) = 0.30832 0.26411
# Poissons Ratio (z) = 0.71871 0.80896
#
# Static dielectric constant tensor:
#      x y z
#    x 1.760090 0.000000 0.000000 
#    y 0.000000 1.750900 0.000000 
#    z 0.000000 0.000000 1.743190 
# 
# From -- ./inp_files/10097.got.cif
#   From: 2010.05.17/outbox.ucp.g08.bks.cvg/sg38_6_cif.got.tgz:10097.got - 2010.06.11 10:39:43.
