data_PCOD9359008
_publ_section_title
;
Structure prediction by ZEFSAII (Michael W. Deem and Ramdas Pophale) SiO2 
 PCOD9359008
Probable space group: A M M 2
;
_chemical_formula_sum "Si O2"
_cell_formula_units_Z 58
_cell_length_a 17.517570
_cell_length_b 7.287903
_cell_length_c 20.207663
_cell_angle_alpha 90.000000
_cell_angle_beta 90.000000
_cell_angle_gamma 90.000000
_cell_volume 2579.838597
_symmetry_space_group_name_H-M "A M M 2"
_symmetry_group_IT_number 38
_symmetry_cell_setting 'orthorhombic'
loop_
_space_group_symop_operation_xyz
x,y,z
-x,-y,z
-x,y,z
x,-y,z
x,1/2+y,1/2+z
-x,1/2-y,1/2+z
-x,1/2+y,1/2+z
x,1/2-y,1/2+z
loop_
_atom_site_type_symbol
_atom_site_label
_atom_site_fract_x
_atom_site_fract_y
_atom_site_fract_z
Si Si1 0.500000 0.000000 0.360910
Si Si2 0.624867 0.221988 0.651971
Si Si3 0.581312 0.287995 0.504537
Si Si4 0.789584 0.721608 0.334126
Si Si5 0.794786 0.715041 0.122524
Si Si6 0.615074 0.779538 0.799554
Si Si7 0.087049 0.224302 0.728027
Si Si8 0.750720 0.720840 0.476821
O O1 0.566417 0.160984 0.349780
O O2 0.585082 0.285357 0.584762
O O3 0.712712 0.288136 0.646441
O O4 0.592757 0.270393 0.723828
O O5 0.623912 0.000000 0.649275
O O6 0.500000 0.199919 0.484694
O O7 0.579651 0.500000 0.483031
O O8 0.663085 0.210276 0.482722
O O9 0.794463 0.500000 0.334458
O O10 0.705144 0.761540 0.306579
O O11 0.858438 0.784410 0.288160
O O12 0.789903 0.784806 0.409856
O O13 0.790894 0.500000 0.138426
O O14 0.867738 0.784089 0.162012
O O15 0.794996 0.734653 0.043828
O O16 0.605099 0.000000 0.808676
O O17 0.000000 0.286541 0.731665
O O18 0.084538 0.000000 0.728825
O O19 0.745091 0.500000 0.474162
#
# Coordination Sequence:
#
# PCOD9359008 Si02
#       8
#     2   8   8   8   8   8   8   8
#     4  12  26  36  52  86 118 152 206 248 314 354
#     4   9  17  29  48  70  98 137 181 225 289 347
#     4   9  18  29  44  67  98 133 180 236 280 335
#     4   9  17  35  58  78 110 154 196 238 295 354
#     4   9  16  31  52  77 108 139 180 233 284 342
#     4  10  21  38  56  79 114 155 197 254 302 360
#     4   9  16  29  56  90 114 142 193 244 287 349
#     4   9  18  33  53  77 104 147 192 225 282 359
#
# _framework density 22.482025
#
# number of rings (size 3 to 8) (size 9 to 14) (size 15 to 20)
#    0.000    2.759    1.379    0.207    1.931    0.276 
#    2.483    0.690    0.000    1.241    0.000    0.000 
#    0.000    0.000    0.000    0.000    0.000    0.138 
#
# Total GULP energy -161781.285795 kJ/mol
# GULP energy per Si atom -5578.665027 kJ/mol
# Density = 2.243086 g / cm^3
# Si number density = 22.482025 Si / 1000 Ang^3
#
#
#
# Elastic Constant Matrix: (Units=GPa)
#
#
# Indices 1 2 3 4 5 6 
#
# 1 194.4900 10.8489 81.1081 0.0000 0.0000 0.0000
# 2 10.8489 101.5012 -15.7387 0.0000 0.0000 0.0000
# 3 81.1081 -15.7387 134.7700 0.0000 0.0000 0.0000
# 4 0.0000 0.0000 0.0000 -19.7222 0.0000 0.0000
# 5 0.0000 0.0000 0.0000 0.0000 26.8229 0.0000
# 6 0.0000 0.0000 0.0000 0.0000 0.0000 -5.6254
#
#
#
# Elastic Compliance Matrix: (Units=1/GPa)
#
#
# Indices 1 2 3 4 5 6 
#
# 1 0.007065 -0.001441 -0.004420 0.000000 0.000000 0.000000
# 2 -0.001441 0.010328 0.002073 0.000000 0.000000 0.000000
# 3 -0.004420 0.002073 0.010322 0.000000 0.000000 0.000000
# 4 0.000000 0.000000 0.000000 -0.050704 0.000000 0.000000
# 5 0.000000 0.000000 0.000000 0.000000 0.037282 0.000000
# 6 0.000000 0.000000 0.000000 0.000000 0.000000 -0.177764
#
#
# Mechanical properties :
#
#
# Convention : Reuss Voigt Hill
#
# Bulk Modulus (GPa) = 49.65359 64.79976 57.22668
# Shear Modulus (GPa) = -33.51603 23.93126 -4.79238
#
# Velocity S-wave (km/s) = -3.86527 3.26615 -1.46160
# Velocity P-wave (km/s) = 1.48777 6.56575 4.76039
#
# Compressibility (1/GPa) = 0.02013953
#
# Stress axis : x y z
#
# Youngs Moduli (GPa) = 141.53376 96.82860 96.87609
#
# Poissons Ratio (x) = 0.13949 0.42823
# Poissons Ratio (y) = 0.20390 -0.20083
# Poissons Ratio (z) = 0.62564 -0.20073
#
# Static dielectric constant tensor:
#      x y z
#    x 1.798460 0.000000 0.000000 
#    y 0.000000 1.901530 0.000000 
#    z 0.000000 0.000000 1.871210 
# 
# From -- ./inp_files/22801.got.cif
#   From: 2010.05.17/outbox.cif.g08.bks.cpg/sg38_12_cif.got.tgz:22801.got - 2010.06.03 18:07:57.
