data_PCOD9359733
_publ_section_title
;
Structure prediction by ZEFSAII (Michael W. Deem and Ramdas Pophale) SiO2 
 PCOD9359733
Probable space group: A B M 2
;
_chemical_formula_sum "Si O2"
_cell_formula_units_Z 64
_cell_length_a 21.558026
_cell_length_b 8.708436
_cell_length_c 18.875606
_cell_angle_alpha 90.000000
_cell_angle_beta 90.000000
_cell_angle_gamma 90.000000
_cell_volume 3543.643787
_symmetry_space_group_name_H-M "A B M 2"
_symmetry_group_IT_number 39
_symmetry_cell_setting 'orthorhombic'
loop_
_space_group_symop_operation_xyz
x,y,z
-x,-y,z
-x,1/2+y,z
x,1/2-y,z
x,1/2+y,1/2+z
-x,1/2-y,1/2+z
-x,y,1/2+z
x,-y,1/2+z
loop_
_atom_site_type_symbol
_atom_site_label
_atom_site_fract_x
_atom_site_fract_y
_atom_site_fract_z
Si Si1 0.814132 0.064754 0.331790
Si Si2 0.300710 0.065696 0.417662
Si Si3 0.563461 0.566929 0.081773
Si Si4 0.933367 0.066089 0.584400
Si Si5 0.066204 0.934966 0.419450
Si Si6 0.306969 0.064830 0.583684
Si Si7 0.437525 0.434053 0.421543
Si Si8 0.816703 0.935608 0.668471
O O1 0.814250 0.250000 0.332881
O O2 0.876161 0.011833 0.372331
O O3 0.814226 0.015180 0.250198
O O4 0.753689 0.008299 0.372976
O O5 0.294828 0.250000 0.414913
O O6 0.297161 0.021336 0.500941
O O7 0.370097 0.025776 0.390586
O O8 0.500000 0.500000 0.114697
O O9 0.560527 0.750000 0.080860
O O10 0.629235 0.509379 0.111522
O O11 0.564228 0.502020 0.001185
O O12 0.935073 0.250000 0.587921
O O13 0.924448 0.020233 0.501775
O O14 0.876656 0.003053 0.629856
O O15 0.000000 0.000000 0.607407
O O16 0.063605 0.750000 0.416777
O O17 0.000000 0.000000 0.395766
O O18 0.314027 0.250000 0.585728
O O19 0.246482 0.020271 0.628020
O O20 0.500000 0.500000 0.387012
O O21 0.442000 0.250000 0.426311
O O22 0.820689 0.750000 0.666049
#
# Coordination Sequence:
#
# PCOD9359733 Si02
#       8
#     8   8   8   8   8   8   8   8
#     4  10  21  35  51  74 103 133 166 204 247 296
#     4   9  18  31  49  73  99 130 168 208 248 293
#     4  10  17  26  44  71 101 130 163 206 255 303
#     4  10  20  35  56  79 103 132 166 206 248 294
#     4   9  19  35  54  77 102 128 163 203 243 291
#     4   9  18  33  51  72 100 133 170 210 252 299
#     4   9  16  27  44  70 101 130 164 206 253 301
#     4  10  21  36  53  74 103 136 168 207 252 297
#
# _framework density 18.060506
#
# number of rings (size 3 to 8) (size 9 to 14) (size 15 to 20)
#    0.000    2.500    0.000    4.125    0.000    5.000 
#    0.000    1.250    0.000    0.750    0.000    1.750 
#    0.000    0.000    0.000    0.000    0.000    0.000 
#
# Total GULP energy -178449.228699 kJ/mol
# GULP energy per Si atom -5576.538397 kJ/mol
# Density = 1.801940 g / cm^3
# Si number density = 18.060506 Si / 1000 Ang^3
#
#
#
# Elastic Constant Matrix: (Units=GPa)
#
#
# Indices 1 2 3 4 5 6 
#
# 1 228.4210 54.0586 89.6927 0.0000 0.0000 0.0000
# 2 54.0586 37.8524 25.4450 0.0000 0.0000 0.0000
# 3 89.6927 25.4450 71.8451 0.0000 0.0000 0.0000
# 4 0.0000 0.0000 0.0000 12.9675 0.0000 0.0000
# 5 0.0000 0.0000 0.0000 0.0000 -5.4557 0.0000
# 6 0.0000 0.0000 0.0000 0.0000 0.0000 49.5753
#
#
#
# Elastic Compliance Matrix: (Units=1/GPa)
#
#
# Indices 1 2 3 4 5 6 
#
# 1 0.010079 -0.007791 -0.009824 0.000000 0.000000 0.000000
# 2 -0.007791 0.040695 -0.004687 0.000000 0.000000 0.000000
# 3 -0.009824 -0.004687 0.027843 0.000000 0.000000 0.000000
# 4 0.000000 0.000000 0.000000 0.077116 0.000000 0.000000
# 5 0.000000 0.000000 0.000000 0.000000 -0.183294 0.000000
# 6 0.000000 0.000000 0.000000 0.000000 0.000000 0.020171
#
#
# Mechanical properties :
#
#
# Convention : Reuss Voigt Hill
#
# Bulk Modulus (GPa) = 29.39910 75.16791 52.28350
# Shear Modulus (GPa) = 102.98480 22.67890 62.83185
#
# Velocity S-wave (km/s) = 7.55949 3.54746 5.90467
# Velocity P-wave (km/s) = 9.61811 7.64785 8.68901
#
# Compressibility (1/GPa) = 0.03401465
#
# Stress axis : x y z
#
# Youngs Moduli (GPa) = 99.21598 24.57302 35.91603
#
# Poissons Ratio (x) = 0.19144 0.35283
# Poissons Ratio (y) = 0.77296 0.16833
# Poissons Ratio (z) = 0.97466 0.11517
#
# Static dielectric constant tensor:
#      x y z
#    x 1.637850 0.000000 0.000000 
#    y 0.000000 1.606580 0.000000 
#    z 0.000000 0.000000 1.597590 
# 
# From -- ./inp_files/13234.got.cif
#   From: 2010.05.17/outbox.cif.g08.bks.cpg/sg39_7_cif.got.tgz:13234.got - 2010.06.03 18:22:40.
