data_PCOD9359338
_publ_section_title
;
Structure prediction by ZEFSAII (Michael W. Deem and Ramdas Pophale) SiO2 
 PCOD9359338
Probable space group: A M M 2
;
_chemical_formula_sum "Si O2"
_cell_formula_units_Z 40
_cell_length_a 12.941613
_cell_length_b 8.886078
_cell_length_c 18.518704
_cell_angle_alpha 90.000000
_cell_angle_beta 90.000000
_cell_angle_gamma 90.000000
_cell_volume 2129.654341
_symmetry_space_group_name_H-M "A M M 2"
_symmetry_group_IT_number 38
_symmetry_cell_setting 'orthorhombic'
loop_
_space_group_symop_operation_xyz
x,y,z
-x,-y,z
-x,y,z
x,-y,z
x,1/2+y,1/2+z
-x,1/2-y,1/2+z
-x,1/2+y,1/2+z
x,1/2-y,1/2+z
loop_
_atom_site_type_symbol
_atom_site_label
_atom_site_fract_x
_atom_site_fract_y
_atom_site_fract_z
Si Si1 0.302600 0.678880 0.189880
Si Si2 0.879747 0.179809 0.449483
Si Si3 0.879869 0.179823 0.279726
Si Si4 0.308385 0.178874 0.032563
Si Si5 0.500000 0.820791 0.789984
Si Si6 0.500000 0.679276 0.947083
O O1 0.300938 0.500000 0.176721
O O2 0.198782 0.731481 0.229765
O O3 0.398875 0.712379 0.242446
O O4 0.315062 0.763584 0.114416
O O5 0.860942 0.212225 0.364580
O O6 0.800231 0.268994 0.498534
O O7 0.000000 0.214001 0.464823
O O8 0.865343 0.000000 0.459531
O O9 0.000000 0.214720 0.264511
O O10 0.865969 0.000000 0.269844
O O11 0.399288 0.254546 0.986268
O O12 0.318416 0.000000 0.029494
O O13 0.500000 0.730178 0.864041
O O14 0.500000 0.000000 0.806366
O O15 0.500000 0.500000 0.952727
#
# Coordination Sequence:
#
# PCOD9359338 Si02
#       6
#     8   8   8   8   4   4
#     4  11  23  39  60  86 119 156 194 239 291 348
#     4   9  19  38  63  89 119 156 198 243 291 346
#     4   9  19  37  60  86 117 153 195 243 292 344
#     4  12  25  40  60  87 121 157 196 243 293 347
#     4  10  23  42  63  89 117 147 189 240 291 346
#     4  12  25  42  65  89 117 153 193 238 291 352
#
# _framework density 18.782389999999999
#
# number of rings (size 3 to 8) (size 9 to 14) (size 15 to 20)
#    0.000    1.600    0.000    6.300    0.000    8.000 
#    0.000    2.000    0.000    0.000    0.000    0.000 
#    0.000    0.000    0.000    0.000    0.000    0.000 
#
# Total GULP energy -111846.223943 kJ/mol
# GULP energy per Si atom -5592.311197 kJ/mol
# Density = 1.873964 g / cm^3
# Si number density = 18.782390 Si / 1000 Ang^3
#
#
#
# Elastic Constant Matrix: (Units=GPa)
#
#
# Indices 1 2 3 4 5 6 
#
# 1 110.8396 84.7614 89.2154 0.0000 0.0000 0.0000
# 2 84.7614 123.7572 102.4676 0.0000 0.0000 0.0000
# 3 89.2154 102.4676 135.2058 0.0000 0.0000 0.0000
# 4 0.0000 0.0000 0.0000 -123.7214 0.0000 0.0000
# 5 0.0000 0.0000 0.0000 0.0000 129.0523 0.0000
# 6 0.0000 0.0000 0.0000 0.0000 0.0000 184.7046
#
#
#
# Elastic Compliance Matrix: (Units=1/GPa)
#
#
# Indices 1 2 3 4 5 6 
#
# 1 0.021934 -0.008159 -0.008290 0.000000 0.000000 0.000000
# 2 -0.008159 0.024726 -0.013356 0.000000 0.000000 0.000000
# 3 -0.008290 -0.013356 0.022988 0.000000 0.000000 0.000000
# 4 0.000000 0.000000 0.000000 -0.008083 0.000000 0.000000
# 5 0.000000 0.000000 0.000000 0.000000 0.007749 0.000000
# 6 0.000000 0.000000 0.000000 0.000000 0.000000 0.005414
#
#
# Mechanical properties :
#
#
# Convention : Reuss Voigt Hill
#
# Bulk Modulus (GPa) = 99.60492 102.52128 101.06310
# Shear Modulus (GPa) = 36.31532 44.23097 40.27314
#
# Velocity S-wave (km/s) = 4.40190 4.85801 4.63557
# Velocity P-wave (km/s) = 8.88717 9.28274 9.08711
#
# Compressibility (1/GPa) = 0.01003966
#
# Stress axis : x y z
#
# Youngs Moduli (GPa) = 45.59224 40.44248 43.50113
#
# Poissons Ratio (x) = 0.32996 0.36061
# Poissons Ratio (y) = 0.37197 0.58099
# Poissons Ratio (z) = 0.37794 0.54014
#
# Static dielectric constant tensor:
#      x y z
#    x 1.629440 0.000000 0.000000 
#    y 0.000000 1.624530 0.000000 
#    z 0.000000 0.000000 1.615360 
# 
# From -- ./inp_files/14302.got.cif
#   From: 2010.05.17/outbox.cif.g08.bks.cpg/sg38_8_cif.got.tgz:14302.got - 2010.06.03 18:07:57.
