data_PCOD9359575
_publ_section_title
;
Structure prediction by ZEFSAII (Michael W. Deem and Ramdas Pophale) SiO2 
 PCOD9359575
Probable space group: A M M 2
;
_chemical_formula_sum "Si O2"
_cell_formula_units_Z 24
_cell_length_a 9.000000
_cell_length_b 30.000000
_cell_length_c 9.000000
_cell_angle_alpha 90.000000
_cell_angle_beta 90.000000
_cell_angle_gamma 90.000000
_cell_volume 2430.000000
_symmetry_space_group_name_H-M "A M M 2"
_symmetry_group_IT_number 38
_symmetry_cell_setting 'orthorhombic'
loop_
_space_group_symop_operation_xyz
x,y,z
-x,-y,z
-x,y,z
x,-y,z
x,1/2+y,1/2+z
-x,1/2-y,1/2+z
-x,1/2+y,1/2+z
x,1/2-y,1/2+z
loop_
_atom_site_type_symbol
_atom_site_label
_atom_site_fract_x
_atom_site_fract_y
_atom_site_fract_z
Si Si1 0.172359 0.132754 0.556160
Si Si2 0.329084 0.951892 0.166341
Si Si3 0.334948 0.049787 0.526853
Si Si4 0.172717 0.864448 0.215729
Si Si5 0.672337 0.293742 0.210632
Si Si6 0.171848 0.277658 0.513683
O O1 0.201178 0.080604 0.575221
O O2 0.223912 0.143035 0.386142
O O3 0.279463 0.156653 0.670961
O O4 0.000000 0.144899 0.574638
O O5 0.500000 0.949777 0.117813
O O6 0.329241 0.952636 0.346994
O O7 0.249067 0.905749 0.133425
O O8 0.266024 0.000000 0.117470
O O9 0.500000 0.067663 0.563801
O O10 0.323893 0.000000 0.585325
O O11 0.186553 0.819781 0.122233
O O12 0.000000 0.876202 0.231603
O O13 0.500000 0.284981 0.183353
O O14 0.719093 0.282935 0.376633
O O15 0.777583 0.264973 0.104451
O O16 0.000000 0.274153 0.464498
#
# Coordination Sequence:
#
# PCOD9359575 Si02
#       6
#     8   8   8   8   8   8
#     4  10  19  33  54  81 112 146 183 224 272 325
#     4   8  14  25  44  72 106 142 177 215 261 310
#     4   8  14  26  45  72 107 144 181 223 269 316
#     4   9  19  33  53  80 108 141 180 220 264 316
#     4  12  25  40  59  84 110 140 181 226 273 327
#     4  11  23  41  61  81 109 144 180 222 275 330
#
# _framework density 9.8765429999999999
#
# number of rings (size 3 to 8) (size 9 to 14) (size 15 to 20)
#    0.000    2.333    0.000    4.500    0.000    4.000 
#    0.000    3.333    0.000    1.000    0.000    4.667 
#    0.000    0.000    0.000    0.000    0.000    0.000 
#
# Total GULP energy -133710.864009 kJ/mol
# GULP energy per Si atom -5571.286000 kJ/mol
# Density = 0.985406 g / cm^3
# Si number density = 9.876543 Si / 1000 Ang^3
#
#
#
# Elastic Constant Matrix: (Units=GPa)
#
#
# Indices 1 2 3 4 5 6 
#
# 1 27.1283 23.2671 -2.2129 0.0000 0.0000 0.0000
# 2 23.2671 37.1473 -5.0051 0.0000 0.0000 0.0000
# 3 -2.2129 -5.0051 17.0018 0.0000 0.0000 0.0000
# 4 0.0000 0.0000 0.0000 -1.7983 0.0000 0.0000
# 5 0.0000 0.0000 0.0000 0.0000 19.4928 0.0000
# 6 0.0000 0.0000 0.0000 0.0000 0.0000 28.9698
#
#
#
# Elastic Compliance Matrix: (Units=1/GPa)
#
#
# Indices 1 2 3 4 5 6 
#
# 1 0.079981 -0.050705 -0.004516 0.000000 0.000000 0.000000
# 2 -0.050705 0.060176 0.011115 0.000000 0.000000 0.000000
# 3 -0.004516 0.011115 0.061501 0.000000 0.000000 0.000000
# 4 0.000000 0.000000 0.000000 -0.556090 0.000000 0.000000
# 5 0.000000 0.000000 0.000000 0.000000 0.051301 0.000000
# 6 0.000000 0.000000 0.000000 0.000000 0.000000 0.034519
#
#
# Mechanical properties :
#
#
# Convention : Reuss Voigt Hill
#
# Bulk Modulus (GPa) = 8.81464 12.59728 10.70596
# Shear Modulus (GPa) = -35.06703 13.68142 -10.69281
#
# Velocity S-wave (km/s) = -4.21796 2.63463 -2.32916
# Velocity P-wave (km/s) = 4.38743 3.95553 1.34226
#
# Compressibility (1/GPa) = 0.11344765
#
# Stress axis : x y z
#
# Youngs Moduli (GPa) = 12.50292 16.61785 16.25977
#
# Poissons Ratio (x) = 0.84260 0.07344
# Poissons Ratio (y) = 0.63396 -0.18073
# Poissons Ratio (z) = 0.05647 -0.18471
#
# Static dielectric constant tensor:
#      x y z
#    x 1.675870 0.000000 0.000000 
#    y 0.000000 1.787500 0.000000 
#    z 0.000000 0.000000 1.683840 
# 
# From -- ./inp_files/3785.got.cif
#   From: 2010.05.17/outbox.ucp.g08.bks.cvg/sg38_2_cif.got.tgz:3785.got - 2010.06.11 10:39:43.
