data_PCOD9359472
_publ_section_title
;
Structure prediction by ZEFSAII (Michael W. Deem and Ramdas Pophale) SiO2 
 PCOD9359472
Probable space group: A M M 2
;
_chemical_formula_sum "Si O2"
_cell_formula_units_Z 48
_cell_length_a 8.411604
_cell_length_b 18.545282
_cell_length_c 15.063231
_cell_angle_alpha 90.000000
_cell_angle_beta 90.000000
_cell_angle_gamma 90.000000
_cell_volume 2349.797280
_symmetry_space_group_name_H-M "A M M 2"
_symmetry_group_IT_number 38
_symmetry_cell_setting 'orthorhombic'
loop_
_space_group_symop_operation_xyz
x,y,z
-x,-y,z
-x,y,z
x,-y,z
x,1/2+y,1/2+z
-x,1/2-y,1/2+z
-x,1/2+y,1/2+z
x,1/2-y,1/2+z
loop_
_atom_site_type_symbol
_atom_site_label
_atom_site_fract_x
_atom_site_fract_y
_atom_site_fract_z
Si Si1 0.813778 0.420376 0.931770
Si Si2 0.688228 0.733655 0.874413
Si Si3 0.809261 0.500000 0.467092
Si Si4 0.682698 0.393635 0.118812
Si Si5 0.189666 0.000000 0.759169
Si Si6 0.815629 0.248807 0.177773
Si Si7 0.309742 0.345713 0.531440
O O1 0.760877 0.500000 0.899494
O O2 0.721645 0.349489 0.899944
O O3 0.000000 0.412045 0.910178
O O4 0.790059 0.419629 0.037852
O O5 0.500000 0.744196 0.861259
O O6 0.776424 0.746664 0.781602
O O7 0.738884 0.789187 0.952660
O O8 0.772523 0.500000 0.362261
O O9 0.738670 0.573447 0.506331
O O10 0.000000 0.500000 0.477962
O O11 0.500000 0.410576 0.098827
O O12 0.736570 0.431918 0.208779
O O13 0.707167 0.309325 0.132228
O O14 0.000000 0.000000 0.748314
O O15 0.000000 0.267559 0.165098
O O16 0.773826 0.177223 0.123146
O O17 0.500000 0.340404 0.540780
#
# Coordination Sequence:
#
# PCOD9359472 Si02
#       7
#     8   8   4   8   4   8   8
#     4  11  23  40  64  94 132 171 213 263 322 385
#     4  11  24  43  69  98 131 170 220 271 326 388
#     4  11  25  43  65  94 129 170 217 267 327 388
#     4  12  23  37  61  93 130 168 213 263 323 387
#     4  11  23  39  61  94 131 168 213 265 327 392
#     4  12  25  42  67  95 129 171 220 270 324 389
#     4  11  24  44  69  96 131 171 217 271 327 387
#
# _framework density 20.427294
#
# number of rings (size 3 to 8) (size 9 to 14) (size 15 to 20)
#    0.000    0.667    2.500    6.000    0.000    7.000 
#    1.500    0.000    0.000    0.000    0.000    0.000 
#    0.000    0.000    0.000    0.000    0.000    0.000 
#
# Total GULP energy -134232.742433 kJ/mol
# GULP energy per Si atom -5593.030935 kJ/mol
# Density = 2.038080 g / cm^3
# Si number density = 20.427294 Si / 1000 Ang^3
#
#
#
# Elastic Constant Matrix: (Units=GPa)
#
#
# Indices 1 2 3 4 5 6 
#
# 1 52.2414 1.7384 8.0110 0.0000 0.0000 0.0000
# 2 1.7384 109.4218 9.1382 0.0000 0.0000 0.0000
# 3 8.0110 9.1382 56.7144 0.0000 0.0000 0.0000
# 4 0.0000 0.0000 0.0000 37.8882 0.0000 0.0000
# 5 0.0000 0.0000 0.0000 0.0000 22.4421 0.0000
# 6 0.0000 0.0000 0.0000 0.0000 0.0000 26.3073
#
#
#
# Elastic Compliance Matrix: (Units=1/GPa)
#
#
# Indices 1 2 3 4 5 6 
#
# 1 0.019566 -0.000081 -0.002751 0.000000 0.000000 0.000000
# 2 -0.000081 0.009264 -0.001481 0.000000 0.000000 0.000000
# 3 -0.002751 -0.001481 0.018259 0.000000 0.000000 0.000000
# 4 0.000000 0.000000 0.000000 0.026393 0.000000 0.000000
# 5 0.000000 0.000000 0.000000 0.000000 0.044559 0.000000
# 6 0.000000 0.000000 0.000000 0.000000 0.000000 0.038012
#
#
# Mechanical properties :
#
#
# Convention : Reuss Voigt Hill
#
# Bulk Modulus (GPa) = 25.99858 28.46143 27.23001
# Shear Modulus (GPa) = 28.16870 30.62685 29.39777
#
# Velocity S-wave (km/s) = 3.71748 3.87629 3.79772
# Velocity P-wave (km/s) = 5.58402 5.83074 5.70871
#
# Compressibility (1/GPa) = 0.03846364
#
# Stress axis : x y z
#
# Youngs Moduli (GPa) = 51.10797 107.94544 54.76621
#
# Poissons Ratio (x) = 0.00876 0.15065
# Poissons Ratio (y) = 0.00415 0.08112
# Poissons Ratio (z) = 0.14058 0.15989
#
# Static dielectric constant tensor:
#      x y z
#    x 1.687720 0.000000 0.000000 
#    y 0.000000 1.732750 0.000000 
#    z 0.000000 0.000000 1.703000 
# 
# From -- ./inp_files/12129.got.cif
#   From: 2010.05.17/outbox.cif.g08.bks.cpg/sg38_7_cif.got.tgz:12129.got - 2010.06.03 18:07:57.
