data_PCOD9359170
_publ_section_title
;
Structure prediction by ZEFSAII (Michael W. Deem and Ramdas Pophale) SiO2 
 PCOD9359170
Probable space group: A M M 2
;
_chemical_formula_sum "Si O2"
_cell_formula_units_Z 64
_cell_length_a 24.473252
_cell_length_b 8.652535
_cell_length_c 15.532065
_cell_angle_alpha 90.000000
_cell_angle_beta 90.000000
_cell_angle_gamma 90.000000
_cell_volume 3289.002823
_symmetry_space_group_name_H-M "A M M 2"
_symmetry_group_IT_number 38
_symmetry_cell_setting 'orthorhombic'
loop_
_space_group_symop_operation_xyz
x,y,z
-x,-y,z
-x,y,z
x,-y,z
x,1/2+y,1/2+z
-x,1/2-y,1/2+z
-x,1/2+y,1/2+z
x,1/2-y,1/2+z
loop_
_atom_site_type_symbol
_atom_site_label
_atom_site_fract_x
_atom_site_fract_y
_atom_site_fract_z
Si Si1 0.876902 0.182577 0.913570
Si Si2 0.762764 0.320685 0.863330
Si Si3 0.742305 0.679851 0.658233
Si Si4 0.563317 0.185029 0.027798
Si Si5 0.373141 0.182825 0.686602
Si Si6 0.640125 0.185850 0.377865
Si Si7 0.061805 0.314016 0.753658
Si Si8 0.141166 0.811286 0.102481
O O1 0.813897 0.220585 0.891879
O O2 0.915298 0.267121 0.846072
O O3 0.886040 0.000000 0.906844
O O4 0.885120 0.232043 0.012010
O O5 0.771810 0.500000 0.888417
O O6 0.758374 0.317993 0.759396
O O7 0.703282 0.267464 0.895768
O O8 0.731361 0.500000 0.635328
O O9 0.687059 0.775462 0.649954
O O10 0.795751 0.739368 0.608995
O O11 0.500000 0.227563 0.014910
O O12 0.639693 0.500000 0.873820
O O13 0.584195 0.244402 0.120130
O O14 0.600511 0.255270 0.952232
O O15 0.375694 0.251250 0.783222
O O16 0.380165 0.000000 0.690635
O O17 0.568077 0.500000 0.525339
O O18 0.061259 0.500000 0.747883
O O19 0.104548 0.257016 0.681886
O O20 0.000000 0.258347 0.739939
O O21 0.143672 0.000000 0.106312
#
# Coordination Sequence:
#
# PCOD9359170 Si02
#       8
#     8   8   8   8   8   8   8   8
#     4  11  22  34  56  90 120 148 187 243 302 348
#     4   9  18  35  59  85 118 156 195 236 287 355
#     4   9  17  35  60  83 116 157 199 245 293 353
#     4  11  25  44  65  90 122 163 210 256 304 364
#     4  11  23  39  61  92 126 162 205 251 305 366
#     4  10  22  41  64  91 123 163 204 253 310 362
#     4  10  21  41  64  80 107 157 206 242 286 354
#     4   9  19  36  57  84 113 153 197 235 288 353
#
# _framework density 19.458784999999999
#
# number of rings (size 3 to 8) (size 9 to 14) (size 15 to 20)
#    0.000    2.000    1.250    3.000    1.750    4.750 
#    0.000    3.125    0.000    0.000    0.000    0.000 
#    0.000    0.000    0.000    0.000    0.000    0.000 
#
# Total GULP energy -178743.200512 kJ/mol
# GULP energy per Si atom -5585.725016 kJ/mol
# Density = 1.941450 g / cm^3
# Si number density = 19.458785 Si / 1000 Ang^3
#
#
#
# Elastic Constant Matrix: (Units=GPa)
#
#
# Indices 1 2 3 4 5 6 
#
# 1 58.3618 9.9630 1.9649 0.0000 0.0000 0.0000
# 2 9.9630 26.7690 0.3538 0.0000 0.0000 0.0000
# 3 1.9649 0.3538 34.1779 0.0000 0.0000 0.0000
# 4 0.0000 0.0000 0.0000 28.8088 0.0000 0.0000
# 5 0.0000 0.0000 0.0000 0.0000 10.4776 0.0000
# 6 0.0000 0.0000 0.0000 0.0000 0.0000 19.2709
#
#
#
# Elastic Compliance Matrix: (Units=1/GPa)
#
#
# Indices 1 2 3 4 5 6 
#
# 1 0.018330 -0.006809 -0.000983 0.000000 0.000000 0.000000
# 2 -0.006809 0.039891 -0.000021 0.000000 0.000000 0.000000
# 3 -0.000983 -0.000021 0.029315 0.000000 0.000000 0.000000
# 4 0.000000 0.000000 0.000000 0.034712 0.000000 0.000000
# 5 0.000000 0.000000 0.000000 0.000000 0.095442 0.000000
# 6 0.000000 0.000000 0.000000 0.000000 0.000000 0.051892
#
#
# Mechanical properties :
#
#
# Convention : Reuss Voigt Hill
#
# Bulk Modulus (GPa) = 13.90650 15.98577 14.94613
# Shear Modulus (GPa) = 16.17186 18.84660 17.50923
#
# Velocity S-wave (km/s) = 2.88598 3.11551 3.00294
# Velocity P-wave (km/s) = 4.27403 4.60162 4.44085
#
# Compressibility (1/GPa) = 0.07190884
#
# Stress axis : x y z
#
# Youngs Moduli (GPa) = 54.55541 25.06820 34.11169
#
# Poissons Ratio (x) = 0.17069 0.03354
# Poissons Ratio (y) = 0.37147 0.00073
# Poissons Ratio (z) = 0.05364 0.00054
#
# Static dielectric constant tensor:
#      x y z
#    x 1.672980 0.000000 0.000000 
#    y 0.000000 1.660710 0.000000 
#    z 0.000000 0.000000 1.673910 
# 
# From -- ./inp_files/15742.got.cif
#   From: 2010.05.17/outbox.cif.g08.bks.cpg/sg38_8_cif.got.tgz:15742.got - 2010.06.03 18:07:57.
