data_PCOD9359797
_publ_section_title
;
Structure prediction by ZEFSAII (Michael W. Deem and Ramdas Pophale) SiO2 
 PCOD9359797
Probable space group: A B M 2
;
_chemical_formula_sum "Si O2"
_cell_formula_units_Z 64
_cell_length_a 14.699064
_cell_length_b 8.541019
_cell_length_c 32.319552
_cell_angle_alpha 90.000000
_cell_angle_beta 90.000000
_cell_angle_gamma 90.000000
_cell_volume 4057.557668
_symmetry_space_group_name_H-M "A B M 2"
_symmetry_group_IT_number 39
_symmetry_cell_setting 'orthorhombic'
loop_
_space_group_symop_operation_xyz
x,y,z
-x,-y,z
-x,1/2+y,z
x,1/2-y,z
x,1/2+y,1/2+z
-x,1/2-y,1/2+z
-x,y,1/2+z
x,-y,1/2+z
loop_
_atom_site_type_symbol
_atom_site_label
_atom_site_fract_x
_atom_site_fract_y
_atom_site_fract_z
Si Si1 0.896898 0.938948 0.533280
Si Si2 0.781244 0.560366 0.454178
Si Si3 0.896562 0.562386 0.624518
Si Si4 0.401771 0.562073 0.826843
Si Si5 0.896561 0.562255 0.211046
Si Si6 0.598028 0.063666 0.420168
Si Si7 0.211489 0.940844 0.792090
Si Si8 0.102275 0.938980 0.873826
O O1 0.901514 0.750000 0.532218
O O2 0.832931 0.990562 0.495756
O O3 0.860578 0.983450 0.579071
O O4 0.000000 0.000000 0.528244
O O5 0.775699 0.750000 0.454114
O O6 0.681000 0.492450 0.448350
O O7 0.840891 0.512383 0.414232
O O8 0.896763 0.750000 0.627545
O O9 0.857272 0.493523 0.666869
O O10 0.000000 0.500000 0.624017
O O11 0.500000 0.500000 0.813066
O O12 0.404224 0.750000 0.827883
O O13 0.386692 0.503659 0.873839
O O14 0.315781 0.510869 0.799435
O O15 0.900723 0.750000 0.211073
O O16 0.835979 0.507801 0.249737
O O17 0.000000 0.500000 0.215416
O O18 0.594921 0.250000 0.417725
O O19 0.500000 0.000000 0.434126
O O20 0.210768 0.750000 0.791944
O O21 0.152830 0.991326 0.831952
O O22 0.100489 0.750000 0.873522
O O23 0.000000 0.000000 0.875453
#
# Coordination Sequence:
#
# PCOD9359797 Si02
#       8
#     8   8   8   8   8   8   8   8
#     4   9  18  30  47  69  95 126 158 193 233 275
#     4  10  19  33  49  66  93 126 156 190 234 274
#     4   9  16  28  44  65  91 120 154 193 233 270
#     4  10  18  33  51  68  91 119 152 193 237 277
#     4  10  18  29  45  66  91 123 157 190 230 271
#     4  11  21  33  50  71  92 119 155 195 235 276
#     4   9  18  31  46  64  91 124 153 187 231 274
#     4  10  19  31  44  61  90 126 156 186 222 264
#
# _framework density 15.773035
#
# number of rings (size 3 to 8) (size 9 to 14) (size 15 to 20)
#    0.000    2.250    1.250    4.500    0.000    1.500 
#    0.000    3.125    0.000    0.000    0.000    0.875 
#    0.000    4.000    0.000    0.000    0.000    0.000 
#
# Total GULP energy -178416.881901 kJ/mol
# GULP energy per Si atom -5575.527559 kJ/mol
# Density = 1.573714 g / cm^3
# Si number density = 15.773035 Si / 1000 Ang^3
#
#
#
# Elastic Constant Matrix: (Units=GPa)
#
#
# Indices 1 2 3 4 5 6 
#
# 1 121.2735 25.6929 78.7486 0.0000 0.0000 0.0000
# 2 25.6929 38.2762 30.6329 0.0000 0.0000 0.0000
# 3 78.7486 30.6329 152.9778 0.0000 0.0000 0.0000
# 4 0.0000 0.0000 0.0000 -20.7283 0.0000 0.0000
# 5 0.0000 0.0000 0.0000 0.0000 5.3363 0.0000
# 6 0.0000 0.0000 0.0000 0.0000 0.0000 23.9968
#
#
#
# Elastic Compliance Matrix: (Units=1/GPa)
#
#
# Indices 1 2 3 4 5 6 
#
# 1 0.012875 -0.003975 -0.005832 0.000000 0.000000 0.000000
# 2 -0.003975 0.032339 -0.004429 0.000000 0.000000 0.000000
# 3 -0.005832 -0.004429 0.010426 0.000000 0.000000 0.000000
# 4 0.000000 0.000000 0.000000 -0.048243 0.000000 0.000000
# 5 0.000000 0.000000 0.000000 0.000000 0.187395 0.000000
# 6 0.000000 0.000000 0.000000 0.000000 0.000000 0.041672
#
#
# Mechanical properties :
#
#
# Convention : Reuss Voigt Hill
#
# Bulk Modulus (GPa) = 36.80876 64.74181 50.77528
# Shear Modulus (GPa) = 18.24871 13.55116 15.89993
#
# Velocity S-wave (km/s) = 3.40510 2.93428 3.17842
# Velocity P-wave (km/s) = 6.23272 7.25362 6.76246
#
# Compressibility (1/GPa) = 0.02716745
#
# Stress axis : x y z
#
# Youngs Moduli (GPa) = 77.67190 30.92229 95.91620
#
# Poissons Ratio (x) = 0.12292 0.55934
# Poissons Ratio (y) = 0.30875 0.42486
# Poissons Ratio (z) = 0.45295 0.13697
#
# Static dielectric constant tensor:
#      x y z
#    x 1.506020 0.000000 0.000000 
#    y 0.000000 1.550410 0.000000 
#    z 0.000000 0.000000 1.547950 
# 
# From -- ./inp_files/17970.got.cif
#   From: 2010.05.17/outbox.cif.g08.bks.cpg/sg39_9_cif.got.tgz:17970.got - 2010.06.03 18:22:40.
