data_PCOD9359329
_publ_section_title
;
Structure prediction by ZEFSAII (Michael W. Deem and Ramdas Pophale) SiO2 
 PCOD9359329
Probable space group: A M M 2
;
_chemical_formula_sum "Si O2"
_cell_formula_units_Z 48
_cell_length_a 7.963362
_cell_length_b 24.142735
_cell_length_c 12.129375
_cell_angle_alpha 90.000000
_cell_angle_beta 90.000000
_cell_angle_gamma 90.000000
_cell_volume 2331.961355
_symmetry_space_group_name_H-M "A M M 2"
_symmetry_group_IT_number 38
_symmetry_cell_setting 'orthorhombic'
loop_
_space_group_symop_operation_xyz
x,y,z
-x,-y,z
-x,y,z
x,-y,z
x,1/2+y,1/2+z
-x,1/2-y,1/2+z
-x,1/2+y,1/2+z
x,1/2-y,1/2+z
loop_
_atom_site_type_symbol
_atom_site_label
_atom_site_fract_x
_atom_site_fract_y
_atom_site_fract_z
Si Si1 0.703848 0.938759 0.116850
Si Si2 0.200768 0.063548 0.532007
Si Si3 0.197938 0.848629 0.701201
Si Si4 0.296750 0.653113 0.453350
Si Si5 0.699482 0.727045 0.656191
Si Si6 0.297882 0.362512 0.823607
O O1 0.500000 0.940834 0.116981
O O2 0.747890 0.904478 0.225001
O O3 0.772308 0.000000 0.120154
O O4 0.751651 0.904896 0.009204
O O5 0.263843 0.095757 0.641574
O O6 0.234104 0.107601 0.433621
O O7 0.000000 0.057969 0.539994
O O8 0.266664 0.000000 0.515906
O O9 0.229963 0.844799 0.830945
O O10 0.271430 0.791984 0.652755
O O11 0.000000 0.847017 0.681158
O O12 0.500000 0.657325 0.446638
O O13 0.237113 0.698136 0.543903
O O14 0.500000 0.716554 0.656662
O O15 0.760449 0.696325 0.769380
O O16 0.500000 0.359332 0.836518
#
# Coordination Sequence:
#
# PCOD9359329 Si02
#       6
#     8   8   8   8   8   8
#     4   8  14  28  53  83 111 137 171 221 276 325
#     4  10  23  41  56  77 116 160 195 231 280 333
#     4  11  24  38  55  79 110 150 191 232 278 334
#     4   9  19  36  56  80 109 141 179 225 280 334
#     4   9  20  38  59  84 113 143 180 233 293 342
#     4   9  18  34  59  88 112 140 182 233 284 334
#
# _framework density 20.583532999999999
#
# number of rings (size 3 to 8) (size 9 to 14) (size 15 to 20)
#    0.000    2.667    0.000    3.000    2.333    4.333 
#    0.000    2.500    0.000    1.000    0.000    0.000 
#    0.000    0.000    0.000    0.000    0.000    0.000 
#
# Total GULP energy -133725.028519 kJ/mol
# GULP energy per Si atom -5571.876188 kJ/mol
# Density = 2.053668 g / cm^3
# Si number density = 20.583533 Si / 1000 Ang^3
#
#
#
# Elastic Constant Matrix: (Units=GPa)
#
#
# Indices 1 2 3 4 5 6 
#
# 1 10.0652 10.5157 3.9998 0.0000 0.0000 0.0000
# 2 10.5157 90.6038 32.5236 0.0000 0.0000 0.0000
# 3 3.9998 32.5236 98.7977 0.0000 0.0000 0.0000
# 4 0.0000 0.0000 0.0000 12.4977 0.0000 0.0000
# 5 0.0000 0.0000 0.0000 0.0000 27.5322 0.0000
# 6 0.0000 0.0000 0.0000 0.0000 0.0000 16.6142
#
#
#
# Elastic Compliance Matrix: (Units=1/GPa)
#
#
# Indices 1 2 3 4 5 6 
#
# 1 0.113070 -0.013018 -0.000292 0.000000 0.000000 0.000000
# 2 -0.013018 0.014015 -0.004087 0.000000 0.000000 0.000000
# 3 -0.000292 -0.004087 0.011479 0.000000 0.000000 0.000000
# 4 0.000000 0.000000 0.000000 0.080014 0.000000 0.000000
# 5 0.000000 0.000000 0.000000 0.000000 0.036321 0.000000
# 6 0.000000 0.000000 0.000000 0.000000 0.000000 0.060189
#
#
# Mechanical properties :
#
#
# Convention : Reuss Voigt Hill
#
# Bulk Modulus (GPa) = 9.63674 32.61610 21.12642
# Shear Modulus (GPa) = 13.00483 21.49066 17.24775
#
# Velocity S-wave (km/s) = 2.51631 3.23471 2.89786
# Velocity P-wave (km/s) = 3.62413 5.46180 4.63495
#
# Compressibility (1/GPa) = 0.10376956
#
# Stress axis : x y z
#
# Youngs Moduli (GPa) = 8.84409 71.35239 87.11711
#
# Poissons Ratio (x) = 0.92889 0.02544
# Poissons Ratio (y) = 0.11514 0.35601
# Poissons Ratio (z) = 0.00258 0.29159
#
# Static dielectric constant tensor:
#      x y z
#    x 1.745130 0.000000 0.000000 
#    y 0.000000 1.768830 0.000000 
#    z 0.000000 0.000000 1.736480 
# 
# From -- ./inp_files/8122.got.cif
#   From: 2010.05.17/outbox.cif.g08.bks.cpg/sg38_5_cif.got.tgz:8122.got - 2010.06.03 18:07:57.
