data_PCOD9359336
_publ_section_title
;
Structure prediction by ZEFSAII (Michael W. Deem and Ramdas Pophale) SiO2 
 PCOD9359336
Probable space group: A M M 2
;
_chemical_formula_sum "Si O2"
_cell_formula_units_Z 56
_cell_length_a 21.859376
_cell_length_b 8.652227
_cell_length_c 15.788629
_cell_angle_alpha 90.000000
_cell_angle_beta 90.000000
_cell_angle_gamma 90.000000
_cell_volume 2986.139452
_symmetry_space_group_name_H-M "A M M 2"
_symmetry_group_IT_number 38
_symmetry_cell_setting 'orthorhombic'
loop_
_space_group_symop_operation_xyz
x,y,z
-x,-y,z
-x,y,z
x,-y,z
x,1/2+y,1/2+z
-x,1/2-y,1/2+z
-x,1/2+y,1/2+z
x,1/2-y,1/2+z
loop_
_atom_site_type_symbol
_atom_site_label
_atom_site_fract_x
_atom_site_fract_y
_atom_site_fract_z
Si Si1 0.789297 0.185008 0.759170
Si Si2 0.428635 0.686341 0.107951
Si Si3 0.652891 0.685250 0.758699
Si Si4 0.870111 0.184636 0.411047
Si Si5 0.430067 0.311824 0.914799
Si Si6 0.000000 0.316916 0.667564
Si Si7 0.000000 0.184085 0.856462
Si Si8 0.125599 0.813981 0.601894
O O1 0.721276 0.250902 0.757403
O O2 0.826065 0.242510 0.841177
O O3 0.827555 0.232347 0.675638
O O4 0.786856 0.000000 0.759997
O O5 0.500000 0.725429 0.124063
O O6 0.423282 0.500000 0.112514
O O7 0.384862 0.760852 0.176825
O O8 0.414305 0.733964 0.011033
O O9 0.654859 0.500000 0.760792
O O10 0.616364 0.740297 0.842554
O O11 0.851511 0.221292 0.507459
O O12 0.938681 0.246132 0.396399
O O13 0.869986 0.000000 0.400494
O O14 0.500000 0.262644 0.896615
O O15 0.430284 0.500000 0.914218
O O16 0.000000 0.229676 0.757515
O O17 0.939151 0.266745 0.618425
O O18 0.000000 0.500000 0.682382
O O19 0.000000 0.000000 0.865490
O O20 0.116518 0.000000 0.607306
#
# Coordination Sequence:
#
# PCOD9359336 Si02
#       8
#     8   8   8   8   8   4   4   8
#     4  11  24  42  60  81 115 160 198 239 290 349
#     4   9  18  35  59  85 113 147 189 234 282 345
#     4  11  22  36  57  84 116 152 193 241 286 339
#     4  11  23  41  64  90 115 149 196 245 293 348
#     4   8  16  33  57  83 112 149 189 229 283 347
#     4  12  23  36  63  94 120 150 193 247 290 339
#     4  12  23  38  61  90 124 156 185 231 298 355
#     4  10  23  42  63  85 117 155 192 238 299 360
#
# _framework density 18.753311
#
# number of rings (size 3 to 8) (size 9 to 14) (size 15 to 20)
#    0.000    1.714    1.429    4.286    0.000    5.429 
#    0.000    7.143    0.000    1.714    0.000    0.000 
#    0.000    0.000    0.000    0.000    0.000    0.000 
#
# Total GULP energy -156460.960975 kJ/mol
# GULP energy per Si atom -5587.891463 kJ/mol
# Density = 1.871063 g / cm^3
# Si number density = 18.753311 Si / 1000 Ang^3
#
#
#
# Elastic Constant Matrix: (Units=GPa)
#
#
# Indices 1 2 3 4 5 6 
#
# 1 166.2662 47.7326 114.0137 0.0000 0.0000 0.0000
# 2 47.7326 40.4342 45.7040 0.0000 0.0000 0.0000
# 3 114.0137 45.7040 166.5658 0.0000 0.0000 0.0000
# 4 0.0000 0.0000 0.0000 30.8172 0.0000 0.0000
# 5 0.0000 0.0000 0.0000 0.0000 -4.6750 0.0000
# 6 0.0000 0.0000 0.0000 0.0000 0.0000 -10.1405
#
#
#
# Elastic Compliance Matrix: (Units=1/GPa)
#
#
# Indices 1 2 3 4 5 6 
#
# 1 0.012735 -0.007510 -0.006656 0.000000 0.000000 0.000000
# 2 -0.007510 0.040279 -0.005912 0.000000 0.000000 0.000000
# 3 -0.006656 -0.005912 0.012182 0.000000 0.000000 0.000000
# 4 0.000000 0.000000 0.000000 0.032449 0.000000 0.000000
# 5 0.000000 0.000000 0.000000 0.000000 -0.213903 0.000000
# 6 0.000000 0.000000 0.000000 0.000000 0.000000 -0.098614
#
#
# Mechanical properties :
#
#
# Convention : Reuss Voigt Hill
#
# Bulk Modulus (GPa) = 39.93581 87.57410 63.75495
# Shear Modulus (GPa) = -30.05357 14.25473 -7.89942
#
# Velocity S-wave (km/s) = -4.00756 2.76002 -2.05461
# Velocity P-wave (km/s) = 0.26921 7.54694 5.33309
#
# Compressibility (1/GPa) = 0.02504019
#
# Stress axis : x y z
#
# Youngs Moduli (GPa) = 78.52488 24.82688 82.08788
#
# Poissons Ratio (x) = 0.18644 0.54641
# Poissons Ratio (y) = 0.58969 0.48529
# Poissons Ratio (z) = 0.52269 0.14677
#
# Static dielectric constant tensor:
#      x y z
#    x 1.613640 0.000000 0.000000 
#    y 0.000000 1.634960 0.000000 
#    z 0.000000 0.000000 1.652160 
# 
# From -- ./inp_files/15543.got.cif
#   From: 2010.05.17/outbox.cif.g08.bks.cpg/sg38_8_cif.got.tgz:15543.got - 2010.06.03 18:07:57.
