data_PCOD9359401
_publ_section_title
;
Structure prediction by ZEFSAII (Michael W. Deem and Ramdas Pophale) SiO2 
 PCOD9359401
Probable space group: A M M 2
;
_chemical_formula_sum "Si O2"
_cell_formula_units_Z 64
_cell_length_a 8.995986
_cell_length_b 14.179415
_cell_length_c 30.285285
_cell_angle_alpha 90.000000
_cell_angle_beta 90.000000
_cell_angle_gamma 90.000000
_cell_volume 3863.124897
_symmetry_space_group_name_H-M "A M M 2"
_symmetry_group_IT_number 38
_symmetry_cell_setting 'orthorhombic'
loop_
_space_group_symop_operation_xyz
x,y,z
-x,-y,z
-x,y,z
x,-y,z
x,1/2+y,1/2+z
-x,1/2-y,1/2+z
-x,1/2+y,1/2+z
x,1/2-y,1/2+z
loop_
_atom_site_type_symbol
_atom_site_label
_atom_site_fract_x
_atom_site_fract_y
_atom_site_fract_z
Si Si1 0.672026 0.885917 0.584390
Si Si2 0.825401 0.797375 0.404883
Si Si3 0.821167 0.389992 0.175635
Si Si4 0.678200 0.111188 0.317643
Si Si5 0.173595 0.251022 0.253396
Si Si6 0.663938 0.606043 0.306325
Si Si7 0.670735 0.612936 0.986480
Si Si8 0.330368 0.895371 0.912119
O O1 0.500000 0.858009 0.590958
O O2 0.768677 0.860727 0.626806
O O3 0.718649 0.853104 0.535405
O O4 0.675190 0.000000 0.583097
O O5 0.742103 0.834793 0.360824
O O6 0.775002 0.859452 0.446404
O O7 0.775163 0.692665 0.419580
O O8 0.000000 0.801626 0.396603
O O9 0.771159 0.500000 0.183792
O O10 0.770861 0.310006 0.210567
O O11 0.000000 0.392115 0.178012
O O12 0.500000 0.119432 0.318533
O O13 0.741243 0.160966 0.273348
O O14 0.717238 0.000000 0.319701
O O15 0.202821 0.329419 0.290951
O O16 0.000000 0.229287 0.248106
O O17 0.500000 0.642754 0.292244
O O18 0.680061 0.500000 0.289084
O O19 0.661598 0.600814 0.358892
O O20 0.500000 0.645375 0.978443
O O21 0.665537 0.500000 0.988349
O O22 0.500000 0.878183 0.927783
O O23 0.283438 0.000000 0.927417
#
# Coordination Sequence:
#
# PCOD9359401 Si02
#       8
#     8   8   8   8   8   8   8   8
#     4   8  15  29  49  73  99 129 167 206 242 283
#     4  12  23  33  50  77 103 130 166 207 251 300
#     4   9  18  31  47  72 107 139 161 189 240 301
#     4  11  24  40  54  67  91 130 172 214 255 292
#     4  11  21  32  48  72  99 129 164 202 244 294
#     4   9  17  29  46  67  92 125 163 198 233 278
#     4   9  18  33  52  73 100 135 172 209 248 292
#     4   9  18  33  51  69  93 128 166 201 240 287
#
# _framework density 16.566898999999999
#
# number of rings (size 3 to 8) (size 9 to 14) (size 15 to 20)
#    0.000    2.250    1.250    4.125    0.000    5.250 
#    0.000    3.750    0.000    0.000    0.000    0.875 
#    0.000    5.000    0.000    0.000    0.000    0.000 
#
# Total GULP energy -178153.365949 kJ/mol
# GULP energy per Si atom -5567.292686 kJ/mol
# Density = 1.652919 g / cm^3
# Si number density = 16.566899 Si / 1000 Ang^3
#
#
#
# Elastic Constant Matrix: (Units=GPa)
#
#
# Indices 1 2 3 4 5 6 
#
# 1 45.9694 26.9856 23.4672 0.0000 0.0000 0.0000
# 2 26.9856 76.1173 26.7823 0.0000 0.0000 0.0000
# 3 23.4672 26.7823 74.6972 0.0000 0.0000 0.0000
# 4 0.0000 0.0000 0.0000 17.4625 0.0000 0.0000
# 5 0.0000 0.0000 0.0000 0.0000 27.3304 0.0000
# 6 0.0000 0.0000 0.0000 0.0000 0.0000 15.9829
#
#
#
# Elastic Compliance Matrix: (Units=1/GPa)
#
#
# Indices 1 2 3 4 5 6 
#
# 1 0.029930 -0.008357 -0.006407 0.000000 0.000000 0.000000
# 2 -0.008357 0.017368 -0.003602 0.000000 0.000000 0.000000
# 3 -0.006407 -0.003602 0.016691 0.000000 0.000000 0.000000
# 4 0.000000 0.000000 0.000000 0.057266 0.000000 0.000000
# 5 0.000000 0.000000 0.000000 0.000000 0.036589 0.000000
# 6 0.000000 0.000000 0.000000 0.000000 0.000000 0.062567
#
#
# Mechanical properties :
#
#
# Convention : Reuss Voigt Hill
#
# Bulk Modulus (GPa) = 36.68535 39.02824 37.85680
# Shear Modulus (GPa) = 18.78096 20.12507 19.45301
#
# Velocity S-wave (km/s) = 3.37062 3.48914 3.43039
# Velocity P-wave (km/s) = 6.11064 6.31199 6.21213
#
# Compressibility (1/GPa) = 0.02725884
#
# Stress axis : x y z
#
# Youngs Moduli (GPa) = 33.41148 57.57852 59.91078
#
# Poissons Ratio (x) = 0.48117 0.38383
# Poissons Ratio (y) = 0.27921 0.21578
# Poissons Ratio (z) = 0.21405 0.20738
#
# Static dielectric constant tensor:
#      x y z
#    x 1.568590 0.000000 0.000000 
#    y 0.000000 1.590210 0.000000 
#    z 0.000000 0.000000 1.570650 
# 
# From -- ./inp_files/24762.got.cif
#   From: 2010.05.17/outbox.cif.g08.bks.cpg/sg38_13_cif.got.tgz:24762.got - 2010.06.03 18:07:57.
