data_PCOD9359324
_publ_section_title
;
Structure prediction by ZEFSAII (Michael W. Deem and Ramdas Pophale) SiO2 
 PCOD9359324
Probable space group: A M M 2
;
_chemical_formula_sum "Si O2"
_cell_formula_units_Z 64
_cell_length_a 8.676510
_cell_length_b 20.228468
_cell_length_c 21.267600
_cell_angle_alpha 90.000000
_cell_angle_beta 90.000000
_cell_angle_gamma 90.000000
_cell_volume 3732.729749
_symmetry_space_group_name_H-M "A M M 2"
_symmetry_group_IT_number 38
_symmetry_cell_setting 'orthorhombic'
loop_
_space_group_symop_operation_xyz
x,y,z
-x,-y,z
-x,y,z
x,-y,z
x,1/2+y,1/2+z
-x,1/2-y,1/2+z
-x,1/2+y,1/2+z
x,1/2-y,1/2+z
loop_
_atom_site_type_symbol
_atom_site_label
_atom_site_fract_x
_atom_site_fract_y
_atom_site_fract_z
Si Si1 0.685604 0.791061 0.151110
Si Si2 0.315433 0.709169 0.272618
Si Si3 0.185080 0.574902 0.464845
Si Si4 0.184994 0.074632 0.815565
Si Si5 0.814312 0.073996 0.200181
Si Si6 0.812870 0.927227 0.347877
Si Si7 0.185064 0.213177 0.393117
Si Si8 0.316046 0.290317 0.511745
O O1 0.500000 0.790894 0.151869
O O2 0.738502 0.744849 0.208610
O O3 0.741872 0.865435 0.163513
O O4 0.735368 0.769379 0.081568
O O5 0.500000 0.713466 0.275854
O O6 0.264271 0.633241 0.277926
O O7 0.245687 0.746962 0.332652
O O8 0.228217 0.500000 0.483385
O O9 0.218379 0.582404 0.390201
O O10 0.267608 0.633568 0.501012
O O11 0.000000 0.581106 0.472393
O O12 0.000000 0.079835 0.809144
O O13 0.230907 0.000000 0.797520
O O14 0.772708 0.080754 0.274151
O O15 0.000000 0.077839 0.195903
O O16 0.768303 0.000000 0.179572
O O17 0.761507 0.862876 0.385663
O O18 0.000000 0.928046 0.350180
O O19 0.758829 0.000000 0.368762
O O20 0.242420 0.247528 0.456324
O O21 0.000000 0.215082 0.391699
O O22 0.500000 0.285004 0.507372
#
# Coordination Sequence:
#
# PCOD9359324 Si02
#       8
#     8   8   8   8   8   8   8   8
#     4  10  23  38  50  71 108 146 177 212 259 306
#     4  11  21  34  54  79 105 137 176 216 257 307
#     4   9  18  33  52  75 105 138 173 214 258 306
#     4   9  18  33  54  80 108 134 165 213 266 310
#     4   9  17  31  52  77 104 137 176 214 254 304
#     4   8  15  29  51  79 106 130 162 208 260 308
#     4  11  20  33  56  81 104 134 172 218 265 307
#     4  11  23  37  51  72 106 145 179 215 255 306
#
# _framework density 17.145629
#
# number of rings (size 3 to 8) (size 9 to 14) (size 15 to 20)
#    0.000    2.250    2.500    2.625    0.000    2.750 
#    0.000    3.750    0.000    2.250    0.000    3.500 
#    0.000    0.000    0.000    0.000    0.000    0.000 
#
# Total GULP energy -178516.581320 kJ/mol
# GULP energy per Si atom -5578.643166 kJ/mol
# Density = 1.710660 g / cm^3
# Si number density = 17.145629 Si / 1000 Ang^3
#
#
#
# Elastic Constant Matrix: (Units=GPa)
#
#
# Indices 1 2 3 4 5 6 
#
# 1 21.4031 27.7645 31.5646 0.0000 0.0000 0.0000
# 2 27.7645 126.7068 74.5216 0.0000 0.0000 0.0000
# 3 31.5646 74.5216 119.1880 0.0000 0.0000 0.0000
# 4 0.0000 0.0000 0.0000 18.1188 0.0000 0.0000
# 5 0.0000 0.0000 0.0000 0.0000 8.4832 0.0000
# 6 0.0000 0.0000 0.0000 0.0000 0.0000 7.8756
#
#
#
# Elastic Compliance Matrix: (Units=1/GPa)
#
#
# Indices 1 2 3 4 5 6 
#
# 1 0.081705 -0.008188 -0.016518 0.000000 0.000000 0.000000
# 2 -0.008188 0.013303 -0.006149 0.000000 0.000000 0.000000
# 3 -0.016518 -0.006149 0.016609 0.000000 0.000000 0.000000
# 4 0.000000 0.000000 0.000000 0.055191 0.000000 0.000000
# 5 0.000000 0.000000 0.000000 0.000000 0.117880 0.000000
# 6 0.000000 0.000000 0.000000 0.000000 0.000000 0.126975
#
#
# Mechanical properties :
#
#
# Convention : Reuss Voigt Hill
#
# Bulk Modulus (GPa) = 20.03771 59.44435 39.74103
# Shear Modulus (GPa) = 10.20388 15.79201 12.99794
#
# Velocity S-wave (km/s) = 2.44218 3.03818 2.75633
# Velocity P-wave (km/s) = 4.43446 6.85951 5.77570
#
# Compressibility (1/GPa) = 0.04990590
#
# Stress axis : x y z
#
# Youngs Moduli (GPa) = 12.23915 75.17057 60.20712
#
# Poissons Ratio (x) = 0.61553 0.99451
# Poissons Ratio (y) = 0.10022 0.37022
# Poissons Ratio (z) = 0.20217 0.46223
#
# Static dielectric constant tensor:
#      x y z
#    x 1.577720 0.000000 0.000000 
#    y 0.000000 1.591560 0.000000 
#    z 0.000000 0.000000 1.575600 
# 
# From -- ./inp_files/17194.got.cif
#   From: 2010.05.17/outbox.cif.g08.bks.cpg/sg38_9_cif.got.tgz:17194.got - 2010.06.03 18:07:57.
