data_PCOD9359144
_publ_section_title
;
Structure prediction by ZEFSAII (Michael W. Deem and Ramdas Pophale) SiO2 
 PCOD9359144
Probable space group: A M M 2
;
_chemical_formula_sum "Si O2"
_cell_formula_units_Z 40
_cell_length_a 14.945302
_cell_length_b 7.596217
_cell_length_c 16.094826
_cell_angle_alpha 90.000000
_cell_angle_beta 90.000000
_cell_angle_gamma 90.000000
_cell_volume 1827.209497
_symmetry_space_group_name_H-M "A M M 2"
_symmetry_group_IT_number 38
_symmetry_cell_setting 'orthorhombic'
loop_
_space_group_symop_operation_xyz
x,y,z
-x,-y,z
-x,y,z
x,-y,z
x,1/2+y,1/2+z
-x,1/2-y,1/2+z
-x,1/2+y,1/2+z
x,1/2-y,1/2+z
loop_
_atom_site_type_symbol
_atom_site_label
_atom_site_fract_x
_atom_site_fract_y
_atom_site_fract_z
Si Si1 0.099039 0.287307 0.915200
Si Si2 0.399967 0.206916 0.521664
Si Si3 0.097715 0.713987 0.110284
Si Si4 0.286208 0.216884 0.677560
Si Si5 0.707166 0.296885 0.358595
O O1 0.102179 0.500000 0.911257
O O2 0.185594 0.216904 0.868683
O O3 0.000000 0.230676 0.886095
O O4 0.106884 0.238506 0.012850
O O5 0.500000 0.280120 0.510873
O O6 0.347004 0.279055 0.601247
O O7 0.340954 0.219158 0.438735
O O8 0.408708 0.000000 0.538746
O O9 0.097402 0.500000 0.112507
O O10 0.184286 0.773715 0.159858
O O11 0.000000 0.774418 0.139913
O O12 0.316985 0.277138 0.768271
O O13 0.285648 0.000000 0.678248
O O14 0.681113 0.500000 0.359084
#
# Coordination Sequence:
#
# PCOD9359144 Si02
#       5
#     8   8   8   8   8
#     4   9  17  32  56  81 109 151 195 226 257 313
#     4  10  21  40  63  80 101 142 192 233 271 329
#     4   8  13  25  50  78 101 134 182 225 254 297
#     4   9  18  33  54  81 109 141 184 225 266 325
#     4  11  22  34  55  88 119 142 172 228 290 331
#
# _framework density 21.891304000000002
#
# number of rings (size 3 to 8) (size 9 to 14) (size 15 to 20)
#    0.000    2.600    2.000    1.800    0.000    2.400 
#    0.000    6.000    0.000    0.000    0.000    0.000 
#    0.000    0.000    0.000    0.000    0.000    0.000 
#
# Total GULP energy -111641.983063 kJ/mol
# GULP energy per Si atom -5582.099153 kJ/mol
# Density = 2.184148 g / cm^3
# Si number density = 21.891304 Si / 1000 Ang^3
#
#
#
# Elastic Constant Matrix: (Units=GPa)
#
#
# Indices 1 2 3 4 5 6 
#
# 1 132.9610 -1.8449 76.3059 0.0000 0.0000 0.0000
# 2 -1.8449 42.9062 1.0424 0.0000 0.0000 0.0000
# 3 76.3059 1.0424 149.1232 0.0000 0.0000 0.0000
# 4 0.0000 0.0000 0.0000 8.5413 0.0000 0.0000
# 5 0.0000 0.0000 0.0000 0.0000 -4.2314 0.0000
# 6 0.0000 0.0000 0.0000 0.0000 0.0000 1.6353
#
#
#
# Elastic Compliance Matrix: (Units=1/GPa)
#
#
# Indices 1 2 3 4 5 6 
#
# 1 0.010663 0.000591 -0.005460 0.000000 0.000000 0.000000
# 2 0.000591 0.023343 -0.000466 0.000000 0.000000 0.000000
# 3 -0.005460 -0.000466 0.009503 0.000000 0.000000 0.000000
# 4 0.000000 0.000000 0.000000 0.117079 0.000000 0.000000
# 5 0.000000 0.000000 0.000000 0.000000 -0.236328 0.000000
# 6 0.000000 0.000000 0.000000 0.000000 0.000000 0.611512
#
#
# Mechanical properties :
#
#
# Convention : Reuss Voigt Hill
#
# Bulk Modulus (GPa) = 30.45087 52.88858 41.66973
# Shear Modulus (GPa) = 8.97041 17.82149 13.39595
#
# Velocity S-wave (km/s) = 2.02647 2.85632 2.47641
# Velocity P-wave (km/s) = 4.40632 5.92370 5.22043
#
# Compressibility (1/GPa) = 0.03283978
#
# Stress axis : x y z
#
# Youngs Moduli (GPa) = 93.78362 42.83866 105.22846
#
# Poissons Ratio (x) = -0.02532 0.57458
# Poissons Ratio (y) = -0.05544 0.04900
# Poissons Ratio (z) = 0.51208 0.01995
#
# Static dielectric constant tensor:
#      x y z
#    x 1.792320 0.000000 0.000000 
#    y 0.000000 1.820500 0.000000 
#    z 0.000000 0.000000 1.788740 
# 
# From -- ./inp_files/14266.got.cif
#   From: 2010.05.17/outbox.cif.g08.bks.cpg/sg38_8_cif.got.tgz:14266.got - 2010.06.03 18:07:57.
