data_PCOD9359586
_publ_section_title
;
Structure prediction by ZEFSAII (Michael W. Deem and Ramdas Pophale) SiO2 
 PCOD9359586
Probable space group: A M M 2
;
_chemical_formula_sum "Si O2"
_cell_formula_units_Z 32
_cell_length_a 9.000000
_cell_length_b 21.000000
_cell_length_c 21.000000
_cell_angle_alpha 90.000000
_cell_angle_beta 90.000000
_cell_angle_gamma 90.000000
_cell_volume 3969.000000
_symmetry_space_group_name_H-M "A M M 2"
_symmetry_group_IT_number 38
_symmetry_cell_setting 'orthorhombic'
loop_
_space_group_symop_operation_xyz
x,y,z
-x,-y,z
-x,y,z
x,-y,z
x,1/2+y,1/2+z
-x,1/2-y,1/2+z
-x,1/2+y,1/2+z
x,1/2-y,1/2+z
loop_
_atom_site_type_symbol
_atom_site_label
_atom_site_fract_x
_atom_site_fract_y
_atom_site_fract_z
Si Si1 0.822131 0.658511 0.218670
Si Si2 0.679068 0.725249 0.941050
Si Si3 0.321535 0.290284 0.091457
Si Si4 0.670494 0.424225 0.320067
Si Si5 0.176624 0.136268 0.942278
Si Si6 0.676614 0.336426 0.674008
Si Si7 0.670844 0.924434 0.062140
Si Si8 0.821474 0.212057 0.300543
O O1 0.757349 0.667901 0.147109
O O2 0.744429 0.600979 0.255446
O O3 0.791238 0.718355 0.267471
O O4 0.000000 0.652445 0.214905
O O5 0.500000 0.720420 0.936564
O O6 0.737227 0.797175 0.942682
O O7 0.747881 0.702136 0.871415
O O8 0.718715 0.702018 0.015318
O O9 0.500000 0.299305 0.094535
O O10 0.289461 0.220083 0.122245
O O11 0.500000 0.400381 0.325357
O O12 0.667302 0.500000 0.320498
O O13 0.764987 0.401113 0.380575
O O14 0.000000 0.145989 0.938307
O O15 0.222678 0.100987 0.007049
O O16 0.500000 0.332153 0.687509
O O17 0.709065 0.398696 0.632241
O O18 0.760783 0.331128 0.741567
O O19 0.500000 0.902267 0.048660
O O20 0.671781 0.000000 0.060981
O O21 0.000000 0.206062 0.307531
#
# Coordination Sequence:
#
# PCOD9359586 Si02
#       8
#     8   8   8   8   8   8   8   8
#     4  10  20  33  50  74 101 130 163 205 254 298
#     4  11  20  33  53  75 100 134 170 205 247 297
#     4   9  18  32  51  72  97 129 166 204 246 299
#     4  11  23  37  53  71  96 135 177 211 244 288
#     4  12  23  33  47  71 104 137 171 209 246 292
#     4   9  17  32  50  71  96 130 169 205 247 294
#     4  10  20  35  53  72  98 134 176 213 245 289
#     4  10  20  32  48  74 102 130 163 204 255 301
#
# _framework density 8.0624839999999995
#
# number of rings (size 3 to 8) (size 9 to 14) (size 15 to 20)
#    0.000    1.750    2.500    3.000    0.000    5.250 
#    0.000    0.000    0.000    0.000    0.000    0.875 
#    0.000    3.000    0.000    0.000    0.000    0.000 
#
# Total GULP energy -178187.787552 kJ/mol
# GULP energy per Si atom -5568.368361 kJ/mol
# Density = 0.804413 g / cm^3
# Si number density = 8.062484 Si / 1000 Ang^3
#
#
#
# Elastic Constant Matrix: (Units=GPa)
#
#
# Indices 1 2 3 4 5 6 
#
# 1 62.4860 11.4117 49.8307 0.0000 0.0000 0.0000
# 2 11.4117 24.5811 21.4697 0.0000 0.0000 0.0000
# 3 49.8307 21.4697 163.3815 0.0000 0.0000 0.0000
# 4 0.0000 0.0000 0.0000 11.0370 0.0000 0.0000
# 5 0.0000 0.0000 0.0000 0.0000 29.5208 0.0000
# 6 0.0000 0.0000 0.0000 0.0000 0.0000 9.4811
#
#
#
# Elastic Compliance Matrix: (Units=1/GPa)
#
#
# Indices 1 2 3 4 5 6 
#
# 1 0.021645 -0.004838 -0.005966 0.000000 0.000000 0.000000
# 2 -0.004838 0.047038 -0.004706 0.000000 0.000000 0.000000
# 3 -0.005966 -0.004706 0.008559 0.000000 0.000000 0.000000
# 4 0.000000 0.000000 0.000000 0.090604 0.000000 0.000000
# 5 0.000000 0.000000 0.000000 0.000000 0.033874 0.000000
# 6 0.000000 0.000000 0.000000 0.000000 0.000000 0.105473
#
#
# Mechanical properties :
#
#
# Convention : Reuss Voigt Hill
#
# Bulk Modulus (GPa) = 21.63460 46.20811 33.92135
# Shear Modulus (GPa) = 14.13953 21.19022 17.66487
#
# Velocity S-wave (km/s) = 2.96441 3.62902 3.31342
# Velocity P-wave (km/s) = 5.01627 6.80281 5.97667
#
# Compressibility (1/GPa) = 0.04622227
#
# Stress axis : x y z
#
# Youngs Moduli (GPa) = 46.20081 21.25962 116.84232
#
# Poissons Ratio (x) = 0.10285 0.69706
# Poissons Ratio (y) = 0.22351 0.54981
# Poissons Ratio (z) = 0.27562 0.10004
#
# Static dielectric constant tensor:
#      x y z
#    x 1.555120 0.000000 0.000000 
#    y 0.000000 1.562330 0.000000 
#    z 0.000000 0.000000 1.557300 
# 
# From -- ./inp_files/17187.got.cif
#   From: 2010.05.17/outbox.ucp.g08.bks.cvg/sg38_9_cif.got.tgz:17187.got - 2010.06.11 10:39:43.
