data_PCOD9359524
_publ_section_title
;
Structure prediction by ZEFSAII (Michael W. Deem and Ramdas Pophale) SiO2 
 PCOD9359524
Probable space group: A M M 2
;
_chemical_formula_sum "Si O2"
_cell_formula_units_Z 56
_cell_length_a 14.809617
_cell_length_b 7.426646
_cell_length_c 21.973116
_cell_angle_alpha 90.000000
_cell_angle_beta 90.000000
_cell_angle_gamma 90.000000
_cell_volume 2416.730365
_symmetry_space_group_name_H-M "A M M 2"
_symmetry_group_IT_number 38
_symmetry_cell_setting 'orthorhombic'
loop_
_space_group_symop_operation_xyz
x,y,z
-x,-y,z
-x,y,z
x,-y,z
x,1/2+y,1/2+z
-x,1/2-y,1/2+z
-x,1/2+y,1/2+z
x,1/2-y,1/2+z
loop_
_atom_site_type_symbol
_atom_site_label
_atom_site_fract_x
_atom_site_fract_y
_atom_site_fract_z
Si Si1 0.390484 0.295557 0.559520
Si Si2 0.103263 0.784626 0.987203
Si Si3 0.212366 0.221211 0.738086
Si Si4 0.102905 0.284775 0.120984
Si Si5 0.602766 0.779943 0.925788
Si Si6 0.785658 0.780436 0.870762
Si Si7 0.399391 0.706513 0.194963
O O1 0.500000 0.301138 0.556464
O O2 0.356318 0.500000 0.563673
O O3 0.366324 0.219883 0.493537
O O4 0.370972 0.204719 0.623641
O O5 0.158441 0.717143 0.929228
O O6 0.000000 0.715425 0.987047
O O7 0.099216 0.000000 0.981246
O O8 0.143733 0.750189 0.054198
O O9 0.156391 0.282850 0.679585
O O10 0.178322 0.274373 0.804741
O O11 0.315406 0.285354 0.730517
O O12 0.213082 0.000000 0.736261
O O13 0.098604 0.500000 0.126896
O O14 0.000000 0.214742 0.120532
O O15 0.500000 0.721358 0.913081
O O16 0.680947 0.728165 0.879558
O O17 0.600245 0.000000 0.928412
O O18 0.787439 0.000000 0.871938
O O19 0.500000 0.787402 0.199607
O O20 0.407199 0.500000 0.215161
#
# Coordination Sequence:
#
# PCOD9359524 Si02
#       7
#     8   8   8   8   8   8   8
#     4   8  14  25  41  62  86 114 152 192 226 264
#     4   9  18  32  51  75  97 117 148 192 237 276
#     4   9  18  30  44  67  96 124 156 190 226 273
#     4   9  18  33  52  71  92 122 156 188 227 276
#     4   8  14  24  39  62  91 120 152 189 226 266
#     4   9  17  28  44  68  96 124 153 189 233 273
#     4   9  17  28  42  63  92 122 151 186 228 269
#
# _framework density 23.171803000000001
#
# number of rings (size 3 to 8) (size 9 to 14) (size 15 to 20)
#    0.000    3.286    0.000    0.857    2.000    1.143 
#    0.000    5.714    0.000    1.714    0.000    4.000 
#    0.000    4.571    0.000    0.000    0.000    0.000 
#
# Total GULP energy -156207.125998 kJ/mol
# GULP energy per Si atom -5578.825928 kJ/mol
# Density = 2.311906 g / cm^3
# Si number density = 23.171803 Si / 1000 Ang^3
#
#
#
# Elastic Constant Matrix: (Units=GPa)
#
#
# Indices 1 2 3 4 5 6 
#
# 1 84.0351 2.8151 85.5408 0.0000 0.0000 0.0000
# 2 2.8151 72.5275 -1.4364 0.0000 0.0000 0.0000
# 3 85.5408 -1.4364 198.0450 0.0000 0.0000 0.0000
# 4 0.0000 0.0000 0.0000 14.8484 0.0000 0.0000
# 5 0.0000 0.0000 0.0000 0.0000 14.8532 0.0000
# 6 0.0000 0.0000 0.0000 0.0000 0.0000 -2.9157
#
#
#
# Elastic Compliance Matrix: (Units=1/GPa)
#
#
# Indices 1 2 3 4 5 6 
#
# 1 0.021311 -0.001010 -0.009212 0.000000 0.000000 0.000000
# 2 -0.001010 0.013838 0.000536 0.000000 0.000000 0.000000
# 3 -0.009212 0.000536 0.009032 0.000000 0.000000 0.000000
# 4 0.000000 0.000000 0.000000 0.067347 0.000000 0.000000
# 5 0.000000 0.000000 0.000000 0.000000 0.067326 0.000000
# 6 0.000000 0.000000 0.000000 0.000000 0.000000 -0.342973
#
#
# Mechanical properties :
#
#
# Convention : Reuss Voigt Hill
#
# Bulk Modulus (GPa) = 40.30597 58.71630 49.51114
# Shear Modulus (GPa) = -36.63549 23.20306 -6.71621
#
# Velocity S-wave (km/s) = -3.98054 3.16784 -1.70433
# Velocity P-wave (km/s) = 1.92200 6.22695 4.18812
#
# Compressibility (1/GPa) = 0.02481022
#
# Stress axis : x y z
#
# Youngs Moduli (GPa) = 46.92502 72.26646 110.71605
#
# Poissons Ratio (x) = 0.07296 1.01991
# Poissons Ratio (y) = 0.04738 -0.05939
# Poissons Ratio (z) = 0.43227 -0.03877
#
# Static dielectric constant tensor:
#      x y z
#    x 1.870950 0.000000 0.000000 
#    y 0.000000 1.896450 0.000000 
#    z 0.000000 0.000000 1.869070 
# 
# From -- ./inp_files/18728.got.cif
#   From: 2010.05.17/outbox.cif.g08.bks.cpg/sg38_10_cif.got.tgz:18728.got - 2010.06.03 18:07:57.
