data_PCOD9359087
_publ_section_title
;
Structure prediction by ZEFSAII (Michael W. Deem and Ramdas Pophale) SiO2 
 PCOD9359087
Probable space group: A M M 2
;
_chemical_formula_sum "Si O2"
_cell_formula_units_Z 48
_cell_length_a 14.115969
_cell_length_b 17.767054
_cell_length_c 9.184244
_cell_angle_alpha 90.000000
_cell_angle_beta 90.000000
_cell_angle_gamma 90.000000
_cell_volume 2303.400896
_symmetry_space_group_name_H-M "A M M 2"
_symmetry_group_IT_number 38
_symmetry_cell_setting 'orthorhombic'
loop_
_space_group_symop_operation_xyz
x,y,z
-x,-y,z
-x,y,z
x,-y,z
x,1/2+y,1/2+z
-x,1/2-y,1/2+z
-x,1/2+y,1/2+z
x,1/2-y,1/2+z
loop_
_atom_site_type_symbol
_atom_site_label
_atom_site_fract_x
_atom_site_fract_y
_atom_site_fract_z
Si Si1 0.108455 0.848513 0.376780
Si Si2 0.723293 0.139847 0.908877
Si Si3 0.612630 0.797053 0.421183
Si Si4 0.386946 0.419556 0.155279
Si Si5 0.891760 0.191277 0.714241
Si Si6 0.285018 0.085296 0.232062
O O1 0.124285 0.819155 0.541896
O O2 0.116402 0.777693 0.266624
O O3 0.190748 0.904741 0.329663
O O4 0.000000 0.877060 0.368853
O O5 0.673977 0.221821 0.918082
O O6 0.651657 0.089265 0.816403
O O7 0.817528 0.146555 0.812133
O O8 0.740204 0.106625 0.067067
O O9 0.500000 0.780986 0.421175
O O10 0.639940 0.846675 0.562175
O O11 0.640323 0.852705 0.289418
O O12 0.500000 0.419948 0.154434
O O13 0.353890 0.500000 0.092751
O O14 0.000000 0.167794 0.744261
O O15 0.320868 0.000000 0.239957
#
# Coordination Sequence:
#
# PCOD9359087 Si02
#       6
#     8   8   8   8   8   8
#     4  10  21  40  64  94 128 166 213 262 318 381
#     4  12  23  39  65  96 127 164 214 264 312 376
#     4  11  24  42  64  91 123 166 217 267 315 375
#     4  10  22  41  63  87 122 168 211 256 315 376
#     4  10  21  38  66  97 126 163 212 268 319 375
#     4  12  26  41  62  96 135 172 210 262 326 381
#
# _framework density 20.838754000000002
#
# number of rings (size 3 to 8) (size 9 to 14) (size 15 to 20)
#    0.000    1.167    1.667    4.500    0.000    6.000 
#    0.000    0.833    0.000    3.500    0.000    0.000 
#    0.000    0.000    0.000    0.000    0.000    0.000 
#
# Total GULP energy -134193.371654 kJ/mol
# GULP energy per Si atom -5591.390486 kJ/mol
# Density = 2.079132 g / cm^3
# Si number density = 20.838754 Si / 1000 Ang^3
#
#
#
# Elastic Constant Matrix: (Units=GPa)
#
#
# Indices 1 2 3 4 5 6 
#
# 1 57.6931 19.3876 25.6651 0.0000 0.0000 0.0000
# 2 19.3876 95.0179 28.6995 0.0000 0.0000 0.0000
# 3 25.6651 28.6995 116.3077 0.0000 0.0000 0.0000
# 4 0.0000 0.0000 0.0000 35.1498 0.0000 0.0000
# 5 0.0000 0.0000 0.0000 0.0000 30.5370 0.0000
# 6 0.0000 0.0000 0.0000 0.0000 0.0000 -2.5120
#
#
#
# Elastic Compliance Matrix: (Units=1/GPa)
#
#
# Indices 1 2 3 4 5 6 
#
# 1 0.019963 -0.002964 -0.003674 0.000000 0.000000 0.000000
# 2 -0.002964 0.011812 -0.002261 0.000000 0.000000 0.000000
# 3 -0.003674 -0.002261 0.009966 0.000000 0.000000 0.000000
# 4 0.000000 0.000000 0.000000 0.028450 0.000000 0.000000
# 5 0.000000 0.000000 0.000000 0.000000 0.032747 0.000000
# 6 0.000000 0.000000 0.000000 0.000000 0.000000 -0.398086
#
#
# Mechanical properties :
#
#
# Convention : Reuss Voigt Hill
#
# Bulk Modulus (GPa) = 41.76211 46.28036 44.02124
# Shear Modulus (GPa) = -18.56188 25.65271 3.54541
#
# Velocity S-wave (km/s) = -2.98776 3.51238 1.30578
# Velocity P-wave (km/s) = 2.86039 6.22142 4.84190
#
# Compressibility (1/GPa) = 0.02394515
#
# Stress axis : x y z
#
# Youngs Moduli (GPa) = 50.09165 84.66070 100.33686
#
# Poissons Ratio (x) = 0.25091 0.36863
# Poissons Ratio (y) = 0.14846 0.22683
# Poissons Ratio (z) = 0.18403 0.19139
#
# Static dielectric constant tensor:
#      x y z
#    x 1.740930 0.000000 0.000000 
#    y 0.000000 0.997720 0.000000 
#    z 0.000000 0.000000 1.751410 
# 
# From -- ./inp_files/5447.got.cif
#   From: 2010.05.17/outbox.cif.g08.bks.cpg/sg38_3_cif.got.tgz:5447.got - 2010.06.03 18:07:57.
