data_PCOD9359135
_publ_section_title
;
Structure prediction by ZEFSAII (Michael W. Deem and Ramdas Pophale) SiO2 
 PCOD9359135
Probable space group: A M M 2
;
_chemical_formula_sum "Si O2"
_cell_formula_units_Z 56
_cell_length_a 8.963646
_cell_length_b 15.999088
_cell_length_c 20.093452
_cell_angle_alpha 90.000000
_cell_angle_beta 90.000000
_cell_angle_gamma 90.000000
_cell_volume 2881.605189
_symmetry_space_group_name_H-M "A M M 2"
_symmetry_group_IT_number 38
_symmetry_cell_setting 'orthorhombic'
loop_
_space_group_symop_operation_xyz
x,y,z
-x,-y,z
-x,y,z
x,-y,z
x,1/2+y,1/2+z
-x,1/2-y,1/2+z
-x,1/2+y,1/2+z
x,1/2-y,1/2+z
loop_
_atom_site_type_symbol
_atom_site_label
_atom_site_fract_x
_atom_site_fract_y
_atom_site_fract_z
Si Si1 0.165799 0.088270 0.921730
Si Si2 0.179000 0.596545 0.160005
Si Si3 0.169358 0.224635 0.374157
Si Si4 0.675179 0.249059 0.238946
Si Si5 0.174726 0.409194 0.675062
Si Si6 0.821779 0.193792 0.525622
Si Si7 0.671715 0.869482 0.047915
O O1 0.168729 0.174982 0.883771
O O2 0.000000 0.088508 0.954118
O O3 0.177575 0.000000 0.883984
O O4 0.295164 0.094252 0.975449
O O5 0.228001 0.500000 0.170699
O O6 0.247664 0.666794 0.209348
O O7 0.206955 0.624502 0.082537
O O8 0.000000 0.599256 0.169075
O O9 0.279992 0.218124 0.312885
O O10 0.204860 0.182141 0.445877
O O11 0.000000 0.198724 0.355774
O O12 0.500000 0.261548 0.233922
O O13 0.730884 0.170014 0.197080
O O14 0.213124 0.500000 0.705226
O O15 0.214511 0.412511 0.597719
O O16 0.000000 0.393888 0.685918
O O17 0.720530 0.272744 0.544383
O O18 0.000000 0.214406 0.530082
O O19 0.500000 0.880102 0.067235
#
# Coordination Sequence:
#
# PCOD9359135 Si02
#       7
#     8   8   8   8   8   8   8
#     4   9  18  33  53  78 109 148 195 239 281 340
#     4  10  21  39  66  95 123 162 211 261 310 366
#     4   9  19  36  58  82 113 158 205 250 301 361
#     4  12  25  40  59  88 125 163 200 250 313 374
#     4  11  23  39  60  83 110 149 195 242 293 353
#     4   9  18  36  61  86 115 154 202 249 295 353
#     4  11  20  30  51  84 119 150 180 226 290 350
#
# _framework density 19.433613999999999
#
# number of rings (size 3 to 8) (size 9 to 14) (size 15 to 20)
#    0.000    1.857    1.429    4.286    0.000    6.286 
#    0.000    2.143    0.000    2.571    0.000    0.000 
#    0.000    0.000    0.000    0.000    0.000    0.000 
#
# Total GULP energy -155912.393553 kJ/mol
# GULP energy per Si atom -5568.299770 kJ/mol
# Density = 1.938938 g / cm^3
# Si number density = 19.433614 Si / 1000 Ang^3
#
#
#
# Elastic Constant Matrix: (Units=GPa)
#
#
# Indices 1 2 3 4 5 6 
#
# 1 52.5864 23.2825 28.0640 0.0000 0.0000 0.0000
# 2 23.2825 58.6753 8.9495 0.0000 0.0000 0.0000
# 3 28.0640 8.9495 58.0978 0.0000 0.0000 0.0000
# 4 0.0000 0.0000 0.0000 2.4101 0.0000 0.0000
# 5 0.0000 0.0000 0.0000 0.0000 -14.3576 0.0000
# 6 0.0000 0.0000 0.0000 0.0000 0.0000 -20.6928
#
#
#
# Elastic Compliance Matrix: (Units=1/GPa)
#
#
# Indices 1 2 3 4 5 6 
#
# 1 0.030528 -0.010102 -0.013191 0.000000 0.000000 0.000000
# 2 -0.010102 0.020796 0.001676 0.000000 0.000000 0.000000
# 3 -0.013191 0.001676 0.023326 0.000000 0.000000 0.000000
# 4 0.000000 0.000000 0.000000 0.414927 0.000000 0.000000
# 5 0.000000 0.000000 0.000000 0.000000 -0.069650 0.000000
# 6 0.000000 0.000000 0.000000 0.000000 0.000000 -0.048326
#
#
# Mechanical properties :
#
#
# Convention : Reuss Voigt Hill
#
# Bulk Modulus (GPa) = 31.82927 32.21684 32.02305
# Shear Modulus (GPa) = 11.75623 0.74285 6.24954
#
# Velocity S-wave (km/s) = 2.46223 0.61893 1.79522
# Velocity P-wave (km/s) = 4.94949 4.13819 4.56191
#
# Compressibility (1/GPa) = 0.03141762
#
# Stress axis : x y z
#
# Youngs Moduli (GPa) = 32.75641 48.08688 42.87094
#
# Poissons Ratio (x) = 0.48577 0.56549
# Poissons Ratio (y) = 0.33090 -0.07186
# Poissons Ratio (z) = 0.43208 -0.08061
#
# Static dielectric constant tensor:
#      x y z
#    x 1.658330 0.000000 0.000000 
#    y 0.000000 1.732000 0.000000 
#    z 0.000000 0.000000 1.743190 
# 
# From -- ./inp_files/19827.got.cif
#   From: 2010.05.17/outbox.cif.g08.bks.cpg/sg38_10_cif.got.tgz:19827.got - 2010.06.03 18:07:57.
