data_PCOD9359525
_publ_section_title
;
Structure prediction by ZEFSAII (Michael W. Deem and Ramdas Pophale) SiO2 
 PCOD9359525
Probable space group: A M M 2
;
_chemical_formula_sum "Si O2"
_cell_formula_units_Z 56
_cell_length_a 7.459670
_cell_length_b 10.095365
_cell_length_c 37.585074
_cell_angle_alpha 90.000000
_cell_angle_beta 90.000000
_cell_angle_gamma 90.000000
_cell_volume 2830.460189
_symmetry_space_group_name_H-M "A M M 2"
_symmetry_group_IT_number 38
_symmetry_cell_setting 'orthorhombic'
loop_
_space_group_symop_operation_xyz
x,y,z
-x,-y,z
-x,y,z
x,-y,z
x,1/2+y,1/2+z
-x,1/2-y,1/2+z
-x,1/2+y,1/2+z
x,1/2-y,1/2+z
loop_
_atom_site_type_symbol
_atom_site_label
_atom_site_fract_x
_atom_site_fract_y
_atom_site_fract_z
Si Si1 0.781276 0.151805 0.983130
Si Si2 0.212150 0.349056 0.842026
Si Si3 0.781087 0.652033 0.402584
Si Si4 0.284825 0.846964 0.264036
Si Si5 0.785251 0.150474 0.543860
Si Si6 0.719075 0.845810 0.186055
Si Si7 0.285513 0.349101 0.124555
O O1 0.727732 0.188464 0.942884
O O2 0.000000 0.152827 0.983609
O O3 0.726434 0.000000 0.989763
O O4 0.717530 0.251325 0.013495
O O5 0.285811 0.500000 0.842770
O O6 0.283666 0.253522 0.872695
O O7 0.233557 0.290075 0.802287
O O8 0.000000 0.360000 0.848115
O O9 0.726265 0.500000 0.395883
O O10 0.000000 0.652476 0.401982
O O11 0.500000 0.847498 0.263351
O O12 0.225781 0.795339 0.225450
O O13 0.222382 0.000000 0.265007
O O14 0.749266 0.195739 0.584166
O O15 0.000000 0.144591 0.539965
O O16 0.715973 0.000000 0.540355
O O17 0.500000 0.846181 0.185480
O O18 0.782271 0.751862 0.154360
O O19 0.772855 0.000000 0.182060
O O20 0.500000 0.355395 0.128810
O O21 0.216284 0.500000 0.128236
#
# Coordination Sequence:
#
# PCOD9359525 Si02
#       7
#     8   8   8   8   8   8   8
#     4   8  14  25  41  60  81 106 136 167 197 232
#     4   9  16  25  40  63  85 103 130 169 203 231
#     4   8  14  25  40  58  82 110 135 161 198 240
#     4   8  14  26  43  60  80 107 135 163 199 240
#     4   9  17  28  42  61  84 107 131 163 202 239
#     4   8  14  26  44  62  78 102 138 171 195 229
#     4   9  17  29  44  61  82 107 133 163 200 239
#
# _framework density 19.784768
#
# number of rings (size 3 to 8) (size 9 to 14) (size 15 to 20)
#    0.000    3.571    0.000    1.714    0.000    1.143 
#    0.000    4.286    0.000    3.000    0.000    6.000 
#    0.000    0.000    0.000    0.000    0.000    0.000 
#
# Total GULP energy -155978.956676 kJ/mol
# GULP energy per Si atom -5570.677024 kJ/mol
# Density = 1.973974 g / cm^3
# Si number density = 19.784768 Si / 1000 Ang^3
#
#
#
# Elastic Constant Matrix: (Units=GPa)
#
#
# Indices 1 2 3 4 5 6 
#
# 1 56.8423 4.5751 2.4189 0.0000 0.0000 0.0000
# 2 4.5751 89.0665 122.9858 0.0000 0.0000 0.0000
# 3 2.4189 122.9858 231.7704 0.0000 0.0000 0.0000
# 4 0.0000 0.0000 0.0000 37.4002 0.0000 0.0000
# 5 0.0000 0.0000 0.0000 0.0000 20.3192 0.0000
# 6 0.0000 0.0000 0.0000 0.0000 0.0000 -1.7379
#
#
#
# Elastic Compliance Matrix: (Units=1/GPa)
#
#
# Indices 1 2 3 4 5 6 
#
# 1 0.017742 -0.002453 0.001117 0.000000 0.000000 0.000000
# 2 -0.002453 0.042346 -0.022445 0.000000 0.000000 0.000000
# 3 0.001117 -0.022445 0.016213 0.000000 0.000000 0.000000
# 4 0.000000 0.000000 0.000000 0.026738 0.000000 0.000000
# 5 0.000000 0.000000 0.000000 0.000000 0.049215 0.000000
# 6 0.000000 0.000000 0.000000 0.000000 0.000000 -0.575409
#
#
# Mechanical properties :
#
#
# Convention : Reuss Voigt Hill
#
# Bulk Modulus (GPa) = 34.79629 70.84876 52.82252
# Shear Modulus (GPa) = -13.66070 27.70959 7.02445
#
# Velocity S-wave (km/s) = -2.63052 3.74645 1.88630
# Velocity P-wave (km/s) = 2.89817 7.38932 5.61255
#
# Compressibility (1/GPa) = 0.02873870
#
# Stress axis : x y z
#
# Youngs Moduli (GPa) = 56.36196 23.61510 61.67937
#
# Poissons Ratio (x) = 0.05793 -0.06887
# Poissons Ratio (y) = 0.13827 1.38437
# Poissons Ratio (z) = -0.06293 0.53003
#
# Static dielectric constant tensor:
#      x y z
#    x 1.766570 0.000000 0.000000 
#    y 0.000000 1.677840 0.000000 
#    z 0.000000 0.000000 1.698370 
# 
# From -- ./inp_files/22543.got.cif
#   From: 2010.05.17/outbox.cif.g08.bks.cpg/sg38_12_cif.got.tgz:22543.got - 2010.06.03 18:07:57.
