data_PCOD9359690
_publ_section_title
;
Structure prediction by ZEFSAII (Michael W. Deem and Ramdas Pophale) SiO2 
 PCOD9359690
Probable space group: A B M 2
;
_chemical_formula_sum "Si O2"
_cell_formula_units_Z 56
_cell_length_a 23.379866
_cell_length_b 25.316401
_cell_length_c 5.369026
_cell_angle_alpha 90.000000
_cell_angle_beta 90.000000
_cell_angle_gamma 90.000000
_cell_volume 3177.894613
_symmetry_space_group_name_H-M "A B M 2"
_symmetry_group_IT_number 39
_symmetry_cell_setting 'orthorhombic'
loop_
_space_group_symop_operation_xyz
x,y,z
-x,-y,z
-x,1/2+y,z
x,1/2-y,z
x,1/2+y,1/2+z
-x,1/2-y,1/2+z
-x,y,1/2+z
x,-y,1/2+z
loop_
_atom_site_type_symbol
_atom_site_label
_atom_site_fract_x
_atom_site_fract_y
_atom_site_fract_z
Si Si1 0.239464 0.372388 0.213600
Si Si2 0.846132 0.533135 0.284854
Si Si3 0.623364 0.625742 0.220444
Si Si4 0.023872 0.060658 0.202190
Si Si5 0.240541 0.190144 0.713056
Si Si6 0.476536 0.439877 0.102343
Si Si7 0.379220 0.189567 0.719739
O O1 0.204240 0.425678 0.240991
O O2 0.308165 0.381689 0.218833
O O3 0.224599 0.336137 0.451287
O O4 0.224465 0.343979 0.954036
O O5 0.842546 0.509551 0.562276
O O6 0.908973 0.558435 0.252958
O O7 0.588729 0.571232 0.178423
O O8 0.605914 0.654055 0.478942
O O9 0.607484 0.663126 0.985974
O O10 0.991546 0.085244 0.437147
O O11 0.000000 0.000000 0.182138
O O12 0.219341 0.250000 0.732988
O O13 0.309848 0.192182 0.713981
O O14 0.500000 0.500000 0.079813
O O15 0.511610 0.415901 0.332186
O O16 0.400553 0.250000 0.700616
#
# Coordination Sequence:
#
# PCOD9359690 Si02
#       7
#     8   8   8   8   8   8   8
#     4  10  21  33  49  82 109 135 174 203 266 322
#     4  12  21  33  48  73 113 149 167 213 257 305
#     4  10  19  35  54  74 105 132 162 215 249 300
#     4  10  16  30  49  67  91 139 182 216 245 290
#     4   9  17  33  54  75 105 137 170 215 253 308
#     4  10  21  38  56  73  90 128 181 218 241 278
#     4   9  17  30  55  82 101 128 161 196 261 319
#
# _framework density 17.621728999999998
#
# number of rings (size 3 to 8) (size 9 to 14) (size 15 to 20)
#    0.000    2.000    2.857    2.571    0.000    3.429 
#    5.143    0.000    0.000    8.571    0.000    0.000 
#    0.000   11.429    0.000    0.000    0.000    0.000 
#
# Total GULP energy -155966.523800 kJ/mol
# GULP energy per Si atom -5570.232993 kJ/mol
# Density = 1.758162 g / cm^3
# Si number density = 17.621729 Si / 1000 Ang^3
#
#
#
# Elastic Constant Matrix: (Units=GPa)
#
#
# Indices 1 2 3 4 5 6 
#
# 1 43.0196 22.5745 -1.3118 0.0000 0.0000 0.0000
# 2 22.5745 35.5345 -4.2176 0.0000 0.0000 0.0000
# 3 -1.3118 -4.2176 99.8748 0.0000 0.0000 0.0000
# 4 0.0000 0.0000 0.0000 19.9785 0.0000 0.0000
# 5 0.0000 0.0000 0.0000 0.0000 10.8008 0.0000
# 6 0.0000 0.0000 0.0000 0.0000 0.0000 -1.9743
#
#
#
# Elastic Compliance Matrix: (Units=1/GPa)
#
#
# Indices 1 2 3 4 5 6 
#
# 1 0.034892 -0.022224 -0.000480 0.000000 0.000000 0.000000
# 2 -0.022224 0.042438 0.001500 0.000000 0.000000 0.000000
# 3 -0.000480 0.001500 0.010070 0.000000 0.000000 0.000000
# 4 0.000000 0.000000 0.000000 0.050054 0.000000 0.000000
# 5 0.000000 0.000000 0.000000 0.000000 0.092585 0.000000
# 6 0.000000 0.000000 0.000000 0.000000 0.000000 -0.506507
#
#
# Mechanical properties :
#
#
# Convention : Reuss Voigt Hill
#
# Bulk Modulus (GPa) = 22.22574 23.61323 22.91949
# Shear Modulus (GPa) = -22.82450 16.51993 -3.15228
#
# Velocity S-wave (km/s) = -3.60286 3.06514 -1.33893
# Velocity P-wave (km/s) = 2.16041 5.09470 3.26256
#
# Compressibility (1/GPa) = 0.04499288
#
# Stress axis : x y z
#
# Youngs Moduli (GPa) = 28.65947 23.56375 99.30896
#
# Poissons Ratio (x) = 0.52367 0.04769
# Poissons Ratio (y) = 0.63692 -0.14899
# Poissons Ratio (z) = 0.01376 -0.03535
#
# Static dielectric constant tensor:
#      x y z
#    x 1.590380 0.000000 0.000000 
#    y 0.000000 1.521340 0.000000 
#    z 0.000000 0.000000 1.658710 
# 
# From -- ./inp_files/1090.got.cif
#   From: 2010.05.17/outbox.cif.g08.bks.cpg/sg39_1_cif.got.tgz:1090.got - 2010.06.03 18:22:40.
