data_PCOD9359867
_publ_section_title
;
Structure prediction by ZEFSAII (Michael W. Deem and Ramdas Pophale) SiO2 
 PCOD9359867
Probable space group: A B M 2
;
_chemical_formula_sum "Si O2"
_cell_formula_units_Z 64
_cell_length_a 10.742838
_cell_length_b 14.977786
_cell_length_c 19.908764
_cell_angle_alpha 90.000000
_cell_angle_beta 90.000000
_cell_angle_gamma 90.000000
_cell_volume 3203.398341
_symmetry_space_group_name_H-M "A B M 2"
_symmetry_group_IT_number 39
_symmetry_cell_setting 'orthorhombic'
loop_
_space_group_symop_operation_xyz
x,y,z
-x,-y,z
-x,1/2+y,z
x,1/2-y,z
x,1/2+y,1/2+z
-x,1/2-y,1/2+z
-x,y,1/2+z
x,-y,1/2+z
loop_
_atom_site_type_symbol
_atom_site_label
_atom_site_fract_x
_atom_site_fract_y
_atom_site_fract_z
Si Si1 0.008657 0.393395 0.558430
Si Si2 0.122588 0.144433 0.420535
Si Si3 0.720757 0.354673 0.708256
Si Si4 0.720756 0.854673 0.058860
Si Si5 0.877402 0.355567 0.346580
Si Si6 0.372282 0.640160 0.418294
Si Si7 0.627726 0.359840 0.848822
Si Si8 0.991342 0.106605 0.208687
O O1 0.101512 0.366804 0.499634
O O2 0.042835 0.362707 0.633558
O O3 0.000000 0.500000 0.559134
O O4 0.868662 0.359792 0.543682
O O5 0.123970 0.250000 0.405926
O O6 0.252047 0.110054 0.391351
O O7 0.999994 0.106528 0.383559
O O8 0.689356 0.250000 0.703923
O O9 0.701653 0.394589 0.633558
O O10 0.647066 0.391528 0.772126
O O11 0.868663 0.359792 0.723434
O O12 0.689356 0.750000 0.063194
O O13 0.647064 0.891527 0.994990
O O14 0.876018 0.250000 0.361190
O O15 0.747941 0.389946 0.375763
O O16 0.898486 0.366805 0.267482
O O17 0.372480 0.750000 0.419593
O O18 0.500005 0.612345 0.383560
O O19 0.627528 0.250000 0.847524
O O20 0.000000 0.000000 0.207983
#
# Coordination Sequence:
#
# PCOD9359867 Si02
#       8
#     8   8   8   8   8   8   8   8
#     4  10  20  32  48  73 102 130 164 207 250 290
#     4  10  18  31  51  75  99 125 162 204 248 291
#     4   9  16  29  50  72  96 130 168 200 240 297
#     4   9  16  29  50  72  96 130 168 200 240 297
#     4  10  18  31  51  75  99 125 162 204 248 291
#     4   9  17  30  48  73 103 129 158 203 249 290
#     4   9  17  30  48  73 103 129 158 203 249 290
#     4  10  20  32  48  73 102 130 164 207 250 290
#
# _framework density 19.978784000000001
#
# number of rings (size 3 to 8) (size 9 to 14) (size 15 to 20)
#    0.000    2.500    2.500    0.750    0.000    2.000 
#    0.000    1.250    0.000    7.500    0.000    5.250 
#    0.000    0.000    0.000    0.000    0.000    0.000 
#
# Total GULP energy -178485.062296 kJ/mol
# GULP energy per Si atom -5577.658197 kJ/mol
# Density = 1.993331 g / cm^3
# Si number density = 19.978784 Si / 1000 Ang^3
#
#
#
# Elastic Constant Matrix: (Units=GPa)
#
#
# Indices 1 2 3 4 5 6 
#
# 1 139.7431 7.0059 110.3032 0.0000 0.0000 0.0000
# 2 7.0059 32.1913 -4.2441 0.0000 0.0000 0.0000
# 3 110.3032 -4.2441 185.8971 0.0000 0.0000 0.0000
# 4 0.0000 0.0000 0.0000 -33.1124 0.0000 0.0000
# 5 0.0000 0.0000 0.0000 0.0000 32.3501 0.0000
# 6 0.0000 0.0000 0.0000 0.0000 0.0000 -21.8345
#
#
#
# Elastic Compliance Matrix: (Units=1/GPa)
#
#
# Indices 1 2 3 4 5 6 
#
# 1 0.013992 -0.004152 -0.008397 0.000000 0.000000 0.000000
# 2 -0.004152 0.032390 0.003203 0.000000 0.000000 0.000000
# 3 -0.008397 0.003203 0.010435 0.000000 0.000000 0.000000
# 4 0.000000 0.000000 0.000000 -0.030200 0.000000 0.000000
# 5 0.000000 0.000000 0.000000 0.000000 0.030912 0.000000
# 6 0.000000 0.000000 0.000000 0.000000 0.000000 -0.045799
#
#
# Mechanical properties :
#
#
# Convention : Reuss Voigt Hill
#
# Bulk Modulus (GPa) = 26.22946 64.88463 45.55704
# Shear Modulus (GPa) = 115.92570 11.79840 63.86205
#
# Velocity S-wave (km/s) = 7.62564 2.43275 5.65989
# Velocity P-wave (km/s) = 9.52318 6.35911 8.09720
#
# Compressibility (1/GPa) = 0.03812507
#
# Stress axis : x y z
#
# Youngs Moduli (GPa) = 71.46758 30.87349 95.83115
#
# Poissons Ratio (x) = 0.12820 0.80472
# Poissons Ratio (y) = 0.29675 -0.30697
# Poissons Ratio (z) = 0.60013 -0.09890
#
# Static dielectric constant tensor:
#      x y z
#    x 1.675480 0.000000 0.000000 
#    y 0.000000 1.723230 0.000000 
#    z 0.000000 0.000000 1.751030 
# 
# From -- ./inp_files/12434.got.cif
#   From: 2010.05.17/outbox.cif.g08.bks.cpg/sg39_7_cif.got.tgz:12434.got - 2010.06.03 18:22:40.
