data_PCOD9359701
_publ_section_title
;
Structure prediction by ZEFSAII (Michael W. Deem and Ramdas Pophale) SiO2 
 PCOD9359701
Probable space group: A B M 2
;
_chemical_formula_sum "Si O2"
_cell_formula_units_Z 36
_cell_length_a 12.974453
_cell_length_b 28.979988
_cell_length_c 5.299731
_cell_angle_alpha 90.000000
_cell_angle_beta 90.000000
_cell_angle_gamma 90.000000
_cell_volume 1992.696165
_symmetry_space_group_name_H-M "A B M 2"
_symmetry_group_IT_number 39
_symmetry_cell_setting 'orthorhombic'
loop_
_space_group_symop_operation_xyz
x,y,z
-x,-y,z
-x,1/2+y,z
x,1/2-y,z
x,1/2+y,1/2+z
-x,1/2-y,1/2+z
-x,y,1/2+z
x,-y,1/2+z
loop_
_atom_site_type_symbol
_atom_site_label
_atom_site_fract_x
_atom_site_fract_y
_atom_site_fract_z
Si Si1 0.431325 0.127373 0.703290
Si Si2 0.617652 0.479725 0.197108
Si Si3 0.568490 0.250000 0.648298
Si Si4 0.282441 0.197652 0.460636
Si Si5 0.942447 0.693833 0.286479
O O1 0.510323 0.132584 0.468328
O O2 0.389667 0.075106 0.692087
O O3 0.341519 0.164034 0.648285
O O4 0.500000 0.500000 0.199865
O O5 0.667612 0.499243 0.448951
O O6 0.517167 0.250000 0.374816
O O7 0.642496 0.292551 0.721450
O O8 0.268246 0.250000 0.570254
O O9 0.172840 0.180112 0.365165
O O10 0.941691 0.750000 0.281057
O O11 0.980536 0.679143 0.010721
#
# Coordination Sequence:
#
# PCOD9359701 Si02
#       5
#     8   8   4   8   8
#     4  12  21  31  50  71 101 141 165 193 241 291
#     4  10  16  31  47  66  92 128 164 207 237 266
#     4  10  20  34  44  62 102 138 158 188 224 268
#     4   9  22  36  48  75 100 135 172 203 235 304
#     4   9  18  34  53  69  88 122 165 215 256 275
#
# _framework density 18.065975999999999
#
# number of rings (size 3 to 8) (size 9 to 14) (size 15 to 20)
#    0.667    1.333    4.444    1.333    0.000    3.556 
#    0.000    0.000    0.000    0.000    0.000    0.000 
#    0.000    5.333    0.000    0.000    0.000    0.000 
#
# Total GULP energy -100376.264884 kJ/mol
# GULP energy per Si atom -5576.459160 kJ/mol
# Density = 1.802486 g / cm^3
# Si number density = 18.065976 Si / 1000 Ang^3
#
#
#
# Elastic Constant Matrix: (Units=GPa)
#
#
# Indices 1 2 3 4 5 6 
#
# 1 45.8481 2.9954 -1.7204 0.0000 0.0000 0.0000
# 2 2.9954 73.6025 -0.2686 0.0000 0.0000 0.0000
# 3 -1.7204 -0.2686 96.4863 0.0000 0.0000 0.0000
# 4 0.0000 0.0000 0.0000 20.1376 0.0000 0.0000
# 5 0.0000 0.0000 0.0000 0.0000 7.9186 0.0000
# 6 0.0000 0.0000 0.0000 0.0000 0.0000 6.0598
#
#
#
# Elastic Compliance Matrix: (Units=1/GPa)
#
#
# Indices 1 2 3 4 5 6 
#
# 1 0.021884 -0.000889 0.000388 0.000000 0.000000 0.000000
# 2 -0.000889 0.013623 0.000022 0.000000 0.000000 0.000000
# 3 0.000388 0.000022 0.010371 0.000000 0.000000 0.000000
# 4 0.000000 0.000000 0.000000 0.049658 0.000000 0.000000
# 5 0.000000 0.000000 0.000000 0.000000 0.126286 0.000000
# 6 0.000000 0.000000 0.000000 0.000000 0.000000 0.165023
#
#
# Mechanical properties :
#
#
# Convention : Reuss Voigt Hill
#
# Bulk Modulus (GPa) = 22.26235 24.21665 23.23950
# Shear Modulus (GPa) = 12.41384 21.15189 16.78287
#
# Velocity S-wave (km/s) = 2.62418 3.42543 3.05122
# Velocity P-wave (km/s) = 4.64018 5.39244 5.03039
#
# Compressibility (1/GPa) = 0.04491888
#
# Stress axis : x y z
#
# Youngs Moduli (GPa) = 45.69590 73.40659 96.42143
#
# Poissons Ratio (x) = 0.06527 -0.03738
# Poissons Ratio (y) = 0.04063 -0.00213
# Poissons Ratio (z) = -0.01772 -0.00162
#
# Static dielectric constant tensor:
#      x y z
#    x 1.614350 0.000000 0.000000 
#    y 0.000000 1.641150 0.000000 
#    z 0.000000 0.000000 1.649540 
# 
# From -- ./inp_files/366.got.cif
#   From: 2010.05.17/outbox.cif.g08.bks.cpg/sg39_1_cif.got.tgz:366.got - 2010.06.03 18:22:40.
