data_PCOD9359333
_publ_section_title
;
Structure prediction by ZEFSAII (Michael W. Deem and Ramdas Pophale) SiO2 
 PCOD9359333
Probable space group: A M M 2
;
_chemical_formula_sum "Si O2"
_cell_formula_units_Z 32
_cell_length_a 13.677443
_cell_length_b 11.509296
_cell_length_c 6.977456
_cell_angle_alpha 90.000000
_cell_angle_beta 90.000000
_cell_angle_gamma 90.000000
_cell_volume 1098.375355
_symmetry_space_group_name_H-M "A M M 2"
_symmetry_group_IT_number 38
_symmetry_cell_setting 'orthorhombic'
loop_
_space_group_symop_operation_xyz
x,y,z
-x,-y,z
-x,y,z
x,-y,z
x,1/2+y,1/2+z
-x,1/2-y,1/2+z
-x,1/2+y,1/2+z
x,1/2-y,1/2+z
loop_
_atom_site_type_symbol
_atom_site_label
_atom_site_fract_x
_atom_site_fract_y
_atom_site_fract_z
Si Si1 0.672531 0.246527 0.570380
Si Si2 0.346345 0.500000 0.574298
Si Si3 0.827469 0.753473 0.317876
Si Si4 0.890993 0.500000 0.913395
Si Si5 0.609007 0.000000 0.474861
Si Si6 0.153655 0.500000 0.313959
O O1 0.613866 0.369515 0.553483
O O2 0.701264 0.243823 0.318684
O O3 0.798736 0.243823 0.569572
O O4 0.620470 0.121368 0.581974
O O5 0.317115 0.500000 0.796930
O O6 0.250000 0.500000 0.444128
O O7 0.886134 0.630485 0.334773
O O8 0.879531 0.878632 0.306282
O O9 0.000000 0.500000 0.000789
O O10 0.817115 0.500000 0.091326
O O11 0.500000 0.000000 0.387467
#
# Coordination Sequence:
#
# PCOD9359333 Si02
#       6
#     8   4   8   4   4   4
#     4  11  21  42  73 102 136 190 251 288 354 448
#     4  10  23  41  74 105 137 186 251 296 358 447
#     4  11  21  42  73 102 136 190 251 288 354 448
#     4  12  26  44  68 110 156 187 238 326 377 406
#     4  12  26  44  68 110 156 187 238 326 377 406
#     4  10  23  41  74 105 137 186 251 296 358 447
#
# _framework density 29.133935999999999
#
# number of rings (size 3 to 8) (size 9 to 14) (size 15 to 20)
#    0.000    1.000    5.000    2.250    0.000    2.000 
#    0.000    0.000    0.000    0.000    0.000    0.000 
#    0.000    0.000    0.000    0.000    0.000    0.000 
#
# Total GULP energy -89175.509112 kJ/mol
# GULP energy per Si atom -5573.469320 kJ/mol
# Density = 2.906763 g / cm^3
# Si number density = 29.133936 Si / 1000 Ang^3
#
#
#
# Elastic Constant Matrix: (Units=GPa)
#
#
# Indices 1 2 3 4 5 6 
#
# 1 85.4762 60.6460 39.6054 0.0000 0.0000 0.0000
# 2 60.6460 409.4157 31.0427 0.0000 0.0000 0.0000
# 3 39.6054 31.0427 213.0056 0.0000 0.0000 0.0000
# 4 0.0000 0.0000 0.0000 71.9208 0.0000 0.0000
# 5 0.0000 0.0000 0.0000 0.0000 5.9583 0.0000
# 6 0.0000 0.0000 0.0000 0.0000 0.0000 7.3434
#
#
#
# Elastic Compliance Matrix: (Units=1/GPa)
#
#
# Indices 1 2 3 4 5 6 
#
# 1 0.014149 -0.001918 -0.002351 0.000000 0.000000 0.000000
# 2 -0.001918 0.002730 -0.000041 0.000000 0.000000 0.000000
# 3 -0.002351 -0.000041 0.005138 0.000000 0.000000 0.000000
# 4 0.000000 0.000000 0.000000 0.013904 0.000000 0.000000
# 5 0.000000 0.000000 0.000000 0.000000 0.167834 0.000000
# 6 0.000000 0.000000 0.000000 0.000000 0.000000 0.136176
#
#
# Mechanical properties :
#
#
# Convention : Reuss Voigt Hill
#
# Bulk Modulus (GPa) = 74.64728 107.83175 91.23952
# Shear Modulus (GPa) = 14.16363 55.48473 34.82418
#
# Velocity S-wave (km/s) = 2.20729 4.36876 3.46108
# Velocity P-wave (km/s) = 5.67220 7.90828 6.88167
#
# Compressibility (1/GPa) = 0.01339633
#
# Stress axis : x y z
#
# Youngs Moduli (GPa) = 70.67515 366.34245 194.63078
#
# Poissons Ratio (x) = 0.70250 0.45765
# Poissons Ratio (y) = 0.13553 0.00803
# Poissons Ratio (z) = 0.16618 0.01512
#
# Static dielectric constant tensor:
#      x y z
#    x 3.045450 0.000000 0.000000 
#    y 0.000000 2.016250 0.000000 
#    z 0.000000 0.000000 2.820800 
# 
# From -- ./inp_files/5109.got.cif
#   From: 2010.05.17/outbox.cif.g08.bks.cpg/sg38_3_cif.got.tgz:5109.got - 2010.06.03 18:07:57.
