data_PCOD9359138
_publ_section_title
;
Structure prediction by ZEFSAII (Michael W. Deem and Ramdas Pophale) SiO2 
 PCOD9359138
Probable space group: A M M 2
;
_chemical_formula_sum "Si O2"
_cell_formula_units_Z 56
_cell_length_a 14.287498
_cell_length_b 15.767072
_cell_length_c 11.870624
_cell_angle_alpha 90.000000
_cell_angle_beta 90.000000
_cell_angle_gamma 90.000000
_cell_volume 2674.119324
_symmetry_space_group_name_H-M "A M M 2"
_symmetry_group_IT_number 38
_symmetry_cell_setting 'orthorhombic'
loop_
_space_group_symop_operation_xyz
x,y,z
-x,-y,z
-x,y,z
x,-y,z
x,1/2+y,1/2+z
-x,1/2-y,1/2+z
-x,1/2+y,1/2+z
x,1/2-y,1/2+z
loop_
_atom_site_type_symbol
_atom_site_label
_atom_site_fract_x
_atom_site_fract_y
_atom_site_fract_z
Si Si1 0.607393 0.600387 0.501900
Si Si2 0.743732 0.822779 0.185153
Si Si3 0.790486 0.098885 0.408733
Si Si4 0.697176 0.643291 0.262908
Si Si5 0.893491 0.757748 0.007317
Si Si6 0.895384 0.096315 0.816918
Si Si7 0.602063 0.899651 0.533888
O O1 0.500000 0.630108 0.494899
O O2 0.606715 0.500000 0.522524
O O3 0.664042 0.643576 0.602352
O O4 0.660020 0.615633 0.383983
O O5 0.781296 0.890681 0.274312
O O6 0.705056 0.744035 0.256319
O O7 0.825747 0.785805 0.107215
O O8 0.863718 0.167315 0.455664
O O9 0.690905 0.128387 0.461651
O O10 0.807861 0.000000 0.438199
O O11 0.802280 0.607185 0.242418
O O12 0.628804 0.614090 0.163861
O O13 0.000000 0.754758 0.046372
O O14 0.886707 0.830793 0.911218
O O15 0.000000 0.105332 0.765206
O O16 0.891401 0.000000 0.863917
O O17 0.500000 0.861841 0.507765
O O18 0.596252 0.000000 0.513561
#
# Coordination Sequence:
#
# PCOD9359138 Si02
#       7
#     8   8   8   8   8   8   8
#     4  11  25  44  67  97 133 178 230 282 337 399
#     4  12  24  43  65 101 136 179 219 282 341 405
#     4  11  24  45  70  99 138 183 227 277 342 408
#     4  12  22  40  68  97 136 172 225 285 337 400
#     4  11  24  45  69  97 136 177 225 278 338 405
#     4  10  21  39  68 101 132 171 220 276 338 400
#     4  10  22  41  65  95 132 179 232 281 337 406
#
# _framework density 20.941473999999999
#
# number of rings (size 3 to 8) (size 9 to 14) (size 15 to 20)
#    0.000    1.000    4.286    2.143    0.000    4.857 
#    0.000    1.429    0.000    0.000    0.000    0.000 
#    0.000    0.000    0.000    0.000    0.000    0.000 
#
# Total GULP energy -156506.593868 kJ/mol
# GULP energy per Si atom -5589.521210 kJ/mol
# Density = 2.089381 g / cm^3
# Si number density = 20.941474 Si / 1000 Ang^3
#
#
#
# Elastic Constant Matrix: (Units=GPa)
#
#
# Indices 1 2 3 4 5 6 
#
# 1 128.5457 41.1977 21.9427 0.0000 0.0000 0.0000
# 2 41.1977 98.6156 19.3572 0.0000 0.0000 0.0000
# 3 21.9427 19.3572 51.6660 0.0000 0.0000 0.0000
# 4 0.0000 0.0000 0.0000 36.7750 0.0000 0.0000
# 5 0.0000 0.0000 0.0000 0.0000 10.0123 0.0000
# 6 0.0000 0.0000 0.0000 0.0000 0.0000 41.7995
#
#
#
# Elastic Compliance Matrix: (Units=1/GPa)
#
#
# Indices 1 2 3 4 5 6 
#
# 1 0.009318 -0.003363 -0.002697 0.000000 0.000000 0.000000
# 2 -0.003363 0.012159 -0.003127 0.000000 0.000000 0.000000
# 3 -0.002697 -0.003127 0.021672 0.000000 0.000000 0.000000
# 4 0.000000 0.000000 0.000000 0.027192 0.000000 0.000000
# 5 0.000000 0.000000 0.000000 0.000000 0.099877 0.000000
# 6 0.000000 0.000000 0.000000 0.000000 0.000000 0.023924
#
#
# Mechanical properties :
#
#
# Convention : Reuss Voigt Hill
#
# Bulk Modulus (GPa) = 40.36493 49.31360 44.83926
# Shear Modulus (GPa) = 22.64745 30.80602 26.72673
#
# Velocity S-wave (km/s) = 3.29213 3.83959 3.57635
# Velocity P-wave (km/s) = 5.81100 6.57693 6.20580
#
# Compressibility (1/GPa) = 0.02477398
#
# Stress axis : x y z
#
# Youngs Moduli (GPa) = 107.32400 82.24227 46.14193
#
# Poissons Ratio (x) = 0.27659 0.12445
# Poissons Ratio (y) = 0.36094 0.14430
# Poissons Ratio (z) = 0.28947 0.25719
#
# Static dielectric constant tensor:
#      x y z
#    x 1.758850 0.000000 0.000000 
#    y 0.000000 1.749630 0.000000 
#    z 0.000000 0.000000 1.729390 
# 
# From -- ./inp_files/10100.got.cif
#   From: 2010.05.17/outbox.cif.g08.bks.cpg/sg38_6_cif.got.tgz:10100.got - 2010.06.03 18:07:57.
