data_PCOD9359284
_publ_section_title
;
Structure prediction by ZEFSAII (Michael W. Deem and Ramdas Pophale) SiO2 
 PCOD9359284
Probable space group: A M M 2
;
_chemical_formula_sum "Si O2"
_cell_formula_units_Z 64
_cell_length_a 8.795037
_cell_length_b 31.325427
_cell_length_c 12.085192
_cell_angle_alpha 90.000000
_cell_angle_beta 90.000000
_cell_angle_gamma 90.000000
_cell_volume 3329.570576
_symmetry_space_group_name_H-M "A M M 2"
_symmetry_group_IT_number 38
_symmetry_cell_setting 'orthorhombic'
loop_
_space_group_symop_operation_xyz
x,y,z
-x,-y,z
-x,y,z
x,-y,z
x,1/2+y,1/2+z
-x,1/2-y,1/2+z
-x,1/2+y,1/2+z
x,1/2-y,1/2+z
loop_
_atom_site_type_symbol
_atom_site_label
_atom_site_fract_x
_atom_site_fract_y
_atom_site_fract_z
Si Si1 0.318608 0.297322 0.284140
Si Si2 0.676324 0.170479 0.031848
Si Si3 0.182866 0.372623 0.137363
Si Si4 0.817558 0.452418 0.291034
Si Si5 0.179546 0.704155 0.749950
Si Si6 0.819245 0.452090 0.760244
Si Si7 0.318604 0.372873 0.892179
Si Si8 0.677352 0.431951 0.527982
O O1 0.500000 0.297976 0.265617
O O2 0.289851 0.312484 0.409735
O O3 0.240003 0.330764 0.201758
O O4 0.254553 0.250032 0.269378
O O5 0.500000 0.181205 0.058887
O O6 0.783249 0.189915 0.124932
O O7 0.689291 0.119406 0.031400
O O8 0.228498 0.414276 0.209276
O O9 0.000000 0.372067 0.128786
O O10 0.254782 0.374355 0.016193
O O11 0.782956 0.500000 0.247638
O O12 0.740704 0.446969 0.410381
O O13 0.000000 0.449358 0.305621
O O14 0.251519 0.668222 0.829022
O O15 0.000000 0.706283 0.768492
O O16 0.784378 0.500000 0.801037
O O17 0.734019 0.415123 0.826630
O O18 0.770044 0.449295 0.632168
O O19 0.000000 0.445165 0.769310
O O20 0.500000 0.370228 0.892135
O O21 0.500000 0.443537 0.539067
#
# Coordination Sequence:
#
# PCOD9359284 Si02
#       8
#     8   8   8   8   8   8   8   8
#     4  11  24  44  68  94 130 170 212 260 319 378
#     4  10  22  41  66  95 129 169 211 259 319 376
#     4  11  24  43  66  93 127 167 216 266 317 377
#     4  10  22  40  63  92 128 169 210 257 315 376
#     4  12  26  43  67  97 130 166 214 264 316 378
#     4  11  24  42  65  94 128 167 212 262 319 380
#     4  12  26  45  67  92 127 168 214 264 320 382
#     4  11  21  37  63  96 131 166 209 259 313 373
#
# _framework density 19.221699000000001
#
# number of rings (size 3 to 8) (size 9 to 14) (size 15 to 20)
#    0.000    1.000    2.500    4.125    1.750    5.250 
#    0.000    1.250    0.000    0.000    0.000    0.000 
#    0.000    0.000    0.000    0.000    0.000    0.000 
#
# Total GULP energy -179034.908572 kJ/mol
# GULP energy per Si atom -5594.840893 kJ/mol
# Density = 1.917795 g / cm^3
# Si number density = 19.221699 Si / 1000 Ang^3
#
#
#
# Elastic Constant Matrix: (Units=GPa)
#
#
# Indices 1 2 3 4 5 6 
#
# 1 78.2424 47.2766 50.7879 0.0000 0.0000 0.0000
# 2 47.2766 139.3151 59.1446 0.0000 0.0000 0.0000
# 3 50.7879 59.1446 112.3568 0.0000 0.0000 0.0000
# 4 0.0000 0.0000 0.0000 44.4407 0.0000 0.0000
# 5 0.0000 0.0000 0.0000 0.0000 38.6558 0.0000
# 6 0.0000 0.0000 0.0000 0.0000 0.0000 27.5247
#
#
#
# Elastic Compliance Matrix: (Units=1/GPa)
#
#
# Indices 1 2 3 4 5 6 
#
# 1 0.019461 -0.003695 -0.006852 0.000000 0.000000 0.000000
# 2 -0.003695 0.009945 -0.003565 0.000000 0.000000 0.000000
# 3 -0.006852 -0.003565 0.013874 0.000000 0.000000 0.000000
# 4 0.000000 0.000000 0.000000 0.022502 0.000000 0.000000
# 5 0.000000 0.000000 0.000000 0.000000 0.025869 0.000000
# 6 0.000000 0.000000 0.000000 0.000000 0.000000 0.036331
#
#
# Mechanical properties :
#
#
# Convention : Reuss Voigt Hill
#
# Bulk Modulus (GPa) = 66.41581 71.59250 69.00416
# Shear Modulus (GPa) = 31.01252 33.63793 32.32522
#
# Velocity S-wave (km/s) = 4.02109 4.18784 4.10531
# Velocity P-wave (km/s) = 7.49576 7.79169 7.64516
#
# Compressibility (1/GPa) = 0.01505666
#
# Stress axis : x y z
#
# Youngs Moduli (GPa) = 51.38453 100.54887 72.07796
#
# Poissons Ratio (x) = 0.37156 0.49385
# Poissons Ratio (y) = 0.18988 0.25695
# Poissons Ratio (z) = 0.35207 0.35844
#
# Static dielectric constant tensor:
#      x y z
#    x 1.645620 0.000000 0.000000 
#    y 0.000000 1.660530 0.000000 
#    z 0.000000 0.000000 1.630390 
# 
# From -- ./inp_files/8648.got.cif
#   From: 2010.05.17/outbox.cif.g08.bks.cpg/sg38_5_cif.got.tgz:8648.got - 2010.06.03 18:07:57.
