data_PCOD9359425
_publ_section_title
;
Structure prediction by ZEFSAII (Michael W. Deem and Ramdas Pophale) SiO2 
 PCOD9359425
Probable space group: A M M 2
;
_chemical_formula_sum "Si O2"
_cell_formula_units_Z 64
_cell_length_a 18.866941
_cell_length_b 7.693317
_cell_length_c 21.898434
_cell_angle_alpha 90.000000
_cell_angle_beta 90.000000
_cell_angle_gamma 90.000000
_cell_volume 3178.543635
_symmetry_space_group_name_H-M "A M M 2"
_symmetry_group_IT_number 38
_symmetry_cell_setting 'orthorhombic'
loop_
_space_group_symop_operation_xyz
x,y,z
-x,-y,z
-x,y,z
x,-y,z
x,1/2+y,1/2+z
-x,1/2-y,1/2+z
-x,1/2+y,1/2+z
x,1/2-y,1/2+z
loop_
_atom_site_type_symbol
_atom_site_label
_atom_site_fract_x
_atom_site_fract_y
_atom_site_fract_z
Si Si1 0.418303 0.789208 0.156300
Si Si2 0.082377 0.213282 0.158830
Si Si3 0.673726 0.205419 0.538214
Si Si4 0.835661 0.299208 0.541345
Si Si5 0.913610 0.700739 0.791505
Si Si6 0.413728 0.702176 0.789554
Si Si7 0.079868 0.293424 0.922588
Si Si8 0.417827 0.213266 0.423165
O O1 0.500000 0.733024 0.146884
O O2 0.370446 0.735551 0.099825
O O3 0.393144 0.724610 0.223313
O O4 0.418772 0.000000 0.159059
O O5 0.129140 0.276878 0.102523
O O6 0.106571 0.277079 0.225829
O O7 0.000000 0.259972 0.149351
O O8 0.084708 0.000000 0.161481
O O9 0.751544 0.283404 0.542807
O O10 0.629966 0.271581 0.479525
O O11 0.682881 0.000000 0.529688
O O12 0.856098 0.500000 0.541469
O O13 0.868501 0.228650 0.479083
O O14 0.888805 0.500000 0.790707
O O15 0.000000 0.698868 0.791517
O O16 0.893983 0.779392 0.857152
O O17 0.500000 0.704148 0.789460
O O18 0.391350 0.500000 0.789709
O O19 0.393178 0.774834 0.855844
O O20 0.073322 0.500000 0.912794
O O21 0.000000 0.227020 0.936039
O O22 0.500000 0.264106 0.432223
O O23 0.417305 0.000000 0.421882
#
# Coordination Sequence:
#
# PCOD9359425 Si02
#       8
#     8   8   8   8   8   8   8   8
#     4   9  17  31  53  78 100 122 151 192 243 295
#     4   8  14  27  49  74  94 116 155 203 242 278
#     4  11  22  34  48  68  98 134 168 203 241 282
#     4  11  22  34  48  68  98 134 168 203 241 282
#     4   7  11  23  46  74  97 115 145 194 242 281
#     4   7  11  23  46  74  97 115 145 194 242 281
#     4   9  17  31  53  78 100 122 151 192 243 295
#     4   8  14  27  49  74  94 116 155 203 242 278
#
# _framework density 20.135007000000002
#
# number of rings (size 3 to 8) (size 9 to 14) (size 15 to 20)
#    0.000    3.250    0.000    4.500    0.000    1.500 
#    0.000    1.250    0.000   10.500    0.000    7.000 
#    0.000    0.000    0.000    0.000    0.000    0.000 
#
# Total GULP energy -178247.235451 kJ/mol
# GULP energy per Si atom -5570.226108 kJ/mol
# Density = 2.008918 g / cm^3
# Si number density = 20.135007 Si / 1000 Ang^3
#
#
#
# Elastic Constant Matrix: (Units=GPa)
#
#
# Indices 1 2 3 4 5 6 
#
# 1 60.4228 -7.6823 74.5963 0.0000 0.0000 0.0000
# 2 -7.6823 31.7340 -0.5205 0.0000 0.0000 0.0000
# 3 74.5963 -0.5205 224.9831 0.0000 0.0000 0.0000
# 4 0.0000 0.0000 0.0000 17.9219 0.0000 0.0000
# 5 0.0000 0.0000 0.0000 0.0000 99.3346 0.0000
# 6 0.0000 0.0000 0.0000 0.0000 0.0000 14.0133
#
#
#
# Elastic Compliance Matrix: (Units=1/GPa)
#
#
# Indices 1 2 3 4 5 6 
#
# 1 0.029488 0.006979 -0.009761 0.000000 0.000000 0.000000
# 2 0.006979 0.033165 -0.002237 0.000000 0.000000 0.000000
# 3 -0.009761 -0.002237 0.007676 0.000000 0.000000 0.000000
# 4 0.000000 0.000000 0.000000 0.055798 0.000000 0.000000
# 5 0.000000 0.000000 0.000000 0.000000 0.010067 0.000000
# 6 0.000000 0.000000 0.000000 0.000000 0.000000 0.071361
#
#
# Mechanical properties :
#
#
# Convention : Reuss Voigt Hill
#
# Bulk Modulus (GPa) = 16.58666 49.99189 33.28928
# Shear Modulus (GPa) = 21.03582 42.97039 32.00311
#
# Velocity S-wave (km/s) = 3.23575 4.62466 3.99109
# Velocity P-wave (km/s) = 4.71335 7.30745 6.14876
#
# Compressibility (1/GPa) = 0.06028941
#
# Stress axis : x y z
#
# Youngs Moduli (GPa) = 33.91213 30.15260 130.27609
#
# Poissons Ratio (x) = -0.21042 1.27163
# Poissons Ratio (y) = -0.23666 0.29144
# Poissons Ratio (z) = 0.33102 0.06745
#
# Static dielectric constant tensor:
#      x y z
#    x 1.624410 0.000000 0.000000 
#    y 0.000000 1.789920 0.000000 
#    z 0.000000 0.000000 1.777730 
# 
# From -- ./inp_files/23081.got.cif
#   From: 2010.05.17/outbox.cif.g08.bks.cpg/sg38_12_cif.got.tgz:23081.got - 2010.06.03 18:07:57.
