data_PCOD9359256
_publ_section_title
;
Structure prediction by ZEFSAII (Michael W. Deem and Ramdas Pophale) SiO2 
 PCOD9359256
Probable space group: A M M 2
;
_chemical_formula_sum "Si O2"
_cell_formula_units_Z 40
_cell_length_a 9.150513
_cell_length_b 7.570328
_cell_length_c 30.191238
_cell_angle_alpha 90.000000
_cell_angle_beta 90.000000
_cell_angle_gamma 90.000000
_cell_volume 2091.419056
_symmetry_space_group_name_H-M "A M M 2"
_symmetry_group_IT_number 38
_symmetry_cell_setting 'orthorhombic'
loop_
_space_group_symop_operation_xyz
x,y,z
-x,-y,z
-x,y,z
x,-y,z
x,1/2+y,1/2+z
-x,1/2-y,1/2+z
-x,1/2+y,1/2+z
x,1/2-y,1/2+z
loop_
_atom_site_type_symbol
_atom_site_label
_atom_site_fract_x
_atom_site_fract_y
_atom_site_fract_z
Si Si1 0.329578 0.202242 0.598850
Si Si2 0.675147 0.795659 0.376160
Si Si3 0.174528 0.500000 0.541970
Si Si4 0.830804 0.785137 0.286850
Si Si5 0.323627 0.500000 0.446700
Si Si6 0.171441 0.786020 0.188398
O O1 0.500000 0.254814 0.597806
O O2 0.235235 0.331330 0.568587
O O3 0.268365 0.214714 0.648725
O O4 0.318357 0.000000 0.583688
O O5 0.500000 0.792225 0.372292
O O6 0.741385 0.729511 0.329759
O O7 0.714963 0.670226 0.416873
O O8 0.720545 0.000000 0.383101
O O9 0.241341 0.500000 0.492970
O O10 0.000000 0.500000 0.541438
O O11 0.781489 0.728741 0.237796
O O12 0.000000 0.733721 0.291741
O O13 0.825650 0.000000 0.286252
O O14 0.500000 0.500000 0.453828
O O15 0.000000 0.738261 0.182710
O O16 0.178449 0.000000 0.186572
#
# Coordination Sequence:
#
# PCOD9359256 Si02
#       6
#     8   8   4   8   4   8
#     4  11  24  41  62  89 120 156 199 247 300 359
#     4   9  18  34  56  81 111 149 191 235 287 343
#     4  12  26  44  66  90 118 154 198 252 309 366
#     4   8  15  29  51  80 115 154 193 232 282 342
#     4  10  22  40  60  84 114 148 192 248 301 352
#     4   9  17  32  56  85 118 159 200 241 293 348
#
# _framework density 19.125769999999999
#
# number of rings (size 3 to 8) (size 9 to 14) (size 15 to 20)
#    0.000    2.400    1.000    2.700    0.000    4.000 
#    1.800    4.000    0.000    0.000    0.000    0.000 
#    0.000    0.000    0.000    0.000    0.000    0.000 
#
# Total GULP energy -111658.994175 kJ/mol
# GULP energy per Si atom -5582.949709 kJ/mol
# Density = 1.908224 g / cm^3
# Si number density = 19.125770 Si / 1000 Ang^3
#
#
#
# Elastic Constant Matrix: (Units=GPa)
#
#
# Indices 1 2 3 4 5 6 
#
# 1 82.1214 45.8983 79.6235 0.0000 0.0000 0.0000
# 2 45.8983 84.2641 63.5183 0.0000 0.0000 0.0000
# 3 79.6235 63.5183 179.4336 0.0000 0.0000 0.0000
# 4 0.0000 0.0000 0.0000 -80.9211 0.0000 0.0000
# 5 0.0000 0.0000 0.0000 0.0000 41.7091 0.0000
# 6 0.0000 0.0000 0.0000 0.0000 0.0000 -13.4781
#
#
#
# Elastic Compliance Matrix: (Units=1/GPa)
#
#
# Indices 1 2 3 4 5 6 
#
# 1 0.023975 -0.006874 -0.008206 0.000000 0.000000 0.000000
# 2 -0.006874 0.018157 -0.003377 0.000000 0.000000 0.000000
# 3 -0.008206 -0.003377 0.010410 0.000000 0.000000 0.000000
# 4 0.000000 0.000000 0.000000 -0.012358 0.000000 0.000000
# 5 0.000000 0.000000 0.000000 0.000000 0.023976 0.000000
# 6 0.000000 0.000000 0.000000 0.000000 0.000000 -0.074195
#
#
# Mechanical properties :
#
#
# Convention : Reuss Voigt Hill
#
# Bulk Modulus (GPa) = 63.98431 80.43327 72.20879
# Shear Modulus (GPa) = 155.82057 -0.08607 77.86725
#
# Velocity S-wave (km/s) = 9.03595 -0.21236 6.38762
# Velocity P-wave (km/s) = 11.93280 6.48738 9.60411
#
# Compressibility (1/GPa) = 0.01562883
#
# Stress axis : x y z
#
# Youngs Moduli (GPa) = 41.71045 55.07396 96.06242
#
# Poissons Ratio (x) = 0.37856 0.78825
# Poissons Ratio (y) = 0.28670 0.32445
# Poissons Ratio (z) = 0.34226 0.18601
#
# Static dielectric constant tensor:
#      x y z
#    x 1.633950 0.000000 0.000000 
#    y 0.000000 1.707860 0.000000 
#    z 0.000000 0.000000 1.641550 
# 
# From -- ./inp_files/23276.got.cif
#   From: 2010.05.17/outbox.cif.g08.bks.cpg/sg38_12_cif.got.tgz:23276.got - 2010.06.03 18:07:57.
