data_PCOD9359106
_publ_section_title
;
Structure prediction by ZEFSAII (Michael W. Deem and Ramdas Pophale) SiO2 
 PCOD9359106
Probable space group: A M M 2
;
_chemical_formula_sum "Si O2"
_cell_formula_units_Z 48
_cell_length_a 16.346816
_cell_length_b 10.082371
_cell_length_c 13.359434
_cell_angle_alpha 90.000000
_cell_angle_beta 90.000000
_cell_angle_gamma 90.000000
_cell_volume 2201.830620
_symmetry_space_group_name_H-M "A M M 2"
_symmetry_group_IT_number 38
_symmetry_cell_setting 'orthorhombic'
loop_
_space_group_symop_operation_xyz
x,y,z
-x,-y,z
-x,y,z
x,-y,z
x,1/2+y,1/2+z
-x,1/2-y,1/2+z
-x,1/2+y,1/2+z
x,1/2-y,1/2+z
loop_
_atom_site_type_symbol
_atom_site_label
_atom_site_fract_x
_atom_site_fract_y
_atom_site_fract_z
Si Si1 0.598410 0.286943 0.620290
Si Si2 0.000000 0.148053 0.863837
Si Si3 0.401781 0.500000 0.446528
Si Si4 0.000000 0.853142 0.626641
Si Si5 0.139421 0.356475 0.616342
Si Si6 0.816671 0.849749 0.900036
Si Si7 0.275821 0.642648 0.784561
Si Si8 0.598799 0.000000 0.705880
O O1 0.500000 0.295008 0.629980
O O2 0.618128 0.371017 0.518405
O O3 0.644631 0.350502 0.715320
O O4 0.622351 0.131586 0.641140
O O5 0.000000 0.134651 0.745675
O O6 0.910178 0.206325 0.887197
O O7 0.000000 0.000000 0.911289
O O8 0.500000 0.500000 0.439258
O O9 0.375478 0.500000 0.326516
O O10 0.078438 0.764540 0.604888
O O11 0.000000 0.000000 0.581314
O O12 0.096415 0.500000 0.622449
O O13 0.193917 0.358918 0.517927
O O14 0.198669 0.347280 0.709639
O O15 0.744658 0.762685 0.856456
O O16 0.818517 0.000000 0.857346
O O17 0.273880 0.500000 0.836788
O O18 0.500000 0.000000 0.709883
#
# Coordination Sequence:
#
# PCOD9359106 Si02
#       8
#     8   4   4   4   8   8   8   4
#     4  10  21  40  64  91 126 166 213 267 323 384
#     4   9  17  33  57  84 111 147 194 234 285 354
#     4   9  18  38  67  91 123 164 204 261 324 385
#     4  11  20  35  61  88 117 153 200 250 299 356
#     4  10  22  39  60  86 118 157 201 244 299 365
#     4  10  21  39  62  85 116 160 198 240 298 365
#     4  11  23  38  57  88 123 153 201 256 307 366
#     4   9  20  38  65  97 121 158 214 263 320 395
#
# _framework density 21.800041
#
# number of rings (size 3 to 8) (size 9 to 14) (size 15 to 20)
#    0.000    2.000    2.500    0.750    1.167    3.333 
#    0.000    1.250    3.667    5.000    0.000    0.000 
#    0.000    0.000    0.000    0.000    0.000    0.000 
#
# Total GULP energy -133646.721880 kJ/mol
# GULP energy per Si atom -5568.613412 kJ/mol
# Density = 2.175042 g / cm^3
# Si number density = 21.800041 Si / 1000 Ang^3
#
#
#
# Elastic Constant Matrix: (Units=GPa)
#
#
# Indices 1 2 3 4 5 6 
#
# 1 80.8779 32.2462 1.2728 0.0000 0.0000 0.0000
# 2 32.2462 162.2481 39.1855 0.0000 0.0000 0.0000
# 3 1.2728 39.1855 82.8633 0.0000 0.0000 0.0000
# 4 0.0000 0.0000 0.0000 19.9084 0.0000 0.0000
# 5 0.0000 0.0000 0.0000 0.0000 14.7445 0.0000
# 6 0.0000 0.0000 0.0000 0.0000 0.0000 23.5599
#
#
#
# Elastic Compliance Matrix: (Units=1/GPa)
#
#
# Indices 1 2 3 4 5 6 
#
# 1 0.013533 -0.002980 0.001201 0.000000 0.000000 0.000000
# 2 -0.002980 0.007614 -0.003555 0.000000 0.000000 0.000000
# 3 0.001201 -0.003555 0.013731 0.000000 0.000000 0.000000
# 4 0.000000 0.000000 0.000000 0.050230 0.000000 0.000000
# 5 0.000000 0.000000 0.000000 0.000000 0.067822 0.000000
# 6 0.000000 0.000000 0.000000 0.000000 0.000000 0.042445
#
#
# Mechanical properties :
#
#
# Convention : Reuss Voigt Hill
#
# Bulk Modulus (GPa) = 41.30286 52.37758 46.84022
# Shear Modulus (GPa) = 23.35214 28.52820 25.94017
#
# Velocity S-wave (km/s) = 3.27647 3.62142 3.45326
# Velocity P-wave (km/s) = 5.77070 6.44708 6.11824
#
# Compressibility (1/GPa) = 0.02421140
#
# Stress axis : x y z
#
# Youngs Moduli (GPa) = 73.89072 131.33337 72.82941
#
# Poissons Ratio (x) = 0.39136 -0.08749
# Poissons Ratio (y) = 0.22018 0.25890
# Poissons Ratio (z) = -0.08876 0.46688
#
# Static dielectric constant tensor:
#      x y z
#    x 1.801560 0.000000 0.000000 
#    y 0.000000 1.916580 0.000000 
#    z 0.000000 0.000000 1.789850 
# 
# From -- ./inp_files/15094.got.cif
#   From: 2010.05.17/outbox.cif.g08.bks.cpg/sg38_8_cif.got.tgz:15094.got - 2010.06.03 18:07:57.
