data_PCOD9359128
_publ_section_title
;
Structure prediction by ZEFSAII (Michael W. Deem and Ramdas Pophale) SiO2 
 PCOD9359128
Probable space group: A M M 2
;
_chemical_formula_sum "Si O2"
_cell_formula_units_Z 40
_cell_length_a 8.724977
_cell_length_b 23.530407
_cell_length_c 10.466754
_cell_angle_alpha 90.000000
_cell_angle_beta 90.000000
_cell_angle_gamma 90.000000
_cell_volume 2148.848250
_symmetry_space_group_name_H-M "A M M 2"
_symmetry_group_IT_number 38
_symmetry_cell_setting 'orthorhombic'
loop_
_space_group_symop_operation_xyz
x,y,z
-x,-y,z
-x,y,z
x,-y,z
x,1/2+y,1/2+z
-x,1/2-y,1/2+z
-x,1/2+y,1/2+z
x,1/2-y,1/2+z
loop_
_atom_site_type_symbol
_atom_site_label
_atom_site_fract_x
_atom_site_fract_y
_atom_site_fract_z
Si Si1 0.816490 0.180170 0.421280
Si Si2 0.183671 0.880591 0.686444
Si Si3 0.683577 0.693312 0.418293
Si Si4 0.313693 0.500000 0.564825
Si Si5 0.685012 0.121644 0.171301
Si Si6 0.684235 0.500000 0.267043
O O1 0.773133 0.148175 0.552071
O O2 0.742674 0.242499 0.418158
O O3 0.760375 0.144902 0.299224
O O4 0.000000 0.185932 0.418092
O O5 0.244350 0.841858 0.802059
O O6 0.000000 0.884005 0.692817
O O7 0.253624 0.943087 0.702248
O O8 0.500000 0.692257 0.404886
O O9 0.722783 0.662298 0.551528
O O10 0.500000 0.500000 0.563628
O O11 0.265473 0.442188 0.634312
O O12 0.266255 0.500000 0.416385
O O13 0.500000 0.121966 0.185729
O O14 0.500000 0.500000 0.264233
#
# Coordination Sequence:
#
# PCOD9359128 Si02
#       6
#     8   8   8   4   8   4
#     4  11  25  41  57  86 128 164 200 247 301 363
#     4  11  24  41  62  91 127 163 200 247 304 363
#     4  11  22  39  65  92 119 157 207 254 298 358
#     4   9  18  38  63  90 118 146 193 251 298 349
#     4  10  21  39  64  91 120 154 198 252 303 357
#     4  11  21  40  67  92 120 156 205 255 298 355
#
# _framework density 18.614623000000002
#
# number of rings (size 3 to 8) (size 9 to 14) (size 15 to 20)
#    0.000    1.400    2.000    3.300    0.000    8.800 
#    0.000    2.500    0.000    0.000    0.000    0.000 
#    0.000    0.000    0.000    0.000    0.000    0.000 
#
# Total GULP energy -111832.166173 kJ/mol
# GULP energy per Si atom -5591.608309 kJ/mol
# Density = 1.857225 g / cm^3
# Si number density = 18.614623 Si / 1000 Ang^3
#
#
#
# Elastic Constant Matrix: (Units=GPa)
#
#
# Indices 1 2 3 4 5 6 
#
# 1 45.5831 50.4004 57.6731 0.0000 0.0000 0.0000
# 2 50.4004 193.0945 93.1774 0.0000 0.0000 0.0000
# 3 57.6731 93.1774 161.4890 0.0000 0.0000 0.0000
# 4 0.0000 0.0000 0.0000 68.6643 0.0000 0.0000
# 5 0.0000 0.0000 0.0000 0.0000 32.2168 0.0000
# 6 0.0000 0.0000 0.0000 0.0000 0.0000 24.5736
#
#
#
# Elastic Compliance Matrix: (Units=1/GPa)
#
#
# Indices 1 2 3 4 5 6 
#
# 1 0.043703 -0.005371 -0.012509 0.000000 0.000000 0.000000
# 2 -0.005371 0.007837 -0.002604 0.000000 0.000000 0.000000
# 3 -0.012509 -0.002604 0.012162 0.000000 0.000000 0.000000
# 4 0.000000 0.000000 0.000000 0.014564 0.000000 0.000000
# 5 0.000000 0.000000 0.000000 0.000000 0.031040 0.000000
# 6 0.000000 0.000000 0.000000 0.000000 0.000000 0.040694
#
#
# Mechanical properties :
#
#
# Convention : Reuss Voigt Hill
#
# Bulk Modulus (GPa) = 43.98488 89.18538 66.58513
# Shear Modulus (GPa) = 25.18315 38.35198 31.76756
#
# Velocity S-wave (km/s) = 3.68213 4.54399 4.13557
# Velocity P-wave (km/s) = 6.46204 8.69172 7.65846
#
# Compressibility (1/GPa) = 0.02273508
#
# Stress axis : x y z
#
# Youngs Moduli (GPa) = 22.88165 127.59685 82.22291
#
# Poissons Ratio (x) = 0.68532 1.02851
# Poissons Ratio (y) = 0.12290 0.21409
# Poissons Ratio (z) = 0.28622 0.33224
#
# Static dielectric constant tensor:
#      x y z
#    x 1.627870 0.000000 0.000000 
#    y 0.000000 1.595630 0.000000 
#    z 0.000000 0.000000 1.611020 
# 
# From -- ./inp_files/3528.got.cif
#   From: 2010.05.17/outbox.cif.g08.bks.cpg/sg38_2_cif.got.tgz:3528.got - 2010.06.03 18:07:57.
