data_PCOD9359205
_publ_section_title
;
Structure prediction by ZEFSAII (Michael W. Deem and Ramdas Pophale) SiO2 
 PCOD9359205
Probable space group: A M M 2
;
_chemical_formula_sum "Si O2"
_cell_formula_units_Z 48
_cell_length_a 8.675236
_cell_length_b 17.096693
_cell_length_c 17.536059
_cell_angle_alpha 90.000000
_cell_angle_beta 90.000000
_cell_angle_gamma 90.000000
_cell_volume 2600.910509
_symmetry_space_group_name_H-M "A M M 2"
_symmetry_group_IT_number 38
_symmetry_cell_setting 'orthorhombic'
loop_
_space_group_symop_operation_xyz
x,y,z
-x,-y,z
-x,y,z
x,-y,z
x,1/2+y,1/2+z
-x,1/2-y,1/2+z
-x,1/2+y,1/2+z
x,1/2-y,1/2+z
loop_
_atom_site_type_symbol
_atom_site_label
_atom_site_fract_x
_atom_site_fract_y
_atom_site_fract_z
Si Si1 0.815521 0.356313 0.798530
Si Si2 0.311962 0.000000 0.028022
Si Si3 0.184414 0.178030 0.764870
Si Si4 0.313961 0.325000 0.961450
Si Si5 0.684959 0.500000 0.703349
Si Si6 0.686359 0.090795 0.617544
Si Si7 0.314056 0.147301 0.927779
O O1 0.769726 0.269732 0.769022
O O2 0.756800 0.362306 0.885402
O O3 0.744830 0.423635 0.746833
O O4 0.000000 0.361484 0.797447
O O5 0.261589 0.000000 0.115545
O O6 0.500000 0.000000 0.028424
O O7 0.262716 0.077418 0.982587
O O8 0.250040 0.135829 0.690779
O O9 0.246861 0.140336 0.842986
O O10 0.000000 0.174107 0.764437
O O11 0.500000 0.330038 0.956222
O O12 0.271265 0.233027 0.959807
O O13 0.264942 0.367257 0.039021
O O14 0.500000 0.500000 0.704281
O O15 0.500000 0.093336 0.620167
O O16 0.733791 0.000000 0.618097
O O17 0.500000 0.144836 0.922561
#
# Coordination Sequence:
#
# PCOD9359205 Si02
#       7
#     8   4   8   8   4   8   8
#     4  10  22  40  59  83 118 154 189 233 288 343
#     4   9  20  35  57  88 113 140 185 237 288 335
#     4  10  22  39  58  83 115 153 193 232 281 344
#     4   9  19  36  60  85 110 147 193 239 288 339
#     4  11  23  37  61  90 117 148 191 237 280 339
#     4  10  22  37  57  86 117 148 189 241 289 336
#     4   9  18  36  59  83 112 145 185 236 289 340
#
# _framework density 18.455075999999998
#
# number of rings (size 3 to 8) (size 9 to 14) (size 15 to 20)
#    0.000    2.333    0.000    1.250    4.667    3.000 
#    0.000    1.667    0.000    0.000    0.000    0.000 
#    0.000    0.000    0.000    0.000    0.000    0.000 
#
# Total GULP energy -134012.170950 kJ/mol
# GULP energy per Si atom -5583.840456 kJ/mol
# Density = 1.841307 g / cm^3
# Si number density = 18.455076 Si / 1000 Ang^3
#
#
#
# Elastic Constant Matrix: (Units=GPa)
#
#
# Indices 1 2 3 4 5 6 
#
# 1 18.4698 35.1423 42.9964 0.0000 0.0000 0.0000
# 2 35.1423 128.5265 137.2360 0.0000 0.0000 0.0000
# 3 42.9964 137.2360 220.6233 0.0000 0.0000 0.0000
# 4 0.0000 0.0000 0.0000 31.3987 0.0000 0.0000
# 5 0.0000 0.0000 0.0000 0.0000 -15.0107 0.0000
# 6 0.0000 0.0000 0.0000 0.0000 0.0000 21.6711
#
#
#
# Elastic Compliance Matrix: (Units=1/GPa)
#
#
# Indices 1 2 3 4 5 6 
#
# 1 0.118249 -0.023005 -0.008735 0.000000 0.000000 0.000000
# 2 -0.023005 0.027645 -0.012713 0.000000 0.000000 0.000000
# 3 -0.008735 -0.012713 0.014143 0.000000 0.000000 0.000000
# 4 0.000000 0.000000 0.000000 0.031848 0.000000 0.000000
# 5 0.000000 0.000000 0.000000 0.000000 -0.066619 0.000000
# 6 0.000000 0.000000 0.000000 0.000000 0.000000 0.046145
#
#
# Mechanical properties :
#
#
# Convention : Reuss Voigt Hill
#
# Bulk Modulus (GPa) = 14.05868 88.70767 51.38318
# Shear Modulus (GPa) = 17.60399 17.76148 17.68274
#
# Velocity S-wave (km/s) = 3.09185 3.10565 3.09876
# Velocity P-wave (km/s) = 4.51446 7.81225 6.38011
#
# Compressibility (1/GPa) = 0.07113045
#
# Stress axis : x y z
#
# Youngs Moduli (GPa) = 8.45675 36.17280 70.70757
#
# Poissons Ratio (x) = 0.83217 0.61761
# Poissons Ratio (y) = 0.19455 0.89889
# Poissons Ratio (z) = 0.07387 0.45986
#
# Static dielectric constant tensor:
#      x y z
#    x 1.620290 0.000000 0.000000 
#    y 0.000000 1.629690 0.000000 
#    z 0.000000 0.000000 1.596070 
# 
# From -- ./inp_files/12074.got.cif
#   From: 2010.05.17/outbox.cif.g08.bks.cpg/sg38_7_cif.got.tgz:12074.got - 2010.06.03 18:07:57.
