data_PCOD9359599
_publ_section_title
;
Structure prediction by ZEFSAII (Michael W. Deem and Ramdas Pophale) SiO2 
 PCOD9359599
Probable space group: A M M 2
;
_chemical_formula_sum "Si O2"
_cell_formula_units_Z 28
_cell_length_a 15.000000
_cell_length_b 21.000000
_cell_length_c 9.000000
_cell_angle_alpha 90.000000
_cell_angle_beta 90.000000
_cell_angle_gamma 90.000000
_cell_volume 2835.000000
_symmetry_space_group_name_H-M "A M M 2"
_symmetry_group_IT_number 38
_symmetry_cell_setting 'orthorhombic'
loop_
_space_group_symop_operation_xyz
x,y,z
-x,-y,z
-x,y,z
x,-y,z
x,1/2+y,1/2+z
-x,1/2-y,1/2+z
-x,1/2+y,1/2+z
x,1/2-y,1/2+z
loop_
_atom_site_type_symbol
_atom_site_label
_atom_site_fract_x
_atom_site_fract_y
_atom_site_fract_z
Si Si1 0.106287 0.686030 0.051990
Si Si2 0.777311 0.568238 0.667095
Si Si3 0.775339 0.070961 0.525477
Si Si4 0.196174 0.797254 0.236472
Si Si5 0.400951 0.604231 0.510876
Si Si6 0.599282 0.875005 0.664213
Si Si7 0.600042 0.775524 0.207040
O O1 0.146952 0.616538 0.084413
O O2 0.161865 0.736671 0.147294
O O3 0.000000 0.690604 0.072056
O O4 0.135606 0.697756 0.881906
O O5 0.818262 0.500000 0.620368
O O6 0.816280 0.638631 0.636710
O O7 0.678270 0.571157 0.599106
O O8 0.777186 0.568723 0.846311
O O9 0.679401 0.097901 0.569723
O O10 0.785486 0.000000 0.584046
O O11 0.302453 0.791266 0.278395
O O12 0.500000 0.579830 0.547123
O O13 0.388914 0.602263 0.334551
O O14 0.399501 0.678092 0.563982
O O15 0.500000 0.894428 0.614159
O O16 0.602692 0.798416 0.666373
O O17 0.500000 0.786621 0.278741
#
# Coordination Sequence:
#
# PCOD9359599 Si02
#       7
#     8   8   8   8   8   8   8
#     4  11  23  40  62  88 113 147 194 246 303 352
#     4   9  20  36  55  79 112 153 193 233 287 346
#     4  10  22  40  58  82 116 156 196 241 296 352
#     4  10  21  37  61  87 118 148 189 243 293 349
#     4   9  19  32  50  79 114 155 197 235 277 332
#     4  10  20  34  54  83 120 157 197 240 286 347
#     4   9  18  31  52  83 119 153 188 231 286 349
#
# _framework density 9.8765429999999999
#
# number of rings (size 3 to 8) (size 9 to 14) (size 15 to 20)
#    0.000    2.286    1.429    0.429    4.000    3.143 
#    0.000    7.857    0.000    1.286    0.000    0.000 
#    0.000    0.000    0.000    0.000    0.000    0.000 
#
# Total GULP energy -156067.037015 kJ/mol
# GULP energy per Si atom -5573.822751 kJ/mol
# Density = 0.985406 g / cm^3
# Si number density = 9.876543 Si / 1000 Ang^3
#
#
#
# Elastic Constant Matrix: (Units=GPa)
#
#
# Indices 1 2 3 4 5 6 
#
# 1 108.8049 32.9246 10.8370 0.0000 0.0000 0.0000
# 2 32.9246 127.5141 11.1387 0.0000 0.0000 0.0000
# 3 10.8370 11.1387 7.7146 0.0000 0.0000 0.0000
# 4 0.0000 0.0000 0.0000 11.3573 0.0000 0.0000
# 5 0.0000 0.0000 0.0000 0.0000 22.9710 0.0000
# 6 0.0000 0.0000 0.0000 0.0000 0.0000 6.6532
#
#
#
# Elastic Compliance Matrix: (Units=1/GPa)
#
#
# Indices 1 2 3 4 5 6 
#
# 1 0.011001 -0.001706 -0.012991 0.000000 0.000000 0.000000
# 2 -0.001706 0.009239 -0.010943 0.000000 0.000000 0.000000
# 3 -0.012991 -0.010943 0.163674 0.000000 0.000000 0.000000
# 4 0.000000 0.000000 0.000000 0.088049 0.000000 0.000000
# 5 0.000000 0.000000 0.000000 0.000000 0.043533 0.000000
# 6 0.000000 0.000000 0.000000 0.000000 0.000000 0.150303
#
#
# Mechanical properties :
#
#
# Convention : Reuss Voigt Hill
#
# Bulk Modulus (GPa) = 7.53953 39.31492 23.42723
# Shear Modulus (GPa) = 8.90807 20.80518 14.85663
#
# Velocity S-wave (km/s) = 2.12591 3.24892 2.74545
# Velocity P-wave (km/s) = 3.13866 5.83270 4.68356
#
# Compressibility (1/GPa) = 0.13263429
#
# Stress axis : x y z
#
# Youngs Moduli (GPa) = 90.90269 108.24160 6.10972
#
# Poissons Ratio (x) = 0.18463 0.07937
# Poissons Ratio (y) = 0.15505 0.06686
# Poissons Ratio (z) = 1.18088 1.18450
#
# Static dielectric constant tensor:
#      x y z
#    x 1.678920 0.000000 0.000000 
#    y 0.000000 1.769030 0.000000 
#    z 0.000000 0.000000 1.695540 
# 
# From -- ./inp_files/5701.got.cif
#   From: 2010.05.17/outbox.ucp.g08.bks.cvg/sg38_3_cif.got.tgz:5701.got - 2010.06.11 10:39:43.
