data_PCOD9359421
_publ_section_title
;
Structure prediction by ZEFSAII (Michael W. Deem and Ramdas Pophale) SiO2 
 PCOD9359421
Probable space group: A M M 2
;
_chemical_formula_sum "Si O2"
_cell_formula_units_Z 40
_cell_length_a 8.471924
_cell_length_b 11.822263
_cell_length_c 20.286621
_cell_angle_alpha 90.000000
_cell_angle_beta 90.000000
_cell_angle_gamma 90.000000
_cell_volume 2031.853462
_symmetry_space_group_name_H-M "A M M 2"
_symmetry_group_IT_number 38
_symmetry_cell_setting 'orthorhombic'
loop_
_space_group_symop_operation_xyz
x,y,z
-x,-y,z
-x,y,z
x,-y,z
x,1/2+y,1/2+z
-x,1/2-y,1/2+z
-x,1/2+y,1/2+z
x,1/2-y,1/2+z
loop_
_atom_site_type_symbol
_atom_site_label
_atom_site_fract_x
_atom_site_fract_y
_atom_site_fract_z
Si Si1 0.311514 0.749842 0.949410
Si Si2 0.187928 0.870884 0.575882
Si Si3 0.311334 0.729487 0.204728
Si Si4 0.692273 0.500000 0.428722
Si Si5 0.691855 0.500000 0.276966
Si Si6 0.811906 0.630546 0.820753
O O1 0.500000 0.744740 0.957557
O O2 0.258384 0.880194 0.958891
O O3 0.269827 0.708538 0.875859
O O4 0.231710 0.669428 0.002887
O O5 0.262222 0.786105 0.629216
O O6 0.000000 0.870617 0.583845
O O7 0.245963 0.000000 0.586715
O O8 0.500000 0.737888 0.209359
O O9 0.257049 0.612803 0.239784
O O10 0.236327 0.828540 0.247981
O O11 0.500000 0.500000 0.428855
O O12 0.743799 0.500000 0.352435
O O13 0.500000 0.500000 0.276810
O O14 0.765943 0.500000 0.831211
O O15 0.000000 0.640013 0.828513
#
# Coordination Sequence:
#
# PCOD9359421 Si02
#       6
#     8   8   8   4   4   8
#     4  11  22  39  64  90 118 157 205 250 296 355
#     4  11  24  41  60  87 124 161 198 246 305 361
#     4  11  21  38  65  92 118 152 199 250 298 354
#     4   9  18  36  60  90 120 147 188 247 300 346
#     4   9  16  32  60  92 120 141 180 247 300 342
#     4  11  24  41  60  87 125 162 197 245 303 359
#
# _framework density 19.68646
#
# number of rings (size 3 to 8) (size 9 to 14) (size 15 to 20)
#    0.000    1.400    3.000    3.000    0.000    5.200 
#    1.800    3.000    0.000    0.000    0.000    0.000 
#    0.000    0.000    0.000    0.000    0.000    0.000 
#
# Total GULP energy -111744.102184 kJ/mol
# GULP energy per Si atom -5587.205109 kJ/mol
# Density = 1.964165 g / cm^3
# Si number density = 19.686460 Si / 1000 Ang^3
#
#
#
# Elastic Constant Matrix: (Units=GPa)
#
#
# Indices 1 2 3 4 5 6 
#
# 1 27.7458 14.1394 -5.1841 0.0000 0.0000 0.0000
# 2 14.1394 85.8859 4.0040 0.0000 0.0000 0.0000
# 3 -5.1841 4.0040 64.9446 0.0000 0.0000 0.0000
# 4 0.0000 0.0000 0.0000 35.7249 0.0000 0.0000
# 5 0.0000 0.0000 0.0000 0.0000 30.7618 0.0000
# 6 0.0000 0.0000 0.0000 0.0000 0.0000 21.6931
#
#
#
# Elastic Compliance Matrix: (Units=1/GPa)
#
#
# Indices 1 2 3 4 5 6 
#
# 1 0.040175 -0.006783 0.003625 0.000000 0.000000 0.000000
# 2 -0.006783 0.012822 -0.001332 0.000000 0.000000 0.000000
# 3 0.003625 -0.001332 0.015769 0.000000 0.000000 0.000000
# 4 0.000000 0.000000 0.000000 0.027992 0.000000 0.000000
# 5 0.000000 0.000000 0.000000 0.000000 0.032508 0.000000
# 6 0.000000 0.000000 0.000000 0.000000 0.000000 0.046098
#
#
# Mechanical properties :
#
#
# Convention : Reuss Voigt Hill
#
# Bulk Modulus (GPa) = 16.72602 22.72164 19.72383
# Shear Modulus (GPa) = 24.47706 28.67708 26.57707
#
# Velocity S-wave (km/s) = 3.52993 3.82080 3.67824
# Velocity P-wave (km/s) = 5.01284 5.57059 5.29906
#
# Compressibility (1/GPa) = 0.05978707
#
# Stress axis : x y z
#
# Youngs Moduli (GPa) = 24.89081 77.99003 63.41459
#
# Poissons Ratio (x) = 0.52901 -0.22989
# Poissons Ratio (y) = 0.16884 0.08447
# Poissons Ratio (z) = -0.09023 0.10388
#
# Static dielectric constant tensor:
#      x y z
#    x 1.668830 0.000000 0.000000 
#    y 0.000000 1.689100 0.000000 
#    z 0.000000 0.000000 1.655220 
# 
# From -- ./inp_files/19519.got.cif
#   From: 2010.05.17/outbox.cif.g08.bks.cpg/sg38_10_cif.got.tgz:19519.got - 2010.06.03 18:07:57.
