data_PCOD9359069
_publ_section_title
;
Structure prediction by ZEFSAII (Michael W. Deem and Ramdas Pophale) SiO2 
 PCOD9359069
Probable space group: A M M 2
;
_chemical_formula_sum "Si O2"
_cell_formula_units_Z 58
_cell_length_a 16.811720
_cell_length_b 16.677050
_cell_length_c 9.110776
_cell_angle_alpha 90.000000
_cell_angle_beta 90.000000
_cell_angle_gamma 90.000000
_cell_volume 2554.387311
_symmetry_space_group_name_H-M "A M M 2"
_symmetry_group_IT_number 38
_symmetry_cell_setting 'orthorhombic'
loop_
_space_group_symop_operation_xyz
x,y,z
-x,-y,z
-x,y,z
x,-y,z
x,1/2+y,1/2+z
-x,1/2-y,1/2+z
-x,1/2+y,1/2+z
x,1/2-y,1/2+z
loop_
_atom_site_type_symbol
_atom_site_label
_atom_site_fract_x
_atom_site_fract_y
_atom_site_fract_z
Si Si1 0.086881 0.261329 0.083380
Si Si2 0.588499 0.650896 0.299511
Si Si3 0.000000 0.000000 0.874638
Si Si4 0.735487 0.404448 0.818723
Si Si5 0.873562 0.849678 0.858495
Si Si6 0.088248 0.406241 0.864622
Si Si7 0.263600 0.590122 0.151960
Si Si8 0.591491 0.822994 0.145144
O O1 0.090093 0.279764 0.254281
O O2 0.000000 0.228026 0.046714
O O3 0.144213 0.197408 0.008627
O O4 0.091615 0.348222 0.004939
O O5 0.500000 0.617842 0.287502
O O6 0.652012 0.592585 0.229738
O O7 0.593259 0.732607 0.205605
O O8 0.602643 0.671168 0.470206
O O9 0.929875 0.072334 0.872699
O O10 0.721990 0.500000 0.816676
O O11 0.829151 0.392777 0.778964
O O12 0.665576 0.366327 0.723406
O O13 0.730166 0.374563 0.988138
O O14 0.795211 0.869128 0.766297
O O15 0.089757 0.500000 0.909218
O O16 0.000000 0.395374 0.793788
O O17 0.234136 0.500000 0.131220
O O18 0.500000 0.852949 0.177202
#
# Coordination Sequence:
#
# PCOD9359069 Si02
#       8
#     8   8   2   8   8   8   8   8
#     4  11  22  39  65  98 127 170 234 284 329 393
#     4  10  23  43  69  96 128 168 213 272 338 411
#     4  12  24  44  76  90 136 188 232 278 348 412
#     4  10  21  38  61  97 133 171 224 273 325 397
#     4  12  25  42  69  99 135 180 232 284 343 398
#     4   9  19  35  62  92 131 177 231 281 328 387
#     4  11  24  41  63  99 131 175 226 268 332 412
#     4  10  22  42  68  99 129 168 216 267 344 416
#
# _framework density 22.706032
#
# number of rings (size 3 to 8) (size 9 to 14) (size 15 to 20)
#    0.000    1.517    3.448    0.828    2.897    3.862 
#    0.000    2.759    1.517    0.828    0.000    0.000 
#    0.000    0.000    0.000    0.000    0.000    0.000 
#
# Total GULP energy -161659.513358 kJ/mol
# GULP energy per Si atom -5574.465978 kJ/mol
# Density = 2.265435 g / cm^3
# Si number density = 22.706032 Si / 1000 Ang^3
#
#
#
# Elastic Constant Matrix: (Units=GPa)
#
#
# Indices 1 2 3 4 5 6 
#
# 1 142.6061 30.6859 42.8897 0.0000 0.0000 0.0000
# 2 30.6859 81.3686 52.7207 0.0000 0.0000 0.0000
# 3 42.8897 52.7207 96.3573 0.0000 0.0000 0.0000
# 4 0.0000 0.0000 0.0000 18.9856 0.0000 0.0000
# 5 0.0000 0.0000 0.0000 0.0000 22.4497 0.0000
# 6 0.0000 0.0000 0.0000 0.0000 0.0000 39.6452
#
#
#
# Elastic Compliance Matrix: (Units=1/GPa)
#
#
# Indices 1 2 3 4 5 6 
#
# 1 0.008162 -0.001122 -0.003019 0.000000 0.000000 0.000000
# 2 -0.001122 0.019193 -0.010002 0.000000 0.000000 0.000000
# 3 -0.003019 -0.010002 0.017194 0.000000 0.000000 0.000000
# 4 0.000000 0.000000 0.000000 0.052671 0.000000 0.000000
# 5 0.000000 0.000000 0.000000 0.000000 0.044544 0.000000
# 6 0.000000 0.000000 0.000000 0.000000 0.000000 0.025224
#
#
# Mechanical properties :
#
#
# Convention : Reuss Voigt Hill
#
# Bulk Modulus (GPa) = 61.48733 63.65828 62.57280
# Shear Modulus (GPa) = 24.91332 29.15182 27.03257
#
# Velocity S-wave (km/s) = 3.31601 3.58701 3.45417
# Velocity P-wave (km/s) = 6.46527 6.72698 6.59743
#
# Compressibility (1/GPa) = 0.01626351
#
# Stress axis : x y z
#
# Youngs Moduli (GPa) = 122.52314 52.10117 58.15850
#
# Poissons Ratio (x) = 0.05845 0.17558
# Poissons Ratio (y) = 0.13745 0.58171
# Poissons Ratio (z) = 0.36991 0.52112
#
# Static dielectric constant tensor:
#      x y z
#    x 1.881850 0.000000 0.000000 
#    y 0.000000 1.848570 0.000000 
#    z 0.000000 0.000000 1.854450 
# 
# From -- ./inp_files/6368.got.cif
#   From: 2010.05.17/outbox.cif.g08.bks.cpg/sg38_4_cif.got.tgz:6368.got - 2010.06.03 18:07:57.
