data_PCOD9359433
_publ_section_title
;
Structure prediction by ZEFSAII (Michael W. Deem and Ramdas Pophale) SiO2 
 PCOD9359433
Probable space group: A M M 2
;
_chemical_formula_sum "Si O2"
_cell_formula_units_Z 64
_cell_length_a 14.518343
_cell_length_b 8.015484
_cell_length_c 26.634178
_cell_angle_alpha 90.000000
_cell_angle_beta 90.000000
_cell_angle_gamma 90.000000
_cell_volume 3099.460471
_symmetry_space_group_name_H-M "A M M 2"
_symmetry_group_IT_number 38
_symmetry_cell_setting 'orthorhombic'
loop_
_space_group_symop_operation_xyz
x,y,z
-x,-y,z
-x,y,z
x,-y,z
x,1/2+y,1/2+z
-x,1/2-y,1/2+z
-x,1/2+y,1/2+z
x,1/2-y,1/2+z
loop_
_atom_site_type_symbol
_atom_site_label
_atom_site_fract_x
_atom_site_fract_y
_atom_site_fract_z
Si Si1 0.103992 0.195790 0.593900
Si Si2 0.787444 0.694915 0.497423
Si Si3 0.396584 0.199846 0.731285
Si Si4 0.394533 0.295001 0.449658
Si Si5 0.612274 0.808804 0.839627
Si Si6 0.892710 0.703768 0.786750
Si Si7 0.216640 0.303741 0.690026
Si Si8 0.110038 0.200233 0.397956
O O1 0.155772 0.219684 0.541368
O O2 0.160768 0.271956 0.639641
O O3 0.000000 0.264810 0.591144
O O4 0.098168 0.000000 0.604044
O O5 0.783167 0.500000 0.510131
O O6 0.683156 0.757448 0.488799
O O7 0.838483 0.716698 0.444189
O O8 0.500000 0.260894 0.720558
O O9 0.363682 0.269393 0.785877
O O10 0.320140 0.236409 0.690345
O O11 0.402170 0.000000 0.737387
O O12 0.500000 0.245372 0.459907
O O13 0.393929 0.500000 0.447554
O O14 0.365788 0.233139 0.393798
O O15 0.500000 0.815623 0.838895
O O16 0.646334 0.000000 0.840307
O O17 0.891319 0.500000 0.786784
O O18 0.836482 0.766867 0.738935
O O19 0.858739 0.755580 0.842167
O O20 0.000000 0.751995 0.781903
O O21 0.223266 0.500000 0.697470
O O22 0.000000 0.231484 0.401024
O O23 0.122648 0.000000 0.401746
#
# Coordination Sequence:
#
# PCOD9359433 Si02
#       8
#     8   8   8   8   8   8   8   8
#     4  11  25  45  65  82 105 145 193 238 288 352
#     4  11  22  34  56  88 114 142 185 239 291 331
#     4   9  18  33  54  81 116 158 199 235 275 331
#     4   8  15  29  49  77 114 151 186 224 271 327
#     4   7  11  23  45  72 105 148 190 224 261 310
#     4   8  16  32  53  78 110 147 182 219 277 350
#     4  11  22  36  59  88 115 146 187 240 297 343
#     4   9  18  34  54  76 109 152 187 217 269 347
#
# _framework density 20.648755000000001
#
# number of rings (size 3 to 8) (size 9 to 14) (size 15 to 20)
#    0.000    2.750    0.000    4.125    1.750    3.500 
#    0.000    1.250    0.000    5.250    0.000    0.000 
#    0.000    0.000    0.000    0.000    0.000    0.000 
#
# Total GULP energy -178539.782812 kJ/mol
# GULP energy per Si atom -5579.368213 kJ/mol
# Density = 2.060176 g / cm^3
# Si number density = 20.648755 Si / 1000 Ang^3
#
#
#
# Elastic Constant Matrix: (Units=GPa)
#
#
# Indices 1 2 3 4 5 6 
#
# 1 118.1301 6.4797 61.0339 0.0000 0.0000 0.0000
# 2 6.4797 18.1311 -3.2337 0.0000 0.0000 0.0000
# 3 61.0339 -3.2337 87.4424 0.0000 0.0000 0.0000
# 4 0.0000 0.0000 0.0000 20.0514 0.0000 0.0000
# 5 0.0000 0.0000 0.0000 0.0000 34.8779 0.0000
# 6 0.0000 0.0000 0.0000 0.0000 0.0000 15.0173
#
#
#
# Elastic Compliance Matrix: (Units=1/GPa)
#
#
# Indices 1 2 3 4 5 6 
#
# 1 0.014027 -0.006804 -0.010042 0.000000 0.000000 0.000000
# 2 -0.006804 0.058820 0.006924 0.000000 0.000000 0.000000
# 3 -0.010042 0.006924 0.018702 0.000000 0.000000 0.000000
# 4 0.000000 0.000000 0.000000 0.049872 0.000000 0.000000
# 5 0.000000 0.000000 0.000000 0.000000 0.028671 0.000000
# 6 0.000000 0.000000 0.000000 0.000000 0.000000 0.066590
#
#
# Mechanical properties :
#
#
# Convention : Reuss Voigt Hill
#
# Bulk Modulus (GPa) = 13.94602 39.14037 26.54319
# Shear Modulus (GPa) = 17.82990 24.61758 21.22374
#
# Velocity S-wave (km/s) = 2.94170 3.45658 3.20948
# Velocity P-wave (km/s) = 4.27864 5.90991 5.15916
#
# Compressibility (1/GPa) = 0.07170506
#
# Stress axis : x y z
#
# Youngs Moduli (GPa) = 71.29109 17.00091 53.47133
#
# Poissons Ratio (x) = 0.11567 0.53698
# Poissons Ratio (y) = 0.48507 -0.37026
# Poissons Ratio (z) = 0.71593 -0.11772
#
# Static dielectric constant tensor:
#      x y z
#    x 1.768220 0.000000 0.000000 
#    y 0.000000 1.750380 0.000000 
#    z 0.000000 0.000000 1.725980 
# 
# From -- ./inp_files/22911.got.cif
#   From: 2010.05.17/outbox.cif.g08.bks.cpg/sg38_12_cif.got.tgz:22911.got - 2010.06.03 18:07:57.
