data_PCOD9359817
_publ_section_title
;
Structure prediction by ZEFSAII (Michael W. Deem and Ramdas Pophale) SiO2 
 PCOD9359817
Probable space group: A B M 2
;
_chemical_formula_sum "Si O2"
_cell_formula_units_Z 52
_cell_length_a 13.305258
_cell_length_b 9.456569
_cell_length_c 22.696082
_cell_angle_alpha 90.000000
_cell_angle_beta 90.000000
_cell_angle_gamma 90.000000
_cell_volume 2855.668480
_symmetry_space_group_name_H-M "A B M 2"
_symmetry_group_IT_number 39
_symmetry_cell_setting 'orthorhombic'
loop_
_space_group_symop_operation_xyz
x,y,z
-x,-y,z
-x,1/2+y,z
x,1/2-y,z
x,1/2+y,1/2+z
-x,1/2-y,1/2+z
-x,y,1/2+z
x,-y,1/2+z
loop_
_atom_site_type_symbol
_atom_site_label
_atom_site_fract_x
_atom_site_fract_y
_atom_site_fract_z
Si Si1 0.392508 0.419788 0.670620
Si Si2 0.095153 0.082725 0.346655
Si Si3 0.299594 0.914915 0.044547
Si Si4 0.617541 0.895288 0.875295
Si Si5 0.309379 0.584869 0.781618
Si Si6 0.179500 0.588731 0.451752
Si Si7 0.500000 0.000000 0.976384
O O1 0.500000 0.500000 0.663972
O O2 0.408447 0.250000 0.676295
O O3 0.323014 0.442885 0.612902
O O4 0.335858 0.488572 0.726045
O O5 0.076069 0.250000 0.351842
O O6 0.196212 0.065565 0.307218
O O7 0.112203 0.013105 0.411214
O O8 0.000000 0.000000 0.320245
O O9 0.272692 0.750000 0.036333
O O10 0.218887 0.014188 0.011471
O O11 0.407717 0.942939 0.013848
O O12 0.611460 0.750000 0.839395
O O13 0.722800 0.899497 0.909851
O O14 0.617101 0.030698 0.833633
O O15 0.541490 0.890960 0.928977
O O16 0.324526 0.750000 0.768972
O O17 0.141803 0.750000 0.460841
#
# Coordination Sequence:
#
# PCOD9359817 Si02
#       7
#     8   8   8   8   8   8   4
#     4  11  23  38  56  77 108 152 198 241 280 326
#     4  10  20  36  61  89 116 145 179 225 284 347
#     4  10  20  34  52  75 105 143 187 232 276 324
#     4   9  18  30  47  70  99 135 173 217 269 320
#     4  10  22  38  54  77 110 146 185 231 280 332
#     4   9  18  32  52  79 109 140 174 219 272 328
#     4  10  18  30  48  72 100 136 180 228 268 324
#
# _framework density 18.209396999999999
#
# number of rings (size 3 to 8) (size 9 to 14) (size 15 to 20)
#    0.000    2.154    0.769    2.308    1.077    8.000 
#    0.000    0.000    0.000    0.923    0.000    2.154 
#    0.000    0.000    0.000    0.000    0.000    0.000 
#
# Total GULP energy -144796.252188 kJ/mol
# GULP energy per Si atom -5569.086623 kJ/mol
# Density = 1.816795 g / cm^3
# Si number density = 18.209397 Si / 1000 Ang^3
#
#
#
# Elastic Constant Matrix: (Units=GPa)
#
#
# Indices 1 2 3 4 5 6 
#
# 1 41.3015 28.4942 15.2303 0.0000 0.0000 0.0000
# 2 28.4942 140.0081 56.9986 0.0000 0.0000 0.0000
# 3 15.2303 56.9986 103.4279 0.0000 0.0000 0.0000
# 4 0.0000 0.0000 0.0000 27.9783 0.0000 0.0000
# 5 0.0000 0.0000 0.0000 0.0000 15.7072 0.0000
# 6 0.0000 0.0000 0.0000 0.0000 0.0000 -16.8218
#
#
#
# Elastic Compliance Matrix: (Units=1/GPa)
#
#
# Indices 1 2 3 4 5 6 
#
# 1 0.028298 -0.005238 -0.001280 0.000000 0.000000 0.000000
# 2 -0.005238 0.010178 -0.004838 0.000000 0.000000 0.000000
# 3 -0.001280 -0.004838 0.012523 0.000000 0.000000 0.000000
# 4 0.000000 0.000000 0.000000 0.035742 0.000000 0.000000
# 5 0.000000 0.000000 0.000000 0.000000 0.063665 0.000000
# 6 0.000000 0.000000 0.000000 0.000000 0.000000 -0.059447
#
#
# Mechanical properties :
#
#
# Convention : Reuss Voigt Hill
#
# Bulk Modulus (GPa) = 35.35188 54.02041 44.68615
# Shear Modulus (GPa) = 40.61717 17.64035 29.12876
#
# Velocity S-wave (km/s) = 4.72800 3.11585 4.00391
# Velocity P-wave (km/s) = 7.01866 6.53264 6.78001
#
# Compressibility (1/GPa) = 0.02828704
#
# Stress axis : x y z
#
# Youngs Moduli (GPa) = 35.33812 98.25184 79.85203
#
# Poissons Ratio (x) = 0.51463 0.10225
# Poissons Ratio (y) = 0.18510 0.38630
# Poissons Ratio (z) = 0.04525 0.47531
#
# Static dielectric constant tensor:
#      x y z
#    x 1.688030 0.000000 0.000000 
#    y 0.000000 1.511320 0.000000 
#    z 0.000000 0.000000 1.602960 
# 
# From -- ./inp_files/14677.got.cif
#   From: 2010.05.17/outbox.cif.g08.bks.cpg/sg39_8_cif.got.tgz:14677.got - 2010.06.03 18:22:40.
