data_PCOD9359181
_publ_section_title
;
Structure prediction by ZEFSAII (Michael W. Deem and Ramdas Pophale) SiO2 
 PCOD9359181
Probable space group: A M M 2
;
_chemical_formula_sum "Si O2"
_cell_formula_units_Z 30
_cell_length_a 18.777303
_cell_length_b 13.952212
_cell_length_c 5.113229
_cell_angle_alpha 90.000000
_cell_angle_beta 90.000000
_cell_angle_gamma 90.000000
_cell_volume 1339.588851
_symmetry_space_group_name_H-M "A M M 2"
_symmetry_group_IT_number 38
_symmetry_cell_setting 'orthorhombic'
loop_
_space_group_symop_operation_xyz
x,y,z
-x,-y,z
-x,y,z
x,-y,z
x,1/2+y,1/2+z
-x,1/2-y,1/2+z
-x,1/2+y,1/2+z
x,1/2-y,1/2+z
loop_
_atom_site_type_symbol
_atom_site_label
_atom_site_fract_x
_atom_site_fract_y
_atom_site_fract_z
Si Si1 0.500000 0.000000 0.134960
Si Si2 0.603778 0.685254 0.661671
Si Si3 0.150432 0.385540 0.073350
Si Si4 0.000000 0.696747 0.248113
Si Si5 0.236808 0.883946 0.077630
O O1 0.561242 0.085867 0.137319
O O2 0.587082 0.759287 0.428923
O O3 0.687470 0.660823 0.644427
O O4 0.148470 0.500000 0.068823
O O5 0.072795 0.352517 0.158988
O O6 0.208987 0.358628 0.290226
O O7 0.177241 0.354143 0.789073
O O8 0.000000 0.709368 0.560302
O O9 0.243693 0.000000 0.090211
#
# Coordination Sequence:
#
# PCOD9359181 Si02
#       5
#     2   8   8   4   8
#     4  12  28  54  72 104 156 172 236 286 344 416
#     4  12  27  46  75 107 139 188 232 280 351 411
#     4  10  22  40  66  89 129 175 225 266 338 402
#     4  12  25  38  57  90 130 170 216 284 339 376
#     4  10  21  42  66  97 130 175 219 286 334 398
#
# _framework density 22.394929999999999
#
# number of rings (size 3 to 8) (size 9 to 14) (size 15 to 20)
#    0.000    1.067    1.333    4.400    0.000    8.533 
#    0.000    5.333    0.000    0.000    0.000    0.000 
#    0.000    0.000    0.000    0.000    0.000    0.000 
#
# Total GULP energy -83718.203255 kJ/mol
# GULP energy per Si atom -5581.213550 kJ/mol
# Density = 2.234396 g / cm^3
# Si number density = 22.394930 Si / 1000 Ang^3
#
#
#
# Elastic Constant Matrix: (Units=GPa)
#
#
# Indices 1 2 3 4 5 6 
#
# 1 130.6617 18.4961 -14.6129 0.0000 0.0000 0.0000
# 2 18.4961 118.1049 -17.8865 0.0000 0.0000 0.0000
# 3 -14.6129 -17.8865 64.8563 0.0000 0.0000 0.0000
# 4 0.0000 0.0000 0.0000 14.2812 0.0000 0.0000
# 5 0.0000 0.0000 0.0000 0.0000 -342.0342 0.0000
# 6 0.0000 0.0000 0.0000 0.0000 0.0000 41.8460
#
#
#
# Elastic Compliance Matrix: (Units=1/GPa)
#
#
# Indices 1 2 3 4 5 6 
#
# 1 0.007967 -0.001018 0.001514 0.000000 0.000000 0.000000
# 2 -0.001018 0.008966 0.002243 0.000000 0.000000 0.000000
# 3 0.001514 0.002243 0.016379 0.000000 0.000000 0.000000
# 4 0.000000 0.000000 0.000000 0.070022 0.000000 0.000000
# 5 0.000000 0.000000 0.000000 0.000000 -0.002924 0.000000
# 6 0.000000 0.000000 0.000000 0.000000 0.000000 0.023897
#
#
# Mechanical properties :
#
#
# Convention : Reuss Voigt Hill
#
# Bulk Modulus (GPa) = 25.77983 31.73513 28.75748
# Shear Modulus (GPa) = 37.94803 -35.33965 1.30419
#
# Velocity S-wave (km/s) = 4.12089 -3.97674 0.76395
# Velocity P-wave (km/s) = 5.84626 2.62383 3.69420
#
# Compressibility (1/GPa) = 0.03879002
#
# Stress axis : x y z
#
# Youngs Moduli (GPa) = 125.52013 111.52899 61.05544
#
# Poissons Ratio (x) = 0.11358 -0.09245
# Poissons Ratio (y) = 0.12782 -0.13697
# Poissons Ratio (z) = -0.19006 -0.25020
#
# Static dielectric constant tensor:
#      x y z
#    x 1.909860 0.000000 0.000000 
#    y 0.000000 1.826600 0.000000 
#    z 0.000000 0.000000 1.808390 
# 
# From -- ./inp_files/1478.got.cif
#   From: 2010.05.17/outbox.cif.g08.bks.cpg/sg38_1_cif.got.tgz:1478.got - 2010.06.03 18:07:57.
