data_PCOD9359137
_publ_section_title
;
Structure prediction by ZEFSAII (Michael W. Deem and Ramdas Pophale) SiO2 
 PCOD9359137
Probable space group: A M M 2
;
_chemical_formula_sum "Si O2"
_cell_formula_units_Z 48
_cell_length_a 16.475737
_cell_length_b 25.123713
_cell_length_c 5.002212
_cell_angle_alpha 90.000000
_cell_angle_beta 90.000000
_cell_angle_gamma 90.000000
_cell_volume 2070.574056
_symmetry_space_group_name_H-M "A M M 2"
_symmetry_group_IT_number 38
_symmetry_cell_setting 'orthorhombic'
loop_
_space_group_symop_operation_xyz
x,y,z
-x,-y,z
-x,y,z
x,-y,z
x,1/2+y,1/2+z
-x,1/2-y,1/2+z
-x,1/2+y,1/2+z
x,1/2-y,1/2+z
loop_
_atom_site_type_symbol
_atom_site_label
_atom_site_fract_x
_atom_site_fract_y
_atom_site_fract_z
Si Si1 0.315176 0.202408 0.942220
Si Si2 0.094801 0.836348 0.079547
Si Si3 0.185967 0.296472 0.105729
Si Si4 0.405795 0.663818 0.971154
Si Si5 0.690525 0.560405 0.085237
Si Si6 0.194102 0.559869 0.587322
O O1 0.386664 0.204455 0.719681
O O2 0.266196 0.058956 0.871516
O O3 0.352401 0.178843 0.210694
O O4 0.251036 0.167393 0.768866
O O5 0.146447 0.817456 0.336195
O O6 0.000000 0.835220 0.136503
O O7 0.114234 0.797257 0.827509
O O8 0.126322 0.896022 0.024428
O O9 0.250550 0.250667 0.523233
O O10 0.500000 0.666631 0.905310
O O11 0.379254 0.604667 0.058888
O O12 0.660444 0.500000 0.029072
O O13 0.761376 0.571415 0.867897
O O14 0.159209 0.500000 0.597118
#
# Coordination Sequence:
#
# PCOD9359137 Si02
#       6
#     8   8   8   8   8   8
#     4  12  25  46  70  92 126 182 234 275 334 412
#     4  12  25  43  69 103 139 173 222 289 352 398
#     4  12  25  46  70  92 126 182 234 275 334 412
#     4  12  25  43  69 103 139 173 222 289 352 398
#     4  10  21  39  67  99 132 177 226 265 318 407
#     4  10  21  39  67  99 132 177 226 265 318 407
#
# _framework density 23.181977
#
# number of rings (size 3 to 8) (size 9 to 14) (size 15 to 20)
#    0.000    0.667    0.000   10.000    0.000    0.667 
#    0.000   16.667    0.000   10.000    0.000    0.000 
#    0.000    0.000    0.000    0.000    0.000    0.000 
#
# Total GULP energy -133852.141630 kJ/mol
# GULP energy per Si atom -5577.172568 kJ/mol
# Density = 2.312921 g / cm^3
# Si number density = 23.181977 Si / 1000 Ang^3
#
#
#
# Elastic Constant Matrix: (Units=GPa)
#
#
# Indices 1 2 3 4 5 6 
#
# 1 150.7994 67.6130 48.0774 0.0000 0.0000 0.0000
# 2 67.6130 159.8496 32.8991 0.0000 0.0000 0.0000
# 3 48.0774 32.8991 191.7236 0.0000 0.0000 0.0000
# 4 0.0000 0.0000 0.0000 28.8900 0.0000 0.0000
# 5 0.0000 0.0000 0.0000 0.0000 38.1977 0.0000
# 6 0.0000 0.0000 0.0000 0.0000 0.0000 28.8165
#
#
#
# Elastic Compliance Matrix: (Units=1/GPa)
#
#
# Indices 1 2 3 4 5 6 
#
# 1 0.008629 -0.003322 -0.001594 0.000000 0.000000 0.000000
# 2 -0.003322 0.007764 -0.000499 0.000000 0.000000 0.000000
# 3 -0.001594 -0.000499 0.005701 0.000000 0.000000 0.000000
# 4 0.000000 0.000000 0.000000 0.034614 0.000000 0.000000
# 5 0.000000 0.000000 0.000000 0.000000 0.026180 0.000000
# 6 0.000000 0.000000 0.000000 0.000000 0.000000 0.034702
#
#
# Mechanical properties :
#
#
# Convention : Reuss Voigt Hill
#
# Bulk Modulus (GPa) = 88.77805 88.83907 88.80856
# Shear Modulus (GPa) = 37.82891 42.76636 40.29763
#
# Velocity S-wave (km/s) = 4.04397 4.29979 4.17384
# Velocity P-wave (km/s) = 7.75785 7.94082 7.84986
#
# Compressibility (1/GPa) = 0.01126405
#
# Stress axis : x y z
#
# Youngs Moduli (GPa) = 115.89067 128.80495 175.40239
#
# Poissons Ratio (x) = 0.42786 0.27956
# Poissons Ratio (y) = 0.38496 0.08757
# Poissons Ratio (z) = 0.18471 0.06430
#
# Static dielectric constant tensor:
#      x y z
#    x 1.876480 0.000000 0.000000 
#    y 0.000000 2.070380 0.000000 
#    z 0.000000 0.000000 2.137730 
# 
# From -- ./inp_files/1633.got.cif
#   From: 2010.05.17/outbox.cif.g08.bks.cpg/sg38_1_cif.got.tgz:1633.got - 2010.06.03 18:07:57.
