data_PCOD9359610
_publ_section_title
;
Structure prediction by ZEFSAII (Michael W. Deem and Ramdas Pophale) SiO2 
 PCOD9359610
Probable space group: A M M 2
;
_chemical_formula_sum "Si O2"
_cell_formula_units_Z 24
_cell_length_a 9.000000
_cell_length_b 18.000000
_cell_length_c 15.000000
_cell_angle_alpha 90.000000
_cell_angle_beta 90.000000
_cell_angle_gamma 90.000000
_cell_volume 2430.000000
_symmetry_space_group_name_H-M "A M M 2"
_symmetry_group_IT_number 38
_symmetry_cell_setting 'orthorhombic'
loop_
_space_group_symop_operation_xyz
x,y,z
-x,-y,z
-x,y,z
x,-y,z
x,1/2+y,1/2+z
-x,1/2-y,1/2+z
-x,1/2+y,1/2+z
x,1/2-y,1/2+z
loop_
_atom_site_type_symbol
_atom_site_label
_atom_site_fract_x
_atom_site_fract_y
_atom_site_fract_z
Si Si1 0.175500 0.916899 0.672360
Si Si2 0.822013 0.079651 0.227553
Si Si3 0.326360 0.374253 0.551553
Si Si4 0.324842 0.697126 0.040436
Si Si5 0.821455 0.210740 0.355851
Si Si6 0.322035 0.627986 0.348687
O O1 0.265505 0.855078 0.618373
O O2 0.236692 0.915734 0.772712
O O3 0.000000 0.899944 0.671267
O O4 0.197000 0.000000 0.634849
O O5 0.770202 0.087934 0.126574
O O6 0.771683 0.149965 0.284242
O O7 0.000000 0.080561 0.231291
O O8 0.769629 0.000000 0.263543
O O9 0.500000 0.391231 0.565810
O O10 0.307638 0.284939 0.560209
O O11 0.288541 0.395470 0.450150
O O12 0.500000 0.684583 0.023696
O O13 0.226716 0.682446 0.953021
O O14 0.735147 0.287388 0.340845
O O15 0.000000 0.222073 0.351273
O O16 0.500000 0.624387 0.336667
#
# Coordination Sequence:
#
# PCOD9359610 Si02
#       6
#     8   8   8   8   8   8
#     4  11  24  39  56  82 115 150 188 231 283 343
#     4  10  22  37  53  78 112 147 181 221 270 322
#     4   9  20  37  57  82 109 140 180 227 275 324
#     4  10  21  38  60  85 112 143 184 233 282 334
#     4  10  20  36  59  84 112 147 187 231 278 330
#     4  10  21  38  59  83 112 145 186 235 282 331
#
# _framework density 9.8765429999999999
#
# number of rings (size 3 to 8) (size 9 to 14) (size 15 to 20)
#    0.000    2.000    0.000    4.000    0.000   11.000 
#    0.000    5.000    0.000    0.000    0.000    0.000 
#    0.000    0.000    0.000    0.000    0.000    0.000 
#
# Total GULP energy -134022.874591 kJ/mol
# GULP energy per Si atom -5584.286441 kJ/mol
# Density = 0.985406 g / cm^3
# Si number density = 9.876543 Si / 1000 Ang^3
#
#
#
# Elastic Constant Matrix: (Units=GPa)
#
#
# Indices 1 2 3 4 5 6 
#
# 1 18.6456 2.1273 -6.0950 0.0000 0.0000 0.0000
# 2 2.1273 32.0905 19.5284 0.0000 0.0000 0.0000
# 3 -6.0950 19.5284 42.0005 0.0000 0.0000 0.0000
# 4 0.0000 0.0000 0.0000 -101.6866 0.0000 0.0000
# 5 0.0000 0.0000 0.0000 0.0000 38.4584 0.0000
# 6 0.0000 0.0000 0.0000 0.0000 0.0000 -152.0358
#
#
#
# Elastic Compliance Matrix: (Units=1/GPa)
#
#
# Indices 1 2 3 4 5 6 
#
# 1 0.059911 -0.012917 0.014700 0.000000 0.000000 0.000000
# 2 -0.012917 0.046243 -0.023376 0.000000 0.000000 0.000000
# 3 0.014700 -0.023376 0.036811 0.000000 0.000000 0.000000
# 4 0.000000 0.000000 0.000000 -0.009834 0.000000 0.000000
# 5 0.000000 0.000000 0.000000 0.000000 0.026002 0.000000
# 6 0.000000 0.000000 0.000000 0.000000 0.000000 -0.006577
#
#
# Mechanical properties :
#
#
# Convention : Reuss Voigt Hill
#
# Bulk Modulus (GPa) = 10.02208 13.76201 11.89205
# Shear Modulus (GPa) = 21.83393 -37.90775 -8.03691
#
# Velocity S-wave (km/s) = 3.32828 -4.38548 -2.01929
# Velocity P-wave (km/s) = 4.45585 4.31985 0.77248
#
# Compressibility (1/GPa) = 0.09977969
#
# Stress axis : x y z
#
# Youngs Moduli (GPa) = 16.69146 21.62478 27.16567
#
# Poissons Ratio (x) = 0.27933 -0.39934
# Poissons Ratio (y) = 0.21561 0.63502
# Poissons Ratio (z) = -0.24537 0.50549
#
# Static dielectric constant tensor:
#      x y z
#    x 1.643600 0.000000 0.000000 
#    y 0.000000 1.728990 0.000000 
#    z 0.000000 0.000000 1.694250 
# 
# From -- ./inp_files/12022.got.cif
#   From: 2010.05.17/outbox.ucp.g08.bks.cvg/sg38_7_cif.got.tgz:12022.got - 2010.06.11 10:39:43.
