data_PCOD9359068
_publ_section_title
;
Structure prediction by ZEFSAII (Michael W. Deem and Ramdas Pophale) SiO2 
 PCOD9359068
Probable space group: A M M 2
;
_chemical_formula_sum "Si O2"
_cell_formula_units_Z 34
_cell_length_a 7.376576
_cell_length_b 10.845040
_cell_length_c 19.703496
_cell_angle_alpha 90.000000
_cell_angle_beta 90.000000
_cell_angle_gamma 90.000000
_cell_volume 1576.265135
_symmetry_space_group_name_H-M "A M M 2"
_symmetry_group_IT_number 38
_symmetry_cell_setting 'orthorhombic'
loop_
_space_group_symop_operation_xyz
x,y,z
-x,-y,z
-x,y,z
x,-y,z
x,1/2+y,1/2+z
-x,1/2-y,1/2+z
-x,1/2+y,1/2+z
x,1/2-y,1/2+z
loop_
_atom_site_type_symbol
_atom_site_label
_atom_site_fract_x
_atom_site_fract_y
_atom_site_fract_z
Si Si1 0.213151 0.862687 0.820560
Si Si2 0.219805 0.136972 0.230402
Si Si3 0.709604 0.209857 0.605148
Si Si4 0.281709 0.638332 0.478825
Si Si5 0.000000 0.000000 0.639284
O O1 0.286324 0.747518 0.778768
O O2 0.229525 0.839625 0.900853
O O3 0.000000 0.870764 0.803407
O O4 0.289224 0.000000 0.806396
O O5 0.280624 0.173153 0.155207
O O6 0.000000 0.136908 0.232207
O O7 0.279755 0.000000 0.249986
O O8 0.500000 0.168893 0.600585
O O9 0.775802 0.257598 0.531695
O O10 0.841477 0.107430 0.635142
O O11 0.500000 0.636598 0.481799
O O12 0.217478 0.500000 0.496767
#
# Coordination Sequence:
#
# PCOD9359068 Si02
#       5
#     8   8   8   8   2
#     4   9  19  34  58  87 124 169 215 258 312 375
#     4  10  21  38  61  93 128 169 214 265 319 377
#     4  11  24  42  66  93 125 167 214 264 320 382
#     4   9  19  38  61  89 122 160 210 263 312 375
#     4  12  26  44  62  94 132 164 212 262 328 382
#
# _framework density 21.569974999999999
#
# number of rings (size 3 to 8) (size 9 to 14) (size 15 to 20)
#    0.000    2.118    1.176    1.059    3.294    2.353 
#    2.118    0.000    0.000    0.000    0.000    0.000 
#    0.000    0.000    0.000    0.000    0.000    0.000 
#
# Total GULP energy -94713.105789 kJ/mol
# GULP energy per Si atom -5571.359164 kJ/mol
# Density = 2.152088 g / cm^3
# Si number density = 21.569975 Si / 1000 Ang^3
#
#
#
# Elastic Constant Matrix: (Units=GPa)
#
#
# Indices 1 2 3 4 5 6 
#
# 1 109.2809 24.4790 -3.4625 0.0000 0.0000 0.0000
# 2 24.4790 145.5140 57.2908 0.0000 0.0000 0.0000
# 3 -3.4625 57.2908 70.8223 0.0000 0.0000 0.0000
# 4 0.0000 0.0000 0.0000 2.4545 0.0000 0.0000
# 5 0.0000 0.0000 0.0000 0.0000 23.8177 0.0000
# 6 0.0000 0.0000 0.0000 0.0000 0.0000 44.6372
#
#
#
# Elastic Compliance Matrix: (Units=1/GPa)
#
#
# Indices 1 2 3 4 5 6 
#
# 1 0.009842 -0.002707 0.002671 0.000000 0.000000 0.000000
# 2 -0.002707 0.010829 -0.008892 0.000000 0.000000 0.000000
# 3 0.002671 -0.008892 0.021443 0.000000 0.000000 0.000000
# 4 0.000000 0.000000 0.000000 0.407411 0.000000 0.000000
# 5 0.000000 0.000000 0.000000 0.000000 0.041985 0.000000
# 6 0.000000 0.000000 0.000000 0.000000 0.000000 0.022403
#
#
# Mechanical properties :
#
#
# Convention : Reuss Voigt Hill
#
# Bulk Modulus (GPa) = 41.22402 53.58132 47.40267
# Shear Modulus (GPa) = 9.26173 30.66922 19.96548
#
# Velocity S-wave (km/s) = 2.07440 3.77483 3.04569
# Velocity P-wave (km/s) = 4.98906 6.62524 5.86449
#
# Compressibility (1/GPa) = 0.02425770
#
# Stress axis : x y z
#
# Youngs Moduli (GPa) = 101.60731 92.34877 46.63419
#
# Poissons Ratio (x) = 0.25002 -0.12457
# Poissons Ratio (y) = 0.27509 0.41467
# Poissons Ratio (z) = -0.27142 0.82116
#
# Static dielectric constant tensor:
#      x y z
#    x 1.795570 0.000000 0.000000 
#    y 0.000000 1.777120 0.000000 
#    z 0.000000 0.000000 1.779530 
# 
# From -- ./inp_files/19253.got.cif
#   From: 2010.05.17/outbox.cif.g08.bks.cpg/sg38_10_cif.got.tgz:19253.got - 2010.06.03 18:07:57.
