data_PCOD9359753
_publ_section_title
;
Structure prediction by ZEFSAII (Michael W. Deem and Ramdas Pophale) SiO2 
 PCOD9359753
Probable space group: A B M 2
;
_chemical_formula_sum "Si O2"
_cell_formula_units_Z 48
_cell_length_a 7.054603
_cell_length_b 9.298785
_cell_length_c 33.036485
_cell_angle_alpha 90.000000
_cell_angle_beta 90.000000
_cell_angle_gamma 90.000000
_cell_volume 2167.168195
_symmetry_space_group_name_H-M "A B M 2"
_symmetry_group_IT_number 39
_symmetry_cell_setting 'orthorhombic'
loop_
_space_group_symop_operation_xyz
x,y,z
-x,-y,z
-x,1/2+y,z
x,1/2-y,z
x,1/2+y,1/2+z
-x,1/2-y,1/2+z
-x,y,1/2+z
x,-y,1/2+z
loop_
_atom_site_type_symbol
_atom_site_label
_atom_site_fract_x
_atom_site_fract_y
_atom_site_fract_z
Si Si1 0.119493 0.250000 0.902000
Si Si2 0.209225 0.575151 0.131932
Si Si3 0.500000 0.500000 0.278759
Si Si4 0.796392 0.419853 0.554022
Si Si5 0.228963 0.980987 0.464583
Si Si6 0.800004 0.920332 0.211731
Si Si7 0.396573 0.750000 0.338488
Si Si8 0.330103 0.750000 0.917715
O O1 0.218152 0.379045 0.925916
O O2 0.187313 0.250000 0.856726
O O3 0.893784 0.250000 0.905486
O O4 0.205979 0.750000 0.131744
O O5 0.295632 0.509239 0.090794
O O6 0.286479 0.508162 0.173519
O O7 0.000000 0.500000 0.132343
O O8 0.338149 0.436783 0.249682
O O9 0.421892 0.617219 0.309275
O O10 0.817003 0.250000 0.564056
O O11 0.708689 0.430184 0.509039
O O12 0.000000 0.500000 0.550711
O O13 0.344366 0.116051 0.448211
O O14 0.000000 0.000000 0.469974
O O15 0.827487 0.750000 0.202187
O O16 0.000000 0.000000 0.220467
O O17 0.542614 0.750000 0.377186
#
# Coordination Sequence:
#
# PCOD9359753 Si02
#       8
#     4   8   4   8   8   8   4   4
#     4  10  20  40  62  87 125 163 211 262 314 384
#     4  10  19  31  56  92 131 170 212 262 315 377
#     4  12  28  46  70 100 130 166 218 276 342 406
#     4  10  17  27  49  86 129 167 213 261 305 369
#     4   9  18  31  55  86 123 168 210 256 310 370
#     4  11  24  44  71  99 134 175 217 268 331 399
#     4  12  26  44  68  94 124 166 212 272 342 398
#     4  10  22  38  60  91 123 165 213 260 322 382
#
# _framework density 22.148720000000001
#
# number of rings (size 3 to 8) (size 9 to 14) (size 15 to 20)
#    0.000    1.667    1.667    5.500    7.000    1.333 
#    0.000    0.000    0.000    2.000    0.000    0.000 
#    0.000    0.000    0.000    0.000    0.000    0.000 
#
# Total GULP energy -133832.042056 kJ/mol
# GULP energy per Si atom -5576.335086 kJ/mol
# Density = 2.209831 g / cm^3
# Si number density = 22.148720 Si / 1000 Ang^3
#
#
#
# Elastic Constant Matrix: (Units=GPa)
#
#
# Indices 1 2 3 4 5 6 
#
# 1 89.8160 17.6796 31.1284 0.0000 0.0000 0.0000
# 2 17.6796 192.2636 56.4578 0.0000 0.0000 0.0000
# 3 31.1284 56.4578 164.8789 0.0000 0.0000 0.0000
# 4 0.0000 0.0000 0.0000 10.2192 0.0000 0.0000
# 5 0.0000 0.0000 0.0000 0.0000 14.4175 0.0000
# 6 0.0000 0.0000 0.0000 0.0000 0.0000 14.4598
#
#
#
# Elastic Compliance Matrix: (Units=1/GPa)
#
#
# Indices 1 2 3 4 5 6 
#
# 1 0.011954 -0.000485 -0.002091 0.000000 0.000000 0.000000
# 2 -0.000485 0.005802 -0.001895 0.000000 0.000000 0.000000
# 3 -0.002091 -0.001895 0.007109 0.000000 0.000000 0.000000
# 4 0.000000 0.000000 0.000000 0.097855 0.000000 0.000000
# 5 0.000000 0.000000 0.000000 0.000000 0.069360 0.000000
# 6 0.000000 0.000000 0.000000 0.000000 0.000000 0.069157
#
#
# Mechanical properties :
#
#
# Convention : Reuss Voigt Hill
#
# Bulk Modulus (GPa) = 62.80358 73.05446 67.92902
# Shear Modulus (GPa) = 18.14964 30.59881 24.37423
#
# Velocity S-wave (km/s) = 2.86570 3.72091 3.32095
# Velocity P-wave (km/s) = 6.27428 7.17742 6.74099
#
# Compressibility (1/GPa) = 0.01592266
#
# Stress axis : x y z
#
# Youngs Moduli (GPa) = 83.65410 172.34409 140.67210
#
# Poissons Ratio (x) = 0.08364 0.29410
# Poissons Ratio (y) = 0.04060 0.26660
# Poissons Ratio (z) = 0.17489 0.32663
#
# Static dielectric constant tensor:
#      x y z
#    x 1.867460 0.000000 0.000000 
#    y 0.000000 1.779280 0.000000 
#    z 0.000000 0.000000 1.830940 
# 
# From -- ./inp_files/17726.got.cif
#   From: 2010.05.17/outbox.cif.g08.bks.cpg/sg39_9_cif.got.tgz:17726.got - 2010.06.03 18:22:40.
