data_PCOD9359782
_publ_section_title
;
Structure prediction by ZEFSAII (Michael W. Deem and Ramdas Pophale) SiO2 
 PCOD9359782
Probable space group: A B M 2
;
_chemical_formula_sum "Si O2"
_cell_formula_units_Z 48
_cell_length_a 8.794510
_cell_length_b 18.327081
_cell_length_c 11.950845
_cell_angle_alpha 90.000000
_cell_angle_beta 90.000000
_cell_angle_gamma 90.000000
_cell_volume 1926.209676
_symmetry_space_group_name_H-M "A B M 2"
_symmetry_group_IT_number 39
_symmetry_cell_setting 'orthorhombic'
loop_
_space_group_symop_operation_xyz
x,y,z
-x,-y,z
-x,1/2+y,z
x,1/2-y,z
x,1/2+y,1/2+z
-x,1/2-y,1/2+z
-x,y,1/2+z
x,-y,1/2+z
loop_
_atom_site_type_symbol
_atom_site_label
_atom_site_fract_x
_atom_site_fract_y
_atom_site_fract_z
Si Si1 0.178102 0.594872 0.461870
Si Si2 0.844117 0.872680 0.535264
Si Si3 0.461873 0.250000 0.161584
Si Si4 0.957471 0.750000 0.666559
Si Si5 0.780743 0.250000 0.472443
Si Si6 0.665567 0.466464 0.891297
Si Si7 0.793727 0.750000 0.351473
Si Si8 0.428638 0.916586 0.660827
O O1 0.204237 0.674548 0.409256
O O2 0.215429 0.531774 0.375245
O O3 0.302003 0.590090 0.562696
O O4 0.008622 0.591788 0.510427
O O5 0.862606 0.822951 0.643797
O O6 0.715569 0.931049 0.508967
O O7 0.805770 0.817029 0.435390
O O8 0.349156 0.250000 0.268617
O O9 0.518574 0.336758 0.161375
O O10 0.372872 0.250000 0.043487
O O11 0.083203 0.750000 0.564729
O O12 0.057219 0.750000 0.775311
O O13 0.500000 0.500000 0.904768
O O14 0.657117 0.417573 0.781235
O O15 0.500000 0.000000 0.660121
#
# Coordination Sequence:
#
# PCOD9359782 Si02
#       8
#     8   8   4   4   4   8   4   8
#     4  10  20  40  62  90 129 171 228 285 333 401
#     4  10  20  35  62  98 128 175 230 270 347 407
#     4   9  15  33  64  92 132 172 223 272 347 390
#     4   8  17  33  59  92 129 168 214 285 336 391
#     4   7  15  31  60  86 110 170 213 263 336 385
#     4  11  23  39  59  93 136 179 222 275 333 414
#     4  10  17  35  63  96 141 168 222 292 335 420
#     4  10  21  39  67  98 135 187 231 282 346 417
#
# _framework density 24.919405000000001
#
# number of rings (size 3 to 8) (size 9 to 14) (size 15 to 20)
#    0.000    2.333    1.667    2.500    0.000    0.000 
#    3.000    6.667    0.000    3.000    0.000    1.167 
#    0.000    0.000    0.000    0.000    0.000    0.000 
#
# Total GULP energy -133814.272855 kJ/mol
# GULP energy per Si atom -5575.594702 kJ/mol
# Density = 2.486269 g / cm^3
# Si number density = 24.919405 Si / 1000 Ang^3
#
#
#
# Elastic Constant Matrix: (Units=GPa)
#
#
# Indices 1 2 3 4 5 6 
#
# 1 61.3649 30.1357 -5.6692 0.0000 0.0000 0.0000
# 2 30.1357 183.9430 23.5095 0.0000 0.0000 0.0000
# 3 -5.6692 23.5095 41.3471 0.0000 0.0000 0.0000
# 4 0.0000 0.0000 0.0000 -1.5760 0.0000 0.0000
# 5 0.0000 0.0000 0.0000 0.0000 24.5560 0.0000
# 6 0.0000 0.0000 0.0000 0.0000 0.0000 44.0010
#
#
#
# Elastic Compliance Matrix: (Units=1/GPa)
#
#
# Indices 1 2 3 4 5 6 
#
# 1 0.018497 -0.003617 0.004593 0.000000 0.000000 0.000000
# 2 -0.003617 0.006570 -0.004232 0.000000 0.000000 0.000000
# 3 0.004593 -0.004232 0.027221 0.000000 0.000000 0.000000
# 4 0.000000 0.000000 0.000000 -0.634519 0.000000 0.000000
# 5 0.000000 0.000000 0.000000 0.000000 0.040723 0.000000
# 6 0.000000 0.000000 0.000000 0.000000 0.000000 0.022727
#
#
# Mechanical properties :
#
#
# Convention : Reuss Voigt Hill
#
# Bulk Modulus (GPa) = 21.84558 42.51191 32.17875
# Shear Modulus (GPa) = -10.06015 29.30812 9.62398
#
# Velocity S-wave (km/s) = -2.01143 3.43318 1.96734
# Velocity P-wave (km/s) = 1.84149 5.72821 4.25461
#
# Compressibility (1/GPa) = 0.04577585
#
# Stress axis : x y z
#
# Youngs Moduli (GPa) = 54.06360 152.20842 36.73602
#
# Poissons Ratio (x) = 0.55059 -0.16873
# Poissons Ratio (y) = 0.19557 0.15545
# Poissons Ratio (z) = -0.24831 0.64408
#
# Static dielectric constant tensor:
#      x y z
#    x 2.028130 0.000000 0.000000 
#    y 0.000000 2.221790 0.000000 
#    z 0.000000 0.000000 1.982810 
# 
# From -- ./inp_files/8423.got.cif
#   From: 2010.05.17/outbox.cif.g08.bks.cpg/sg39_5_cif.got.tgz:8423.got - 2010.06.03 18:22:40.
