data_PCOD9359287
_publ_section_title
;
Structure prediction by ZEFSAII (Michael W. Deem and Ramdas Pophale) SiO2 
 PCOD9359287
Probable space group: A M M 2
;
_chemical_formula_sum "Si O2"
_cell_formula_units_Z 26
_cell_length_a 7.399547
_cell_length_b 7.772599
_cell_length_c 23.111752
_cell_angle_alpha 90.000000
_cell_angle_beta 90.000000
_cell_angle_gamma 90.000000
_cell_volume 1329.242639
_symmetry_space_group_name_H-M "A M M 2"
_symmetry_group_IT_number 38
_symmetry_cell_setting 'orthorhombic'
loop_
_space_group_symop_operation_xyz
x,y,z
-x,-y,z
-x,y,z
x,-y,z
x,1/2+y,1/2+z
-x,1/2-y,1/2+z
-x,1/2+y,1/2+z
x,1/2-y,1/2+z
loop_
_atom_site_type_symbol
_atom_site_label
_atom_site_fract_x
_atom_site_fract_y
_atom_site_fract_z
Si Si1 0.790333 0.291739 0.688210
Si Si2 0.218170 0.500000 0.404492
Si Si3 0.780269 0.803307 0.317845
Si Si4 0.500000 0.000000 0.005538
Si Si5 0.500000 0.309939 0.095331
O O1 0.779741 0.500000 0.684742
O O2 0.725537 0.247380 0.753107
O O3 0.670328 0.214867 0.637843
O O4 0.000000 0.242048 0.682594
O O5 0.269871 0.332725 0.366565
O O6 0.325643 0.500000 0.464069
O O7 0.000000 0.500000 0.412209
O O8 0.000000 0.806781 0.316107
O O9 0.720609 0.000000 0.328307
O O10 0.500000 0.165277 0.046755
O O11 0.500000 0.500000 0.069856
#
# Coordination Sequence:
#
# PCOD9359287 Si02
#       5
#     8   4   8   2   4
#     4   9  18  37  65  93 126 157 186 246 317 367
#     4  10  22  40  64  86 118 160 197 250 300 352
#     4   8  16  33  60  95 122 145 187 241 306 372
#     4  12  28  46  54  82 122 164 226 248 276 356
#     4  12  26  41  59  85 121 164 212 255 290 352
#
# _framework density 19.560012
#
# number of rings (size 3 to 8) (size 9 to 14) (size 15 to 20)
#    0.000    2.462    1.538    1.846    2.154    4.308 
#    0.000    1.538    0.000    0.000    0.000    0.000 
#    0.000    0.000    0.000    0.000    0.000    0.000 
#
# Total GULP energy -72623.205193 kJ/mol
# GULP energy per Si atom -5586.400399 kJ/mol
# Density = 1.951549 g / cm^3
# Si number density = 19.560012 Si / 1000 Ang^3
#
#
#
# Elastic Constant Matrix: (Units=GPa)
#
#
# Indices 1 2 3 4 5 6 
#
# 1 90.9274 37.3238 51.9568 0.0000 0.0000 0.0000
# 2 37.3238 132.2251 98.3390 0.0000 0.0000 0.0000
# 3 51.9568 98.3390 152.2887 0.0000 0.0000 0.0000
# 4 0.0000 0.0000 0.0000 -41.1541 0.0000 0.0000
# 5 0.0000 0.0000 0.0000 0.0000 37.3308 0.0000
# 6 0.0000 0.0000 0.0000 0.0000 0.0000 8.9754
#
#
#
# Elastic Compliance Matrix: (Units=1/GPa)
#
#
# Indices 1 2 3 4 5 6 
#
# 1 0.013700 -0.000752 -0.004188 0.000000 0.000000 0.000000
# 2 -0.000752 0.014592 -0.009166 0.000000 0.000000 0.000000
# 3 -0.004188 -0.009166 0.013914 0.000000 0.000000 0.000000
# 4 0.000000 0.000000 0.000000 -0.024299 0.000000 0.000000
# 5 0.000000 0.000000 0.000000 0.000000 0.026788 0.000000
# 6 0.000000 0.000000 0.000000 0.000000 0.000000 0.111415
#
#
# Mechanical properties :
#
#
# Convention : Reuss Voigt Hill
#
# Bulk Modulus (GPa) = 71.46365 83.40892 77.43629
# Shear Modulus (GPa) = 26.45667 13.55188 20.00427
#
# Velocity S-wave (km/s) = 3.68175 2.63503 3.20146
# Velocity P-wave (km/s) = 7.39517 7.21062 7.30348
#
# Compressibility (1/GPa) = 0.01399313
#
# Stress axis : x y z
#
# Youngs Moduli (GPa) = 72.99401 68.52918 71.86792
#
# Poissons Ratio (x) = 0.05155 0.30100
# Poissons Ratio (y) = 0.05490 0.65876
# Poissons Ratio (z) = 0.30572 0.62815
#
# Static dielectric constant tensor:
#      x y z
#    x 1.717320 0.000000 0.000000 
#    y 0.000000 1.697380 0.000000 
#    z 0.000000 0.000000 1.634810 
# 
# From -- ./inp_files/16096.got.cif
#   From: 2010.05.17/outbox.cif.g08.bks.cpg/sg38_9_cif.got.tgz:16096.got - 2010.06.03 18:07:57.
