data_PCOD9359589
_publ_section_title
;
Structure prediction by ZEFSAII (Michael W. Deem and Ramdas Pophale) SiO2 
 PCOD9359589
Probable space group: A M M 2
;
_chemical_formula_sum "Si O2"
_cell_formula_units_Z 32
_cell_length_a 9.000000
_cell_length_b 15.000000
_cell_length_c 30.000000
_cell_angle_alpha 90.000000
_cell_angle_beta 90.000000
_cell_angle_gamma 90.000000
_cell_volume 4050.000000
_symmetry_space_group_name_H-M "A M M 2"
_symmetry_group_IT_number 38
_symmetry_cell_setting 'orthorhombic'
loop_
_space_group_symop_operation_xyz
x,y,z
-x,-y,z
-x,y,z
x,-y,z
x,1/2+y,1/2+z
-x,1/2-y,1/2+z
-x,1/2+y,1/2+z
x,1/2-y,1/2+z
loop_
_atom_site_type_symbol
_atom_site_label
_atom_site_fract_x
_atom_site_fract_y
_atom_site_fract_z
Si Si1 0.179978 0.606654 0.351010
Si Si2 0.681187 0.781287 0.767617
Si Si3 0.179850 0.606705 0.723940
Si Si4 0.823124 0.393307 0.185889
Si Si5 0.820051 0.103696 0.955967
Si Si6 0.676923 0.106627 0.125898
Si Si7 0.819087 0.279830 0.544678
Si Si8 0.679633 0.606286 0.087907
O O1 0.211586 0.500000 0.343319
O O2 0.257447 0.669893 0.313284
O O3 0.221154 0.625454 0.403722
O O4 0.000000 0.617282 0.347151
O O5 0.500000 0.779324 0.768293
O O6 0.746535 0.681027 0.757010
O O7 0.742042 0.839945 0.725617
O O8 0.209633 0.500000 0.733837
O O9 0.246534 0.624253 0.674141
O O10 0.000000 0.617769 0.723658
O O11 0.810678 0.500000 0.194073
O O12 0.748602 0.376156 0.137384
O O13 0.000000 0.371092 0.184695
O O14 0.000000 0.103090 0.956049
O O15 0.772409 0.000000 0.964778
O O16 0.778013 0.171328 0.996908
O O17 0.500000 0.128291 0.127960
O O18 0.755212 0.160101 0.085607
O O19 0.690681 0.000000 0.117888
O O20 0.751260 0.180455 0.554530
O O21 0.000000 0.275995 0.546717
O O22 0.500000 0.617040 0.088974
O O23 0.709696 0.500000 0.077726
#
# Coordination Sequence:
#
# PCOD9359589 Si02
#       8
#     8   8   8   8   8   8   8   8
#     4   9  18  35  57  78 102 132 167 207 248 293
#     4  12  23  33  50  76 106 136 165 202 251 307
#     4  10  21  37  55  73  96 131 175 217 251 288
#     4  10  20  34  52  74 101 134 173 213 249 291
#     4   8  16  32  54  79 104 130 162 203 250 295
#     4  10  20  33  49  73 107 141 170 203 246 297
#     4  11  20  31  52  78 103 132 169 211 251 297
#     4  10  21  36  51  69  99 137 173 211 254 298
#
# _framework density 7.9012349999999998
#
# number of rings (size 3 to 8) (size 9 to 14) (size 15 to 20)
#    0.000    2.000    0.000    5.250    0.000    5.250 
#    0.000    1.250    0.000    2.250    0.000    1.750 
#    0.000    0.000    0.000    0.000    0.000    0.000 
#
# Total GULP energy -178445.445539 kJ/mol
# GULP energy per Si atom -5576.420173 kJ/mol
# Density = 0.788325 g / cm^3
# Si number density = 7.901235 Si / 1000 Ang^3
#
#
#
# Elastic Constant Matrix: (Units=GPa)
#
#
# Indices 1 2 3 4 5 6 
#
# 1 109.4731 49.2113 47.4062 0.0000 0.0000 0.0000
# 2 49.2113 120.2929 77.1019 0.0000 0.0000 0.0000
# 3 47.4062 77.1019 132.3408 0.0000 0.0000 0.0000
# 4 0.0000 0.0000 0.0000 39.5784 0.0000 0.0000
# 5 0.0000 0.0000 0.0000 0.0000 24.7417 0.0000
# 6 0.0000 0.0000 0.0000 0.0000 0.0000 31.9899
#
#
#
# Elastic Compliance Matrix: (Units=1/GPa)
#
#
# Indices 1 2 3 4 5 6 
#
# 1 0.011587 -0.003319 -0.002217 0.000000 0.000000 0.000000
# 2 -0.003319 0.014218 -0.007095 0.000000 0.000000 0.000000
# 3 -0.002217 -0.007095 0.012484 0.000000 0.000000 0.000000
# 4 0.000000 0.000000 0.000000 0.025266 0.000000 0.000000
# 5 0.000000 0.000000 0.000000 0.000000 0.040418 0.000000
# 6 0.000000 0.000000 0.000000 0.000000 0.000000 0.031260
#
#
# Mechanical properties :
#
#
# Convention : Reuss Voigt Hill
#
# Bulk Modulus (GPa) = 76.76085 78.83839 77.79962
# Shear Modulus (GPa) = 30.33323 31.82116 31.07719
#
# Velocity S-wave (km/s) = 4.38599 4.49228 4.43945
# Velocity P-wave (km/s) = 8.62148 8.76958 8.69585
#
# Compressibility (1/GPa) = 0.01302747
#
# Stress axis : x y z
#
# Youngs Moduli (GPa) = 86.30601 70.33240 80.10518
#
# Poissons Ratio (x) = 0.23345 0.17757
# Poissons Ratio (y) = 0.28647 0.56831
# Poissons Ratio (z) = 0.19131 0.49898
#
# Static dielectric constant tensor:
#      x y z
#    x 1.533360 0.000000 0.000000 
#    y 0.000000 1.556530 0.000000 
#    z 0.000000 0.000000 1.522580 
# 
# From -- ./inp_files/24797.got.cif
#   From: 2010.05.17/outbox.ucp.g08.bks.cvg/sg38_13_cif.got.tgz:24797.got - 2010.06.11 10:39:43.
