data_PCOD9359720
_publ_section_title
;
Structure prediction by ZEFSAII (Michael W. Deem and Ramdas Pophale) SiO2 
 PCOD9359720
Probable space group: A B M 2
;
_chemical_formula_sum "Si O2"
_cell_formula_units_Z 56
_cell_length_a 17.260242
_cell_length_b 18.078270
_cell_length_c 9.030577
_cell_angle_alpha 90.000000
_cell_angle_beta 90.000000
_cell_angle_gamma 90.000000
_cell_volume 2817.858940
_symmetry_space_group_name_H-M "A B M 2"
_symmetry_group_IT_number 39
_symmetry_cell_setting 'orthorhombic'
loop_
_space_group_symop_operation_xyz
x,y,z
-x,-y,z
-x,1/2+y,z
x,1/2-y,z
x,1/2+y,1/2+z
-x,1/2-y,1/2+z
-x,y,1/2+z
x,-y,1/2+z
loop_
_atom_site_type_symbol
_atom_site_label
_atom_site_fract_x
_atom_site_fract_y
_atom_site_fract_z
Si Si1 0.223773 0.903633 0.326550
Si Si2 0.598269 0.457918 0.881141
Si Si3 0.609928 0.137207 0.371199
Si Si4 0.234499 0.058924 0.478843
Si Si5 0.059664 0.164630 0.766420
Si Si6 0.093444 0.163410 0.418783
Si Si7 0.495958 0.620429 0.625603
O O1 0.297760 0.851224 0.363128
O O2 0.138947 0.868128 0.329549
O O3 0.221178 0.973729 0.435430
O O4 0.237320 0.930363 0.156268
O O5 0.605060 0.546508 0.872896
O O6 0.682600 0.424009 0.907130
O O7 0.557810 0.426625 0.735635
O O8 0.547168 0.430533 0.018067
O O9 0.563448 0.162317 0.516771
O O10 0.558806 0.161081 0.229813
O O11 0.168612 0.111874 0.412833
O O12 0.057172 0.250000 0.813221
O O13 0.065971 0.161117 0.589504
O O14 0.977913 0.133297 0.821784
O O15 0.110624 0.250000 0.382511
#
# Coordination Sequence:
#
# PCOD9359720 Si02
#       7
#     8   8   8   8   8   8   8
#     4  10  21  33  49  77 111 138 165 209 261 306
#     4  10  17  26  41  66  99 136 170 208 247 299
#     4  10  17  26  41  66  99 136 170 208 247 299
#     4  10  21  33  49  77 111 138 165 209 261 306
#     4   9  19  38  60  79  99 131 174 212 250 304
#     4   9  19  38  60  79  99 131 174 212 250 304
#     4  10  17  26  42  64  97 138 173 208 249 290
#
# _framework density 19.873244
#
# number of rings (size 3 to 8) (size 9 to 14) (size 15 to 20)
#    0.000    2.286    1.429    3.429    6.000    1.714 
#    0.000    2.857    0.000    0.000    0.000    6.000 
#    0.000    0.000    0.000    0.000    0.000    0.000 
#
# Total GULP energy -156192.127288 kJ/mol
# GULP energy per Si atom -5578.290260 kJ/mol
# Density = 1.982801 g / cm^3
# Si number density = 19.873244 Si / 1000 Ang^3
#
#
#
# Elastic Constant Matrix: (Units=GPa)
#
#
# Indices 1 2 3 4 5 6 
#
# 1 169.1761 35.1443 42.8005 0.0000 0.0000 0.0000
# 2 35.1443 38.4942 16.2906 0.0000 0.0000 0.0000
# 3 42.8005 16.2906 69.6049 0.0000 0.0000 0.0000
# 4 0.0000 0.0000 0.0000 2.1807 0.0000 0.0000
# 5 0.0000 0.0000 0.0000 0.0000 33.2447 0.0000
# 6 0.0000 0.0000 0.0000 0.0000 0.0000 209.8817
#
#
#
# Elastic Compliance Matrix: (Units=1/GPa)
#
#
# Indices 1 2 3 4 5 6 
#
# 1 0.008022 -0.005812 -0.003573 0.000000 0.000000 0.000000
# 2 -0.005812 0.033045 -0.004160 0.000000 0.000000 0.000000
# 3 -0.003573 -0.004160 0.017537 0.000000 0.000000 0.000000
# 4 0.000000 0.000000 0.000000 0.458559 0.000000 0.000000
# 5 0.000000 0.000000 0.000000 0.000000 0.030080 0.000000
# 6 0.000000 0.000000 0.000000 0.000000 0.000000 0.004765
#
#
# Mechanical properties :
#
#
# Convention : Reuss Voigt Hill
#
# Bulk Modulus (GPa) = 31.73121 51.74957 41.74039
# Shear Modulus (GPa) = 8.48029 61.26408 34.87219
#
# Velocity S-wave (km/s) = 2.06796 5.55827 4.19349
# Velocity P-wave (km/s) = 4.65869 8.20298 6.67054
#
# Compressibility (1/GPa) = 0.03151471
#
# Stress axis : x y z
#
# Youngs Moduli (GPa) = 124.65288 30.26190 57.02140
#
# Poissons Ratio (x) = 0.17589 0.20372
# Poissons Ratio (y) = 0.72451 0.23721
# Poissons Ratio (z) = 0.44534 0.12589
#
# Static dielectric constant tensor:
#      x y z
#    x 1.739670 0.000000 0.000000 
#    y 0.000000 1.711080 0.000000 
#    z 0.000000 0.000000 1.713510 
# 
# From -- ./inp_files/3826.got.cif
#   From: 2010.05.17/outbox.cif.g08.bks.cpg/sg39_2_cif.got.tgz:3826.got - 2010.06.03 18:22:40.
