data_PCOD9359707
_publ_section_title
;
Structure prediction by ZEFSAII (Michael W. Deem and Ramdas Pophale) SiO2 
 PCOD9359707
Probable space group: A B M 2
;
_chemical_formula_sum "Si O2"
_cell_formula_units_Z 56
_cell_length_a 8.812188
_cell_length_b 21.853316
_cell_length_c 15.893314
_cell_angle_alpha 90.000000
_cell_angle_beta 90.000000
_cell_angle_gamma 90.000000
_cell_volume 3060.663351
_symmetry_space_group_name_H-M "A B M 2"
_symmetry_group_IT_number 39
_symmetry_cell_setting 'orthorhombic'
loop_
_space_group_symop_operation_xyz
x,y,z
-x,-y,z
-x,1/2+y,z
x,1/2-y,z
x,1/2+y,1/2+z
-x,1/2-y,1/2+z
-x,y,1/2+z
x,-y,1/2+z
loop_
_atom_site_type_symbol
_atom_site_label
_atom_site_fract_x
_atom_site_fract_y
_atom_site_fract_z
Si Si1 0.673699 0.104858 0.684190
Si Si2 0.621660 0.179303 0.159378
Si Si3 0.028413 0.932308 0.593138
Si Si4 0.155022 0.902857 0.263450
Si Si5 0.844970 0.132267 0.843037
Si Si6 0.131111 0.316994 0.515786
Si Si7 0.660034 0.484247 0.831482
O O1 0.532148 0.141315 0.649033
O O2 0.797728 0.079921 0.619248
O O3 0.762228 0.146010 0.754326
O O4 0.619821 0.048270 0.742110
O O5 0.591310 0.250000 0.180092
O O6 0.725417 0.147105 0.230556
O O7 0.722351 0.177399 0.075147
O O8 0.930243 0.929404 0.680262
O O9 0.973131 0.875140 0.537858
O O10 0.000000 0.000000 0.556802
O O11 0.020802 0.876590 0.320704
O O12 0.242626 0.956177 0.311811
O O13 0.766877 0.067903 0.871630
O O14 0.825626 0.178512 0.918494
O O15 0.061490 0.250000 0.534167
O O16 0.500000 0.500000 0.874354
#
# Coordination Sequence:
#
# PCOD9359707 Si02
#       7
#     8   8   8   8   8   8   8
#     4   9  19  34  59  85 107 150 186 241 281 345
#     4  10  21  36  56  83 114 153 193 237 284 344
#     4  10  18  33  58  87 110 144 194 239 287 340
#     4  10  16  33  58  81 113 140 191 234 286 332
#     4   9  20  34  55  82 107 156 183 232 281 342
#     4  10  23  40  54  77 122 159 189 236 293 339
#     4  10  17  31  58  85 113 139 180 237 294 329
#
# _framework density 18.296686000000001
#
# number of rings (size 3 to 8) (size 9 to 14) (size 15 to 20)
#    0.857    1.429    2.857    0.429    0.000    2.857 
#    0.000    7.143    0.000    0.000    0.000    0.000 
#    0.000    0.000    0.000    0.000    0.000    0.000 
#
# Total GULP energy -155917.958921 kJ/mol
# GULP energy per Si atom -5568.498533 kJ/mol
# Density = 1.825504 g / cm^3
# Si number density = 18.296686 Si / 1000 Ang^3
#
#
#
# Elastic Constant Matrix: (Units=GPa)
#
#
# Indices 1 2 3 4 5 6 
#
# 1 96.5649 51.7819 5.2259 0.0000 0.0000 0.0000
# 2 51.7819 117.7132 26.1085 0.0000 0.0000 0.0000
# 3 5.2259 26.1085 30.3288 0.0000 0.0000 0.0000
# 4 0.0000 0.0000 0.0000 12.9588 0.0000 0.0000
# 5 0.0000 0.0000 0.0000 0.0000 4.9189 0.0000
# 6 0.0000 0.0000 0.0000 0.0000 0.0000 20.9413
#
#
#
# Elastic Compliance Matrix: (Units=1/GPa)
#
#
# Indices 1 2 3 4 5 6 
#
# 1 0.013852 -0.006877 0.003534 0.000000 0.000000 0.000000
# 2 -0.006877 0.013915 -0.010793 0.000000 0.000000 0.000000
# 3 0.003534 -0.010793 0.041655 0.000000 0.000000 0.000000
# 4 0.000000 0.000000 0.000000 0.077168 0.000000 0.000000
# 5 0.000000 0.000000 0.000000 0.000000 0.203297 0.000000
# 6 0.000000 0.000000 0.000000 0.000000 0.000000 0.047752
#
#
# Mechanical properties :
#
#
# Convention : Reuss Voigt Hill
#
# Bulk Modulus (GPa) = 24.30300 45.64883 34.97591
# Shear Modulus (GPa) = 11.37324 18.52985 14.95154
#
# Velocity S-wave (km/s) = 2.49590 3.18582 2.86172
# Velocity P-wave (km/s) = 4.64947 6.20773 5.48423
#
# Compressibility (1/GPa) = 0.04114719
#
# Stress axis : x y z
#
# Youngs Moduli (GPa) = 72.18948 71.86743 24.00699
#
# Poissons Ratio (x) = 0.49426 -0.08483
# Poissons Ratio (y) = 0.49648 0.25911
# Poissons Ratio (z) = -0.25508 0.77568
#
# Static dielectric constant tensor:
#      x y z
#    x 1.631940 0.000000 0.000000 
#    y 0.000000 1.638060 0.000000 
#    z 0.000000 0.000000 1.629720 
# 
# From -- ./inp_files/11887.got.cif
#   From: 2010.05.17/outbox.cif.g08.bks.cpg/sg39_6_cif.got.tgz:11887.got - 2010.06.03 18:22:40.
