data_PCOD9359046
_publ_section_title
;
Structure prediction by ZEFSAII (Michael W. Deem and Ramdas Pophale) SiO2 
 PCOD9359046
Probable space group: A M M 2
;
_chemical_formula_sum "Si O2"
_cell_formula_units_Z 48
_cell_length_a 8.768424
_cell_length_b 20.818515
_cell_length_c 14.732025
_cell_angle_alpha 90.000000
_cell_angle_beta 90.000000
_cell_angle_gamma 90.000000
_cell_volume 2689.265850
_symmetry_space_group_name_H-M "A M M 2"
_symmetry_group_IT_number 38
_symmetry_cell_setting 'orthorhombic'
loop_
_space_group_symop_operation_xyz
x,y,z
-x,-y,z
-x,y,z
x,-y,z
x,1/2+y,1/2+z
-x,1/2-y,1/2+z
-x,1/2+y,1/2+z
x,1/2-y,1/2+z
loop_
_atom_site_type_symbol
_atom_site_label
_atom_site_fract_x
_atom_site_fract_y
_atom_site_fract_z
Si Si1 0.318253 0.316464 0.521800
Si Si2 0.183246 0.572107 0.022296
Si Si3 0.181863 0.925161 0.895461
Si Si4 0.183001 0.802627 0.409917
Si Si5 0.182557 0.767545 0.204284
Si Si6 0.682060 0.624256 0.206772
O O1 0.500000 0.318205 0.525688
O O2 0.254692 0.378372 0.469626
O O3 0.265000 0.254059 0.464637
O O4 0.248884 0.308698 0.621875
O O5 0.220536 0.500000 0.991073
O O6 0.262416 0.586510 0.118006
O O7 0.000000 0.575502 0.035681
O O8 0.224655 0.628636 0.952492
O O9 0.250329 0.906861 0.797682
O O10 0.000000 0.914522 0.892710
O O11 0.210827 0.000000 0.914526
O O12 0.217058 0.796313 0.303394
O O13 0.000000 0.793858 0.420973
O O14 0.254369 0.696624 0.199353
O O15 0.000000 0.762108 0.194716
O O16 0.500000 0.625317 0.211512
#
# Coordination Sequence:
#
# PCOD9359046 Si02
#       6
#     8   8   8   8   8   8
#     4  12  24  38  61  90 122 157 197 250 306 357
#     4  10  21  38  60  87 120 159 201 245 298 359
#     4  11  24  42  63  87 119 162 206 247 299 365
#     4  10  21  38  62  86 116 159 203 248 291 350
#     4  11  22  38  61  88 120 158 204 247 294 357
#     4  12  23  35  57  91 126 157 195 248 307 358
#
# _framework density 17.848737
#
# number of rings (size 3 to 8) (size 9 to 14) (size 15 to 20)
#    0.000    1.000    3.333    4.500    0.000    4.333 
#    0.000    0.833    0.000    3.000    0.000    0.000 
#    0.000    0.000    0.000    0.000    0.000    0.000 
#
# Total GULP energy -134212.454502 kJ/mol
# GULP energy per Si atom -5592.185604 kJ/mol
# Density = 1.780811 g / cm^3
# Si number density = 17.848737 Si / 1000 Ang^3
#
#
#
# Elastic Constant Matrix: (Units=GPa)
#
#
# Indices 1 2 3 4 5 6 
#
# 1 75.0529 55.7517 53.5801 0.0000 0.0000 0.0000
# 2 55.7517 114.1521 52.1471 0.0000 0.0000 0.0000
# 3 53.5801 52.1471 111.8133 0.0000 0.0000 0.0000
# 4 0.0000 0.0000 0.0000 2.7646 0.0000 0.0000
# 5 0.0000 0.0000 0.0000 0.0000 -3.5572 0.0000
# 6 0.0000 0.0000 0.0000 0.0000 0.0000 -61.6492
#
#
#
# Elastic Compliance Matrix: (Units=1/GPa)
#
#
# Indices 1 2 3 4 5 6 
#
# 1 0.025745 -0.008816 -0.008225 0.000000 0.000000 0.000000
# 2 -0.008816 0.014151 -0.002375 0.000000 0.000000 0.000000
# 3 -0.008225 -0.002375 0.013992 0.000000 0.000000 0.000000
# 4 0.000000 0.000000 0.000000 0.361716 0.000000 0.000000
# 5 0.000000 0.000000 0.000000 0.000000 -0.281120 0.000000
# 6 0.000000 0.000000 0.000000 0.000000 0.000000 -0.016221
#
#
# Mechanical properties :
#
#
# Convention : Reuss Voigt Hill
#
# Bulk Modulus (GPa) = 66.42010 69.33069 67.87539
# Shear Modulus (GPa) = 30.84240 -3.18573 13.82833
#
# Velocity S-wave (km/s) = 4.16142 -1.33743 2.78645
# Velocity P-wave (km/s) = 7.77068 6.04507 6.96155
#
# Compressibility (1/GPa) = 0.01505568
#
# Stress axis : x y z
#
# Youngs Moduli (GPa) = 38.84273 70.66582 71.46708
#
# Poissons Ratio (x) = 0.62302 0.58781
# Poissons Ratio (y) = 0.34245 0.16973
# Poissons Ratio (z) = 0.31948 0.16783
#
# Static dielectric constant tensor:
#      x y z
#    x 1.595810 0.000000 0.000000 
#    y 0.000000 1.595350 0.000000 
#    z 0.000000 0.000000 1.584710 
# 
# From -- ./inp_files/12030.got.cif
#   From: 2010.05.17/outbox.cif.g08.bks.cpg/sg38_7_cif.got.tgz:12030.got - 2010.06.03 18:07:57.
