data_PCOD9359010
_publ_section_title
;
Structure prediction by ZEFSAII (Michael W. Deem and Ramdas Pophale) SiO2 
 PCOD9359010
Probable space group: A M M 2
;
_chemical_formula_sum "Si O2"
_cell_formula_units_Z 56
_cell_length_a 21.920399
_cell_length_b 7.901867
_cell_length_c 15.950057
_cell_angle_alpha 90.000000
_cell_angle_beta 90.000000
_cell_angle_gamma 90.000000
_cell_volume 2762.742509
_symmetry_space_group_name_H-M "A M M 2"
_symmetry_group_IT_number 38
_symmetry_cell_setting 'orthorhombic'
loop_
_space_group_symop_operation_xyz
x,y,z
-x,-y,z
-x,y,z
x,-y,z
x,1/2+y,1/2+z
-x,1/2-y,1/2+z
-x,1/2+y,1/2+z
x,1/2-y,1/2+z
loop_
_atom_site_type_symbol
_atom_site_label
_atom_site_fract_x
_atom_site_fract_y
_atom_site_fract_z
Si Si1 0.150691 0.707434 0.563660
Si Si2 0.500000 0.807575 0.140629
Si Si3 0.930233 0.703720 0.719748
Si Si4 0.709023 0.294627 0.564615
Si Si5 0.366499 0.300528 0.405252
Si Si6 0.374239 0.798088 0.720755
Si Si7 0.069746 0.296267 0.407571
Si Si8 0.500000 0.192684 0.455626
O O1 0.150567 0.500000 0.563562
O O2 0.114251 0.763774 0.646426
O O3 0.220870 0.761288 0.563762
O O4 0.114268 0.763670 0.480862
O O5 0.560590 0.776127 0.193773
O O6 0.500000 0.000000 0.109654
O O7 0.500000 0.696854 0.056684
O O8 0.932145 0.500000 0.714543
O O9 0.910382 0.750228 0.813635
O O10 0.000000 0.765941 0.708200
O O11 0.707987 0.500000 0.563298
O O12 0.672472 0.230222 0.482790
O O13 0.673865 0.240447 0.648121
O O14 0.352521 0.500000 0.402778
O O15 0.354531 0.231883 0.312161
O O16 0.437985 0.278040 0.424688
O O17 0.382166 0.000000 0.726627
O O18 0.067813 0.500000 0.412850
O O19 0.000000 0.233904 0.419076
O O20 0.500000 0.000000 0.425578
#
# Coordination Sequence:
#
# PCOD9359010 Si02
#       8
#     8   4   8   8   8   8   8   4
#     4   9  18  33  54  77 104 144 191 223 265 329
#     4  12  23  38  61  86 114 146 179 223 280 331
#     4   9  17  31  52  78 108 140 177 227 280 326
#     4  10  21  38  57  77 106 149 189 226 272 331
#     4  10  22  39  58  80 111 146 180 223 279 331
#     4  11  23  39  59  85 113 144 184 230 277 326
#     4   9  17  31  53  80 108 139 180 228 273 326
#     4  12  23  36  61  90 114 140 179 229 276 325
#
# _framework density 20.269715000000001
#
# number of rings (size 3 to 8) (size 9 to 14) (size 15 to 20)
#    0.000    2.000    1.429    2.571    0.000    5.714 
#    0.000    3.571    0.000    3.429    0.000    0.000 
#    0.000    0.000    0.000    0.000    0.000    0.000 
#
# Total GULP energy -156399.636184 kJ/mol
# GULP energy per Si atom -5585.701292 kJ/mol
# Density = 2.022358 g / cm^3
# Si number density = 20.269715 Si / 1000 Ang^3
#
#
#
# Elastic Constant Matrix: (Units=GPa)
#
#
# Indices 1 2 3 4 5 6 
#
# 1 144.7906 -2.6415 115.7201 0.0000 0.0000 0.0000
# 2 -2.6415 23.3715 -3.9490 0.0000 0.0000 0.0000
# 3 115.7201 -3.9490 208.0399 0.0000 0.0000 0.0000
# 4 0.0000 0.0000 0.0000 23.1560 0.0000 0.0000
# 5 0.0000 0.0000 0.0000 0.0000 -17.1255 0.0000
# 6 0.0000 0.0000 0.0000 0.0000 0.0000 8.2420
#
#
#
# Elastic Compliance Matrix: (Units=1/GPa)
#
#
# Indices 1 2 3 4 5 6 
#
# 1 0.012436 0.000237 -0.006913 0.000000 0.000000 0.000000
# 2 0.000237 0.042929 0.000683 0.000000 0.000000 0.000000
# 3 -0.006913 0.000683 0.008665 0.000000 0.000000 0.000000
# 4 0.000000 0.000000 0.000000 0.043185 0.000000 0.000000
# 5 0.000000 0.000000 0.000000 0.000000 -0.058392 0.000000
# 6 0.000000 0.000000 0.000000 0.000000 0.000000 0.121330
#
#
# Mechanical properties :
#
#
# Convention : Reuss Voigt Hill
#
# Bulk Modulus (GPa) = 19.21414 66.05125 42.63270
# Shear Modulus (GPa) = 25.06444 20.65933 22.86188
#
# Velocity S-wave (km/s) = 3.52027 3.19599 3.36204
# Velocity P-wave (km/s) = 5.10126 6.80265 6.01244
#
# Compressibility (1/GPa) = 0.05204500
#
# Stress axis : x y z
#
# Youngs Moduli (GPa) = 80.41397 23.29408 115.40882
#
# Poissons Ratio (x) = -0.00553 0.79779
# Poissons Ratio (y) = -0.01910 -0.07880
# Poissons Ratio (z) = 0.55588 -0.01591
#
# Static dielectric constant tensor:
#      x y z
#    x 1.693030 0.000000 0.000000 
#    y 0.000000 1.737920 0.000000 
#    z 0.000000 0.000000 1.713280 
# 
# From -- ./inp_files/15521.got.cif
#   From: 2010.05.17/outbox.cif.g08.bks.cpg/sg38_8_cif.got.tgz:15521.got - 2010.06.03 18:07:57.
