data_PCOD9359325
_publ_section_title
;
Structure prediction by ZEFSAII (Michael W. Deem and Ramdas Pophale) SiO2 
 PCOD9359325
Probable space group: A M M 2
;
_chemical_formula_sum "Si O2"
_cell_formula_units_Z 48
_cell_length_a 7.967540
_cell_length_b 13.366891
_cell_length_c 20.111869
_cell_angle_alpha 90.000000
_cell_angle_beta 90.000000
_cell_angle_gamma 90.000000
_cell_volume 2141.938961
_symmetry_space_group_name_H-M "A M M 2"
_symmetry_group_IT_number 38
_symmetry_cell_setting 'orthorhombic'
loop_
_space_group_symop_operation_xyz
x,y,z
-x,-y,z
-x,y,z
x,-y,z
x,1/2+y,1/2+z
-x,1/2-y,1/2+z
-x,1/2+y,1/2+z
x,1/2-y,1/2+z
loop_
_atom_site_type_symbol
_atom_site_label
_atom_site_fract_x
_atom_site_fract_y
_atom_site_fract_z
Si Si1 0.697282 0.188497 0.013490
Si Si2 0.000000 0.387041 0.308084
Si Si3 0.797554 0.617360 0.783834
Si Si4 0.698688 0.761971 0.153031
Si Si5 0.687546 0.615911 0.377138
Si Si6 0.000000 0.889478 0.651608
Si Si7 0.203324 0.113814 0.437843
O O1 0.500000 0.169499 0.013762
O O2 0.749272 0.170236 0.088998
O O3 0.759298 0.123524 0.951720
O O4 0.730721 0.301618 0.987748
O O5 0.829502 0.336821 0.331434
O O6 0.000000 0.500000 0.337288
O O7 0.000000 0.397907 0.230748
O O8 0.761071 0.500000 0.769314
O O9 0.726416 0.684301 0.723653
O O10 0.742021 0.631945 0.861011
O O11 0.000000 0.629541 0.782667
O O12 0.500000 0.735385 0.147559
O O13 0.827358 0.670511 0.140822
O O14 0.500000 0.659638 0.372014
O O15 0.670060 0.500000 0.358210
O O16 0.000000 0.000000 0.620376
O O17 0.000000 0.119244 0.438888
O O18 0.251589 0.000000 0.455592
#
# Coordination Sequence:
#
# PCOD9359325 Si02
#       7
#     8   4   8   8   8   4   8
#     4  10  23  38  56  87 122 158 200 250 303 359
#     4   9  20  37  58  85 111 147 200 247 292 351
#     4   9  19  39  65  95 130 164 205 257 312 375
#     4  11  25  42  62  92 126 165 213 256 306 373
#     4   9  19  36  58  87 122 155 191 240 299 361
#     4  11  26  45  63  85 121 165 207 259 315 361
#     4   9  20  37  61  91 120 156 201 253 309 361
#
# _framework density 22.409602
#
# number of rings (size 3 to 8) (size 9 to 14) (size 15 to 20)
#    0.000    2.333    0.833    1.000    4.667    3.667 
#    0.000    6.667    0.000    0.000    0.000    0.000 
#    0.000    0.000    0.000    0.000    0.000    0.000 
#
# Total GULP energy -133809.015182 kJ/mol
# GULP energy per Si atom -5575.375633 kJ/mol
# Density = 2.235860 g / cm^3
# Si number density = 22.409602 Si / 1000 Ang^3
#
#
#
# Elastic Constant Matrix: (Units=GPa)
#
#
# Indices 1 2 3 4 5 6 
#
# 1 67.0381 -4.7114 9.7422 0.0000 0.0000 0.0000
# 2 -4.7114 46.0228 -16.5097 0.0000 0.0000 0.0000
# 3 9.7422 -16.5097 101.1522 0.0000 0.0000 0.0000
# 4 0.0000 0.0000 0.0000 13.8390 0.0000 0.0000
# 5 0.0000 0.0000 0.0000 0.0000 28.5991 0.0000
# 6 0.0000 0.0000 0.0000 0.0000 0.0000 -7.5802
#
#
#
# Elastic Compliance Matrix: (Units=1/GPa)
#
#
# Indices 1 2 3 4 5 6 
#
# 1 0.015180 0.001094 -0.001284 0.000000 0.000000 0.000000
# 2 0.001094 0.023158 0.003675 0.000000 0.000000 0.000000
# 3 -0.001284 0.003675 0.010609 0.000000 0.000000 0.000000
# 4 0.000000 0.000000 0.000000 0.072259 0.000000 0.000000
# 5 0.000000 0.000000 0.000000 0.000000 0.034966 0.000000
# 6 0.000000 0.000000 0.000000 0.000000 0.000000 -0.131923
#
#
# Mechanical properties :
#
#
# Convention : Reuss Voigt Hill
#
# Bulk Modulus (GPa) = 17.88358 21.25060 19.56709
# Shear Modulus (GPa) = 139.19385 22.01773 80.60579
#
# Velocity S-wave (km/s) = 7.88976 3.13791 6.00395
# Velocity P-wave (km/s) = 9.53915 4.75731 7.53749
#
# Compressibility (1/GPa) = 0.05591721
#
# Stress axis : x y z
#
# Youngs Moduli (GPa) = 65.87499 43.18078 94.25555
#
# Poissons Ratio (x) = -0.04722 0.12098
# Poissons Ratio (y) = -0.07204 -0.34634
# Poissons Ratio (z) = 0.08455 -0.15867
#
# Static dielectric constant tensor:
#      x y z
#    x 1.863890 0.000000 0.000000 
#    y 0.000000 1.920540 0.000000 
#    z 0.000000 0.000000 1.841080 
# 
# From -- ./inp_files/16700.got.cif
#   From: 2010.05.17/outbox.cif.g08.bks.cpg/sg38_9_cif.got.tgz:16700.got - 2010.06.03 18:07:57.
