data_PCOD9359253
_publ_section_title
;
Structure prediction by ZEFSAII (Michael W. Deem and Ramdas Pophale) SiO2 
 PCOD9359253
Probable space group: A M M 2
;
_chemical_formula_sum "Si O2"
_cell_formula_units_Z 64
_cell_length_a 23.262384
_cell_length_b 14.529561
_cell_length_c 9.943060
_cell_angle_alpha 90.000000
_cell_angle_beta 90.000000
_cell_angle_gamma 90.000000
_cell_volume 3360.676996
_symmetry_space_group_name_H-M "A M M 2"
_symmetry_group_IT_number 38
_symmetry_cell_setting 'orthorhombic'
loop_
_space_group_symop_operation_xyz
x,y,z
-x,-y,z
-x,y,z
x,-y,z
x,1/2+y,1/2+z
-x,1/2-y,1/2+z
-x,1/2+y,1/2+z
x,1/2-y,1/2+z
loop_
_atom_site_type_symbol
_atom_site_label
_atom_site_fract_x
_atom_site_fract_y
_atom_site_fract_z
Si Si1 0.671866 0.389281 0.883020
Si Si2 0.668468 0.389685 0.199528
Si Si3 0.066167 0.890807 0.463060
Si Si4 0.155218 0.759377 0.023202
Si Si5 0.764358 0.750985 0.773752
Si Si6 0.434879 0.387929 0.390411
Si Si7 0.064121 0.609488 0.643082
Si Si8 0.434571 0.387939 0.696509
O O1 0.679262 0.500000 0.870253
O O2 0.725697 0.335288 0.820638
O O3 0.614367 0.361759 0.801906
O O4 0.665806 0.367628 0.041078
O O5 0.674385 0.500000 0.211678
O O6 0.721840 0.337552 0.265422
O O7 0.611271 0.360538 0.279554
O O8 0.115076 0.831165 0.533762
O O9 0.071013 0.871711 0.302619
O O10 0.000000 0.869101 0.502589
O O11 0.074447 0.000000 0.482581
O O12 0.206790 0.761142 0.129323
O O13 0.112483 0.841930 0.057297
O O14 0.184241 0.764176 0.878414
O O15 0.500000 0.358385 0.360070
O O16 0.435156 0.500000 0.391688
O O17 0.420422 0.358665 0.543282
O O18 0.066915 0.500000 0.627923
O O19 0.000000 0.640310 0.603564
O O20 0.500000 0.358565 0.728386
O O21 0.435401 0.500000 0.695948
#
# Coordination Sequence:
#
# PCOD9359253 Si02
#       8
#     8   8   8   8   8   8   8   8
#     4  10  22  40  60  82 114 155 197 244 294 347
#     4  10  22  40  59  82 116 154 194 246 299 344
#     4   9  19  38  65  93 120 154 193 234 288 349
#     4  12  23  40  61  87 120 157 199 238 285 341
#     4  12  26  40  57  85 120 159 200 243 284 341
#     4   8  15  30  55  86 115 145 186 239 300 356
#     4   9  19  38  64  93 122 152 191 238 288 344
#     4   8  15  30  55  86 114 144 188 240 296 356
#
# _framework density 19.043780999999999
#
# number of rings (size 3 to 8) (size 9 to 14) (size 15 to 20)
#    0.000    2.250    2.500    1.875    1.750    2.500 
#    0.000    3.125    0.000    1.500    0.000    0.000 
#    0.000    0.000    0.000    0.000    0.000    0.000 
#
# Total GULP energy -178624.086269 kJ/mol
# GULP energy per Si atom -5582.002696 kJ/mol
# Density = 1.900044 g / cm^3
# Si number density = 19.043781 Si / 1000 Ang^3
#
#
#
# Elastic Constant Matrix: (Units=GPa)
#
#
# Indices 1 2 3 4 5 6 
#
# 1 106.5727 39.9963 29.3222 0.0000 0.0000 0.0000
# 2 39.9963 55.2876 29.3787 0.0000 0.0000 0.0000
# 3 29.3222 29.3787 40.1472 0.0000 0.0000 0.0000
# 4 0.0000 0.0000 0.0000 19.1491 0.0000 0.0000
# 5 0.0000 0.0000 0.0000 0.0000 34.3165 0.0000
# 6 0.0000 0.0000 0.0000 0.0000 0.0000 239.5335
#
#
#
# Elastic Compliance Matrix: (Units=1/GPa)
#
#
# Indices 1 2 3 4 5 6 
#
# 1 0.013336 -0.007317 -0.004386 0.000000 0.000000 0.000000
# 2 -0.007317 0.033610 -0.019251 0.000000 0.000000 0.000000
# 3 -0.004386 -0.019251 0.042199 0.000000 0.000000 0.000000
# 4 0.000000 0.000000 0.000000 0.052222 0.000000 0.000000
# 5 0.000000 0.000000 0.000000 0.000000 0.029140 0.000000
# 6 0.000000 0.000000 0.000000 0.000000 0.000000 0.004175
#
#
# Mechanical properties :
#
#
# Convention : Reuss Voigt Hill
#
# Bulk Modulus (GPa) = 36.71395 44.37796 40.54595
# Shear Modulus (GPa) = 20.35265 65.48719 42.91992
#
# Velocity S-wave (km/s) = 3.27269 5.87046 4.75252
# Velocity P-wave (km/s) = 5.79666 8.32487 7.17303
#
# Compressibility (1/GPa) = 0.02723761
#
# Stress axis : x y z
#
# Youngs Moduli (GPa) = 74.98487 29.75298 23.69738
#
# Poissons Ratio (x) = 0.21771 0.10393
# Poissons Ratio (y) = 0.54867 0.45619
# Poissons Ratio (z) = 0.32886 0.57277
#
# Static dielectric constant tensor:
#      x y z
#    x 1.649680 0.000000 0.000000 
#    y 0.000000 1.670570 0.000000 
#    z 0.000000 0.000000 1.635050 
# 
# From -- ./inp_files/6967.got.cif
#   From: 2010.05.17/outbox.cif.g08.bks.cpg/sg38_4_cif.got.tgz:6967.got - 2010.06.03 18:07:57.
