data_PCOD9359017
_publ_section_title
;
Structure prediction by ZEFSAII (Michael W. Deem and Ramdas Pophale) SiO2 
 PCOD9359017
Probable space group: A M M 2
;
_chemical_formula_sum "Si O2"
_cell_formula_units_Z 32
_cell_length_a 8.433254
_cell_length_b 29.939883
_cell_length_c 5.203223
_cell_angle_alpha 90.000000
_cell_angle_beta 90.000000
_cell_angle_gamma 90.000000
_cell_volume 1313.765095
_symmetry_space_group_name_H-M "A M M 2"
_symmetry_group_IT_number 38
_symmetry_cell_setting 'orthorhombic'
loop_
_space_group_symop_operation_xyz
x,y,z
-x,-y,z
-x,y,z
x,-y,z
x,1/2+y,1/2+z
-x,1/2-y,1/2+z
-x,1/2+y,1/2+z
x,1/2-y,1/2+z
loop_
_atom_site_type_symbol
_atom_site_label
_atom_site_fract_x
_atom_site_fract_y
_atom_site_fract_z
Si Si1 0.500000 0.134447 0.432220
Si Si2 0.810867 0.775019 0.954184
Si Si3 0.175295 0.147707 0.317006
Si Si4 0.826441 0.951512 0.126919
Si Si5 0.500000 0.923688 0.918513
O O1 0.333579 0.158953 0.471296
O O2 0.500000 0.094591 0.633400
O O3 0.500000 0.115058 0.140121
O O4 0.746786 0.746185 0.194050
O O5 0.800201 0.826549 0.045869
O O6 0.000000 0.767807 0.934556
O O7 0.174768 0.094077 0.290631
O O8 0.000000 0.161284 0.414925
O O9 0.000000 0.949750 0.990584
O O10 0.821865 0.000000 0.262622
O O11 0.666034 0.948713 0.963208
#
# Coordination Sequence:
#
# PCOD9359017 Si02
#       5
#     4   8   8   8   4
#     4  10  22  38  59  87 114 150 198 237 289 358
#     4   9  18  33  55  83 114 152 197 241 292 352
#     4   9  19  37  61  88 122 159 197 249 301 349
#     4   9  18  35  60  89 120 158 202 245 297 358
#     4  10  21  38  58  83 118 154 192 241 290 342
#
# _framework density 24.357474
#
# number of rings (size 3 to 8) (size 9 to 14) (size 15 to 20)
#    0.000    2.750    0.000    0.375    0.000    5.000 
#    0.000   18.750    0.000   12.000    0.000    0.000 
#    0.000    0.000    0.000    0.000    0.000    0.000 
#
# Total GULP energy -89101.956436 kJ/mol
# GULP energy per Si atom -5568.872277 kJ/mol
# Density = 2.430204 g / cm^3
# Si number density = 24.357474 Si / 1000 Ang^3
#
#
#
# Elastic Constant Matrix: (Units=GPa)
#
#
# Indices 1 2 3 4 5 6 
#
# 1 219.0671 12.4147 18.8470 0.0000 0.0000 0.0000
# 2 12.4147 156.4381 29.4056 0.0000 0.0000 0.0000
# 3 18.8470 29.4056 57.5531 0.0000 0.0000 0.0000
# 4 0.0000 0.0000 0.0000 17.1907 0.0000 0.0000
# 5 0.0000 0.0000 0.0000 0.0000 2.8083 0.0000
# 6 0.0000 0.0000 0.0000 0.0000 0.0000 17.3429
#
#
#
# Elastic Compliance Matrix: (Units=1/GPa)
#
#
# Indices 1 2 3 4 5 6 
#
# 1 0.004698 -0.000093 -0.001491 0.000000 0.000000 0.000000
# 2 -0.000093 0.007073 -0.003584 0.000000 0.000000 0.000000
# 3 -0.001491 -0.003584 0.019695 0.000000 0.000000 0.000000
# 4 0.000000 0.000000 0.000000 0.058171 0.000000 0.000000
# 5 0.000000 0.000000 0.000000 0.000000 0.356083 0.000000
# 6 0.000000 0.000000 0.000000 0.000000 0.000000 0.057660
#
#
# Mechanical properties :
#
#
# Convention : Reuss Voigt Hill
#
# Bulk Modulus (GPa) = 47.32320 61.59921 54.46121
# Shear Modulus (GPa) = 9.60136 32.29445 20.94790
#
# Velocity S-wave (km/s) = 1.98756 3.64518 2.93579
# Velocity P-wave (km/s) = 4.97373 6.56209 5.82233
#
# Compressibility (1/GPa) = 0.02113128
#
# Stress axis : x y z
#
# Youngs Moduli (GPa) = 212.84036 141.37745 50.77527
#
# Poissons Ratio (x) = 0.01308 0.07572
# Poissons Ratio (y) = 0.01970 0.18196
# Poissons Ratio (z) = 0.31741 0.50665
#
# Static dielectric constant tensor:
#      x y z
#    x 1.999550 0.000000 0.000000 
#    y 0.000000 1.974400 0.000000 
#    z 0.000000 0.000000 1.911200 
# 
# From -- ./inp_files/458.got.cif
#   From: 2010.05.17/outbox.cif.g08.bks.cpg/sg38_1_cif.got.tgz:458.got - 2010.06.03 18:07:57.
