data_PCOD9359709
_publ_section_title
;
Structure prediction by ZEFSAII (Michael W. Deem and Ramdas Pophale) SiO2 
 PCOD9359709
Probable space group: A B M 2
;
_chemical_formula_sum "Si O2"
_cell_formula_units_Z 56
_cell_length_a 25.826565
_cell_length_b 19.224929
_cell_length_c 5.540019
_cell_angle_alpha 90.000000
_cell_angle_beta 90.000000
_cell_angle_gamma 90.000000
_cell_volume 2750.696320
_symmetry_space_group_name_H-M "A B M 2"
_symmetry_group_IT_number 39
_symmetry_cell_setting 'orthorhombic'
loop_
_space_group_symop_operation_xyz
x,y,z
-x,-y,z
-x,1/2+y,z
x,1/2-y,z
x,1/2+y,1/2+z
-x,1/2-y,1/2+z
-x,y,1/2+z
x,-y,1/2+z
loop_
_atom_site_type_symbol
_atom_site_label
_atom_site_fract_x
_atom_site_fract_y
_atom_site_fract_z
Si Si1 0.394879 0.250000 0.586771
Si Si2 0.320259 0.882155 0.586631
Si Si3 0.398223 0.750000 0.586770
Si Si4 0.852071 0.334781 0.085952
Si Si5 0.479348 0.579014 0.087186
Si Si6 0.357567 0.902836 0.086642
Si Si7 0.972557 0.665254 0.586171
Si Si8 0.202227 0.166096 0.085950
O O1 0.426592 0.250000 0.340760
O O2 0.358951 0.317985 0.586791
O O3 0.426586 0.250000 0.832778
O O4 0.361329 0.817953 0.586791
O O5 0.331579 0.922196 0.338523
O O6 0.262049 0.855016 0.586178
O O7 0.331458 0.922129 0.834985
O O8 0.850190 0.250000 0.085943
O O9 0.912329 0.354963 0.086105
O O10 0.824719 0.357691 0.335646
O O11 0.824770 0.357689 0.836141
O O12 0.500000 0.500000 0.087560
O O13 0.499872 0.610900 0.337419
O O14 0.417601 0.576694 0.086372
O O15 0.974451 0.750000 0.586176
O O16 0.000008 0.642745 0.336190
O O17 0.199155 0.250000 0.085928
#
# Coordination Sequence:
#
# PCOD9359709 Si02
#       8
#     4   8   4   8   8   8   8   8
#     4   8  16  26  42  63  88 112 132 163 196 242
#     4  10  17  27  42  62  86 112 137 165 203 258
#     4   8  14  24  36  55  80 108 136 155 190 238
#     4   9  17  24  32  48  69  95 132 178 219 267
#     4  10  21  38  57  73  90 113 142 178 218 257
#     4  10  19  31  48  69  90 113 143 170 204 262
#     4   9  15  23  33  42  57  86 127 176 230 275
#     4  10  17  25  36  53  78 104 133 165 208 264
#
# _framework density 20.358481999999999
#
# number of rings (size 3 to 8) (size 9 to 14) (size 15 to 20)
#    0.000    2.571    0.714    2.571    0.000    3.429 
#    0.000    0.714    0.000    0.000    0.000    0.000 
#    0.000    0.000    0.000    0.000    0.000    0.000 
#
# Total GULP energy -156102.724003 kJ/mol
# GULP energy per Si atom -5575.097286 kJ/mol
# Density = 2.031214 g / cm^3
# Si number density = 20.358482 Si / 1000 Ang^3
#
#
#
# Elastic Constant Matrix: (Units=GPa)
#
#
# Indices 1 2 3 4 5 6 
#
# 1 111.5143 1.4756 82.1851 0.0000 0.0000 0.0000
# 2 1.4756 51.1224 3.5065 0.0000 0.0000 0.0000
# 3 82.1851 3.5065 286.0855 0.0000 0.0000 0.0000
# 4 0.0000 0.0000 0.0000 -24.8130 0.0000 0.0000
# 5 0.0000 0.0000 0.0000 0.0000 38.0812 0.0000
# 6 0.0000 0.0000 0.0000 0.0000 0.0000 22.3516
#
#
#
# Elastic Compliance Matrix: (Units=1/GPa)
#
#
# Indices 1 2 3 4 5 6 
#
# 1 0.011377 -0.000104 -0.003267 0.000000 0.000000 0.000000
# 2 -0.000104 0.019578 -0.000210 0.000000 0.000000 0.000000
# 3 -0.003267 -0.000210 0.004437 0.000000 0.000000 0.000000
# 4 0.000000 0.000000 0.000000 -0.040301 0.000000 0.000000
# 5 0.000000 0.000000 0.000000 0.000000 0.026260 0.000000
# 6 0.000000 0.000000 0.000000 0.000000 0.000000 0.044739
#
#
# Mechanical properties :
#
#
# Convention : Reuss Voigt Hill
#
# Bulk Modulus (GPa) = 35.42459 69.22849 52.32654
# Shear Modulus (GPa) = 60.48791 31.22763 45.85777
#
# Velocity S-wave (km/s) = 5.45673 3.92074 4.75121
# Velocity P-wave (km/s) = 7.55906 7.38748 7.47376
#
# Compressibility (1/GPa) = 0.02822898
#
# Stress axis : x y z
#
# Youngs Moduli (GPa) = 87.90032 51.07689 225.40126
#
# Poissons Ratio (x) = 0.00533 0.73637
# Poissons Ratio (y) = 0.00917 0.04734
# Poissons Ratio (z) = 0.28716 0.01073
#
# Static dielectric constant tensor:
#      x y z
#    x 1.661760 0.000000 0.000000 
#    y 0.000000 1.721980 0.000000 
#    z 0.000000 0.000000 1.910950 
# 
# From -- ./inp_files/1118.got.cif
#   From: 2010.05.17/outbox.cif.g08.bks.cpg/sg39_1_cif.got.tgz:1118.got - 2010.06.03 18:22:40.
