data_PCOD9359208
_publ_section_title
;
Structure prediction by ZEFSAII (Michael W. Deem and Ramdas Pophale) SiO2 
 PCOD9359208
Probable space group: A M M 2
;
_chemical_formula_sum "Si O2"
_cell_formula_units_Z 64
_cell_length_a 13.064507
_cell_length_b 22.796040
_cell_length_c 11.517060
_cell_angle_alpha 90.000000
_cell_angle_beta 90.000000
_cell_angle_gamma 90.000000
_cell_volume 3429.999570
_symmetry_space_group_name_H-M "A M M 2"
_symmetry_group_IT_number 38
_symmetry_cell_setting 'orthorhombic'
loop_
_space_group_symop_operation_xyz
x,y,z
-x,-y,z
-x,y,z
x,-y,z
x,1/2+y,1/2+z
-x,1/2-y,1/2+z
-x,1/2+y,1/2+z
x,1/2-y,1/2+z
loop_
_atom_site_type_symbol
_atom_site_label
_atom_site_fract_x
_atom_site_fract_y
_atom_site_fract_z
Si Si1 0.389239 0.432341 0.573720
Si Si2 0.790647 0.681752 0.091009
Si Si3 0.737740 0.823796 0.341571
Si Si4 0.876648 0.430500 0.216803
Si Si5 0.227626 0.363338 0.427556
Si Si6 0.377780 0.288268 0.262449
Si Si7 0.118541 0.698052 0.635699
Si Si8 0.382745 0.435562 0.853541
O O1 0.500000 0.405850 0.541373
O O2 0.389100 0.500000 0.536942
O O3 0.296063 0.400707 0.515211
O O4 0.383215 0.432263 0.713044
O O5 0.829059 0.616888 0.125777
O O6 0.675949 0.694526 0.140095
O O7 0.858485 0.732484 0.151863
O O8 0.796307 0.697205 0.955630
O O9 0.651861 0.778730 0.294772
O O10 0.814269 0.833059 0.235133
O O11 0.685950 0.882318 0.389916
O O12 0.848993 0.500000 0.201867
O O13 0.834853 0.404824 0.339370
O O14 0.000000 0.426888 0.212371
O O15 0.310049 0.326023 0.353134
O O16 0.156188 0.324025 0.509856
O O17 0.500000 0.297298 0.265143
O O18 0.000000 0.685932 0.650154
O O19 0.500000 0.429423 0.892250
O O20 0.345674 0.500000 0.888198
#
# Coordination Sequence:
#
# PCOD9359208 Si02
#       8
#     8   8   8   8   8   8   8   8
#     4   9  17  30  52  81 113 149 183 221 277 345
#     4  10  23  41  59  85 118 154 199 242 299 361
#     4  11  21  39  57  86 113 153 196 240 299 352
#     4  10  22  40  63  86 112 156 207 253 301 352
#     4  11  19  37  57  87 120 151 191 244 294 355
#     4  10  22  37  57  87 122 155 188 236 294 357
#     4  11  23  38  58  86 118 153 196 250 305 359
#     4   9  18  32  52  79 112 150 187 224 275 341
#
# _framework density 18.658895000000001
#
# number of rings (size 3 to 8) (size 9 to 14) (size 15 to 20)
#    0.000    1.875    2.500    2.625    0.000    2.500 
#    0.000    0.000    0.000    4.500    0.000    0.000 
#    0.000    0.000    0.000    0.000    0.000    0.000 
#
# Total GULP energy -178353.521324 kJ/mol
# GULP energy per Si atom -5573.547541 kJ/mol
# Density = 1.861643 g / cm^3
# Si number density = 18.658895 Si / 1000 Ang^3
#
#
#
# Elastic Constant Matrix: (Units=GPa)
#
#
# Indices 1 2 3 4 5 6 
#
# 1 91.6780 30.6465 11.5733 0.0000 0.0000 0.0000
# 2 30.6465 85.8044 -1.3923 0.0000 0.0000 0.0000
# 3 11.5733 -1.3923 55.7673 0.0000 0.0000 0.0000
# 4 0.0000 0.0000 0.0000 22.8483 0.0000 0.0000
# 5 0.0000 0.0000 0.0000 0.0000 16.2085 0.0000
# 6 0.0000 0.0000 0.0000 0.0000 0.0000 20.5673
#
#
#
# Elastic Compliance Matrix: (Units=1/GPa)
#
#
# Indices 1 2 3 4 5 6 
#
# 1 0.012801 -0.004617 -0.002772 0.000000 0.000000 0.000000
# 2 -0.004617 0.013324 0.001291 0.000000 0.000000 0.000000
# 3 -0.002772 0.001291 0.018539 0.000000 0.000000 0.000000
# 4 0.000000 0.000000 0.000000 0.043767 0.000000 0.000000
# 5 0.000000 0.000000 0.000000 0.000000 0.061696 0.000000
# 6 0.000000 0.000000 0.000000 0.000000 0.000000 0.048621
#
#
# Mechanical properties :
#
#
# Convention : Reuss Voigt Hill
#
# Bulk Modulus (GPa) = 30.79916 34.98939 32.89428
# Shear Modulus (GPa) = 22.54614 24.75297 23.64955
#
# Velocity S-wave (km/s) = 3.47988 3.64621 3.56401
# Velocity P-wave (km/s) = 5.71737 6.04312 5.88250
#
# Compressibility (1/GPa) = 0.03246842
#
# Stress axis : x y z
#
# Youngs Moduli (GPa) = 78.11838 75.05008 53.93998
#
# Poissons Ratio (x) = 0.34651 0.14951
# Poissons Ratio (y) = 0.36068 -0.06963
# Poissons Ratio (z) = 0.21653 -0.09688
#
# Static dielectric constant tensor:
#      x y z
#    x 1.625250 0.000000 0.000000 
#    y 0.000000 1.684950 0.000000 
#    z 0.000000 0.000000 1.642930 
# 
# From -- ./inp_files/9571.got.cif
#   From: 2010.05.17/outbox.cif.g08.bks.cpg/sg38_5_cif.got.tgz:9571.got - 2010.06.03 18:07:57.
