data_PCOD9359689
_publ_section_title
;
Structure prediction by ZEFSAII (Michael W. Deem and Ramdas Pophale) SiO2 
 PCOD9359689
Probable space group: A B M 2
;
_chemical_formula_sum "Si O2"
_cell_formula_units_Z 60
_cell_length_a 25.991013
_cell_length_b 34.197233
_cell_length_c 5.324262
_cell_angle_alpha 90.000000
_cell_angle_beta 90.000000
_cell_angle_gamma 90.000000
_cell_volume 4732.314424
_symmetry_space_group_name_H-M "A B M 2"
_symmetry_group_IT_number 39
_symmetry_cell_setting 'orthorhombic'
loop_
_space_group_symop_operation_xyz
x,y,z
-x,-y,z
-x,1/2+y,z
x,1/2-y,z
x,1/2+y,1/2+z
-x,1/2-y,1/2+z
-x,y,1/2+z
x,-y,1/2+z
loop_
_atom_site_type_symbol
_atom_site_label
_atom_site_fract_x
_atom_site_fract_y
_atom_site_fract_z
Si Si1 0.850946 0.297717 0.563530
Si Si2 0.388857 0.679334 0.529340
Si Si3 0.671343 0.202556 0.024906
Si Si4 0.534378 0.608547 0.020312
Si Si5 0.030091 0.202357 0.042034
Si Si6 0.441558 0.517192 0.520153
Si Si7 0.467635 0.750000 0.604590
Si Si8 0.208538 0.202539 0.563768
O O1 0.850837 0.250000 0.563839
O O2 0.910440 0.309959 0.551502
O O3 0.819244 0.310484 0.318762
O O4 0.822792 0.310404 0.818255
O O5 0.358711 0.688146 0.271795
O O6 0.418020 0.638131 0.521928
O O7 0.432893 0.712077 0.560836
O O8 0.352381 0.684648 0.771299
O O9 0.666721 0.250000 0.009920
O O10 0.731497 0.192238 0.049452
O O11 0.499797 0.614764 0.269697
O O12 0.553252 0.563657 0.020680
O O13 0.030202 0.250000 0.041719
O O14 0.998715 0.189952 0.288470
O O15 0.500000 0.500000 0.519865
O O16 0.416608 0.500066 0.269967
O O17 0.489153 0.750000 0.887684
O O18 0.206901 0.250000 0.564939
#
# Coordination Sequence:
#
# PCOD9359689 Si02
#       8
#     8   8   8   8   8   8   4   8
#     4   9  15  24  34  53  68  82 116 152 182 221
#     4  12  23  34  47  61  79 101 127 158 190 235
#     4  11  20  36  47  57  73 100 131 162 204 234
#     4  12  21  33  48  67  85 101 124 149 179 224
#     4   9  15  21  30  44  68  95 109 129 174 231
#     4  10  16  30  49  67  85 103 119 140 172 213
#     4  12  22  36  46  56  76 100 126 148 180 222
#     4   9  17  26  42  53  63  84 117 162 192 216
#
# _framework density 12.678785
#
# number of rings (size 3 to 8) (size 9 to 14) (size 15 to 20)
#    0.000    1.600    4.000    4.000    0.000    5.333 
#    0.000    0.000    0.000    0.000    0.000    0.000 
#    0.000    0.000    0.000    0.000    0.000    0.000 
#
# Total GULP energy -167293.990741 kJ/mol
# GULP energy per Si atom -5576.466358 kJ/mol
# Density = 1.264993 g / cm^3
# Si number density = 12.678785 Si / 1000 Ang^3
#
#
#
# Elastic Constant Matrix: (Units=GPa)
#
#
# Indices 1 2 3 4 5 6 
#
# 1 56.6984 20.3800 18.5295 0.0000 0.0000 0.0000
# 2 20.3800 49.8092 8.1069 0.0000 0.0000 0.0000
# 3 18.5295 8.1069 94.0132 0.0000 0.0000 0.0000
# 4 0.0000 0.0000 0.0000 8.7206 0.0000 0.0000
# 5 0.0000 0.0000 0.0000 0.0000 92.2281 0.0000
# 6 0.0000 0.0000 0.0000 0.0000 0.0000 7.3474
#
#
#
# Elastic Compliance Matrix: (Units=1/GPa)
#
#
# Indices 1 2 3 4 5 6 
#
# 1 0.021804 -0.008339 -0.003578 0.000000 0.000000 0.000000
# 2 -0.008339 0.023552 -0.000387 0.000000 0.000000 0.000000
# 3 -0.003578 -0.000387 0.011375 0.000000 0.000000 0.000000
# 4 0.000000 0.000000 0.000000 0.114671 0.000000 0.000000
# 5 0.000000 0.000000 0.000000 0.000000 0.010843 0.000000
# 6 0.000000 0.000000 0.000000 0.000000 0.000000 0.136103
#
#
# Mechanical properties :
#
#
# Convention : Reuss Voigt Hill
#
# Bulk Modulus (GPa) = 31.13146 32.72816 31.92981
# Shear Modulus (GPa) = 14.13768 31.89284 23.01526
#
# Velocity S-wave (km/s) = 3.34288 5.02087 4.26521
# Velocity P-wave (km/s) = 6.28547 7.71242 7.03522
#
# Compressibility (1/GPa) = 0.03212185
#
# Stress axis : x y z
#
# Youngs Moduli (GPa) = 45.86312 42.45989 87.90833
#
# Poissons Ratio (x) = 0.35407 0.31457
# Poissons Ratio (y) = 0.38245 0.03405
# Poissons Ratio (z) = 0.16412 0.01645
#
# Static dielectric constant tensor:
#      x y z
#    x -2.459840 0.000000 0.000000 
#    y 0.000000 1.379000 0.000000 
#    z 0.000000 0.000000 1.397210 
# 
# From -- ./inp_files/1180.got.cif
#   From: 2010.05.17/outbox.cif.g08.bks.cpg/sg39_1_cif.got.tgz:1180.got - 2010.06.03 18:22:40.
