data_PCOD9359667
_publ_section_title
;
Structure prediction by ZEFSAII (Michael W. Deem and Ramdas Pophale) SiO2 
 PCOD9359667
Probable space group: A B M 2
;
_chemical_formula_sum "Si O2"
_cell_formula_units_Z 36
_cell_length_a 21.649222
_cell_length_b 14.117878
_cell_length_c 5.544533
_cell_angle_alpha 90.000000
_cell_angle_beta 90.000000
_cell_angle_gamma 90.000000
_cell_volume 1694.637026
_symmetry_space_group_name_H-M "A B M 2"
_symmetry_group_IT_number 39
_symmetry_cell_setting 'orthorhombic'
loop_
_space_group_symop_operation_xyz
x,y,z
-x,-y,z
-x,1/2+y,z
x,1/2-y,z
x,1/2+y,1/2+z
-x,1/2-y,1/2+z
-x,y,1/2+z
x,-y,1/2+z
loop_
_atom_site_type_symbol
_atom_site_label
_atom_site_fract_x
_atom_site_fract_y
_atom_site_fract_z
Si Si1 0.850637 0.113622 0.804660
Si Si2 0.800805 0.396918 0.304868
Si Si3 0.037940 0.750000 0.762753
Si Si4 0.341115 0.556374 0.243679
Si Si5 0.475510 0.389872 0.827738
O O1 0.814961 0.145932 0.564820
O O2 0.918912 0.155789 0.772509
O O3 0.834310 0.001079 0.814608
O O4 0.827711 0.148491 0.064198
O O5 0.727475 0.403210 0.270930
O O6 0.002719 0.750000 0.506654
O O7 0.345287 0.484008 0.471431
O O8 0.402517 0.617073 0.282039
O O9 0.500000 0.500000 0.839775
O O10 0.508445 0.351396 0.590082
#
# Coordination Sequence:
#
# PCOD9359667 Si02
#       5
#     8   8   4   8   8
#     4  10  20  37  58  78 107 132 169 208 254 308
#     4  10  19  35  55  82 102 138 174 217 260 294
#     4  12  26  44  60  82 108 140 164 200 258 318
#     4  12  16  25  43  67  97 135 176 213 250 305
#     4  10  16  22  31  54  94 141 172 197 248 307
#
# _framework density 21.243487999999999
#
# number of rings (size 3 to 8) (size 9 to 14) (size 15 to 20)
#    0.000    1.333    8.889    1.333    0.000    0.000 
#    0.000   13.333    0.000    0.000    0.000    0.000 
#    0.000    0.000    0.000   74.000    0.000    0.000 
#
# Total GULP energy -100233.539447 kJ/mol
# GULP energy per Si atom -5568.529969 kJ/mol
# Density = 2.119514 g / cm^3
# Si number density = 21.243488 Si / 1000 Ang^3
#
#
#
# Elastic Constant Matrix: (Units=GPa)
#
#
# Indices 1 2 3 4 5 6 
#
# 1 95.0210 9.1170 -33.7358 0.0000 0.0000 0.0000
# 2 9.1170 93.9465 -3.9672 0.0000 0.0000 0.0000
# 3 -33.7358 -3.9672 108.8443 0.0000 0.0000 0.0000
# 4 0.0000 0.0000 0.0000 -20.8673 0.0000 0.0000
# 5 0.0000 0.0000 0.0000 0.0000 54.6148 0.0000
# 6 0.0000 0.0000 0.0000 0.0000 0.0000 -60.8671
#
#
#
# Elastic Compliance Matrix: (Units=1/GPa)
#
#
# Indices 1 2 3 4 5 6 
#
# 1 0.011919 -0.001002 0.003658 0.000000 0.000000 0.000000
# 2 -0.001002 0.010745 0.000081 0.000000 0.000000 0.000000
# 3 0.003658 0.000081 0.010324 0.000000 0.000000 0.000000
# 4 0.000000 0.000000 0.000000 -0.047922 0.000000 0.000000
# 5 0.000000 0.000000 0.000000 0.000000 0.018310 0.000000
# 6 0.000000 0.000000 0.000000 0.000000 0.000000 -0.016429
#
#
# Mechanical properties :
#
#
# Convention : Reuss Voigt Hill
#
# Bulk Modulus (GPa) = 26.00054 26.73774 26.36914
# Shear Modulus (GPa) = -876.29581 16.33593 -429.97994
#
# Velocity S-wave (km/s) = -20.33215 2.77607 -14.24236
# Velocity P-wave (km/s) = 23.21485 4.78425 16.06301
#
# Compressibility (1/GPa) = 0.03846074
#
# Stress axis : x y z
#
# Youngs Moduli (GPa) = 83.90152 93.06624 96.86115
#
# Poissons Ratio (x) = 0.09327 -0.35428
# Poissons Ratio (y) = 0.08408 -0.00785
# Poissons Ratio (z) = -0.30688 -0.00754
#
# Static dielectric constant tensor:
#      x y z
#    x 1.753580 0.000000 0.000000 
#    y 0.000000 1.790750 0.000000 
#    z 0.000000 0.000000 1.792570 
# 
# From -- ./inp_files/980.got.cif
#   From: 2010.05.17/outbox.cif.g08.bks.cpg/sg39_1_cif.got.tgz:980.got - 2010.06.03 18:22:40.
