data_PCOD9359913
_publ_section_title
;
Structure prediction by ZEFSAII (Michael W. Deem and Ramdas Pophale) SiO2 
 PCOD9359913
Probable space group: A B M 2
;
_chemical_formula_sum "Si O2"
_cell_formula_units_Z 64
_cell_length_a 15.025551
_cell_length_b 8.346677
_cell_length_c 25.781195
_cell_angle_alpha 90.000000
_cell_angle_beta 90.000000
_cell_angle_gamma 90.000000
_cell_volume 3233.307861
_symmetry_space_group_name_H-M "A B M 2"
_symmetry_group_IT_number 39
_symmetry_cell_setting 'orthorhombic'
loop_
_space_group_symop_operation_xyz
x,y,z
-x,-y,z
-x,1/2+y,z
x,1/2-y,z
x,1/2+y,1/2+z
-x,1/2-y,1/2+z
-x,y,1/2+z
x,-y,1/2+z
loop_
_atom_site_type_symbol
_atom_site_label
_atom_site_fract_x
_atom_site_fract_y
_atom_site_fract_z
Si Si1 0.897667 0.441832 0.823910
Si Si2 0.404147 0.937354 0.695773
Si Si3 0.222665 0.554670 0.920194
Si Si4 0.403866 0.556495 0.966159
Si Si5 0.158956 0.064368 0.613236
Si Si6 0.908092 0.443198 0.009386
Si Si7 0.365379 0.935458 0.083360
Si Si8 0.210603 0.557586 0.224147
O O1 0.900678 0.250000 0.826536
O O2 0.836622 0.501477 0.871963
O O3 0.844717 0.492483 0.772306
O O4 0.000000 0.500000 0.825191
O O5 0.398929 0.750000 0.704940
O O6 0.500000 0.000000 0.714446
O O7 0.399526 0.971848 0.633770
O O8 0.315519 0.014473 0.720921
O O9 0.223467 0.750000 0.917609
O O10 0.324178 0.501937 0.928532
O O11 0.172073 0.507627 0.972714
O O12 0.500000 0.500000 0.948534
O O13 0.400488 0.750000 0.968110
O O14 0.389700 0.502360 0.026242
O O15 0.130759 0.250000 0.619714
O O16 0.101427 0.988956 0.567518
O O17 0.258743 0.066638 0.589890
O O18 0.166906 0.993417 0.670408
O O19 0.906454 0.250000 0.012071
O O20 0.000000 0.500000 0.985483
O O21 0.395903 0.750000 0.087779
O O22 0.205353 0.750000 0.223764
#
# Coordination Sequence:
#
# PCOD9359913 Si02
#       8
#     8   8   8   8   8   8   8   8
#     4  11  23  41  64  88 111 146 194 245 296 353
#     4  11  21  34  54  84 121 159 198 240 286 344
#     4   9  19  37  60  80 109 150 192 233 284 345
#     4  10  19  33  54  81 112 151 193 235 283 342
#     4   8  15  30  53  77 107 147 184 221 277 340
#     4  10  18  32  53  79 108 143 181 224 278 340
#     4   9  16  30  52  77 111 155 197 234 277 337
#     4  10  21  39  61  86 114 151 195 244 294 347
#
# _framework density 19.793970000000002
#
# number of rings (size 3 to 8) (size 9 to 14) (size 15 to 20)
#    0.000    2.250    1.250    3.375    0.000    2.000 
#    0.000    7.500    0.000    1.500    0.000    0.000 
#    0.000    0.000    0.000    0.000    0.000    0.000 
#
# Total GULP energy -178450.138833 kJ/mol
# GULP energy per Si atom -5576.566839 kJ/mol
# Density = 1.974892 g / cm^3
# Si number density = 19.793970 Si / 1000 Ang^3
#
#
#
# Elastic Constant Matrix: (Units=GPa)
#
#
# Indices 1 2 3 4 5 6 
#
# 1 151.8541 16.8562 78.8532 0.0000 0.0000 0.0000
# 2 16.8562 31.1630 16.0809 0.0000 0.0000 0.0000
# 3 78.8532 16.0809 122.1488 0.0000 0.0000 0.0000
# 4 0.0000 0.0000 0.0000 2.9721 0.0000 0.0000
# 5 0.0000 0.0000 0.0000 0.0000 15.3658 0.0000
# 6 0.0000 0.0000 0.0000 0.0000 0.0000 28.6791
#
#
#
# Elastic Compliance Matrix: (Units=1/GPa)
#
#
# Indices 1 2 3 4 5 6 
#
# 1 0.010050 -0.002240 -0.006193 0.000000 0.000000 0.000000
# 2 -0.002240 0.034928 -0.003152 0.000000 0.000000 0.000000
# 3 -0.006193 -0.003152 0.012599 0.000000 0.000000 0.000000
# 4 0.000000 0.000000 0.000000 0.336464 0.000000 0.000000
# 5 0.000000 0.000000 0.000000 0.000000 0.065080 0.000000
# 6 0.000000 0.000000 0.000000 0.000000 0.000000 0.034869
#
#
# Mechanical properties :
#
#
# Convention : Reuss Voigt Hill
#
# Bulk Modulus (GPa) = 29.06402 58.74959 43.90681
# Shear Modulus (GPa) = 9.45847 22.29510 15.87678
#
# Velocity S-wave (km/s) = 2.18834 3.35977 2.83521
# Velocity P-wave (km/s) = 4.59350 6.69296 5.74003
#
# Compressibility (1/GPa) = 0.03440681
#
# Stress axis : x y z
#
# Youngs Moduli (GPa) = 99.50695 28.63058 79.36949
#
# Poissons Ratio (x) = 0.06414 0.49150
# Poissons Ratio (y) = 0.22293 0.25017
# Poissons Ratio (z) = 0.61620 0.09024
#
# Static dielectric constant tensor:
#      x y z
#    x 1.726550 0.000000 0.000000 
#    y 0.000000 1.750250 0.000000 
#    z 0.000000 0.000000 1.712140 
# 
# From -- ./inp_files/16182.got.cif
#   From: 2010.05.17/outbox.cif.g08.bks.cpg/sg39_9_cif.got.tgz:16182.got - 2010.06.03 18:22:40.
