data_PCOD9359309
_publ_section_title
;
Structure prediction by ZEFSAII (Michael W. Deem and Ramdas Pophale) SiO2 
 PCOD9359309
Probable space group: A M M 2
;
_chemical_formula_sum "Si O2"
_cell_formula_units_Z 40
_cell_length_a 19.583884
_cell_length_b 17.824793
_cell_length_c 5.122809
_cell_angle_alpha 90.000000
_cell_angle_beta 90.000000
_cell_angle_gamma 90.000000
_cell_volume 1788.263396
_symmetry_space_group_name_H-M "A M M 2"
_symmetry_group_IT_number 38
_symmetry_cell_setting 'orthorhombic'
loop_
_space_group_symop_operation_xyz
x,y,z
-x,-y,z
-x,y,z
x,-y,z
x,1/2+y,1/2+z
-x,1/2-y,1/2+z
-x,1/2+y,1/2+z
x,1/2-y,1/2+z
loop_
_atom_site_type_symbol
_atom_site_label
_atom_site_fract_x
_atom_site_fract_y
_atom_site_fract_z
Si Si1 0.289658 0.087484 0.398900
Si Si2 0.575752 0.914648 0.044704
Si Si3 0.653590 0.196893 0.751485
Si Si4 0.159770 0.409103 0.578146
Si Si5 0.077200 0.408770 0.086713
O O1 0.292106 0.133554 0.666400
O O2 0.230966 0.116267 0.205444
O O3 0.277075 0.000000 0.456228
O O4 0.362771 0.093844 0.252226
O O5 0.500000 0.905295 0.158251
O O6 0.587948 0.854555 0.816891
O O7 0.581100 0.000000 0.942044
O O8 0.657269 0.251480 0.504688
O O9 0.165909 0.500000 0.557787
O O10 0.131115 0.381427 0.302754
O O11 0.103182 0.391455 0.797728
O O12 0.076352 0.500000 0.104809
O O13 0.000000 0.382816 0.135150
#
# Coordination Sequence:
#
# PCOD9359309 Si02
#       5
#     8   8   8   8   8
#     4  10  22  41  67  95 128 167 215 264 316 381
#     4  10  23  44  68  93 124 166 214 265 320 380
#     4  12  25  44  64  91 126 164 206 260 319 377
#     4   9  18  29  50  80 115 160 202 245 302 365
#     4   9  16  27  44  74 118 162 198 238 299 371
#
# _framework density 22.368067
#
# number of rings (size 3 to 8) (size 9 to 14) (size 15 to 20)
#    0.000    2.000    2.000    1.200    2.800    4.000 
#    0.000    2.000    0.000    0.000    0.000    0.000 
#    0.000   16.000    0.000    0.000    0.000    0.000 
#
# Total GULP energy -111610.223777 kJ/mol
# GULP energy per Si atom -5580.511189 kJ/mol
# Density = 2.231716 g / cm^3
# Si number density = 22.368067 Si / 1000 Ang^3
#
#
#
# Elastic Constant Matrix: (Units=GPa)
#
#
# Indices 1 2 3 4 5 6 
#
# 1 110.2742 8.2245 5.9695 0.0000 0.0000 0.0000
# 2 8.2245 68.7562 28.3099 0.0000 0.0000 0.0000
# 3 5.9695 28.3099 97.3054 0.0000 0.0000 0.0000
# 4 0.0000 0.0000 0.0000 30.3852 0.0000 0.0000
# 5 0.0000 0.0000 0.0000 0.0000 30.3574 0.0000
# 6 0.0000 0.0000 0.0000 0.0000 0.0000 3.9344
#
#
#
# Elastic Compliance Matrix: (Units=1/GPa)
#
#
# Indices 1 2 3 4 5 6 
#
# 1 0.009156 -0.000982 -0.000276 0.000000 0.000000 0.000000
# 2 -0.000982 0.016629 -0.004778 0.000000 0.000000 0.000000
# 3 -0.000276 -0.004778 0.011684 0.000000 0.000000 0.000000
# 4 0.000000 0.000000 0.000000 0.032911 0.000000 0.000000
# 5 0.000000 0.000000 0.000000 0.000000 0.032941 0.000000
# 6 0.000000 0.000000 0.000000 0.000000 0.000000 0.254166
#
#
# Mechanical properties :
#
#
# Convention : Reuss Voigt Hill
#
# Bulk Modulus (GPa) = 39.37287 40.14928 39.76108
# Shear Modulus (GPa) = 13.22669 28.52421 20.87545
#
# Velocity S-wave (km/s) = 2.43435 3.57490 3.05826
# Velocity P-wave (km/s) = 5.05390 5.91846 5.50318
#
# Compressibility (1/GPa) = 0.02539820
#
# Stress axis : x y z
#
# Youngs Moduli (GPa) = 109.21253 60.13677 85.58791
#
# Poissons Ratio (x) = 0.05903 0.02364
# Poissons Ratio (y) = 0.10720 0.40892
# Poissons Ratio (z) = 0.03016 0.28732
#
# Static dielectric constant tensor:
#      x y z
#    x 1.847370 0.000000 0.000000 
#    y 0.000000 1.862260 0.000000 
#    z 0.000000 0.000000 1.858980 
# 
# From -- ./inp_files/1542.got.cif
#   From: 2010.05.17/outbox.cif.g08.bks.cpg/sg38_1_cif.got.tgz:1542.got - 2010.06.03 18:07:57.
