data_PCOD9359053
_publ_section_title
;
Structure prediction by ZEFSAII (Michael W. Deem and Ramdas Pophale) SiO2 
 PCOD9359053
Probable space group: A M M 2
;
_chemical_formula_sum "Si O2"
_cell_formula_units_Z 48
_cell_length_a 15.141528
_cell_length_b 8.989302
_cell_length_c 19.414699
_cell_angle_alpha 90.000000
_cell_angle_beta 90.000000
_cell_angle_gamma 90.000000
_cell_volume 2642.569005
_symmetry_space_group_name_H-M "A M M 2"
_symmetry_group_IT_number 38
_symmetry_cell_setting 'orthorhombic'
loop_
_space_group_symop_operation_xyz
x,y,z
-x,-y,z
-x,y,z
x,-y,z
x,1/2+y,1/2+z
-x,1/2-y,1/2+z
-x,1/2+y,1/2+z
x,1/2-y,1/2+z
loop_
_atom_site_type_symbol
_atom_site_label
_atom_site_fract_x
_atom_site_fract_y
_atom_site_fract_z
Si Si1 0.746974 0.322554 0.909120
Si Si2 0.751580 0.177151 0.759397
Si Si3 0.102812 0.822823 0.517720
Si Si4 0.603922 0.322187 0.665716
Si Si5 0.895262 0.823911 0.163396
Si Si6 0.604432 0.676833 0.505946
O O1 0.744486 0.500000 0.899120
O O2 0.748926 0.242438 0.836019
O O3 0.833168 0.285235 0.954900
O O4 0.663767 0.268874 0.953906
O O5 0.666878 0.234917 0.716880
O O6 0.836556 0.239827 0.719017
O O7 0.753096 0.000000 0.760878
O O8 0.127067 0.735393 0.587073
O O9 0.000000 0.791940 0.501940
O O10 0.111152 0.000000 0.531206
O O11 0.500000 0.291828 0.677129
O O12 0.617049 0.500000 0.674105
O O13 0.624446 0.285930 0.585810
O O14 0.000000 0.798223 0.173710
O O15 0.878350 0.000000 0.167394
O O16 0.500000 0.701888 0.495313
O O17 0.620746 0.500000 0.497071
#
# Coordination Sequence:
#
# PCOD9359053 Si02
#       6
#     8   8   8   8   8   8
#     4  11  23  37  55  81 113 150 188 227 275 329
#     4  12  25  38  55  81 115 153 189 230 279 330
#     4   9  19  37  60  85 112 142 180 227 277 330
#     4   9  19  38  63  87 112 145 185 230 279 331
#     4  10  21  38  61  86 112 145 185 229 277 331
#     4   9  19  37  60  84 110 142 181 227 279 332
#
# _framework density 18.164142999999999
#
# number of rings (size 3 to 8) (size 9 to 14) (size 15 to 20)
#    0.000    2.000    0.000    4.500    0.000    7.667 
#    0.000    3.333    0.000    0.000    0.000    0.000 
#    0.000    0.000    0.000    0.000    0.000    0.000 
#
# Total GULP energy -134106.272870 kJ/mol
# GULP energy per Si atom -5587.761370 kJ/mol
# Density = 1.812280 g / cm^3
# Si number density = 18.164143 Si / 1000 Ang^3
#
#
#
# Elastic Constant Matrix: (Units=GPa)
#
#
# Indices 1 2 3 4 5 6 
#
# 1 92.0285 75.9666 98.3906 0.0000 0.0000 0.0000
# 2 75.9666 101.6513 104.2793 0.0000 0.0000 0.0000
# 3 98.3906 104.2793 173.5331 0.0000 0.0000 0.0000
# 4 0.0000 0.0000 0.0000-1113.9015 0.0000 0.0000
# 5 0.0000 0.0000 0.0000 0.0000 -40.7922 0.0000
# 6 0.0000 0.0000 0.0000 0.0000 0.0000 31.5768
#
#
#
# Elastic Compliance Matrix: (Units=1/GPa)
#
#
# Indices 1 2 3 4 5 6 
#
# 1 0.034522 -0.014912 -0.010612 0.000000 0.000000 0.000000
# 2 -0.014912 0.032091 -0.010829 0.000000 0.000000 0.000000
# 3 -0.010612 -0.010829 0.018287 0.000000 0.000000 0.000000
# 4 0.000000 0.000000 0.000000 -0.000898 0.000000 0.000000
# 5 0.000000 0.000000 0.000000 0.000000 -0.024515 0.000000
# 6 0.000000 0.000000 0.000000 0.000000 0.000000 0.031669
#
#
# Mechanical properties :
#
#
# Convention : Reuss Voigt Hill
#
# Bulk Modulus (GPa) = 82.01798 102.72066 92.36932
# Shear Modulus (GPa) = 29.77491 -218.71826 -94.47167
#
# Velocity S-wave (km/s) = 4.05311 -10.98515 -7.21962
# Velocity P-wave (km/s) = 8.19484 10.20901 4.30514
#
# Compressibility (1/GPa) = 0.01219245
#
# Stress axis : x y z
#
# Youngs Moduli (GPa) = 28.96730 31.16158 54.68453
#
# Poissons Ratio (x) = 0.46470 0.58032
# Poissons Ratio (y) = 0.43197 0.59217
# Poissons Ratio (z) = 0.30740 0.33744
#
# Static dielectric constant tensor:
#      x y z
#    x 1.620770 0.000000 0.000000 
#    y 0.000000 1.604420 0.000000 
#    z 0.000000 0.000000 1.584340 
# 
# From -- ./inp_files/18149.got.cif
#   From: 2010.05.17/outbox.cif.g08.bks.cpg/sg38_10_cif.got.tgz:18149.got - 2010.06.03 18:07:57.
