data_PCOD9359228
_publ_section_title
;
Structure prediction by ZEFSAII (Michael W. Deem and Ramdas Pophale) SiO2 
 PCOD9359228
Probable space group: A M M 2
;
_chemical_formula_sum "Si O2"
_cell_formula_units_Z 40
_cell_length_a 15.835731
_cell_length_b 7.599025
_cell_length_c 14.814495
_cell_angle_alpha 90.000000
_cell_angle_beta 90.000000
_cell_angle_gamma 90.000000
_cell_volume 1782.718785
_symmetry_space_group_name_H-M "A M M 2"
_symmetry_group_IT_number 38
_symmetry_cell_setting 'orthorhombic'
loop_
_space_group_symop_operation_xyz
x,y,z
-x,-y,z
-x,y,z
x,-y,z
x,1/2+y,1/2+z
-x,1/2-y,1/2+z
-x,1/2+y,1/2+z
x,1/2-y,1/2+z
loop_
_atom_site_type_symbol
_atom_site_label
_atom_site_fract_x
_atom_site_fract_y
_atom_site_fract_z
Si Si1 0.227937 0.287613 0.528410
Si Si2 0.409572 0.709363 0.842539
Si Si3 0.227521 0.789685 0.822855
Si Si4 0.591728 0.797047 0.052328
Si Si5 0.904635 0.289265 0.177643
O O1 0.236031 0.500000 0.525504
O O2 0.220505 0.222665 0.425567
O O3 0.315819 0.219616 0.572646
O O4 0.146263 0.243777 0.586016
O O5 0.500000 0.758647 0.800441
O O6 0.409636 0.500000 0.856393
O O7 0.323536 0.754109 0.792157
O O8 0.406649 0.795335 0.942135
O O9 0.155880 0.718661 0.756947
O O10 0.217932 0.000000 0.826502
O O11 0.500000 0.718284 0.077084
O O12 0.590517 0.000000 0.084205
O O13 0.909840 0.500000 0.188956
O O14 0.000000 0.219929 0.177935
#
# Coordination Sequence:
#
# PCOD9359228 Si02
#       5
#     8   8   8   8   8
#     4   9  18  33  55  81 105 133 170 210 254 304
#     4   9  16  26  45  76 109 137 167 207 252 295
#     4   9  19  36  56  76 102 139 176 208 250 308
#     4   8  14  27  48  73 103 140 175 203 240 298
#     4  10  22  39  56  75 101 133 171 217 266 312
#
# _framework density 22.437638
#
# number of rings (size 3 to 8) (size 9 to 14) (size 15 to 20)
#    0.000    3.000    0.000    1.800    0.000    6.400 
#    0.000    3.000    0.000    3.600    0.000    0.000 
#    0.000    0.000    0.000    0.000    0.000    0.000 
#
# Total GULP energy -111544.652512 kJ/mol
# GULP energy per Si atom -5577.232626 kJ/mol
# Density = 2.238657 g / cm^3
# Si number density = 22.437638 Si / 1000 Ang^3
#
#
#
# Elastic Constant Matrix: (Units=GPa)
#
#
# Indices 1 2 3 4 5 6 
#
# 1 257.0008 2.3132 73.1211 0.0000 0.0000 0.0000
# 2 2.3132 52.6244 1.2301 0.0000 0.0000 0.0000
# 3 73.1211 1.2301 85.1163 0.0000 0.0000 0.0000
# 4 0.0000 0.0000 0.0000 9.8303 0.0000 0.0000
# 5 0.0000 0.0000 0.0000 0.0000 35.7032 0.0000
# 6 0.0000 0.0000 0.0000 0.0000 0.0000 21.7876
#
#
#
# Elastic Compliance Matrix: (Units=1/GPa)
#
#
# Indices 1 2 3 4 5 6 
#
# 1 0.005151 -0.000123 -0.004423 0.000000 0.000000 0.000000
# 2 -0.000123 0.019012 -0.000169 0.000000 0.000000 0.000000
# 3 -0.004423 -0.000169 0.015551 0.000000 0.000000 0.000000
# 4 0.000000 0.000000 0.000000 0.101726 0.000000 0.000000
# 5 0.000000 0.000000 0.000000 0.000000 0.028009 0.000000
# 6 0.000000 0.000000 0.000000 0.000000 0.000000 0.045898
#
#
# Mechanical properties :
#
#
# Convention : Reuss Voigt Hill
#
# Bulk Modulus (GPa) = 33.02164 60.89669 46.95916
# Shear Modulus (GPa) = 21.28833 34.66936 27.97885
#
# Velocity S-wave (km/s) = 3.08357 3.93510 3.53506
# Velocity P-wave (km/s) = 5.23707 6.91708 6.13485
#
# Compressibility (1/GPa) = 0.03028317
#
# Stress axis : x y z
#
# Youngs Moduli (GPa) = 194.15435 52.59847 64.30586
#
# Poissons Ratio (x) = 0.00647 0.28442
# Poissons Ratio (y) = 0.02388 0.01087
# Poissons Ratio (z) = 0.85873 0.00889
#
# Static dielectric constant tensor:
#      x y z
#    x 1.865190 0.000000 0.000000 
#    y 0.000000 1.865090 0.000000 
#    z 0.000000 0.000000 1.832120 
# 
# From -- ./inp_files/14261.got.cif
#   From: 2010.05.17/outbox.cif.g08.bks.cpg/sg38_8_cif.got.tgz:14261.got - 2010.06.03 18:07:57.
