data_PCOD9359923
_publ_section_title
;
Structure prediction by ZEFSAII (Michael W. Deem and Ramdas Pophale) SiO2 
 PCOD9359923
Probable space group: A B M 2
;
_chemical_formula_sum "Si O2"
_cell_formula_units_Z 60
_cell_length_a 10.939979
_cell_length_b 14.684267
_cell_length_c 18.003146
_cell_angle_alpha 90.000000
_cell_angle_beta 90.000000
_cell_angle_gamma 90.000000
_cell_volume 2892.125698
_symmetry_space_group_name_H-M "A B M 2"
_symmetry_group_IT_number 39
_symmetry_cell_setting 'orthorhombic'
loop_
_space_group_symop_operation_xyz
x,y,z
-x,-y,z
-x,1/2+y,z
x,1/2-y,z
x,1/2+y,1/2+z
-x,1/2-y,1/2+z
-x,y,1/2+z
x,-y,1/2+z
loop_
_atom_site_type_symbol
_atom_site_label
_atom_site_fract_x
_atom_site_fract_y
_atom_site_fract_z
Si Si1 0.748162 0.051468 0.688480
Si Si2 0.198870 0.854309 0.971204
Si Si3 0.500000 0.000000 0.658588
Si Si4 0.455120 0.860169 0.028718
Si Si5 0.044744 0.147934 0.262334
Si Si6 0.915235 0.087200 0.121432
Si Si7 0.735122 0.858862 0.023888
Si Si8 0.945123 0.638668 0.909219
O O1 0.830274 0.093612 0.752619
O O2 0.751764 0.102572 0.607509
O O3 0.607633 0.041422 0.706678
O O4 0.806793 0.955304 0.669028
O O5 0.211216 0.750000 0.946525
O O6 0.337819 0.889689 0.979217
O O7 0.141430 0.859622 0.053728
O O8 0.083358 0.894958 0.927230
O O9 0.549015 0.920543 0.603529
O O10 0.444255 0.750000 0.041372
O O11 0.594052 0.877026 0.000016
O O12 0.076264 0.250000 0.283104
O O13 0.992918 0.144574 0.179071
O O14 0.942830 0.116437 0.321591
O O15 0.000000 0.000000 0.098707
O O16 0.747769 0.750000 0.029199
O O17 0.838557 0.893030 0.965623
O O18 0.942354 0.750000 0.917431
#
# Coordination Sequence:
#
# PCOD9359923 Si02
#       8
#     8   8   4   8   8   8   8   8
#     4  10  19  32  53  78 107 140 176 224 277 322
#     4  10  18  32  54  80 104 132 177 227 275 329
#     4  10  18  34  56  78 114 140 182 234 272 334
#     4   9  18  31  55  84 112 142 175 226 287 335
#     4  10  20  34  52  74 107 146 184 225 272 333
#     4  10  19  31  49  77 105 135 174 221 277 327
#     4   9  17  32  55  83 106 134 178 225 275 332
#     4   9  18  32  53  77 104 139 180 227 274 323
#
# _framework density 20.745985999999998
#
# number of rings (size 3 to 8) (size 9 to 14) (size 15 to 20)
#    0.000    2.400    1.333    2.400    0.000    1.600 
#    0.000    6.000    2.933    0.000    0.000    0.000 
#    0.000    0.000    0.000    0.000    0.000    0.000 
#
# Total GULP energy -167008.802863 kJ/mol
# GULP energy per Si atom -5566.960095 kJ/mol
# Density = 2.069877 g / cm^3
# Si number density = 20.745986 Si / 1000 Ang^3
#
#
#
# Elastic Constant Matrix: (Units=GPa)
#
#
# Indices 1 2 3 4 5 6 
#
# 1 140.3387 13.4513 36.0608 0.0000 0.0000 0.0000
# 2 13.4513 41.7938 7.8765 0.0000 0.0000 0.0000
# 3 36.0608 7.8765 57.8388 0.0000 0.0000 0.0000
# 4 0.0000 0.0000 0.0000 1.8319 0.0000 0.0000
# 5 0.0000 0.0000 0.0000 0.0000 22.4482 0.0000
# 6 0.0000 0.0000 0.0000 0.0000 0.0000 19.1979
#
#
#
# Elastic Compliance Matrix: (Units=1/GPa)
#
#
# Indices 1 2 3 4 5 6 
#
# 1 0.008616 -0.001807 -0.005126 0.000000 0.000000 0.000000
# 2 -0.001807 0.024936 -0.002269 0.000000 0.000000 0.000000
# 3 -0.005126 -0.002269 0.020794 0.000000 0.000000 0.000000
# 4 0.000000 0.000000 0.000000 0.545871 0.000000 0.000000
# 5 0.000000 0.000000 0.000000 0.000000 0.044547 0.000000
# 6 0.000000 0.000000 0.000000 0.000000 0.000000 0.052089
#
#
# Mechanical properties :
#
#
# Convention : Reuss Voigt Hill
#
# Bulk Modulus (GPa) = 27.82222 39.41650 33.61936
# Shear Modulus (GPa) = 6.87532 20.86777 13.87155
#
# Velocity S-wave (km/s) = 1.82243 3.17499 2.58861
# Velocity P-wave (km/s) = 4.22710 5.69926 5.01746
#
# Compressibility (1/GPa) = 0.03594249
#
# Stress axis : x y z
#
# Youngs Moduli (GPa) = 116.06458 40.10231 48.09041
#
# Poissons Ratio (x) = 0.07247 0.24650
# Poissons Ratio (y) = 0.20973 0.10913
# Poissons Ratio (z) = 0.59491 0.09100
#
# Static dielectric constant tensor:
#      x y z
#    x 1.813310 0.000000 0.000000 
#    y 0.000000 1.780850 0.000000 
#    z 0.000000 0.000000 1.774960 
# 
# From -- ./inp_files/12317.got.cif
#   From: 2010.05.17/outbox.cif.g08.bks.cpg/sg39_7_cif.got.tgz:12317.got - 2010.06.03 18:22:40.
