data_PCOD9359124
_publ_section_title
;
Structure prediction by ZEFSAII (Michael W. Deem and Ramdas Pophale) SiO2 
 PCOD9359124
Probable space group: A M M 2
;
_chemical_formula_sum "Si O2"
_cell_formula_units_Z 42
_cell_length_a 10.461202
_cell_length_b 7.544169
_cell_length_c 25.643289
_cell_angle_alpha 90.000000
_cell_angle_beta 90.000000
_cell_angle_gamma 90.000000
_cell_volume 2023.795956
_symmetry_space_group_name_H-M "A M M 2"
_symmetry_group_IT_number 38
_symmetry_cell_setting 'orthorhombic'
loop_
_space_group_symop_operation_xyz
x,y,z
-x,-y,z
-x,y,z
x,-y,z
x,1/2+y,1/2+z
-x,1/2-y,1/2+z
-x,1/2+y,1/2+z
x,1/2-y,1/2+z
loop_
_atom_site_type_symbol
_atom_site_label
_atom_site_fract_x
_atom_site_fract_y
_atom_site_fract_z
Si Si1 0.143512 0.787480 0.058510
Si Si2 0.000000 0.000000 0.247931
Si Si3 0.644960 0.215385 0.140127
Si Si4 0.143512 0.287480 0.937353
Si Si5 0.644959 0.715385 0.855735
Si Si6 0.778447 0.800931 0.747931
O O1 0.253085 0.721730 0.097009
O O2 0.000000 0.719824 0.070531
O O3 0.138851 0.000000 0.064621
O O4 0.170339 0.750000 0.997931
O O5 0.888385 0.154362 0.247931
O O6 0.500000 0.272780 0.129538
O O7 0.692591 0.274965 0.196564
O O8 0.646065 0.000000 0.139692
O O9 0.138850 0.500000 0.931242
O O10 0.253085 0.221731 0.898854
O O11 0.000000 0.219824 0.925332
O O12 0.500000 0.772780 0.866324
O O13 0.646065 0.500000 0.856171
O O14 0.692591 0.774965 0.799299
O O15 0.830835 0.000000 0.747931
#
# Coordination Sequence:
#
# PCOD9359124 Si02
#       6
#     8   2   8   8   8   8
#     4   9  19  35  57  83 119 165 215 269 326 380
#     4  12  26  48  66  94 140 168 204 280 312 388
#     4  10  21  39  63  89 127 175 214 264 329 386
#     4   9  19  35  57  83 119 165 215 269 326 380
#     4  10  21  39  63  89 127 175 214 264 329 386
#     4  12  26  42  68  99 128 171 217 260 325 383
#
# _framework density 20.753080000000001
#
# number of rings (size 3 to 8) (size 9 to 14) (size 15 to 20)
#    0.000    1.905    1.905    0.857    2.667    5.333 
#    0.000    0.000    0.000    0.000    0.000    0.000 
#    0.000    0.000    0.000    0.000    0.000    0.000 
#
# Total GULP energy -117091.262123 kJ/mol
# GULP energy per Si atom -5575.774387 kJ/mol
# Density = 2.070584 g / cm^3
# Si number density = 20.753080 Si / 1000 Ang^3
#
#
#
# Elastic Constant Matrix: (Units=GPa)
#
#
# Indices 1 2 3 4 5 6 
#
# 1 219.8549 42.2170 146.4695 0.0000 0.0000 0.0000
# 2 42.2170 101.1004 10.7696 0.0000 0.0000 0.0000
# 3 146.4695 10.7696 157.9408 0.0000 0.0000 0.0000
# 4 0.0000 0.0000 0.0000 21.9095 0.0000 0.0000
# 5 0.0000 0.0000 0.0000 0.0000 -29.8209 0.0000
# 6 0.0000 0.0000 0.0000 0.0000 0.0000 -3.6736
#
#
#
# Elastic Compliance Matrix: (Units=1/GPa)
#
#
# Indices 1 2 3 4 5 6 
#
# 1 0.013573 -0.004359 -0.012290 0.000000 0.000000 0.000000
# 2 -0.004359 0.011363 0.003267 0.000000 0.000000 0.000000
# 3 -0.012290 0.003267 0.017506 0.000000 0.000000 0.000000
# 4 0.000000 0.000000 0.000000 0.045642 0.000000 0.000000
# 5 0.000000 0.000000 0.000000 0.000000 -0.033533 0.000000
# 6 0.000000 0.000000 0.000000 0.000000 0.000000 -0.272214
#
#
# Mechanical properties :
#
#
# Convention : Reuss Voigt Hill
#
# Bulk Modulus (GPa) = 63.77758 97.53424 80.65591
# Shear Modulus (GPa) = -26.92908 16.31233 -5.30838
#
# Velocity S-wave (km/s) = -3.60612 2.80665 -1.60107
# Velocity P-wave (km/s) = 3.66872 7.58963 5.96079
#
# Compressibility (1/GPa) = 0.01567949
#
# Stress axis : x y z
#
# Youngs Moduli (GPa) = 73.67384 88.00347 57.12211
#
# Poissons Ratio (x) = 0.38358 0.70205
# Poissons Ratio (y) = 0.32112 -0.18663
# Poissons Ratio (z) = 0.90547 -0.28753
#
# Static dielectric constant tensor:
#      x y z
#    x 1.720960 0.000000 0.000000 
#    y 0.000000 1.767660 0.000000 
#    z 0.000000 0.000000 1.698110 
# 
# From -- ./inp_files/23189.got.cif
#   From: 2010.05.17/outbox.cif.g08.bks.cpg/sg38_12_cif.got.tgz:23189.got - 2010.06.03 18:07:57.
