data_PCOD9359940
_publ_section_title
;
Structure prediction by ZEFSAII (Michael W. Deem and Ramdas Pophale) SiO2 
 PCOD9359940
Probable space group: A B M 2
;
_chemical_formula_sum "Si O2"
_cell_formula_units_Z 36
_cell_length_a 5.103199
_cell_length_b 19.562505
_cell_length_c 18.680650
_cell_angle_alpha 90.000000
_cell_angle_beta 90.000000
_cell_angle_gamma 90.000000
_cell_volume 1864.914620
_symmetry_space_group_name_H-M "A B M 2"
_symmetry_group_IT_number 39
_symmetry_cell_setting 'orthorhombic'
loop_
_space_group_symop_operation_xyz
x,y,z
-x,-y,z
-x,1/2+y,z
x,1/2-y,z
x,1/2+y,1/2+z
-x,1/2-y,1/2+z
-x,y,1/2+z
x,-y,1/2+z
loop_
_atom_site_type_symbol
_atom_site_label
_atom_site_fract_x
_atom_site_fract_y
_atom_site_fract_z
Si Si1 0.627713 0.890880 0.419470
Si Si2 0.104536 0.671474 0.350793
Si Si3 0.251899 0.547198 0.070167
Si Si4 0.138844 0.074874 0.724316
Si Si5 0.500000 0.500000 0.818901
O O1 0.340701 0.866551 0.393567
O O2 0.654947 0.909768 0.502209
O O3 0.844644 0.836355 0.397957
O O4 0.689396 0.960512 0.374076
O O5 0.176791 0.750000 0.339272
O O6 0.034713 0.634394 0.275320
O O7 0.500000 0.500000 0.091063
O O8 0.171633 0.589419 0.140897
O O9 0.000000 0.500000 0.051478
O O10 0.408753 0.058245 0.764664
O O11 0.000000 0.000000 0.729138
#
# Coordination Sequence:
#
# PCOD9359940 Si02
#       5
#     8   8   8   8   4
#     4  11  22  37  62  86 124 152 200 242 299 345
#     4  11  24  41  61  86 120 163 203 241 289 355
#     4  11  22  35  57  94 125 148 189 251 309 349
#     4  10  20  36  59  89 121 149 195 247 295 353
#     4  10  18  32  60  88 116 150 188 246 292 336
#
# _framework density 19.303833000000001
#
# number of rings (size 3 to 8) (size 9 to 14) (size 15 to 20)
#    0.000    1.333    4.444    2.000    3.111    0.000 
#    0.000    2.222    0.000    0.000    0.000    0.000 
#    0.000    0.000    0.000    0.000    0.000    0.000 
#
# Total GULP energy -100254.241706 kJ/mol
# GULP energy per Si atom -5569.680095 kJ/mol
# Density = 1.925990 g / cm^3
# Si number density = 19.303833 Si / 1000 Ang^3
#
#
#
# Elastic Constant Matrix: (Units=GPa)
#
#
# Indices 1 2 3 4 5 6 
#
# 1 73.3196 4.2230 12.2643 0.0000 0.0000 0.0000
# 2 4.2230 67.3823 44.4937 0.0000 0.0000 0.0000
# 3 12.2643 44.4937 170.7725 0.0000 0.0000 0.0000
# 4 0.0000 0.0000 0.0000 10.6676 0.0000 0.0000
# 5 0.0000 0.0000 0.0000 0.0000 21.3450 0.0000
# 6 0.0000 0.0000 0.0000 0.0000 0.0000 21.7083
#
#
#
# Elastic Compliance Matrix: (Units=1/GPa)
#
#
# Indices 1 2 3 4 5 6 
#
# 1 0.013808 -0.000254 -0.000925 0.000000 0.000000 0.000000
# 2 -0.000254 0.017929 -0.004653 0.000000 0.000000 0.000000
# 3 -0.000925 -0.004653 0.007135 0.000000 0.000000 0.000000
# 4 0.000000 0.000000 0.000000 0.093742 0.000000 0.000000
# 5 0.000000 0.000000 0.000000 0.000000 0.046849 0.000000
# 6 0.000000 0.000000 0.000000 0.000000 0.000000 0.046065
#
#
# Mechanical properties :
#
#
# Convention : Reuss Voigt Hill
#
# Bulk Modulus (GPa) = 36.75602 48.15959 42.45780
# Shear Modulus (GPa) = 20.30352 27.44375 23.87363
#
# Velocity S-wave (km/s) = 3.24664 3.77460 3.52053
# Velocity P-wave (km/s) = 5.75642 6.63319 6.21030
#
# Compressibility (1/GPa) = 0.02720643
#
# Stress axis : x y z
#
# Youngs Moduli (GPa) = 72.41986 55.77521 140.16349
#
# Poissons Ratio (x) = 0.01419 0.12971
# Poissons Ratio (y) = 0.01842 0.65219
# Poissons Ratio (z) = 0.06702 0.25952
#
# Static dielectric constant tensor:
#      x y z
#    x 1.774610 0.000000 0.000000 
#    y 0.000000 1.701330 0.000000 
#    z 0.000000 0.000000 1.667320 
# 
# From -- ./inp_files/7329.got.cif
#   From: 2010.05.17/outbox.cif.g08.bks.cpg/sg39_4_cif.got.tgz:7329.got - 2010.06.03 18:22:40.
