data_PCOD9359922
_publ_section_title
;
Structure prediction by ZEFSAII (Michael W. Deem and Ramdas Pophale) SiO2 
 PCOD9359922
Probable space group: A B M 2
;
_chemical_formula_sum "Si O2"
_cell_formula_units_Z 56
_cell_length_a 20.328891
_cell_length_b 9.067221
_cell_length_c 15.569149
_cell_angle_alpha 90.000000
_cell_angle_beta 90.000000
_cell_angle_gamma 90.000000
_cell_volume 2869.807481
_symmetry_space_group_name_H-M "A B M 2"
_symmetry_group_IT_number 39
_symmetry_cell_setting 'orthorhombic'
loop_
_space_group_symop_operation_xyz
x,y,z
-x,-y,z
-x,1/2+y,z
x,1/2-y,z
x,1/2+y,1/2+z
-x,1/2-y,1/2+z
-x,y,1/2+z
x,-y,1/2+z
loop_
_atom_site_type_symbol
_atom_site_label
_atom_site_fract_x
_atom_site_fract_y
_atom_site_fract_z
Si Si1 0.299838 0.425685 0.544860
Si Si2 0.566929 0.578874 0.056306
Si Si3 0.708818 0.071411 0.357590
Si Si4 0.839284 0.925928 0.290887
Si Si5 0.070845 0.926630 0.951966
Si Si6 0.434631 0.919317 0.346056
Si Si7 0.156921 0.575272 0.118983
O O1 0.307971 0.250000 0.531713
O O2 0.366843 0.493777 0.582322
O O3 0.287732 0.504737 0.453451
O O4 0.234276 0.449013 0.600106
O O5 0.500000 0.500000 0.085261
O O6 0.568713 0.750000 0.081494
O O7 0.566084 0.574884 0.951042
O O8 0.709948 0.250000 0.360903
O O9 0.637543 0.024706 0.320170
O O10 0.770371 0.007940 0.307023
O O11 0.829657 0.750000 0.294341
O O12 0.889167 0.969073 0.366611
O O13 0.864879 0.978786 0.199189
O O14 0.063094 0.750000 0.950467
O O15 0.115767 0.962772 0.034150
O O16 0.000000 0.000000 0.956380
O O17 0.439522 0.750000 0.320196
O O18 0.500000 0.000000 0.316028
O O19 0.148297 0.750000 0.136414
#
# Coordination Sequence:
#
# PCOD9359922 Si02
#       7
#     8   8   8   8   8   8   8
#     4  10  18  32  54  79 114 155 196 250 305 354
#     4   9  16  26  42  71 108 148 198 248 300 359
#     4  10  19  32  53  81 114 154 201 247 299 358
#     4  11  23  40  62  91 123 157 202 247 294 354
#     4  10  23  44  66  92 125 158 195 239 292 353
#     4   8  15  25  40  68 104 143 189 239 288 346
#     4  10  22  41  62  88 124 160 198 243 297 354
#
# _framework density 19.513504000000001
#
# number of rings (size 3 to 8) (size 9 to 14) (size 15 to 20)
#    0.000    2.286    1.429    2.571    0.000    7.429 
#    0.000    2.857    0.000    0.857    0.000    4.000 
#    0.000    0.000    0.000    0.000    0.000    0.000 
#
# Total GULP energy -156335.328538 kJ/mol
# GULP energy per Si atom -5583.404591 kJ/mol
# Density = 1.946909 g / cm^3
# Si number density = 19.513504 Si / 1000 Ang^3
#
#
#
# Elastic Constant Matrix: (Units=GPa)
#
#
# Indices 1 2 3 4 5 6 
#
# 1 156.0200 63.0897 49.9113 0.0000 0.0000 0.0000
# 2 63.0897 70.6364 41.3294 0.0000 0.0000 0.0000
# 3 49.9113 41.3294 78.8353 0.0000 0.0000 0.0000
# 4 0.0000 0.0000 0.0000 19.0703 0.0000 0.0000
# 5 0.0000 0.0000 0.0000 0.0000 -8.8401 0.0000
# 6 0.0000 0.0000 0.0000 0.0000 0.0000 39.6071
#
#
#
# Elastic Compliance Matrix: (Units=1/GPa)
#
#
# Indices 1 2 3 4 5 6 
#
# 1 0.010354 -0.007807 -0.002462 0.000000 0.000000 0.000000
# 2 -0.007807 0.026308 -0.008849 0.000000 0.000000 0.000000
# 3 -0.002462 -0.008849 0.018883 0.000000 0.000000 0.000000
# 4 0.000000 0.000000 0.000000 0.052437 0.000000 0.000000
# 5 0.000000 0.000000 0.000000 0.000000 -0.113121 0.000000
# 6 0.000000 0.000000 0.000000 0.000000 0.000000 0.025248
#
#
# Mechanical properties :
#
#
# Convention : Reuss Voigt Hill
#
# Bulk Modulus (GPa) = 57.77877 68.23915 63.00896
# Shear Modulus (GPa) = 77.98531 20.04490 49.01511
#
# Velocity S-wave (km/s) = 6.32863 3.20852 5.01728
# Velocity P-wave (km/s) = 9.11460 6.98372 8.11937
#
# Compressibility (1/GPa) = 0.01730740
#
# Stress axis : x y z
#
# Youngs Moduli (GPa) = 96.57979 38.01186 52.95857
#
# Poissons Ratio (x) = 0.29676 0.13040
# Poissons Ratio (y) = 0.75401 0.46863
# Poissons Ratio (z) = 0.23782 0.33637
#
# Static dielectric constant tensor:
#      x y z
#    x 1.675880 0.000000 0.000000 
#    y 0.000000 1.653470 0.000000 
#    z 0.000000 0.000000 1.713980 
# 
# From -- ./inp_files/10365.got.cif
#   From: 2010.05.17/outbox.cif.g08.bks.cpg/sg39_6_cif.got.tgz:10365.got - 2010.06.03 18:22:40.
