data_PCOD9359067
_publ_section_title
;
Structure prediction by ZEFSAII (Michael W. Deem and Ramdas Pophale) SiO2 
 PCOD9359067
Probable space group: A M M 2
;
_chemical_formula_sum "Si O2"
_cell_formula_units_Z 58
_cell_length_a 17.863875
_cell_length_b 9.899218
_cell_length_c 15.987455
_cell_angle_alpha 90.000000
_cell_angle_beta 90.000000
_cell_angle_gamma 90.000000
_cell_volume 2827.195850
_symmetry_space_group_name_H-M "A M M 2"
_symmetry_group_IT_number 38
_symmetry_cell_setting 'orthorhombic'
loop_
_space_group_symop_operation_xyz
x,y,z
-x,-y,z
-x,y,z
x,-y,z
x,1/2+y,1/2+z
-x,1/2-y,1/2+z
-x,1/2+y,1/2+z
x,1/2-y,1/2+z
loop_
_atom_site_type_symbol
_atom_site_label
_atom_site_fract_x
_atom_site_fract_y
_atom_site_fract_z
Si Si1 0.300310 0.349796 0.451090
Si Si2 0.857790 0.345346 0.377724
Si Si3 0.414237 0.660452 0.211454
Si Si4 0.414634 0.157097 0.378716
Si Si5 0.870220 0.771712 0.197033
Si Si6 0.089253 0.350655 0.023920
Si Si7 0.710470 0.849310 0.142267
Si Si8 0.000000 0.000000 0.185650
O O1 0.334874 0.500000 0.439588
O O2 0.232282 0.336145 0.386489
O O3 0.357916 0.228916 0.441077
O O4 0.267567 0.347151 0.544529
O O5 0.879300 0.500000 0.393272
O O6 0.881957 0.301088 0.285590
O O7 0.890006 0.253596 0.451480
O O8 0.500000 0.673360 0.179048
O O9 0.399890 0.500000 0.223311
O O10 0.411457 0.746770 0.297243
O O11 0.350845 0.733936 0.157318
O O12 0.500000 0.160305 0.409915
O O13 0.396089 0.000000 0.361278
O O14 0.785626 0.828840 0.195228
O O15 0.933893 0.883594 0.186597
O O16 0.876217 0.679488 0.114439
O O17 0.112356 0.500000 0.995486
O O18 0.000000 0.347433 0.034324
O O19 0.679076 0.000000 0.159436
#
# Coordination Sequence:
#
# PCOD9359067 Si02
#       8
#     8   8   8   8   8   8   8   2
#     4  10  22  41  63  93 130 171 222 275 336 409
#     4  11  26  45  70  98 135 178 226 278 344 417
#     4  10  22  40  64  95 132 178 227 278 342 410
#     4  10  21  38  61  91 128 170 222 278 336 402
#     4  12  25  46  72 100 138 179 232 286 352 410
#     4  11  26  44  68 100 135 169 220 281 341 409
#     4  11  23  41  67  96 133 174 227 284 341 408
#     4  12  28  44  78 104 138 186 234 288 356 428
#
# _framework density 20.515027
#
# number of rings (size 3 to 8) (size 9 to 14) (size 15 to 20)
#    0.000    1.241    2.759    2.069    2.897    5.793 
#    0.000    2.759    0.000    0.000    0.000    0.000 
#    0.000    0.000    0.000    0.000    0.000    0.000 
#
# Total GULP energy -161687.129547 kJ/mol
# GULP energy per Si atom -5575.418260 kJ/mol
# Density = 2.046833 g / cm^3
# Si number density = 20.515027 Si / 1000 Ang^3
#
#
#
# Elastic Constant Matrix: (Units=GPa)
#
#
# Indices 1 2 3 4 5 6 
#
# 1 65.4366 46.6104 5.8953 0.0000 0.0000 0.0000
# 2 46.6104 162.3738 33.3032 0.0000 0.0000 0.0000
# 3 5.8953 33.3032 81.6268 0.0000 0.0000 0.0000
# 4 0.0000 0.0000 0.0000 16.6621 0.0000 0.0000
# 5 0.0000 0.0000 0.0000 0.0000 17.8565 0.0000
# 6 0.0000 0.0000 0.0000 0.0000 0.0000 32.7662
#
#
#
# Elastic Compliance Matrix: (Units=1/GPa)
#
#
# Indices 1 2 3 4 5 6 
#
# 1 0.019276 -0.005727 0.000944 0.000000 0.000000 0.000000
# 2 -0.005727 0.008423 -0.003023 0.000000 0.000000 0.000000
# 3 0.000944 -0.003023 0.013416 0.000000 0.000000 0.000000
# 4 0.000000 0.000000 0.000000 0.060017 0.000000 0.000000
# 5 0.000000 0.000000 0.000000 0.000000 0.056002 0.000000
# 6 0.000000 0.000000 0.000000 0.000000 0.000000 0.030519
#
#
# Mechanical properties :
#
#
# Convention : Reuss Voigt Hill
#
# Bulk Modulus (GPa) = 39.20949 53.45056 46.33003
# Shear Modulus (GPa) = 23.61112 28.36552 25.98832
#
# Velocity S-wave (km/s) = 3.39620 3.72246 3.56307
# Velocity P-wave (km/s) = 5.87647 6.67731 6.28965
#
# Compressibility (1/GPa) = 0.02550403
#
# Stress axis : x y z
#
# Youngs Moduli (GPa) = 51.87725 118.72831 74.53829
#
# Poissons Ratio (x) = 0.67997 -0.07040
# Poissons Ratio (y) = 0.29710 0.22531
# Poissons Ratio (z) = -0.04899 0.35889
#
# Static dielectric constant tensor:
#      x y z
#    x 1.739900 0.000000 0.000000 
#    y 0.000000 1.730580 0.000000 
#    z 0.000000 0.000000 1.739860 
# 
# From -- ./inp_files/18700.got.cif
#   From: 2010.05.17/outbox.cif.g08.bks.cpg/sg38_10_cif.got.tgz:18700.got - 2010.06.03 18:07:57.
