data_PCOD9359300
_publ_section_title
;
Structure prediction by ZEFSAII (Michael W. Deem and Ramdas Pophale) SiO2 
 PCOD9359300
Probable space group: A M M 2
;
_chemical_formula_sum "Si O2"
_cell_formula_units_Z 58
_cell_length_a 7.467577
_cell_length_b 26.987324
_cell_length_c 12.170218
_cell_angle_alpha 90.000000
_cell_angle_beta 90.000000
_cell_angle_gamma 90.000000
_cell_volume 2452.663060
_symmetry_space_group_name_H-M "A M M 2"
_symmetry_group_IT_number 38
_symmetry_cell_setting 'orthorhombic'
loop_
_space_group_symop_operation_xyz
x,y,z
-x,-y,z
-x,y,z
x,-y,z
x,1/2+y,1/2+z
-x,1/2-y,1/2+z
-x,1/2+y,1/2+z
x,1/2-y,1/2+z
loop_
_atom_site_type_symbol
_atom_site_label
_atom_site_fract_x
_atom_site_fract_y
_atom_site_fract_z
Si Si1 0.216055 0.337584 0.991930
Si Si2 0.281924 0.145610 0.099917
Si Si3 0.795386 0.553020 0.997374
Si Si4 0.205096 0.826155 0.726768
Si Si5 0.284271 0.947328 0.243754
Si Si6 0.000000 0.000000 0.870827
Si Si7 0.294394 0.589914 0.381876
Si Si8 0.707543 0.777859 0.273368
O O1 0.284561 0.393254 0.016717
O O2 0.280555 0.313587 0.879279
O O3 0.000000 0.339796 0.979785
O O4 0.264760 0.310040 0.104322
O O5 0.500000 0.148580 0.100741
O O6 0.226016 0.099271 0.175243
O O7 0.216857 0.193809 0.165960
O O8 0.232306 0.128226 0.978393
O O9 0.714967 0.500000 0.033423
O O10 0.796060 0.552085 0.864743
O O11 0.000000 0.553351 0.039020
O O12 0.299444 0.873783 0.776936
O O13 0.212577 0.775913 0.796681
O O14 0.000000 0.841979 0.716499
O O15 0.500000 0.944824 0.256509
O O16 0.240628 0.000000 0.188385
O O17 0.841566 0.044269 0.871244
O O18 0.500000 0.573732 0.407246
O O19 0.500000 0.768322 0.253253
#
# Coordination Sequence:
#
# PCOD9359300 Si02
#       8
#     8   8   8   8   8   2   8   8
#     4  10  22  41  64  96 134 177 224 288 354 426
#     4   9  20  38  62  95 137 183 233 294 356 420
#     4   9  17  32  52  84 122 163 207 260 331 400
#     4  11  25  47  67  99 139 183 241 298 357 429
#     4   9  16  29  51  79 118 165 208 265 332 395
#     4  12  26  52  76 114 142 196 250 288 374 440
#     4  11  25  49  76 107 149 190 244 306 360 431
#     4  11  23  41  68  99 134 182 237 297 366 434
#
# _framework density 23.647765
#
# number of rings (size 3 to 8) (size 9 to 14) (size 15 to 20)
#    0.000    1.931    2.069    1.034    2.897    1.103 
#    4.966    0.000    0.000    0.000    0.000    0.000 
#    0.000    0.000    0.000    0.000    0.000    0.000 
#
# Total GULP energy -161557.236450 kJ/mol
# GULP energy per Si atom -5570.939188 kJ/mol
# Density = 2.359394 g / cm^3
# Si number density = 23.647765 Si / 1000 Ang^3
#
#
#
# Elastic Constant Matrix: (Units=GPa)
#
#
# Indices 1 2 3 4 5 6 
#
# 1 109.9277 25.4701 8.6894 0.0000 0.0000 0.0000
# 2 25.4701 148.9120 39.0986 0.0000 0.0000 0.0000
# 3 8.6894 39.0986 63.2728 0.0000 0.0000 0.0000
# 4 0.0000 0.0000 0.0000 14.6121 0.0000 0.0000
# 5 0.0000 0.0000 0.0000 0.0000 13.6265 0.0000
# 6 0.0000 0.0000 0.0000 0.0000 0.0000 -280.9715
#
#
#
# Elastic Compliance Matrix: (Units=1/GPa)
#
#
# Indices 1 2 3 4 5 6 
#
# 1 0.009479 -0.001527 -0.000358 0.000000 0.000000 0.000000
# 2 -0.001527 0.008262 -0.004896 0.000000 0.000000 0.000000
# 3 -0.000358 -0.004896 0.018879 0.000000 0.000000 0.000000
# 4 0.000000 0.000000 0.000000 0.068436 0.000000 0.000000
# 5 0.000000 0.000000 0.000000 0.000000 0.073387 0.000000
# 6 0.000000 0.000000 0.000000 0.000000 0.000000 -0.003559
#
#
# Mechanical properties :
#
#
# Convention : Reuss Voigt Hill
#
# Bulk Modulus (GPa) = 43.36872 52.06986 47.71929
# Shear Modulus (GPa) = 25.49303 -33.95630 -4.23163
#
# Velocity S-wave (km/s) = 3.28690 -3.79346 -1.33915
# Velocity P-wave (km/s) = 5.72575 1.69693 4.22278
#
# Compressibility (1/GPa) = 0.02305809
#
# Stress axis : x y z
#
# Youngs Moduli (GPa) = 105.49561 121.03579 52.96905
#
# Poissons Ratio (x) = 0.18486 0.01896
# Poissons Ratio (y) = 0.16113 0.25932
# Poissons Ratio (z) = 0.03777 0.59255
#
# Static dielectric constant tensor:
#      x y z
#    x 1.911410 0.000000 0.000000 
#    y 0.000000 1.928180 0.000000 
#    z 0.000000 0.000000 1.929400 
# 
# From -- ./inp_files/8362.got.cif
#   From: 2010.05.17/outbox.cif.g08.bks.cpg/sg38_5_cif.got.tgz:8362.got - 2010.06.03 18:07:57.
