data_PCOD9359477
_publ_section_title
;
Structure prediction by ZEFSAII (Michael W. Deem and Ramdas Pophale) SiO2 
 PCOD9359477
Probable space group: A M M 2
;
_chemical_formula_sum "Si O2"
_cell_formula_units_Z 56
_cell_length_a 15.337002
_cell_length_b 15.789471
_cell_length_c 11.098812
_cell_angle_alpha 90.000000
_cell_angle_beta 90.000000
_cell_angle_gamma 90.000000
_cell_volume 2687.723256
_symmetry_space_group_name_H-M "A M M 2"
_symmetry_group_IT_number 38
_symmetry_cell_setting 'orthorhombic'
loop_
_space_group_symop_operation_xyz
x,y,z
-x,-y,z
-x,y,z
x,-y,z
x,1/2+y,1/2+z
-x,1/2-y,1/2+z
-x,1/2+y,1/2+z
x,1/2-y,1/2+z
loop_
_atom_site_type_symbol
_atom_site_label
_atom_site_fract_x
_atom_site_fract_y
_atom_site_fract_z
Si Si1 0.356400 0.751100 0.646850
Si Si2 0.212431 0.902670 0.379978
Si Si3 0.747176 0.404826 0.537837
Si Si4 0.099565 0.137026 0.613310
Si Si5 0.749049 0.594932 0.256358
Si Si6 0.899973 0.664166 0.665803
Si Si7 0.406145 0.673070 0.895332
O O1 0.302494 0.667307 0.611372
O O2 0.296844 0.831461 0.681140
O O3 0.403963 0.728836 0.772443
O O4 0.403684 0.775925 0.522078
O O5 0.160441 0.893273 0.504504
O O6 0.157830 0.845845 0.286259
O O7 0.313607 0.876294 0.392085
O O8 0.207677 0.000000 0.339734
O O9 0.719659 0.500000 0.570013
O O10 0.731099 0.392104 0.396810
O O11 0.848736 0.391751 0.568506
O O12 0.148059 0.102863 0.731352
O O13 0.100759 0.238923 0.621713
O O14 0.000000 0.109407 0.599694
O O15 0.720109 0.500000 0.221769
O O16 0.000000 0.638931 0.687149
O O17 0.500000 0.626115 0.893485
#
# Coordination Sequence:
#
# PCOD9359477 Si02
#       7
#     8   8   8   8   8   8   8
#     4  12  23  46  73 102 140 184 225 284 353 422
#     4  12  25  43  66  96 137 177 220 289 358 412
#     4  11  23  40  67  99 136 184 230 281 344 410
#     4  11  24  40  64  96 133 181 234 282 334 403
#     4  11  23  40  67  99 136 184 230 281 344 410
#     4  11  24  40  64  96 133 181 234 282 334 403
#     4  12  26  44  74 106 135 177 231 286 353 420
#
# _framework density 20.835478999999999
#
# number of rings (size 3 to 8) (size 9 to 14) (size 15 to 20)
#    0.000    0.571    5.714    1.714    2.000    3.714 
#    0.000    1.429    0.000    3.429    0.000    0.000 
#    0.000    0.000    0.000    0.000    0.000    0.000 
#
# Total GULP energy -156333.634696 kJ/mol
# GULP energy per Si atom -5583.344096 kJ/mol
# Density = 2.078806 g / cm^3
# Si number density = 20.835479 Si / 1000 Ang^3
#
#
#
# Elastic Constant Matrix: (Units=GPa)
#
#
# Indices 1 2 3 4 5 6 
#
# 1 152.1221 44.2141 37.7982 0.0000 0.0000 0.0000
# 2 44.2141 101.7840 44.1688 0.0000 0.0000 0.0000
# 3 37.7982 44.1688 119.5923 0.0000 0.0000 0.0000
# 4 0.0000 0.0000 0.0000 24.3595 0.0000 0.0000
# 5 0.0000 0.0000 0.0000 0.0000 -81.9521 0.0000
# 6 0.0000 0.0000 0.0000 0.0000 0.0000 6.9080
#
#
#
# Elastic Compliance Matrix: (Units=1/GPa)
#
#
# Indices 1 2 3 4 5 6 
#
# 1 0.007724 -0.002734 -0.001431 0.000000 0.000000 0.000000
# 2 -0.002734 0.012668 -0.003814 0.000000 0.000000 0.000000
# 3 -0.001431 -0.003814 0.010223 0.000000 0.000000 0.000000
# 4 0.000000 0.000000 0.000000 0.041052 0.000000 0.000000
# 5 0.000000 0.000000 0.000000 0.000000 -0.012202 0.000000
# 6 0.000000 0.000000 0.000000 0.000000 0.000000 0.144760
#
#
# Mechanical properties :
#
#
# Convention : Reuss Voigt Hill
#
# Bulk Modulus (GPa) = 68.23742 69.54008 68.88875
# Shear Modulus (GPa) = 22.21546 6.35091 14.28319
#
# Velocity S-wave (km/s) = 3.26886 1.74778 2.62109
# Velocity P-wave (km/s) = 6.86068 6.12546 6.50347
#
# Compressibility (1/GPa) = 0.01465472
#
# Stress axis : x y z
#
# Youngs Moduli (GPa) = 129.46659 78.94139 97.81926
#
# Poissons Ratio (x) = 0.21583 0.14003
# Poissons Ratio (y) = 0.35397 0.37312
# Poissons Ratio (z) = 0.18533 0.30111
#
# Static dielectric constant tensor:
#      x y z
#    x 1.762500 0.000000 0.000000 
#    y 0.000000 1.780460 0.000000 
#    z 0.000000 0.000000 1.779330 
# 
# From -- ./inp_files/10115.got.cif
#   From: 2010.05.17/outbox.cif.g08.bks.cpg/sg38_6_cif.got.tgz:10115.got - 2010.06.03 18:07:57.
