data_PCOD9359927
_publ_section_title
;
Structure prediction by ZEFSAII (Michael W. Deem and Ramdas Pophale) SiO2 
 PCOD9359927
Probable space group: A B M 2
;
_chemical_formula_sum "Si O2"
_cell_formula_units_Z 48
_cell_length_a 5.351698
_cell_length_b 14.308600
_cell_length_c 25.107409
_cell_angle_alpha 90.000000
_cell_angle_beta 90.000000
_cell_angle_gamma 90.000000
_cell_volume 1922.607527
_symmetry_space_group_name_H-M "A B M 2"
_symmetry_group_IT_number 39
_symmetry_cell_setting 'orthorhombic'
loop_
_space_group_symop_operation_xyz
x,y,z
-x,-y,z
-x,1/2+y,z
x,1/2-y,z
x,1/2+y,1/2+z
-x,1/2-y,1/2+z
-x,y,1/2+z
x,-y,1/2+z
loop_
_atom_site_type_symbol
_atom_site_label
_atom_site_fract_x
_atom_site_fract_y
_atom_site_fract_z
Si Si1 0.205081 0.137599 0.811510
Si Si2 0.757764 0.111816 0.083676
Si Si3 0.292627 0.363071 0.248391
Si Si4 0.935298 0.389760 0.964514
Si Si5 0.746223 0.098821 0.628340
Si Si6 0.435014 0.603187 0.424190
O O1 0.197446 0.250000 0.819859
O O2 0.432784 0.117666 0.771393
O O3 0.300500 0.095354 0.867103
O O4 0.935403 0.109814 0.787908
O O5 0.496700 0.147890 0.105010
O O6 0.995197 0.147790 0.115508
O O7 0.751682 0.000953 0.098067
O O8 0.814087 0.126241 0.021961
O O9 0.272609 0.250000 0.240728
O O10 0.269356 0.411868 0.191466
O O11 0.717316 0.356366 0.923875
O O12 0.000000 0.500000 0.957848
O O13 0.215751 0.350240 0.958729
O O14 0.500000 0.500000 0.445758
#
# Coordination Sequence:
#
# PCOD9359927 Si02
#       6
#     8   8   8   8   8   8
#     4  10  21  40  59  78 110 153 188 223 283 338
#     4  10  19  32  53  83 106 146 169 225 277 326
#     4  10  21  38  59  78 107 151 188 227 272 330
#     4  10  18  32  55  80 110 141 182 215 280 340
#     4  10  19  32  53  81 106 138 189 216 267 328
#     4  10  21  34  55  86 108 143 181 236 275 324
#
# _framework density 24.966093999999998
#
# number of rings (size 3 to 8) (size 9 to 14) (size 15 to 20)
#    0.000    2.000    1.667    3.000    4.667    0.000 
#    9.000    0.000    0.000    6.000    0.000    0.000 
#    0.000    0.000    0.000    0.000    0.000    0.000 
#
# Total GULP energy -134094.680320 kJ/mol
# GULP energy per Si atom -5587.278347 kJ/mol
# Density = 2.490927 g / cm^3
# Si number density = 24.966094 Si / 1000 Ang^3
#
#
#
# Elastic Constant Matrix: (Units=GPa)
#
#
# Indices 1 2 3 4 5 6 
#
# 1 232.3229 0.0655 39.3841 0.0000 0.0000 0.0000
# 2 0.0655 94.2165 -15.8109 0.0000 0.0000 0.0000
# 3 39.3841 -15.8109 117.7339 0.0000 0.0000 0.0000
# 4 0.0000 0.0000 0.0000-9768.3907 0.0000 0.0000
# 5 0.0000 0.0000 0.0000 0.0000 68.2925 0.0000
# 6 0.0000 0.0000 0.0000 0.0000 0.0000 -19.4808
#
#
#
# Elastic Compliance Matrix: (Units=1/GPa)
#
#
# Indices 1 2 3 4 5 6 
#
# 1 0.004570 -0.000266 -0.001564 0.000000 0.000000 0.000000
# 2 -0.000266 0.010874 0.001549 0.000000 0.000000 0.000000
# 3 -0.001564 0.001549 0.009225 0.000000 0.000000 0.000000
# 4 0.000000 0.000000 0.000000 -0.000102 0.000000 0.000000
# 5 0.000000 0.000000 0.000000 0.000000 0.014643 0.000000
# 6 0.000000 0.000000 0.000000 0.000000 0.000000 -0.051333
#
#
# Mechanical properties :
#
#
# Convention : Reuss Voigt Hill
#
# Bulk Modulus (GPa) = 41.48158 54.61674 48.04916
# Shear Modulus (GPa) = -1417.97029 -1915.87347 -1666.92188
#
# Velocity S-wave (km/s) = -23.85773 -27.73186 -25.86743
# Velocity P-wave (km/s) = 27.24464 31.67782 29.54450
#
# Compressibility (1/GPa) = 0.02410709
#
# Stress axis : x y z
#
# Youngs Moduli (GPa) = 218.83686 91.96242 108.40037
#
# Poissons Ratio (x) = 0.02443 0.16957
# Poissons Ratio (y) = 0.05814 -0.16793
# Poissons Ratio (z) = 0.34233 -0.14247
#
# Static dielectric constant tensor:
#      x y z
#    x 1.739420 0.000000 0.000000 
#    y 0.000000 2.112390 0.000000 
#    z 0.000000 0.000000 1.935910 
# 
# From -- ./inp_files/13501.got.cif
#   From: 2010.05.17/outbox.cif.g08.bks.cpg/sg39_7_cif.got.tgz:13501.got - 2010.06.03 18:22:40.
