data_PCOD9359915
_publ_section_title
;
Structure prediction by ZEFSAII (Michael W. Deem and Ramdas Pophale) SiO2 
 PCOD9359915
Probable space group: A B M 2
;
_chemical_formula_sum "Si O2"
_cell_formula_units_Z 48
_cell_length_a 14.617303
_cell_length_b 8.347003
_cell_length_c 21.199704
_cell_angle_alpha 90.000000
_cell_angle_beta 90.000000
_cell_angle_gamma 90.000000
_cell_volume 2586.590131
_symmetry_space_group_name_H-M "A B M 2"
_symmetry_group_IT_number 39
_symmetry_cell_setting 'orthorhombic'
loop_
_space_group_symop_operation_xyz
x,y,z
-x,-y,z
-x,1/2+y,z
x,1/2-y,z
x,1/2+y,1/2+z
-x,1/2-y,1/2+z
-x,y,1/2+z
x,-y,1/2+z
loop_
_atom_site_type_symbol
_atom_site_label
_atom_site_fract_x
_atom_site_fract_y
_atom_site_fract_z
Si Si1 0.099870 0.058171 0.367060
Si Si2 0.290428 0.945367 0.918709
Si Si3 0.900049 0.058063 0.223014
Si Si4 0.604836 0.444287 0.044501
Si Si5 0.603822 0.942217 0.292367
Si Si6 0.289042 0.556935 0.169278
O O1 0.099288 0.250000 0.365813
O O2 0.185215 0.003517 0.409498
O O3 0.114345 0.000534 0.294986
O O4 0.000000 0.000000 0.387805
O O5 0.290539 0.750000 0.919844
O O6 0.345145 0.995614 0.856129
O O7 0.341998 0.999100 0.981629
O O8 0.900522 0.250000 0.224189
O O9 0.815318 0.001552 0.180328
O O10 0.000000 0.000000 0.202338
O O11 0.500000 0.500000 0.045083
O O12 0.604575 0.250000 0.044625
O O13 0.659617 0.500540 0.106533
O O14 0.606524 0.750000 0.290323
O O15 0.500000 0.000000 0.293198
O O16 0.654632 0.007906 0.230977
O O17 0.286855 0.750000 0.165984
#
# Coordination Sequence:
#
# PCOD9359915 Si02
#       6
#     8   8   8   8   8   8
#     4  10  18  32  53  80 108 139 174 215 267 317
#     4   9  19  35  55  77 105 141 177 216 266 317
#     4  10  19  32  52  80 109 139 175 217 266 317
#     4  10  21  39  57  76 105 143 182 219 265 319
#     4  11  21  34  53  78 106 136 176 224 271 317
#     4  10  21  36  55  79 107 141 179 220 267 318
#
# _framework density 18.55725
#
# number of rings (size 3 to 8) (size 9 to 14) (size 15 to 20)
#    0.000    2.000    1.667    3.500    0.000    2.667 
#    0.000    3.333    0.000    0.000    0.000    0.000 
#    0.000    0.000    0.000    0.000    0.000    0.000 
#
# Total GULP energy -133976.758226 kJ/mol
# GULP energy per Si atom -5582.364926 kJ/mol
# Density = 1.851501 g / cm^3
# Si number density = 18.557250 Si / 1000 Ang^3
#
#
#
# Elastic Constant Matrix: (Units=GPa)
#
#
# Indices 1 2 3 4 5 6 
#
# 1 218.7070 20.1501 110.4758 0.0000 0.0000 0.0000
# 2 20.1501 16.2172 12.3431 0.0000 0.0000 0.0000
# 3 110.4758 12.3431 156.9159 0.0000 0.0000 0.0000
# 4 0.0000 0.0000 0.0000 18.0159 0.0000 0.0000
# 5 0.0000 0.0000 0.0000 0.0000 36.1528 0.0000
# 6 0.0000 0.0000 0.0000 0.0000 0.0000 28.5932
#
#
#
# Elastic Compliance Matrix: (Units=1/GPa)
#
#
# Indices 1 2 3 4 5 6 
#
# 1 0.007558 -0.005681 -0.004874 0.000000 0.000000 0.000000
# 2 -0.005681 0.069860 -0.001496 0.000000 0.000000 0.000000
# 3 -0.004874 -0.001496 0.009922 0.000000 0.000000 0.000000
# 4 0.000000 0.000000 0.000000 0.055506 0.000000 0.000000
# 5 0.000000 0.000000 0.000000 0.000000 0.027660 0.000000
# 6 0.000000 0.000000 0.000000 0.000000 0.000000 0.034973
#
#
# Mechanical properties :
#
#
# Convention : Reuss Voigt Hill
#
# Bulk Modulus (GPa) = 15.81315 75.30866 45.56091
# Shear Modulus (GPa) = 19.94727 33.14381 26.54554
#
# Velocity S-wave (km/s) = 3.28213 4.23073 3.78626
# Velocity P-wave (km/s) = 4.78570 8.03339 6.61205
#
# Compressibility (1/GPa) = 0.06323852
#
# Stress axis : x y z
#
# Youngs Moduli (GPa) = 132.31312 14.31435 100.78479
#
# Poissons Ratio (x) = 0.08132 0.49124
# Poissons Ratio (y) = 0.75166 0.15073
# Poissons Ratio (z) = 0.64492 0.02141
#
# Static dielectric constant tensor:
#      x y z
#    x 1.644560 0.000000 0.000000 
#    y 0.000000 1.649300 0.000000 
#    z 0.000000 0.000000 1.617290 
# 
# From -- ./inp_files/12660.got.cif
#   From: 2010.05.17/outbox.cif.g08.bks.cpg/sg39_7_cif.got.tgz:12660.got - 2010.06.03 18:22:40.
