data_PCOD9359911
_publ_section_title
;
Structure prediction by ZEFSAII (Michael W. Deem and Ramdas Pophale) SiO2 
 PCOD9359911
Probable space group: A B M 2
;
_chemical_formula_sum "Si O2"
_cell_formula_units_Z 40
_cell_length_a 13.722133
_cell_length_b 21.369708
_cell_length_c 5.563652
_cell_angle_alpha 90.000000
_cell_angle_beta 90.000000
_cell_angle_gamma 90.000000
_cell_volume 1631.474048
_symmetry_space_group_name_H-M "A B M 2"
_symmetry_group_IT_number 39
_symmetry_cell_setting 'orthorhombic'
loop_
_space_group_symop_operation_xyz
x,y,z
-x,-y,z
-x,1/2+y,z
x,1/2-y,z
x,1/2+y,1/2+z
-x,1/2-y,1/2+z
-x,y,1/2+z
x,-y,1/2+z
loop_
_atom_site_type_symbol
_atom_site_label
_atom_site_fract_x
_atom_site_fract_y
_atom_site_fract_z
Si Si1 0.413920 0.181848 0.862290
Si Si2 0.860592 0.537307 0.862284
Si Si3 0.627779 0.645082 0.362290
Si Si4 0.350756 0.490520 0.362283
Si Si5 0.061239 0.679725 0.362283
O O1 0.462282 0.250000 0.862284
O O2 0.354406 0.176077 0.618403
O O3 0.508449 0.136542 0.862292
O O4 0.354407 0.176079 0.106180
O O5 0.889305 0.500000 0.612284
O O6 0.743037 0.534297 0.862284
O O7 0.888790 0.610572 0.862285
O O8 0.683360 0.580645 0.362284
O O9 0.402442 0.500000 0.612283
O O10 0.111546 0.750000 0.362284
O O11 0.999999 0.679544 0.612281
#
# Coordination Sequence:
#
# PCOD9359911 Si02
#       5
#     8   8   8   8   8
#     4  10  19  33  53  79 109 143 185 235 296 356
#     4  10  21  37  60  86 119 158 197 239 280 340
#     4  10  18  32  53  77 105 139 184 236 287 338
#     4  10  21  37  54  74 108 149 188 232 279 332
#     4  10  21  37  60  92 125 155 190 236 290 343
#
# _framework density 24.517703999999998
#
# number of rings (size 3 to 8) (size 9 to 14) (size 15 to 20)
#    0.000    2.000    0.000    5.400    0.000    2.400 
#    0.000   12.000    0.000   38.400    0.000    0.000 
#    0.000    0.000    0.000    0.000    0.000    0.000 
#
# Total GULP energy -111393.190142 kJ/mol
# GULP energy per Si atom -5569.659507 kJ/mol
# Density = 2.446190 g / cm^3
# Si number density = 24.517704 Si / 1000 Ang^3
#
#
#
# Elastic Constant Matrix: (Units=GPa)
#
#
# Indices 1 2 3 4 5 6 
#
# 1 65.0092 43.5711 27.1544 0.0000 0.0000 0.0000
# 2 43.5711 201.8528 72.0069 0.0000 0.0000 0.0000
# 3 27.1544 72.0069 313.4261 0.0000 0.0000 0.0000
# 4 0.0000 0.0000 0.0000 56.5171 0.0000 0.0000
# 5 0.0000 0.0000 0.0000 0.0000 15.1674 0.0000
# 6 0.0000 0.0000 0.0000 0.0000 0.0000 10.7913
#
#
#
# Elastic Compliance Matrix: (Units=1/GPa)
#
#
# Indices 1 2 3 4 5 6 
#
# 1 0.018137 -0.003654 -0.000732 0.000000 0.000000 0.000000
# 2 -0.003654 0.006132 -0.001092 0.000000 0.000000 0.000000
# 3 -0.000732 -0.001092 0.003505 0.000000 0.000000 0.000000
# 4 0.000000 0.000000 0.000000 0.017694 0.000000 0.000000
# 5 0.000000 0.000000 0.000000 0.000000 0.065931 0.000000
# 6 0.000000 0.000000 0.000000 0.000000 0.000000 0.092667
#
#
# Mechanical properties :
#
#
# Convention : Reuss Voigt Hill
#
# Bulk Modulus (GPa) = 59.45924 96.19476 77.82700
# Shear Modulus (GPa) = 22.66248 45.66552 34.16400
#
# Velocity S-wave (km/s) = 3.04358 4.32041 3.73693
# Velocity P-wave (km/s) = 6.05437 8.01299 7.10153
#
# Compressibility (1/GPa) = 0.01681824
#
# Stress axis : x y z
#
# Youngs Moduli (GPa) = 55.13560 163.06602 285.31444
#
# Poissons Ratio (x) = 0.59583 0.20882
# Poissons Ratio (y) = 0.20146 0.31165
# Poissons Ratio (z) = 0.04035 0.17812
#
# Static dielectric constant tensor:
#      x y z
#    x 1.849060 0.000000 0.000000 
#    y 0.000000 2.009550 0.000000 
#    z 0.000000 0.000000 2.040940 
# 
# From -- ./inp_files/749.got.cif
#   From: 2010.05.17/outbox.cif.g08.bks.cpg/sg39_1_cif.got.tgz:749.got - 2010.06.03 18:22:40.
