data_PCOD9359478
_publ_section_title
;
Structure prediction by ZEFSAII (Michael W. Deem and Ramdas Pophale) SiO2 
 PCOD9359478
Probable space group: A M M 2
;
_chemical_formula_sum "Si O2"
_cell_formula_units_Z 48
_cell_length_a 8.629424
_cell_length_b 32.701223
_cell_length_c 9.101217
_cell_angle_alpha 90.000000
_cell_angle_beta 90.000000
_cell_angle_gamma 90.000000
_cell_volume 2568.297168
_symmetry_space_group_name_H-M "A M M 2"
_symmetry_group_IT_number 38
_symmetry_cell_setting 'orthorhombic'
loop_
_space_group_symop_operation_xyz
x,y,z
-x,-y,z
-x,y,z
x,-y,z
x,1/2+y,1/2+z
-x,1/2-y,1/2+z
-x,1/2+y,1/2+z
x,1/2-y,1/2+z
loop_
_atom_site_type_symbol
_atom_site_label
_atom_site_fract_x
_atom_site_fract_y
_atom_site_fract_z
Si Si1 0.685722 0.629597 0.770610
Si Si2 0.313157 0.866578 0.617617
Si Si3 0.312964 0.043957 0.606744
Si Si4 0.314979 0.712846 0.610917
Si Si5 0.814759 0.455692 0.773549
Si Si6 0.817199 0.289253 0.287238
O O1 0.500000 0.626665 0.763732
O O2 0.734831 0.669764 0.682709
O O3 0.751998 0.586837 0.710618
O O4 0.725727 0.634769 0.943467
O O5 0.500000 0.861672 0.630888
O O6 0.269021 0.912197 0.673555
O O7 0.230305 0.830455 0.702586
O O8 0.500000 0.044693 0.595328
O O9 0.246074 0.043980 0.441671
O O10 0.268022 0.000000 0.675154
O O11 0.500000 0.717032 0.631246
O O12 0.273485 0.712827 0.440275
O O13 0.232164 0.750503 0.689951
O O14 0.766162 0.500000 0.708731
O O15 0.000000 0.454293 0.774018
O O16 0.000000 0.288479 0.314833
#
# Coordination Sequence:
#
# PCOD9359478 Si02
#       6
#     8   8   8   8   8   8
#     4   9  19  34  55  80 104 137 181 223 261 307
#     4   9  17  32  54  80 110 143 179 220 267 316
#     4   8  14  26  46  72 102 137 178 221 259 300
#     4  11  23  41  62  81 105 140 180 220 267 322
#     4   9  16  25  42  72 108 142 173 210 260 312
#     4  12  25  39  57  83 111 139 175 220 270 321
#
# _framework density 18.689426999999998
#
# number of rings (size 3 to 8) (size 9 to 14) (size 15 to 20)
#    0.000    2.333    0.000    4.500    0.000    6.333 
#    0.000    0.000    0.000    1.000    0.000    2.333 
#    0.000    0.000    0.000    0.000    0.000    0.000 
#
# Total GULP energy -133809.020540 kJ/mol
# GULP energy per Si atom -5575.375856 kJ/mol
# Density = 1.864689 g / cm^3
# Si number density = 18.689427 Si / 1000 Ang^3
#
#
#
# Elastic Constant Matrix: (Units=GPa)
#
#
# Indices 1 2 3 4 5 6 
#
# 1 10.5208 21.4674 -4.9416 0.0000 0.0000 0.0000
# 2 21.4674 181.0808 29.6009 0.0000 0.0000 0.0000
# 3 -4.9416 29.6009 32.6575 0.0000 0.0000 0.0000
# 4 0.0000 0.0000 0.0000 17.3157 0.0000 0.0000
# 5 0.0000 0.0000 0.0000 0.0000 4.1552 0.0000
# 6 0.0000 0.0000 0.0000 0.0000 0.0000 24.2920
#
#
#
# Elastic Compliance Matrix: (Units=1/GPa)
#
#
# Indices 1 2 3 4 5 6 
#
# 1 0.184892 -0.031101 0.056167 0.000000 0.000000 0.000000
# 2 -0.031101 0.011714 -0.015324 0.000000 0.000000 0.000000
# 3 0.056167 -0.015324 0.053010 0.000000 0.000000 0.000000
# 4 0.000000 0.000000 0.000000 0.057751 0.000000 0.000000
# 5 0.000000 0.000000 0.000000 0.000000 0.240662 0.000000
# 6 0.000000 0.000000 0.000000 0.000000 0.000000 0.041166
#
#
# Mechanical properties :
#
#
# Convention : Reuss Voigt Hill
#
# Bulk Modulus (GPa) = 3.71609 35.16807 19.44208
# Shear Modulus (GPa) = 7.58252 21.02806 14.30529
#
# Velocity S-wave (km/s) = 2.01641 3.35794 2.76963
# Velocity P-wave (km/s) = 2.72285 5.82171 4.54457
#
# Compressibility (1/GPa) = 0.26910016
#
# Stress axis : x y z
#
# Youngs Moduli (GPa) = 5.40856 85.36488 18.86453
#
# Poissons Ratio (x) = 2.65491 -1.05956
# Poissons Ratio (y) = 0.16821 0.28908
# Poissons Ratio (z) = -0.30378 1.30813
#
# Static dielectric constant tensor:
#      x y z
#    x 1.628640 0.000000 0.000000 
#    y 0.000000 1.698260 0.000000 
#    z 0.000000 0.000000 1.621590 
# 
# From -- ./inp_files/3777.got.cif
#   From: 2010.05.17/outbox.cif.g08.bks.cpg/sg38_2_cif.got.tgz:3777.got - 2010.06.03 18:07:57.
