data_PCOD9359297
_publ_section_title
;
Structure prediction by ZEFSAII (Michael W. Deem and Ramdas Pophale) SiO2 
 PCOD9359297
Probable space group: A M M 2
;
_chemical_formula_sum "Si O2"
_cell_formula_units_Z 40
_cell_length_a 11.607434
_cell_length_b 8.866439
_cell_length_c 20.795387
_cell_angle_alpha 90.000000
_cell_angle_beta 90.000000
_cell_angle_gamma 90.000000
_cell_volume 2140.190640
_symmetry_space_group_name_H-M "A M M 2"
_symmetry_group_IT_number 38
_symmetry_cell_setting 'orthorhombic'
loop_
_space_group_symop_operation_xyz
x,y,z
-x,-y,z
-x,y,z
x,-y,z
x,1/2+y,1/2+z
-x,1/2-y,1/2+z
-x,1/2+y,1/2+z
x,1/2-y,1/2+z
loop_
_atom_site_type_symbol
_atom_site_label
_atom_site_fract_x
_atom_site_fract_y
_atom_site_fract_z
Si Si1 0.137240 0.174423 0.029150
Si Si2 0.747514 0.319310 0.152322
Si Si3 0.263592 0.819899 0.409208
Si Si4 0.500000 0.679733 0.451197
Si Si5 0.500000 0.819040 0.594692
Si Si6 0.134844 0.181912 0.276904
O O1 0.176936 0.246518 0.095849
O O2 0.000000 0.177975 0.024431
O O3 0.176011 0.000000 0.025826
O O4 0.192395 0.266892 0.971136
O O5 0.758474 0.500000 0.151459
O O6 0.615142 0.281241 0.134437
O O7 0.793234 0.255642 0.219446
O O8 0.387000 0.741263 0.415495
O O9 0.193515 0.779388 0.344934
O O10 0.278648 0.000000 0.410668
O O11 0.500000 0.500000 0.452646
O O12 0.500000 0.741145 0.524797
O O13 0.500000 0.000000 0.583450
O O14 0.000000 0.227241 0.275099
O O15 0.138345 0.000000 0.270065
#
# Coordination Sequence:
#
# PCOD9359297 Si02
#       6
#     8   8   8   4   4   8
#     4  11  23  38  59  90 125 161 207 262 315 371
#     4  11  23  39  63  91 123 164 209 258 313 372
#     4  11  23  41  65  91 123 165 211 258 312 371
#     4  12  24  39  64  95 127 163 205 257 318 373
#     4  10  22  41  62  89 125 163 205 259 310 367
#     4  10  23  43  64  89 125 166 208 257 313 373
#
# _framework density 18.689923
#
# number of rings (size 3 to 8) (size 9 to 14) (size 15 to 20)
#    0.000    1.200    2.000    3.900    0.000    8.400 
#    0.000    2.000    0.000    0.000    0.000    0.000 
#    0.000    0.000    0.000    0.000    0.000    0.000 
#
# Total GULP energy -111837.481248 kJ/mol
# GULP energy per Si atom -5591.874062 kJ/mol
# Density = 1.864738 g / cm^3
# Si number density = 18.689923 Si / 1000 Ang^3
#
#
#
# Elastic Constant Matrix: (Units=GPa)
#
#
# Indices 1 2 3 4 5 6 
#
# 1 109.8397 46.7786 32.6067 0.0000 0.0000 0.0000
# 2 46.7786 62.3122 45.0461 0.0000 0.0000 0.0000
# 3 32.6067 45.0461 105.1269 0.0000 0.0000 0.0000
# 4 0.0000 0.0000 0.0000 36.6625 0.0000 0.0000
# 5 0.0000 0.0000 0.0000 0.0000 37.0231 0.0000
# 6 0.0000 0.0000 0.0000 0.0000 0.0000 32.0973
#
#
#
# Elastic Compliance Matrix: (Units=1/GPa)
#
#
# Indices 1 2 3 4 5 6 
#
# 1 0.013386 -0.010211 0.000223 0.000000 0.000000 0.000000
# 2 -0.010211 0.031039 -0.010133 0.000000 0.000000 0.000000
# 3 0.000223 -0.010133 0.013785 0.000000 0.000000 0.000000
# 4 0.000000 0.000000 0.000000 0.027276 0.000000 0.000000
# 5 0.000000 0.000000 0.000000 0.000000 0.027010 0.000000
# 6 0.000000 0.000000 0.000000 0.000000 0.000000 0.031155
#
#
# Mechanical properties :
#
#
# Convention : Reuss Voigt Hill
#
# Bulk Modulus (GPa) = 55.65035 58.46018 57.05527
# Shear Modulus (GPa) = 26.33214 31.34640 28.83927
#
# Velocity S-wave (km/s) = 3.75760 4.09978 3.93241
# Velocity P-wave (km/s) = 6.97612 7.33197 7.15626
#
# Compressibility (1/GPa) = 0.01796934
#
# Stress axis : x y z
#
# Youngs Moduli (GPa) = 74.70219 32.21782 72.54297
#
# Poissons Ratio (x) = 0.32897 -0.01619
# Poissons Ratio (y) = 0.76277 0.73507
# Poissons Ratio (z) = -0.01668 0.32646
#
# Static dielectric constant tensor:
#      x y z
#    x 1.640170 0.000000 0.000000 
#    y 0.000000 1.631030 0.000000 
#    z 0.000000 0.000000 1.598510 
# 
# From -- ./inp_files/20496.got.cif
#   From: 2010.05.17/outbox.cif.g08.bks.cpg/sg38_11_cif.got.tgz:20496.got - 2010.06.03 18:07:57.
