data_PCOD9359544
_publ_section_title
;
Structure prediction by ZEFSAII (Michael W. Deem and Ramdas Pophale) SiO2 
 PCOD9359544
Probable space group: A M M 2
;
_chemical_formula_sum "Si O2"
_cell_formula_units_Z 32
_cell_length_a 9.000000
_cell_length_b 15.000000
_cell_length_c 24.000000
_cell_angle_alpha 90.000000
_cell_angle_beta 90.000000
_cell_angle_gamma 90.000000
_cell_volume 3240.000000
_symmetry_space_group_name_H-M "A M M 2"
_symmetry_group_IT_number 38
_symmetry_cell_setting 'orthorhombic'
loop_
_space_group_symop_operation_xyz
x,y,z
-x,-y,z
-x,y,z
x,-y,z
x,1/2+y,1/2+z
-x,1/2-y,1/2+z
-x,1/2+y,1/2+z
x,1/2-y,1/2+z
loop_
_atom_site_type_symbol
_atom_site_label
_atom_site_fract_x
_atom_site_fract_y
_atom_site_fract_z
Si Si1 0.333469 0.598274 0.158590
Si Si2 0.677995 0.103786 0.502368
Si Si3 0.176601 0.693902 0.899996
Si Si4 0.174436 0.763748 0.592571
Si Si5 0.322710 0.603485 0.659064
Si Si6 0.331746 0.637218 0.283032
Si Si7 0.822646 0.402214 0.393412
Si Si8 0.176998 0.323877 0.769688
O O1 0.500000 0.631003 0.142065
O O2 0.313423 0.500000 0.133914
O O3 0.206334 0.666255 0.142081
O O4 0.335603 0.589516 0.224451
O O5 0.500000 0.107861 0.507601
O O6 0.730859 0.132797 0.441234
O O7 0.750738 0.179530 0.542384
O O8 0.723490 0.000000 0.512130
O O9 0.223872 0.799297 0.908399
O O10 0.192960 0.658142 0.836288
O O11 0.000000 0.690406 0.912615
O O12 0.251543 0.672656 0.614415
O O13 0.000000 0.749417 0.582359
O O14 0.500000 0.621373 0.664096
O O15 0.303123 0.500000 0.642353
O O16 0.244888 0.616974 0.719800
O O17 0.500000 0.641130 0.305726
O O18 0.225073 0.596717 0.328974
O O19 0.269747 0.733289 0.266782
O O20 0.770414 0.500000 0.417226
O O21 0.000000 0.401733 0.399641
O O22 0.000000 0.313035 0.759740
#
# Coordination Sequence:
#
# PCOD9359544 Si02
#       8
#     8   8   8   8   8   8   8   8
#     4  10  20  33  51  79 117 158 198 243 297 356
#     4  11  25  45  68  92 121 160 208 262 317 374
#     4   9  20  38  61  91 126 164 208 259 314 369
#     4  12  25  41  64  90 120 158 201 252 311 371
#     4  11  24  42  65  93 127 167 208 253 307 370
#     4  10  18  29  49  78 116 160 202 245 296 354
#     4   9  18  33  53  80 119 163 203 246 299 361
#     4  10  20  36  59  89 126 167 208 253 309 364
#
# _framework density 9.8765429999999999
#
# number of rings (size 3 to 8) (size 9 to 14) (size 15 to 20)
#    0.000    1.750    1.250    4.125    0.000    8.000 
#    0.000    3.125    0.000    2.250    0.000    0.000 
#    0.000    0.000    0.000    0.000    0.000    0.000 
#
# Total GULP energy -178220.271633 kJ/mol
# GULP energy per Si atom -5569.383489 kJ/mol
# Density = 0.985406 g / cm^3
# Si number density = 9.876543 Si / 1000 Ang^3
#
#
#
# Elastic Constant Matrix: (Units=GPa)
#
#
# Indices 1 2 3 4 5 6 
#
# 1 47.2593 38.3440 18.4621 0.0000 0.0000 0.0000
# 2 38.3440 124.7640 36.8234 0.0000 0.0000 0.0000
# 3 18.4621 36.8234 66.0519 0.0000 0.0000 0.0000
# 4 0.0000 0.0000 0.0000 121.6431 0.0000 0.0000
# 5 0.0000 0.0000 0.0000 0.0000 38.7751 0.0000
# 6 0.0000 0.0000 0.0000 0.0000 0.0000 13.5299
#
#
#
# Elastic Compliance Matrix: (Units=1/GPa)
#
#
# Indices 1 2 3 4 5 6 
#
# 1 0.028944 -0.007789 -0.003748 0.000000 0.000000 0.000000
# 2 -0.007789 0.011690 -0.004340 0.000000 0.000000 0.000000
# 3 -0.003748 -0.004340 0.018607 0.000000 0.000000 0.000000
# 4 0.000000 0.000000 0.000000 0.008221 0.000000 0.000000
# 5 0.000000 0.000000 0.000000 0.000000 0.025790 0.000000
# 6 0.000000 0.000000 0.000000 0.000000 0.000000 0.073910
#
#
# Mechanical properties :
#
#
# Convention : Reuss Voigt Hill
#
# Bulk Modulus (GPa) = 36.38116 47.25934 41.82025
# Shear Modulus (GPa) = 24.02960 44.41933 34.22446
#
# Velocity S-wave (km/s) = 3.49162 4.74722 4.16698
# Velocity P-wave (km/s) = 5.89179 7.35018 6.66102
#
# Compressibility (1/GPa) = 0.02748676
#
# Stress axis : x y z
#
# Youngs Moduli (GPa) = 34.54983 85.54394 53.74459
#
# Poissons Ratio (x) = 0.66632 0.20141
# Poissons Ratio (y) = 0.26912 0.23324
# Poissons Ratio (z) = 0.12948 0.37125
#
# Static dielectric constant tensor:
#      x y z
#    x 1.637330 0.000000 0.000000 
#    y 0.000000 1.562480 0.000000 
#    z 0.000000 0.000000 1.759020 
# 
# From -- ./inp_files/22213.got.cif
#   From: 2010.05.17/outbox.ucp.g08.bks.cvg/sg38_12_cif.got.tgz:22213.got - 2010.06.11 10:39:43.
