data_PCOD9359925
_publ_section_title
;
Structure prediction by ZEFSAII (Michael W. Deem and Ramdas Pophale) SiO2 
 PCOD9359925
Probable space group: A B M 2
;
_chemical_formula_sum "Si O2"
_cell_formula_units_Z 56
_cell_length_a 15.596045
_cell_length_b 8.908775
_cell_length_c 20.495316
_cell_angle_alpha 90.000000
_cell_angle_beta 90.000000
_cell_angle_gamma 90.000000
_cell_volume 2847.653141
_symmetry_space_group_name_H-M "A B M 2"
_symmetry_group_IT_number 39
_symmetry_cell_setting 'orthorhombic'
loop_
_space_group_symop_operation_xyz
x,y,z
-x,-y,z
-x,1/2+y,z
x,1/2-y,z
x,1/2+y,1/2+z
-x,1/2-y,1/2+z
-x,y,1/2+z
x,-y,1/2+z
loop_
_atom_site_type_symbol
_atom_site_label
_atom_site_fract_x
_atom_site_fract_y
_atom_site_fract_z
Si Si1 0.911758 0.570616 0.938330
Si Si2 0.674733 0.074823 0.754548
Si Si3 0.083742 0.428258 0.663127
Si Si4 0.129171 0.574500 0.799628
Si Si5 0.723768 0.429437 0.486249
Si Si6 0.590306 0.930577 0.385988
Si Si7 0.276765 0.927986 0.121390
O O1 0.919320 0.750000 0.938161
O O2 0.898469 0.510258 0.864687
O O3 0.000000 0.500000 0.964019
O O4 0.823922 0.528921 0.975460
O O5 0.660526 0.250000 0.738459
O O6 0.768397 0.065132 0.788647
O O7 0.609404 0.026060 0.810705
O O8 0.678334 0.981640 0.688036
O O9 0.073832 0.250000 0.667185
O O10 0.091227 0.498992 0.735169
O O11 0.175108 0.461443 0.630357
O O12 0.000000 0.500000 0.630714
O O13 0.105151 0.750000 0.803672
O O14 0.717078 0.250000 0.480884
O O15 0.665786 0.506281 0.431284
O O16 0.694312 0.485547 0.557059
O O17 0.589450 0.750000 0.389544
O O18 0.500000 0.000000 0.406701
O O19 0.286942 0.750000 0.113305
#
# Coordination Sequence:
#
# PCOD9359925 Si02
#       7
#     8   8   8   8   8   8   8
#     4  11  23  36  54  82 118 162 209 257 308 362
#     4   9  19  37  62  90 120 155 196 246 302 363
#     4  10  20  33  50  77 112 154 203 255 306 361
#     4  10  18  32  54  80 113 153 197 251 306 357
#     4  11  24  42  63  89 125 167 210 258 308 367
#     4  11  23  42  69 100 129 160 200 249 308 370
#     4  10  22  38  60  86 118 160 204 253 308 366
#
# _framework density 19.665317000000002
#
# number of rings (size 3 to 8) (size 9 to 14) (size 15 to 20)
#    0.000    1.714    1.429    3.000    0.000    5.714 
#    0.000    3.571    0.000    1.714    0.000    0.000 
#    0.000    0.000    0.000    0.000    0.000    0.000 
#
# Total GULP energy -156466.754098 kJ/mol
# GULP energy per Si atom -5588.098361 kJ/mol
# Density = 1.962056 g / cm^3
# Si number density = 19.665317 Si / 1000 Ang^3
#
#
#
# Elastic Constant Matrix: (Units=GPa)
#
#
# Indices 1 2 3 4 5 6 
#
# 1 72.8402 35.8613 36.1011 0.0000 0.0000 0.0000
# 2 35.8613 55.4190 46.3585 0.0000 0.0000 0.0000
# 3 36.1011 46.3585 107.7804 0.0000 0.0000 0.0000
# 4 0.0000 0.0000 0.0000 21.8533 0.0000 0.0000
# 5 0.0000 0.0000 0.0000 0.0000 -4.8896 0.0000
# 6 0.0000 0.0000 0.0000 0.0000 0.0000 26.6033
#
#
#
# Elastic Compliance Matrix: (Units=1/GPa)
#
#
# Indices 1 2 3 4 5 6 
#
# 1 0.020369 -0.011673 -0.001802 0.000000 0.000000 0.000000
# 2 -0.011673 0.034876 -0.011091 0.000000 0.000000 0.000000
# 3 -0.001802 -0.011091 0.014652 0.000000 0.000000 0.000000
# 4 0.000000 0.000000 0.000000 0.045760 0.000000 0.000000
# 5 0.000000 0.000000 0.000000 0.000000 -0.204515 0.000000
# 6 0.000000 0.000000 0.000000 0.000000 0.000000 0.037589
#
#
# Mechanical properties :
#
#
# Convention : Reuss Voigt Hill
#
# Bulk Modulus (GPa) = 48.15822 52.52015 50.33918
# Shear Modulus (GPa) = 1045.29602 16.56131 530.92867
#
# Velocity S-wave (km/s) = 23.08023 2.90515 16.44896
# Velocity P-wave (km/s) = 27.10728 6.16588 19.65735
#
# Compressibility (1/GPa) = 0.02076489
#
# Stress axis : x y z
#
# Youngs Moduli (GPa) = 49.09489 28.67337 68.25078
#
# Poissons Ratio (x) = 0.33472 0.12296
# Poissons Ratio (y) = 0.57311 0.75694
# Poissons Ratio (z) = 0.08845 0.31801
#
# Static dielectric constant tensor:
#      x y z
#    x 1.721040 0.000000 0.000000 
#    y 0.000000 1.649480 0.000000 
#    z 0.000000 0.000000 1.664530 
# 
# From -- ./inp_files/14813.got.cif
#   From: 2010.05.17/outbox.cif.g08.bks.cpg/sg39_8_cif.got.tgz:14813.got - 2010.06.03 18:22:40.
