data_PCOD9359588
_publ_section_title
;
Structure prediction by ZEFSAII (Michael W. Deem and Ramdas Pophale) SiO2 
 PCOD9359588
Probable space group: A M M 2
;
_chemical_formula_sum "Si O2"
_cell_formula_units_Z 32
_cell_length_a 15.000000
_cell_length_b 9.000000
_cell_length_c 30.000000
_cell_angle_alpha 90.000000
_cell_angle_beta 90.000000
_cell_angle_gamma 90.000000
_cell_volume 4050.000000
_symmetry_space_group_name_H-M "A M M 2"
_symmetry_group_IT_number 38
_symmetry_cell_setting 'orthorhombic'
loop_
_space_group_symop_operation_xyz
x,y,z
-x,-y,z
-x,y,z
x,-y,z
x,1/2+y,1/2+z
-x,1/2-y,1/2+z
-x,1/2+y,1/2+z
x,1/2-y,1/2+z
loop_
_atom_site_type_symbol
_atom_site_label
_atom_site_fract_x
_atom_site_fract_y
_atom_site_fract_z
Si Si1 0.787615 0.177233 0.933300
Si Si2 0.892109 0.167776 0.765021
Si Si3 0.896462 0.176482 0.355553
Si Si4 0.601063 0.177813 0.071226
Si Si5 0.402568 0.320301 0.465462
Si Si6 0.219880 0.172383 0.600419
Si Si7 0.103911 0.676063 0.674425
Si Si8 0.895862 0.172103 0.510551
O O1 0.832240 0.247465 0.890424
O O2 0.686873 0.233565 0.941792
O O3 0.785302 0.000000 0.929802
O O4 0.850241 0.224160 0.974296
O O5 0.869574 0.270169 0.806583
O O6 0.865221 0.239947 0.718719
O O7 0.000000 0.162511 0.763881
O O8 0.859146 0.000000 0.770556
O O9 0.000000 0.222089 0.363481
O O10 0.892802 0.000000 0.359198
O O11 0.500000 0.213484 0.086094
O O12 0.680579 0.266993 0.093752
O O13 0.614095 0.000000 0.076623
O O14 0.605401 0.209856 0.018223
O O15 0.500000 0.265397 0.450141
O O16 0.403589 0.500000 0.461296
O O17 0.166231 0.272023 0.634910
O O18 0.163858 0.181662 0.554636
O O19 0.220608 0.000000 0.614303
O O20 0.107361 0.500000 0.681244
O O21 0.000000 0.715816 0.665336
O O22 0.000000 0.208143 0.518649
O O23 0.892816 0.000000 0.494780
#
# Coordination Sequence:
#
# PCOD9359588 Si02
#       8
#     8   8   8   8   8   8   8   8
#     4  11  20  30  48  71  93 121 162 204 239 282
#     4   9  17  31  51  73  96 122 158 203 244 281
#     4  10  20  33  48  67  97 133 163 193 235 287
#     4   9  17  32  52  70  92 124 162 205 251 295
#     4   8  15  29  48  68  91 120 155 199 247 289
#     4  11  21  32  48  70  98 130 165 204 244 289
#     4  10  20  33  50  72  99 131 166 201 240 290
#     4  10  21  34  44  59  92 134 166 193 233 282
#
# _framework density 7.9012349999999998
#
# number of rings (size 3 to 8) (size 9 to 14) (size 15 to 20)
#    0.000    2.250    1.250    3.375    0.000    6.000 
#    0.000    0.000    0.000    1.500    0.000    0.875 
#    0.000    5.000    0.000    0.000    0.000    0.000 
#
# Total GULP energy -178369.026458 kJ/mol
# GULP energy per Si atom -5574.032077 kJ/mol
# Density = 0.788325 g / cm^3
# Si number density = 7.901235 Si / 1000 Ang^3
#
#
#
# Elastic Constant Matrix: (Units=GPa)
#
#
# Indices 1 2 3 4 5 6 
#
# 1 92.4096 24.5159 19.7407 0.0000 0.0000 0.0000
# 2 24.5159 29.9812 13.4199 0.0000 0.0000 0.0000
# 3 19.7407 13.4199 36.5657 0.0000 0.0000 0.0000
# 4 0.0000 0.0000 0.0000 25.7587 0.0000 0.0000
# 5 0.0000 0.0000 0.0000 0.0000 1246.2013 0.0000
# 6 0.0000 0.0000 0.0000 0.0000 0.0000 19.6481
#
#
#
# Elastic Compliance Matrix: (Units=1/GPa)
#
#
# Indices 1 2 3 4 5 6 
#
# 1 0.014317 -0.009869 -0.004107 0.000000 0.000000 0.000000
# 2 -0.009869 0.046713 -0.011816 0.000000 0.000000 0.000000
# 3 -0.004107 -0.011816 0.033902 0.000000 0.000000 0.000000
# 4 0.000000 0.000000 0.000000 0.038822 0.000000 0.000000
# 5 0.000000 0.000000 0.000000 0.000000 0.000802 0.000000
# 6 0.000000 0.000000 0.000000 0.000000 0.000000 0.050896
#
#
# Mechanical properties :
#
#
# Convention : Reuss Voigt Hill
#
# Bulk Modulus (GPa) = 23.06937 30.47885 26.77411
# Shear Modulus (GPa) = 19.88186 265.07361 142.47773
#
# Velocity S-wave (km/s) = 3.55089 12.96557 9.50565
# Velocity P-wave (km/s) = 5.60732 15.60355 11.72418
#
# Compressibility (1/GPa) = 0.04334752
#
# Stress axis : x y z
#
# Youngs Moduli (GPa) = 69.84747 21.40734 29.49667
#
# Poissons Ratio (x) = 0.21126 0.12116
# Poissons Ratio (y) = 0.68929 0.34854
# Poissons Ratio (z) = 0.28689 0.25295
#
# Static dielectric constant tensor:
#      x y z
#    x 1.464270 0.000000 0.000000 
#    y 0.000000 1.530300 0.000000 
#    z 0.000000 0.000000 1.522620 
# 
# From -- ./inp_files/25045.got.cif
#   From: 2010.05.17/outbox.ucp.g08.bks.cvg/sg38_13_cif.got.tgz:25045.got - 2010.06.11 10:39:43.
