data_PCOD9359147
_publ_section_title
;
Structure prediction by ZEFSAII (Michael W. Deem and Ramdas Pophale) SiO2 
 PCOD9359147
Probable space group: A M M 2
;
_chemical_formula_sum "Si O2"
_cell_formula_units_Z 56
_cell_length_a 13.374639
_cell_length_b 28.364364
_cell_length_c 7.651573
_cell_angle_alpha 90.000000
_cell_angle_beta 90.000000
_cell_angle_gamma 90.000000
_cell_volume 2902.724675
_symmetry_space_group_name_H-M "A M M 2"
_symmetry_group_IT_number 38
_symmetry_cell_setting 'orthorhombic'
loop_
_space_group_symop_operation_xyz
x,y,z
-x,-y,z
-x,y,z
x,-y,z
x,1/2+y,1/2+z
-x,1/2-y,1/2+z
-x,1/2+y,1/2+z
x,1/2-y,1/2+z
loop_
_atom_site_type_symbol
_atom_site_label
_atom_site_fract_x
_atom_site_fract_y
_atom_site_fract_z
Si Si1 0.214384 0.377831 0.304730
Si Si2 0.200077 0.806497 0.360176
Si Si3 0.382577 0.349981 0.068164
Si Si4 0.799146 0.052909 0.128741
Si Si5 0.388249 0.948815 0.367454
Si Si6 0.111688 0.096157 0.472716
Si Si7 0.118791 0.705960 0.483932
O O1 0.181733 0.409840 0.140185
O O2 0.201648 0.409701 0.474545
O O3 0.131180 0.349485 0.923548
O O4 0.142048 0.333021 0.336371
O O5 0.309676 0.817889 0.444036
O O6 0.155212 0.757060 0.422212
O O7 0.187659 0.806808 0.151076
O O8 0.500000 0.335610 0.080498
O O9 0.380657 0.402347 0.984143
O O10 0.322426 0.356165 0.251018
O O11 0.824890 0.000000 0.071245
O O12 0.689015 0.053647 0.211238
O O13 0.864375 0.067529 0.297350
O O14 0.500000 0.949014 0.296983
O O15 0.371850 0.000000 0.458413
O O16 0.000000 0.086985 0.528078
O O17 0.000000 0.706084 0.526202
#
# Coordination Sequence:
#
# PCOD9359147 Si02
#       7
#     8   8   8   8   8   8   8
#     4  11  23  40  62  95 126 170 219 268 318 390
#     4  11  22  39  62  95 124 166 212 266 326 386
#     4  10  21  40  63  91 129 169 209 262 324 385
#     4  11  23  40  62  91 128 167 211 266 323 386
#     4   9  17  34  61  88 116 156 204 255 313 370
#     4  11  22  40  61  86 125 167 208 264 327 383
#     4  12  23  39  65  95 129 167 219 279 323 377
#
# _framework density 19.292217999999998
#
# number of rings (size 3 to 8) (size 9 to 14) (size 15 to 20)
#    0.000    1.286    4.286    3.429    0.000    2.571 
#    0.000    3.571    0.000    0.000    0.000    0.000 
#    0.000    0.000    0.000    0.000    0.000    0.000 
#
# Total GULP energy -156044.516073 kJ/mol
# GULP energy per Si atom -5573.018431 kJ/mol
# Density = 1.924831 g / cm^3
# Si number density = 19.292218 Si / 1000 Ang^3
#
#
#
# Elastic Constant Matrix: (Units=GPa)
#
#
# Indices 1 2 3 4 5 6 
#
# 1 128.3027 20.4630 12.2859 0.0000 0.0000 0.0000
# 2 20.4630 87.5031 8.7057 0.0000 0.0000 0.0000
# 3 12.2859 8.7057 53.5277 0.0000 0.0000 0.0000
# 4 0.0000 0.0000 0.0000 25.0459 0.0000 0.0000
# 5 0.0000 0.0000 0.0000 0.0000 1.3474 0.0000
# 6 0.0000 0.0000 0.0000 0.0000 0.0000 43.2752
#
#
#
# Elastic Compliance Matrix: (Units=1/GPa)
#
#
# Indices 1 2 3 4 5 6 
#
# 1 0.008229 -0.001765 -0.001602 0.000000 0.000000 0.000000
# 2 -0.001765 0.011995 -0.001546 0.000000 0.000000 0.000000
# 3 -0.001602 -0.001546 0.019301 0.000000 0.000000 0.000000
# 4 0.000000 0.000000 0.000000 0.039927 0.000000 0.000000
# 5 0.000000 0.000000 0.000000 0.000000 0.742194 0.000000
# 6 0.000000 0.000000 0.000000 0.000000 0.000000 0.023108
#
#
# Mechanical properties :
#
#
# Convention : Reuss Voigt Hill
#
# Bulk Modulus (GPa) = 33.67028 39.13808 36.40418
# Shear Modulus (GPa) = 5.78384 29.12559 17.45472
#
# Velocity S-wave (km/s) = 1.73336 3.88971 3.01118
# Velocity P-wave (km/s) = 4.63645 6.36429 5.56780
#
# Compressibility (1/GPa) = 0.02969978
#
# Stress axis : x y z
#
# Youngs Moduli (GPa) = 121.52222 83.37005 51.81093
#
# Poissons Ratio (x) = 0.14715 0.08298
# Poissons Ratio (y) = 0.21449 0.08008
# Poissons Ratio (z) = 0.19464 0.12887
#
# Static dielectric constant tensor:
#      x y z
#    x 1.702820 0.000000 0.000000 
#    y 0.000000 1.700670 0.000000 
#    z 0.000000 0.000000 1.712560 
# 
# From -- ./inp_files/9603.got.cif
#   From: 2010.05.17/outbox.cif.g08.bks.cpg/sg38_5_cif.got.tgz:9603.got - 2010.06.03 18:07:57.
