data_PCOD9359939
_publ_section_title
;
Structure prediction by ZEFSAII (Michael W. Deem and Ramdas Pophale) SiO2 
 PCOD9359939
Probable space group: A B M 2
;
_chemical_formula_sum "Si O2"
_cell_formula_units_Z 64
_cell_length_a 9.185939
_cell_length_b 20.897896
_cell_length_c 17.519137
_cell_angle_alpha 90.000000
_cell_angle_beta 90.000000
_cell_angle_gamma 90.000000
_cell_volume 3363.092632
_symmetry_space_group_name_H-M "A B M 2"
_symmetry_group_IT_number 39
_symmetry_cell_setting 'orthorhombic'
loop_
_space_group_symop_operation_xyz
x,y,z
-x,-y,z
-x,1/2+y,z
x,1/2-y,z
x,1/2+y,1/2+z
-x,1/2-y,1/2+z
-x,y,1/2+z
x,-y,1/2+z
loop_
_atom_site_type_symbol
_atom_site_label
_atom_site_fract_x
_atom_site_fract_y
_atom_site_fract_z
Si Si1 0.155075 0.602282 0.386420
Si Si2 0.622384 0.554445 0.152368
Si Si3 0.844555 0.484542 0.533895
Si Si4 0.565374 0.823929 0.911379
Si Si5 0.697748 0.098958 0.951825
Si Si6 0.876055 0.676956 0.348180
Si Si7 0.409373 0.322835 0.247057
Si Si8 0.674338 0.994231 0.308314
O O1 0.118741 0.555420 0.457086
O O2 0.266638 0.656613 0.414687
O O3 0.248137 0.559372 0.328881
O O4 0.013149 0.630379 0.346704
O O5 0.500000 0.500000 0.137264
O O6 0.731890 0.557210 0.082301
O O7 0.562978 0.622147 0.184594
O O8 0.714319 0.528907 0.224861
O O9 0.761695 0.551391 0.514641
O O10 0.000000 0.500000 0.571134
O O11 0.541374 0.750000 0.933120
O O12 0.465596 0.873876 0.959076
O O13 0.508508 0.830489 0.823301
O O14 0.794984 0.159527 0.927915
O O15 0.706113 0.055625 0.875305
O O16 0.925737 0.750000 0.348757
O O17 0.754990 0.671392 0.281449
O O18 0.428757 0.250000 0.218922
O O19 0.500000 0.000000 0.308152
#
# Coordination Sequence:
#
# PCOD9359939 Si02
#       8
#     8   8   8   8   8   8   8   8
#     4  11  21  34  55  88 118 143 189 244 291 337
#     4  11  22  37  59  86 112 157 204 244 286 351
#     4  11  25  38  53  78 120 157 190 242 296 342
#     4  10  18  32  60  88 112 142 185 236 288 346
#     4  10  18  36  57  80 109 145 186 235 296 336
#     4  10  19  34  58  85 114 147 186 229 288 354
#     4   9  19  39  62  88 119 151 187 242 303 353
#     4  10  18  33  57  84 111 139 180 243 292 334
#
# _framework density 19.030104000000001
#
# number of rings (size 3 to 8) (size 9 to 14) (size 15 to 20)
#    0.000    1.750    5.000    2.250    1.750    1.000 
#    0.000    1.250    0.000    0.000    0.000    0.000 
#    0.000    0.000    0.000    0.000    0.000    0.000 
#
# Total GULP energy -178391.052726 kJ/mol
# GULP energy per Si atom -5574.720398 kJ/mol
# Density = 1.898679 g / cm^3
# Si number density = 19.030104 Si / 1000 Ang^3
#
#
#
# Elastic Constant Matrix: (Units=GPa)
#
#
# Indices 1 2 3 4 5 6 
#
# 1 76.0472 19.7595 2.0472 0.0000 0.0000 0.0000
# 2 19.7595 98.7114 8.7111 0.0000 0.0000 0.0000
# 3 2.0472 8.7111 23.0283 0.0000 0.0000 0.0000
# 4 0.0000 0.0000 0.0000 14.4991 0.0000 0.0000
# 5 0.0000 0.0000 0.0000 0.0000 12.5318 0.0000
# 6 0.0000 0.0000 0.0000 0.0000 0.0000 36.3004
#
#
#
# Elastic Compliance Matrix: (Units=1/GPa)
#
#
# Indices 1 2 3 4 5 6 
#
# 1 0.013872 -0.002760 -0.000189 0.000000 0.000000 0.000000
# 2 -0.002760 0.011030 -0.003927 0.000000 0.000000 0.000000
# 3 -0.000189 -0.003927 0.044927 0.000000 0.000000 0.000000
# 4 0.000000 0.000000 0.000000 0.068970 0.000000 0.000000
# 5 0.000000 0.000000 0.000000 0.000000 0.079797 0.000000
# 6 0.000000 0.000000 0.000000 0.000000 0.000000 0.027548
#
#
# Mechanical properties :
#
#
# Convention : Reuss Voigt Hill
#
# Bulk Modulus (GPa) = 17.83281 28.75806 23.29543
# Shear Modulus (GPa) = 17.94768 23.81755 20.88261
#
# Velocity S-wave (km/s) = 3.07436 3.54159 3.31622
# Velocity P-wave (km/s) = 4.68971 5.64522 5.18951
#
# Compressibility (1/GPa) = 0.05607642
#
# Stress axis : x y z
#
# Youngs Moduli (GPa) = 72.08775 90.66524 22.25829
#
# Poissons Ratio (x) = 0.25025 0.00421
# Poissons Ratio (y) = 0.19897 0.08741
# Poissons Ratio (z) = 0.01363 0.35603
#
# Static dielectric constant tensor:
#      x y z
#    x 1.691200 0.000000 0.000000 
#    y 0.000000 1.718400 0.000000 
#    z 0.000000 0.000000 1.657070 
# 
# From -- ./inp_files/11933.got.cif
#   From: 2010.05.17/outbox.cif.g08.bks.cpg/sg39_6_cif.got.tgz:11933.got - 2010.06.03 18:22:40.
