data_PCOD9359875
_publ_section_title
;
Structure prediction by ZEFSAII (Michael W. Deem and Ramdas Pophale) SiO2 
 PCOD9359875
Probable space group: A B M 2
;
_chemical_formula_sum "Si O2"
_cell_formula_units_Z 64
_cell_length_a 10.822091
_cell_length_b 28.505241
_cell_length_c 10.227823
_cell_angle_alpha 90.000000
_cell_angle_beta 90.000000
_cell_angle_gamma 90.000000
_cell_volume 3155.143398
_symmetry_space_group_name_H-M "A B M 2"
_symmetry_group_IT_number 39
_symmetry_cell_setting 'orthorhombic'
loop_
_space_group_symop_operation_xyz
x,y,z
-x,-y,z
-x,1/2+y,z
x,1/2-y,z
x,1/2+y,1/2+z
-x,1/2-y,1/2+z
-x,y,1/2+z
x,-y,1/2+z
loop_
_atom_site_type_symbol
_atom_site_label
_atom_site_fract_x
_atom_site_fract_y
_atom_site_fract_z
Si Si1 0.735232 0.943173 0.575640
Si Si2 0.078080 0.390676 0.078086
Si Si3 0.078740 0.195586 0.903967
Si Si4 0.219255 0.696335 0.892791
Si Si5 0.273490 0.103199 0.290418
Si Si6 0.371964 0.989701 0.751080
Si Si7 0.812427 0.354270 0.155379
Si Si8 0.870214 0.984656 0.923432
O O1 0.723718 0.916089 0.438278
O O2 0.731966 0.900521 0.679803
O O3 0.631253 0.978983 0.621342
O O4 0.847795 0.979504 0.545596
O O5 0.143576 0.401587 0.215077
O O6 0.933670 0.381892 0.100785
O O7 0.116285 0.340214 0.018449
O O8 0.113059 0.432076 0.977815
O O9 0.103223 0.250000 0.933856
O O10 0.147994 0.176956 0.776341
O O11 0.930546 0.191734 0.876349
O O12 0.252846 0.750000 0.871285
O O13 0.290058 0.658793 0.802973
O O14 0.237720 0.679653 0.042401
O O15 0.359966 0.065505 0.220190
O O16 0.500000 0.000000 0.821981
O O17 0.248907 0.006527 0.831042
O O18 0.000000 0.000000 0.859858
#
# Coordination Sequence:
#
# PCOD9359875 Si02
#       8
#     8   8   8   8   8   8   8   8
#     4  10  21  35  56  83 115 157 205 251 305 372
#     4  11  20  34  54  83 121 161 205 254 307 372
#     4  10  20  30  48  79 122 165 198 246 314 375
#     4   9  18  31  50  80 115 157 203 251 302 366
#     4  10  21  37  56  81 112 161 203 253 306 375
#     4  11  25  42  62  88 127 165 211 262 317 388
#     4  10  18  31  53  79 122 159 205 247 308 369
#     4  11  22  37  61  90 124 164 206 259 313 372
#
# _framework density 20.284338999999999
#
# number of rings (size 3 to 8) (size 9 to 14) (size 15 to 20)
#    0.000    1.750    3.750    1.125    1.750    5.500 
#    0.000    0.000    0.000    0.000    0.000    7.000 
#    0.000    0.000    0.000    0.000    0.000    0.000 
#
# Total GULP energy -178170.256018 kJ/mol
# GULP energy per Si atom -5567.820501 kJ/mol
# Density = 2.023817 g / cm^3
# Si number density = 20.284339 Si / 1000 Ang^3
#
#
#
# Elastic Constant Matrix: (Units=GPa)
#
#
# Indices 1 2 3 4 5 6 
#
# 1 61.8032 28.6585 11.4141 0.0000 0.0000 0.0000
# 2 28.6585 191.9889 30.8886 0.0000 0.0000 0.0000
# 3 11.4141 30.8886 47.6412 0.0000 0.0000 0.0000
# 4 0.0000 0.0000 0.0000 32.9220 0.0000 0.0000
# 5 0.0000 0.0000 0.0000 0.0000 12.5562 0.0000
# 6 0.0000 0.0000 0.0000 0.0000 0.0000 9.3561
#
#
#
# Elastic Compliance Matrix: (Units=1/GPa)
#
#
# Indices 1 2 3 4 5 6 
#
# 1 0.017718 -0.002190 -0.002825 0.000000 0.000000 0.000000
# 2 -0.002190 0.006086 -0.003421 0.000000 0.000000 0.000000
# 3 -0.002825 -0.003421 0.023885 0.000000 0.000000 0.000000
# 4 0.000000 0.000000 0.000000 0.030375 0.000000 0.000000
# 5 0.000000 0.000000 0.000000 0.000000 0.079642 0.000000
# 6 0.000000 0.000000 0.000000 0.000000 0.000000 0.106882
#
#
# Mechanical properties :
#
#
# Convention : Reuss Voigt Hill
#
# Bulk Modulus (GPa) = 32.45028 49.26175 40.85602
# Shear Modulus (GPa) = 17.13900 26.33167 21.73534
#
# Velocity S-wave (km/s) = 2.90993 3.60686 3.27698
# Velocity P-wave (km/s) = 5.22711 6.45634 5.87397
#
# Compressibility (1/GPa) = 0.03081637
#
# Stress axis : x y z
#
# Youngs Moduli (GPa) = 56.44062 164.31153 41.86705
#
# Poissons Ratio (x) = 0.35989 0.11827
# Poissons Ratio (y) = 0.12362 0.14323
# Poissons Ratio (z) = 0.15943 0.56213
#
# Static dielectric constant tensor:
#      x y z
#    x 1.772310 0.000000 0.000000 
#    y 0.000000 1.773720 0.000000 
#    z 0.000000 0.000000 1.818630 
# 
# From -- ./inp_files/6125.got.cif
#   From: 2010.05.17/outbox.cif.g08.bks.cpg/sg39_4_cif.got.tgz:6125.got - 2010.06.03 18:22:40.
