data_PCOD9359835
_publ_section_title
;
Structure prediction by ZEFSAII (Michael W. Deem and Ramdas Pophale) SiO2 
 PCOD9359835
Probable space group: A B M 2
;
_chemical_formula_sum "Si O2"
_cell_formula_units_Z 48
_cell_length_a 16.800169
_cell_length_b 8.995233
_cell_length_c 18.723620
_cell_angle_alpha 90.000000
_cell_angle_beta 90.000000
_cell_angle_gamma 90.000000
_cell_volume 2829.540315
_symmetry_space_group_name_H-M "A B M 2"
_symmetry_group_IT_number 39
_symmetry_cell_setting 'orthorhombic'
loop_
_space_group_symop_operation_xyz
x,y,z
-x,-y,z
-x,1/2+y,z
x,1/2-y,z
x,1/2+y,1/2+z
-x,1/2-y,1/2+z
-x,y,1/2+z
x,-y,1/2+z
loop_
_atom_site_type_symbol
_atom_site_label
_atom_site_fract_x
_atom_site_fract_y
_atom_site_fract_z
Si Si1 0.830959 0.426239 0.136700
Si Si2 0.684169 0.573354 0.216183
Si Si3 0.080939 0.926859 0.762065
Si Si4 0.582704 0.574017 0.086597
Si Si5 0.237866 0.074814 0.357970
Si Si6 0.252444 0.427660 0.009797
O O1 0.841106 0.250000 0.133277
O O2 0.751054 0.472166 0.179679
O O3 0.898599 0.501507 0.185130
O O4 0.814696 0.495645 0.059034
O O5 0.705352 0.750000 0.205353
O O6 0.605469 0.546384 0.169981
O O7 0.691419 0.547518 0.300436
O O8 0.072747 0.750000 0.754860
O O9 0.155787 0.954566 0.814767
O O10 0.000000 0.000000 0.789562
O O11 0.500000 0.500000 0.066835
O O12 0.574722 0.750000 0.077354
O O13 0.660447 0.527416 0.041034
O O14 0.238867 0.250000 0.376572
O O15 0.244938 0.978667 0.428578
O O16 0.246090 0.250000 0.017131
#
# Coordination Sequence:
#
# PCOD9359835 Si02
#       6
#     8   8   8   8   8   8
#     4  10  18  30  51  75  97 127 168 204 241 294
#     4   8  16  32  50  70  98 128 161 203 248 294
#     4  10  20  35  54  77 105 133 165 208 254 298
#     4   9  18  32  50  72  98 130 167 211 258 301
#     4   9  18  33  53  75 101 133 167 205 250 301
#     4  10  20  34  51  73 103 135 170 211 253 300
#
# _framework density 16.963885999999999
#
# number of rings (size 3 to 8) (size 9 to 14) (size 15 to 20)
#    0.000    2.667    0.000    4.500    0.000    6.667 
#    0.000    1.667    0.000    6.000    0.000    0.000 
#    0.000    0.000    0.000    0.000    0.000    0.000 
#
# Total GULP energy -133658.611842 kJ/mol
# GULP energy per Si atom -5569.108827 kJ/mol
# Density = 1.692528 g / cm^3
# Si number density = 16.963886 Si / 1000 Ang^3
#
#
#
# Elastic Constant Matrix: (Units=GPa)
#
#
# Indices 1 2 3 4 5 6 
#
# 1 63.2062 30.5672 24.0009 0.0000 0.0000 0.0000
# 2 30.5672 66.5912 51.1135 0.0000 0.0000 0.0000
# 3 24.0009 51.1135 109.1081 0.0000 0.0000 0.0000
# 4 0.0000 0.0000 0.0000 32.1896 0.0000 0.0000
# 5 0.0000 0.0000 0.0000 0.0000 12.3009 0.0000
# 6 0.0000 0.0000 0.0000 0.0000 0.0000 26.6219
#
#
#
# Elastic Compliance Matrix: (Units=1/GPa)
#
#
# Indices 1 2 3 4 5 6 
#
# 1 0.020337 -0.009215 -0.000157 0.000000 0.000000 0.000000
# 2 -0.009215 0.027624 -0.010914 0.000000 0.000000 0.000000
# 3 -0.000157 -0.010914 0.014313 0.000000 0.000000 0.000000
# 4 0.000000 0.000000 0.000000 0.031066 0.000000 0.000000
# 5 0.000000 0.000000 0.000000 0.000000 0.081295 0.000000
# 6 0.000000 0.000000 0.000000 0.000000 0.000000 0.037563
#
#
# Mechanical properties :
#
#
# Convention : Reuss Voigt Hill
#
# Bulk Modulus (GPa) = 46.07762 50.02989 48.05375
# Shear Modulus (GPa) = 19.23053 23.10409 21.16731
#
# Velocity S-wave (km/s) = 3.37057 3.69447 3.53623
# Velocity P-wave (km/s) = 6.50914 6.91049 6.71281
#
# Compressibility (1/GPa) = 0.02170251
#
# Stress axis : x y z
#
# Youngs Moduli (GPa) = 49.17081 36.20012 69.86894
#
# Poissons Ratio (x) = 0.33359 0.01095
# Poissons Ratio (y) = 0.45311 0.76255
# Poissons Ratio (z) = 0.00771 0.39509
#
# Static dielectric constant tensor:
#      x y z
#    x 1.593710 0.000000 0.000000 
#    y 0.000000 1.564040 0.000000 
#    z 0.000000 0.000000 1.589600 
# 
# From -- ./inp_files/12662.got.cif
#   From: 2010.05.17/outbox.cif.g08.bks.cpg/sg39_7_cif.got.tgz:12662.got - 2010.06.03 18:22:40.
