data_PCOD9359458
_publ_section_title
;
Structure prediction by ZEFSAII (Michael W. Deem and Ramdas Pophale) SiO2 
 PCOD9359458
Probable space group: A M M 2
;
_chemical_formula_sum "Si O2"
_cell_formula_units_Z 56
_cell_length_a 14.254149
_cell_length_b 7.438180
_cell_length_c 22.402325
_cell_angle_alpha 90.000000
_cell_angle_beta 90.000000
_cell_angle_gamma 90.000000
_cell_volume 2375.204851
_symmetry_space_group_name_H-M "A M M 2"
_symmetry_group_IT_number 38
_symmetry_cell_setting 'orthorhombic'
loop_
_space_group_symop_operation_xyz
x,y,z
-x,-y,z
-x,y,z
x,-y,z
x,1/2+y,1/2+z
-x,1/2-y,1/2+z
-x,1/2+y,1/2+z
x,1/2-y,1/2+z
loop_
_atom_site_type_symbol
_atom_site_label
_atom_site_fract_x
_atom_site_fract_y
_atom_site_fract_z
Si Si1 0.892878 0.718529 0.959750
Si Si2 0.612286 0.285711 0.758806
Si Si3 0.106283 0.280453 0.696985
Si Si4 0.292174 0.279423 0.637991
Si Si5 0.701349 0.294975 0.509747
Si Si6 0.605535 0.288383 0.886584
Si Si7 0.114239 0.204919 0.327965
O O1 0.891398 0.500000 0.958176
O O2 0.814007 0.783345 0.004640
O O3 0.865171 0.783967 0.892824
O O4 0.000000 0.772872 0.972494
O O5 0.500000 0.261206 0.759637
O O6 0.632056 0.500000 0.756036
O O7 0.653209 0.215778 0.696749
O O8 0.647001 0.216899 0.823720
O O9 0.104607 0.500000 0.700187
O O10 0.183977 0.229104 0.649471
O O11 0.137982 0.217912 0.763297
O O12 0.000000 0.221621 0.685053
O O13 0.296269 0.500000 0.636061
O O14 0.326735 0.214315 0.573535
O O15 0.670305 0.500000 0.510304
O O16 0.661973 0.223363 0.447655
O O17 0.500000 0.215181 0.895243
O O18 0.596313 0.500000 0.875265
O O19 0.000000 0.195691 0.326893
O O20 0.151274 0.000000 0.328977
#
# Coordination Sequence:
#
# PCOD9359458 Si02
#       7
#     8   8   8   8   8   8   8
#     4   9  18  33  53  76 103 141 189 232 265 303
#     4   8  15  30  53  78  99 123 166 224 272 305
#     4   8  13  22  38  63  95 127 162 209 259 299
#     4   9  18  29  43  70 106 140 170 206 261 316
#     4  11  23  34  48  79 119 151 174 206 265 334
#     4   9  19  37  61  84 103 131 177 229 273 315
#     4   7  11  21  40  68  93 114 156 218 268 293
#
# _framework density 23.576913999999999
#
# number of rings (size 3 to 8) (size 9 to 14) (size 15 to 20)
#    0.000    3.286    0.000    3.000    2.000    1.714 
#    0.000    2.857    0.000    1.714    0.000    0.000 
#    0.000    0.000    0.000    0.000    0.000    0.000 
#
# Total GULP energy -156172.143003 kJ/mol
# GULP energy per Si atom -5577.576536 kJ/mol
# Density = 2.352325 g / cm^3
# Si number density = 23.576914 Si / 1000 Ang^3
#
#
#
# Elastic Constant Matrix: (Units=GPa)
#
#
# Indices 1 2 3 4 5 6 
#
# 1 51.6362 -3.7903 58.9010 0.0000 0.0000 0.0000
# 2 -3.7903 68.6392 6.3628 0.0000 0.0000 0.0000
# 3 58.9010 6.3628 207.2055 0.0000 0.0000 0.0000
# 4 0.0000 0.0000 0.0000 2.9256 0.0000 0.0000
# 5 0.0000 0.0000 0.0000 0.0000 18.3611 0.0000
# 6 0.0000 0.0000 0.0000 0.0000 0.0000 -740.5571
#
#
#
# Elastic Compliance Matrix: (Units=1/GPa)
#
#
# Indices 1 2 3 4 5 6 
#
# 1 0.029040 0.002376 -0.008328 0.000000 0.000000 0.000000
# 2 0.002376 0.014805 -0.001130 0.000000 0.000000 0.000000
# 3 -0.008328 -0.001130 0.007228 0.000000 0.000000 0.000000
# 4 0.000000 0.000000 0.000000 0.341810 0.000000 0.000000
# 5 0.000000 0.000000 0.000000 0.000000 0.054463 0.000000
# 6 0.000000 0.000000 0.000000 0.000000 0.000000 -0.001350
#
#
# Mechanical properties :
#
#
# Convention : Reuss Voigt Hill
#
# Bulk Modulus (GPa) = 27.09391 50.04755 38.57073
# Shear Modulus (GPa) = 10.58282 -126.12025 -57.76872
#
# Velocity S-wave (km/s) = 2.12094 -7.32183 -4.95534
# Velocity P-wave (km/s) = 4.18503 7.08559 4.04296
#
# Compressibility (1/GPa) = 0.03690866
#
# Stress axis : x y z
#
# Youngs Moduli (GPa) = 34.43482 67.54543 138.34717
#
# Poissons Ratio (x) = -0.16046 1.15217
# Poissons Ratio (y) = -0.08180 0.15632
# Poissons Ratio (z) = 0.28678 0.07632
#
# Static dielectric constant tensor:
#      x y z
#    x 1.884260 0.000000 0.000000 
#    y 0.000000 1.950260 0.000000 
#    z 0.000000 0.000000 1.921050 
# 
# From -- ./inp_files/21085.got.cif
#   From: 2010.05.17/outbox.cif.g08.bks.cpg/sg38_11_cif.got.tgz:21085.got - 2010.06.03 18:07:57.
