data_PCOD9359754
_publ_section_title
;
Structure prediction by ZEFSAII (Michael W. Deem and Ramdas Pophale) SiO2 
 PCOD9359754
Probable space group: A B M 2
;
_chemical_formula_sum "Si O2"
_cell_formula_units_Z 56
_cell_length_a 17.169276
_cell_length_b 17.608594
_cell_length_c 8.919582
_cell_angle_alpha 90.000000
_cell_angle_beta 90.000000
_cell_angle_gamma 90.000000
_cell_volume 2696.628776
_symmetry_space_group_name_H-M "A B M 2"
_symmetry_group_IT_number 39
_symmetry_cell_setting 'orthorhombic'
loop_
_space_group_symop_operation_xyz
x,y,z
-x,-y,z
-x,1/2+y,z
x,1/2-y,z
x,1/2+y,1/2+z
-x,1/2-y,1/2+z
-x,y,1/2+z
x,-y,1/2+z
loop_
_atom_site_type_symbol
_atom_site_label
_atom_site_fract_x
_atom_site_fract_y
_atom_site_fract_z
Si Si1 0.228386 0.436943 0.165750
Si Si2 0.932938 0.659722 0.664110
Si Si3 0.504821 0.622838 0.819730
Si Si4 0.906967 0.342569 0.507869
Si Si5 0.388199 0.139734 0.563929
Si Si6 0.600864 0.043683 0.576913
Si Si7 0.219105 0.899387 0.017870
O O1 0.314711 0.420697 0.103824
O O2 0.216616 0.524953 0.120692
O O3 0.225738 0.424356 0.344349
O O4 0.165550 0.383928 0.084906
O O5 0.940549 0.750000 0.674880
O O6 0.915470 0.633597 0.833699
O O7 0.861512 0.641638 0.554480
O O8 0.014702 0.632887 0.595563
O O9 0.565033 0.665367 0.710782
O O10 0.452520 0.570520 0.712995
O O11 0.440924 0.664167 0.923231
O O12 0.559775 0.575387 0.930073
O O13 0.899334 0.250000 0.515079
O O14 0.295721 0.151475 0.554514
O O15 0.392222 0.046908 0.566418
#
# Coordination Sequence:
#
# PCOD9359754 Si02
#       7
#     8   8   8   8   8   8   8
#     4  11  23  36  55  87 125 156 190 238 291 342
#     4  10  22  42  67  90 113 146 190 235 282 345
#     4  10  17  28  44  70 107 152 195 234 281 330
#     4  10  22  42  67  90 113 146 190 235 282 345
#     4  10  18  27  45  72 110 152 191 235 279 335
#     4  10  18  27  45  72 110 152 191 235 279 335
#     4  11  23  36  55  87 125 156 190 238 291 342
#
# _framework density 20.766670999999999
#
# number of rings (size 3 to 8) (size 9 to 14) (size 15 to 20)
#    0.000    1.714    1.429    5.143    8.000    2.286 
#    0.000    2.857    0.000    0.000    0.000    6.000 
#    0.000    0.000    0.000    0.000    0.000    0.000 
#
# Total GULP energy -156382.181579 kJ/mol
# GULP energy per Si atom -5585.077914 kJ/mol
# Density = 2.071940 g / cm^3
# Si number density = 20.766671 Si / 1000 Ang^3
#
#
#
# Elastic Constant Matrix: (Units=GPa)
#
#
# Indices 1 2 3 4 5 6 
#
# 1 199.0810 30.7883 66.9755 0.0000 0.0000 0.0000
# 2 30.7883 44.1576 24.6131 0.0000 0.0000 0.0000
# 3 66.9755 24.6131 130.5271 0.0000 0.0000 0.0000
# 4 0.0000 0.0000 0.0000 -2.8923 0.0000 0.0000
# 5 0.0000 0.0000 0.0000 0.0000 31.0605 0.0000
# 6 0.0000 0.0000 0.0000 0.0000 0.0000 80.6227
#
#
#
# Elastic Compliance Matrix: (Units=1/GPa)
#
#
# Indices 1 2 3 4 5 6 
#
# 1 0.006395 -0.002939 -0.002727 0.000000 0.000000 0.000000
# 2 -0.002939 0.026656 -0.003519 0.000000 0.000000 0.000000
# 3 -0.002727 -0.003519 0.009724 0.000000 0.000000 0.000000
# 4 0.000000 0.000000 0.000000 -0.345741 0.000000 0.000000
# 5 0.000000 0.000000 0.000000 0.000000 0.032195 0.000000
# 6 0.000000 0.000000 0.000000 0.000000 0.000000 0.012403
#
#
# Mechanical properties :
#
#
# Convention : Reuss Voigt Hill
#
# Bulk Modulus (GPa) = 40.97286 68.72439 54.84863
# Shear Modulus (GPa) = -21.56453 38.51741 8.47644
#
# Velocity S-wave (km/s) = -3.22595 4.31138 2.02253
# Velocity P-wave (km/s) = 2.42843 7.61245 5.65007
#
# Compressibility (1/GPa) = 0.02440640
#
# Stress axis : x y z
#
# Youngs Moduli (GPa) = 156.37024 37.51446 102.83680
#
# Poissons Ratio (x) = 0.11024 0.28046
# Poissons Ratio (y) = 0.45953 0.36184
# Poissons Ratio (z) = 0.42646 0.13200
#
# Static dielectric constant tensor:
#      x y z
#    x 1.750650 0.000000 0.000000 
#    y 0.000000 1.754880 0.000000 
#    z 0.000000 0.000000 1.757740 
# 
# From -- ./inp_files/3401.got.cif
#   From: 2010.05.17/outbox.cif.g08.bks.cpg/sg39_2_cif.got.tgz:3401.got - 2010.06.03 18:22:40.
