data_PCOD9359383
_publ_section_title
;
Structure prediction by ZEFSAII (Michael W. Deem and Ramdas Pophale) SiO2 
 PCOD9359383
Probable space group: A M M 2
;
_chemical_formula_sum "Si O2"
_cell_formula_units_Z 64
_cell_length_a 8.684484
_cell_length_b 20.187211
_cell_length_c 21.203149
_cell_angle_alpha 90.000000
_cell_angle_beta 90.000000
_cell_angle_gamma 90.000000
_cell_volume 3717.240900
_symmetry_space_group_name_H-M "A M M 2"
_symmetry_group_IT_number 38
_symmetry_cell_setting 'orthorhombic'
loop_
_space_group_symop_operation_xyz
x,y,z
-x,-y,z
-x,y,z
x,-y,z
x,1/2+y,1/2+z
-x,1/2-y,1/2+z
-x,1/2+y,1/2+z
x,1/2-y,1/2+z
loop_
_atom_site_type_symbol
_atom_site_label
_atom_site_fract_x
_atom_site_fract_y
_atom_site_fract_z
Si Si1 0.185211 0.075078 0.608930
Si Si2 0.314695 0.574735 0.491011
Si Si3 0.182455 0.789559 0.943715
Si Si4 0.312141 0.787547 0.186690
Si Si5 0.313100 0.072853 0.139982
Si Si6 0.315751 0.708343 0.060849
Si Si7 0.315877 0.708035 0.310154
Si Si8 0.814718 0.075069 0.757615
O O1 0.262011 0.132899 0.568995
O O2 0.223931 0.083716 0.683271
O O3 0.000000 0.079941 0.604034
O O4 0.229887 0.000000 0.591164
O O5 0.500000 0.580740 0.484964
O O6 0.271130 0.500000 0.471200
O O7 0.235951 0.634751 0.455305
O O8 0.277806 0.581253 0.565674
O O9 0.246506 0.768409 0.875924
O O10 0.000000 0.786205 0.944316
O O11 0.248765 0.745080 0.000170
O O12 0.500000 0.787496 0.187068
O O13 0.259274 0.863241 0.178198
O O14 0.264781 0.746818 0.124512
O O15 0.261741 0.751586 0.250423
O O16 0.500000 0.072095 0.143606
O O17 0.257902 0.000000 0.160165
O O18 0.500000 0.711837 0.057962
O O19 0.500000 0.710956 0.313281
O O20 0.264606 0.632748 0.296573
O O21 0.000000 0.080455 0.763362
O O22 0.770763 0.000000 0.775778
#
# Coordination Sequence:
#
# PCOD9359383 Si02
#       8
#     8   8   8   8   8   8   8   8
#     4   9  18  33  54  82 115 146 177 217 270 330
#     4   9  17  32  55  80 107 141 178 217 264 319
#     4  12  25  38  52  75 108 149 187 225 275 328
#     4   9  17  30  52  81 107 132 171 221 272 314
#     4   8  13  25  50  81 108 131 160 205 262 317
#     4  11  20  35  58  83 109 138 181 235 274 318
#     4  11  22  36  53  76 106 143 182 226 272 320
#     4   9  18  33  52  76 109 145 179 217 262 320
#
# _framework density 17.21707
#
# number of rings (size 3 to 8) (size 9 to 14) (size 15 to 20)
#    0.000    2.250    2.500    3.375    0.000    1.250 
#    0.000    1.250    0.000    0.750    0.000    1.750 
#    0.000    0.000    0.000    0.000    0.000    0.000 
#
# Total GULP energy -178551.090669 kJ/mol
# GULP energy per Si atom -5579.721583 kJ/mol
# Density = 1.717788 g / cm^3
# Si number density = 17.217070 Si / 1000 Ang^3
#
#
#
# Elastic Constant Matrix: (Units=GPa)
#
#
# Indices 1 2 3 4 5 6 
#
# 1 38.9818 31.8064 37.2652 0.0000 0.0000 0.0000
# 2 31.8064 120.9853 72.6284 0.0000 0.0000 0.0000
# 3 37.2652 72.6284 121.5791 0.0000 0.0000 0.0000
# 4 0.0000 0.0000 0.0000 19.5008 0.0000 0.0000
# 5 0.0000 0.0000 0.0000 0.0000 18.2453 0.0000
# 6 0.0000 0.0000 0.0000 0.0000 0.0000 15.6974
#
#
#
# Elastic Compliance Matrix: (Units=1/GPa)
#
#
# Indices 1 2 3 4 5 6 
#
# 1 0.037900 -0.004662 -0.008832 0.000000 0.000000 0.000000
# 2 -0.004662 0.013460 -0.006612 0.000000 0.000000 0.000000
# 3 -0.008832 -0.006612 0.014882 0.000000 0.000000 0.000000
# 4 0.000000 0.000000 0.000000 0.051280 0.000000 0.000000
# 5 0.000000 0.000000 0.000000 0.000000 0.054809 0.000000
# 6 0.000000 0.000000 0.000000 0.000000 0.000000 0.063705
#
#
# Mechanical properties :
#
#
# Convention : Reuss Voigt Hill
#
# Bulk Modulus (GPa) = 38.41613 62.77180 50.59397
# Shear Modulus (GPa) = 17.54859 20.01176 18.78018
#
# Velocity S-wave (km/s) = 3.19604 3.41298 3.30629
# Velocity P-wave (km/s) = 5.99840 7.21592 6.63514
#
# Compressibility (1/GPa) = 0.02603073
#
# Stress axis : x y z
#
# Youngs Moduli (GPa) = 26.38554 74.29294 67.19574
#
# Poissons Ratio (x) = 0.34634 0.59345
# Poissons Ratio (y) = 0.12301 0.44429
# Poissons Ratio (z) = 0.23303 0.49122
#
# Static dielectric constant tensor:
#      x y z
#    x 1.576460 0.000000 0.000000 
#    y 0.000000 1.594420 0.000000 
#    z 0.000000 0.000000 1.571810 
# 
# From -- ./inp_files/20260.got.cif
#   From: 2010.05.17/outbox.cif.g08.bks.cpg/sg38_11_cif.got.tgz:20260.got - 2010.06.03 18:07:57.
