data_PCOD9359780
_publ_section_title
;
Structure prediction by ZEFSAII (Michael W. Deem and Ramdas Pophale) SiO2 
 PCOD9359780
Probable space group: A B M 2
;
_chemical_formula_sum "Si O2"
_cell_formula_units_Z 64
_cell_length_a 5.556610
_cell_length_b 33.135705
_cell_length_c 18.022731
_cell_angle_alpha 90.000000
_cell_angle_beta 90.000000
_cell_angle_gamma 90.000000
_cell_volume 3318.384697
_symmetry_space_group_name_H-M "A B M 2"
_symmetry_group_IT_number 39
_symmetry_cell_setting 'orthorhombic'
loop_
_space_group_symop_operation_xyz
x,y,z
-x,-y,z
-x,1/2+y,z
x,1/2-y,z
x,1/2+y,1/2+z
-x,1/2-y,1/2+z
-x,y,1/2+z
x,-y,1/2+z
loop_
_atom_site_type_symbol
_atom_site_label
_atom_site_fract_x
_atom_site_fract_y
_atom_site_fract_z
Si Si1 0.244117 0.795011 0.974290
Si Si2 0.134351 0.163581 0.061982
Si Si3 0.255519 0.120926 0.661739
Si Si4 0.530381 0.591092 0.029710
Si Si5 0.518814 0.795201 0.639576
Si Si6 0.681912 0.874406 0.391784
Si Si7 0.818303 0.404271 0.323607
Si Si8 0.247077 0.975748 0.434536
O O1 0.254000 0.750000 0.945241
O O2 0.334603 0.828297 0.917833
O O3 0.372588 0.795645 0.055393
O O4 0.979743 0.809884 0.997556
O O5 0.242631 0.193946 0.123007
O O6 0.951815 0.134707 0.105398
O O7 0.322033 0.132774 0.026964
O O8 0.426727 0.092264 0.612381
O O9 0.378168 0.164814 0.679411
O O10 0.171805 0.098811 0.735120
O O11 0.329141 0.597648 0.966138
O O12 0.692442 0.554244 0.003169
O O13 0.555582 0.750000 0.669781
O O14 0.439635 0.884978 0.347002
O O15 0.937608 0.883133 0.353393
O O16 0.804460 0.447940 0.362531
O O17 0.500000 0.000000 0.423758
O O18 0.000000 0.000000 0.448532
#
# Coordination Sequence:
#
# PCOD9359780 Si02
#       8
#     8   8   8   8   8   8   8   8
#     4  10  18  30  53  88 122 158 213 273 315 350
#     4  10  17  33  61  90 122 161 214 265 313 368
#     4  10  22  38  63  93 123 173 216 261 316 379
#     4  10  21  38  68  92 124 156 220 269 302 387
#     4   9  18  32  55  89 124 161 216 272 314 355
#     4  11  21  40  61  92 121 170 215 255 311 374
#     4  11  26  42  67  88 132 170 208 253 317 407
#     4  11  24  43  69  97 126 162 206 259 330 386
#
# _framework density 19.286491999999999
#
# number of rings (size 3 to 8) (size 9 to 14) (size 15 to 20)
#    0.000    1.750    3.750    3.375    5.250    0.500 
#    0.000    1.875    0.000    0.000    0.000    0.000 
#    0.000    0.000    0.000    0.000    0.000    0.000 
#
# Total GULP energy -178247.108271 kJ/mol
# GULP energy per Si atom -5570.222133 kJ/mol
# Density = 1.924259 g / cm^3
# Si number density = 19.286492 Si / 1000 Ang^3
#
#
#
# Elastic Constant Matrix: (Units=GPa)
#
#
# Indices 1 2 3 4 5 6 
#
# 1 95.4491 42.7330 30.2181 0.0000 0.0000 0.0000
# 2 42.7330 113.1850 45.8797 0.0000 0.0000 0.0000
# 3 30.2181 45.8797 63.7269 0.0000 0.0000 0.0000
# 4 0.0000 0.0000 0.0000 19.5689 0.0000 0.0000
# 5 0.0000 0.0000 0.0000 0.0000 14.7586 0.0000
# 6 0.0000 0.0000 0.0000 0.0000 0.0000 14.4989
#
#
#
# Elastic Compliance Matrix: (Units=1/GPa)
#
#
# Indices 1 2 3 4 5 6 
#
# 1 0.013222 -0.003460 -0.003778 0.000000 0.000000 0.000000
# 2 -0.003460 0.013382 -0.007993 0.000000 0.000000 0.000000
# 3 -0.003778 -0.007993 0.023238 0.000000 0.000000 0.000000
# 4 0.000000 0.000000 0.000000 0.051102 0.000000 0.000000
# 5 0.000000 0.000000 0.000000 0.000000 0.067757 0.000000
# 6 0.000000 0.000000 0.000000 0.000000 0.000000 0.068971
#
#
# Mechanical properties :
#
#
# Convention : Reuss Voigt Hill
#
# Bulk Modulus (GPa) = 51.60465 56.66917 54.13691
# Shear Modulus (GPa) = 18.20864 20.00061 19.10462
#
# Velocity S-wave (km/s) = 3.07598 3.22378 3.15075
# Velocity P-wave (km/s) = 6.27937 6.58055 6.43172
#
# Compressibility (1/GPa) = 0.01937810
#
# Stress axis : x y z
#
# Youngs Moduli (GPa) = 75.63006 74.72939 43.03258
#
# Poissons Ratio (x) = 0.25860 0.16259
# Poissons Ratio (y) = 0.26172 0.34396
# Poissons Ratio (z) = 0.28576 0.59732
#
# Static dielectric constant tensor:
#      x y z
#    x 1.803750 0.000000 0.000000 
#    y 0.000000 1.690720 0.000000 
#    z 0.000000 0.000000 1.665110 
# 
# From -- ./inp_files/11239.got.cif
#   From: 2010.05.17/outbox.cif.g08.bks.cpg/sg39_6_cif.got.tgz:11239.got - 2010.06.03 18:22:40.
