data_PCOD9359919
_publ_section_title
;
Structure prediction by ZEFSAII (Michael W. Deem and Ramdas Pophale) SiO2 
 PCOD9359919
Probable space group: A B M 2
;
_chemical_formula_sum "Si O2"
_cell_formula_units_Z 48
_cell_length_a 10.851863
_cell_length_b 25.429371
_cell_length_c 7.892830
_cell_angle_alpha 90.000000
_cell_angle_beta 90.000000
_cell_angle_gamma 90.000000
_cell_volume 2178.074192
_symmetry_space_group_name_H-M "A B M 2"
_symmetry_group_IT_number 39
_symmetry_cell_setting 'orthorhombic'
loop_
_space_group_symop_operation_xyz
x,y,z
-x,-y,z
-x,1/2+y,z
x,1/2-y,z
x,1/2+y,1/2+z
-x,1/2-y,1/2+z
-x,y,1/2+z
x,-y,1/2+z
loop_
_atom_site_type_symbol
_atom_site_label
_atom_site_fract_x
_atom_site_fract_y
_atom_site_fract_z
Si Si1 0.616555 0.309170 0.640310
Si Si2 0.251341 0.074706 0.541903
Si Si3 0.477113 0.060304 0.311841
Si Si4 0.137648 0.478190 0.209245
Si Si5 0.700993 0.405346 0.507906
Si Si6 0.332904 0.188791 0.542322
O O1 0.628693 0.250000 0.580809
O O2 0.711715 0.343512 0.531068
O O3 0.470619 0.320946 0.616076
O O4 0.648957 0.312861 0.838412
O O5 0.390014 0.064434 0.477406
O O6 0.168732 0.054904 0.379319
O O7 0.246579 0.137477 0.579784
O O8 0.215739 0.031622 0.682360
O O9 0.607998 0.085508 0.353652
O O10 0.389390 0.082391 0.167658
O O11 0.500000 0.000000 0.277890
O O12 0.180746 0.440447 0.052527
O O13 0.000000 0.500000 0.205247
O O14 0.297413 0.250000 0.585559
#
# Coordination Sequence:
#
# PCOD9359919 Si02
#       6
#     8   8   8   8   8   8
#     4  10  18  32  53  83 118 151 187 229 290 358
#     4  11  22  38  58  83 115 150 190 246 292 356
#     4  11  20  29  49  80 110 138 175 219 293 341
#     4  11  24  40  57  81 114 160 202 242 292 340
#     4  11  20  33  51  81 116 145 178 230 282 350
#     4  10  20  35  57  85 120 156 187 231 294 360
#
# _framework density 22.037817
#
# number of rings (size 3 to 8) (size 9 to 14) (size 15 to 20)
#    0.000    1.333    6.667    1.000    2.333    0.000 
#    3.000    0.000    0.000    2.000    0.000    0.000 
#    0.000    0.000    0.000    0.000    0.000    0.000 
#
# Total GULP energy -133943.263062 kJ/mol
# GULP energy per Si atom -5580.969294 kJ/mol
# Density = 2.198766 g / cm^3
# Si number density = 22.037817 Si / 1000 Ang^3
#
#
#
# Elastic Constant Matrix: (Units=GPa)
#
#
# Indices 1 2 3 4 5 6 
#
# 1 94.2318 39.3989 7.1997 0.0000 0.0000 0.0000
# 2 39.3989 187.4261 13.6266 0.0000 0.0000 0.0000
# 3 7.1997 13.6266 56.1158 0.0000 0.0000 0.0000
# 4 0.0000 0.0000 0.0000 28.4116 0.0000 0.0000
# 5 0.0000 0.0000 0.0000 0.0000 22.2440 0.0000
# 6 0.0000 0.0000 0.0000 0.0000 0.0000 20.3026
#
#
#
# Elastic Compliance Matrix: (Units=1/GPa)
#
#
# Indices 1 2 3 4 5 6 
#
# 1 0.011681 -0.002389 -0.000919 0.000000 0.000000 0.000000
# 2 -0.002389 0.005920 -0.001131 0.000000 0.000000 0.000000
# 3 -0.000919 -0.001131 0.018213 0.000000 0.000000 0.000000
# 4 0.000000 0.000000 0.000000 0.035197 0.000000 0.000000
# 5 0.000000 0.000000 0.000000 0.000000 0.044956 0.000000
# 6 0.000000 0.000000 0.000000 0.000000 0.000000 0.049255
#
#
# Mechanical properties :
#
#
# Convention : Reuss Voigt Hill
#
# Bulk Modulus (GPa) = 37.12379 50.91380 44.01880
# Shear Modulus (GPa) = 27.31091 32.69487 30.00289
#
# Velocity S-wave (km/s) = 3.52415 3.85591 3.69376
# Velocity P-wave (km/s) = 5.78287 6.55569 6.18137
#
# Compressibility (1/GPa) = 0.02693691
#
# Stress axis : x y z
#
# Youngs Moduli (GPa) = 85.60883 168.92483 54.90640
#
# Poissons Ratio (x) = 0.40351 0.05044
# Poissons Ratio (y) = 0.20449 0.06210
# Poissons Ratio (z) = 0.07864 0.19106
#
# Static dielectric constant tensor:
#      x y z
#    x 1.780720 0.000000 0.000000 
#    y 0.000000 1.989240 0.000000 
#    z 0.000000 0.000000 1.977050 
# 
# From -- ./inp_files/2766.got.cif
#   From: 2010.05.17/outbox.cif.g08.bks.cpg/sg39_2_cif.got.tgz:2766.got - 2010.06.03 18:22:40.
