data_PCOD9359463
_publ_section_title
;
Structure prediction by ZEFSAII (Michael W. Deem and Ramdas Pophale) SiO2 
 PCOD9359463
Probable space group: A M M 2
;
_chemical_formula_sum "Si O2"
_cell_formula_units_Z 40
_cell_length_a 7.892611
_cell_length_b 8.957182
_cell_length_c 29.801586
_cell_angle_alpha 90.000000
_cell_angle_beta 90.000000
_cell_angle_gamma 90.000000
_cell_volume 2106.839608
_symmetry_space_group_name_H-M "A M M 2"
_symmetry_group_IT_number 38
_symmetry_cell_setting 'orthorhombic'
loop_
_space_group_symop_operation_xyz
x,y,z
-x,-y,z
-x,y,z
x,-y,z
x,1/2+y,1/2+z
-x,1/2-y,1/2+z
-x,1/2+y,1/2+z
x,1/2-y,1/2+z
loop_
_atom_site_type_symbol
_atom_site_label
_atom_site_fract_x
_atom_site_fract_y
_atom_site_fract_z
Si Si1 0.194491 0.317866 0.995980
Si Si2 0.795332 0.828155 0.596711
Si Si3 0.500000 0.320873 0.828981
Si Si4 0.500000 0.318011 0.932827
Si Si5 0.809854 0.677362 0.275926
Si Si6 0.700145 0.329021 0.687414
O O1 0.191705 0.500000 0.996232
O O2 0.331789 0.269159 0.959556
O O3 0.000000 0.269447 0.987736
O O4 0.248950 0.274969 0.046538
O O5 0.729080 0.730238 0.637388
O O6 0.000000 0.828896 0.598387
O O7 0.737303 0.000000 0.602118
O O8 0.500000 0.500000 0.826555
O O9 0.500000 0.273319 0.881027
O O10 0.665973 0.259451 0.804189
O O11 0.500000 0.500000 0.933666
O O12 0.785540 0.500000 0.278849
O O13 0.790963 0.727946 0.224299
O O14 0.000000 0.714356 0.291455
O O15 0.500000 0.324055 0.697278
O O16 0.758142 0.500000 0.691456
#
# Coordination Sequence:
#
# PCOD9359463 Si02
#       6
#     8   8   4   4   8   8
#     4   8  15  29  49  77 112 146 185 230 271 323
#     4   9  18  32  52  80 112 148 191 232 273 329
#     4  11  23  39  60  91 122 147 186 241 300 355
#     4   9  18  31  52  81 112 145 180 225 288 343
#     4  11  24  42  64  86 112 152 198 240 286 344
#     4  11  23  36  53  82 118 152 189 234 286 342
#
# _framework density 18.985783000000001
#
# number of rings (size 3 to 8) (size 9 to 14) (size 15 to 20)
#    0.000    2.200    1.000    3.300    1.400    6.400 
#    0.000    2.000    0.000    2.400    0.000    0.000 
#    0.000    0.000    0.000    0.000    0.000    0.000 
#
# Total GULP energy -111663.052285 kJ/mol
# GULP energy per Si atom -5583.152614 kJ/mol
# Density = 1.894257 g / cm^3
# Si number density = 18.985783 Si / 1000 Ang^3
#
#
#
# Elastic Constant Matrix: (Units=GPa)
#
#
# Indices 1 2 3 4 5 6 
#
# 1 112.7515 42.1000 75.5466 0.0000 0.0000 0.0000
# 2 42.1000 45.1437 31.8480 0.0000 0.0000 0.0000
# 3 75.5466 31.8480 135.6329 0.0000 0.0000 0.0000
# 4 0.0000 0.0000 0.0000 21.2088 0.0000 0.0000
# 5 0.0000 0.0000 0.0000 0.0000 -3.7196 0.0000
# 6 0.0000 0.0000 0.0000 0.0000 0.0000 -106.1490
#
#
#
# Elastic Compliance Matrix: (Units=1/GPa)
#
#
# Indices 1 2 3 4 5 6 
#
# 1 0.018209 -0.011777 -0.007377 0.000000 0.000000 0.000000
# 2 -0.011777 0.034167 -0.001463 0.000000 0.000000 0.000000
# 3 -0.007377 -0.001463 0.011825 0.000000 0.000000 0.000000
# 4 0.000000 0.000000 0.000000 0.047150 0.000000 0.000000
# 5 0.000000 0.000000 0.000000 0.000000 -0.268848 0.000000
# 6 0.000000 0.000000 0.000000 0.000000 0.000000 -0.009421
#
#
# Mechanical properties :
#
#
# Convention : Reuss Voigt Hill
#
# Bulk Modulus (GPa) = 43.54067 65.83527 54.68797
# Shear Modulus (GPa) = -42.36329 -8.12971 -25.24650
#
# Velocity S-wave (km/s) = -4.72881 -2.07154 -3.65054
# Velocity P-wave (km/s) = 2.61388 5.38792 3.33146
#
# Compressibility (1/GPa) = 0.02296703
#
# Stress axis : x y z
#
# Youngs Moduli (GPa) = 54.91660 29.26823 84.56429
#
# Poissons Ratio (x) = 0.34470 0.62384
# Poissons Ratio (y) = 0.64677 0.12370
# Poissons Ratio (z) = 0.40513 0.04281
#
# Static dielectric constant tensor:
#      x y z
#    x 1.666910 0.000000 0.000000 
#    y 0.000000 1.640340 0.000000 
#    z 0.000000 0.000000 1.642780 
# 
# From -- ./inp_files/23274.got.cif
#   From: 2010.05.17/outbox.cif.g08.bks.cpg/sg38_12_cif.got.tgz:23274.got - 2010.06.03 18:07:57.
