data_PCOD9359077
_publ_section_title
;
Structure prediction by ZEFSAII (Michael W. Deem and Ramdas Pophale) SiO2 
 PCOD9359077
Probable space group: A M M 2
;
_chemical_formula_sum "Si O2"
_cell_formula_units_Z 40
_cell_length_a 9.000849
_cell_length_b 16.819109
_cell_length_c 12.980438
_cell_angle_alpha 90.000000
_cell_angle_beta 90.000000
_cell_angle_gamma 90.000000
_cell_volume 1965.059967
_symmetry_space_group_name_H-M "A M M 2"
_symmetry_group_IT_number 38
_symmetry_cell_setting 'orthorhombic'
loop_
_space_group_symop_operation_xyz
x,y,z
-x,-y,z
-x,y,z
x,-y,z
x,1/2+y,1/2+z
-x,1/2-y,1/2+z
-x,1/2+y,1/2+z
x,1/2-y,1/2+z
loop_
_atom_site_type_symbol
_atom_site_label
_atom_site_fract_x
_atom_site_fract_y
_atom_site_fract_z
Si Si1 0.321186 0.594375 0.975030
Si Si2 0.677665 0.168105 0.697471
Si Si3 0.832717 0.905783 0.884740
Si Si4 0.666913 0.594193 0.584388
Si Si5 0.822979 0.167252 0.271751
O O1 0.500000 0.599369 0.961236
O O2 0.282830 0.500000 0.977234
O O3 0.242443 0.638973 0.880770
O O4 0.284070 0.636444 0.083628
O O5 0.500000 0.175570 0.703545
O O6 0.737560 0.107502 0.782972
O O7 0.754938 0.249884 0.731407
O O8 0.000000 0.872867 0.875060
O O9 0.846041 0.000000 0.901132
O O10 0.747586 0.870904 0.983760
O O11 0.500000 0.627406 0.597351
O O12 0.652337 0.500000 0.568488
O O13 0.765579 0.606959 0.684553
O O14 0.000000 0.170802 0.275873
#
# Coordination Sequence:
#
# PCOD9359077 Si02
#       5
#     8   8   8   8   8
#     4  10  23  45  71  97 127 169 222 273 325 394
#     4  11  24  42  66  93 127 169 216 266 320 383
#     4  10  21  38  62  93 128 163 203 256 318 381
#     4  10  21  39  64  91 122 164 212 258 309 377
#     4  12  26  41  62  93 132 170 211 266 327 384
#
# _framework density 20.355615
#
# number of rings (size 3 to 8) (size 9 to 14) (size 15 to 20)
#    0.000    1.400    0.000    4.800    2.800    7.600 
#    0.000    0.000    0.000    0.000    0.000    0.000 
#    0.000    0.000    0.000    0.000    0.000    0.000 
#
# Total GULP energy -111755.414146 kJ/mol
# GULP energy per Si atom -5587.770707 kJ/mol
# Density = 2.030928 g / cm^3
# Si number density = 20.355615 Si / 1000 Ang^3
#
#
#
# Elastic Constant Matrix: (Units=GPa)
#
#
# Indices 1 2 3 4 5 6 
#
# 1 135.2814 53.9507 105.2595 0.0000 0.0000 0.0000
# 2 53.9507 70.7014 46.7918 0.0000 0.0000 0.0000
# 3 105.2595 46.7918 209.6062 0.0000 0.0000 0.0000
# 4 0.0000 0.0000 0.0000 32.4565 0.0000 0.0000
# 5 0.0000 0.0000 0.0000 0.0000 58.9734 0.0000
# 6 0.0000 0.0000 0.0000 0.0000 0.0000 17.3645
#
#
#
# Elastic Compliance Matrix: (Units=1/GPa)
#
#
# Indices 1 2 3 4 5 6 
#
# 1 0.014918 -0.007540 -0.005809 0.000000 0.000000 0.000000
# 2 -0.007540 0.020406 -0.000769 0.000000 0.000000 0.000000
# 3 -0.005809 -0.000769 0.007859 0.000000 0.000000 0.000000
# 4 0.000000 0.000000 0.000000 0.030811 0.000000 0.000000
# 5 0.000000 0.000000 0.000000 0.000000 0.016957 0.000000
# 6 0.000000 0.000000 0.000000 0.000000 0.000000 0.057589
#
#
# Mechanical properties :
#
#
# Convention : Reuss Voigt Hill
#
# Bulk Modulus (GPa) = 66.89210 91.95479 79.42344
# Shear Modulus (GPa) = 27.50911 35.73135 31.62023
#
# Velocity S-wave (km/s) = 3.68016 4.19424 3.94558
# Velocity P-wave (km/s) = 7.14081 8.29022 7.73689
#
# Compressibility (1/GPa) = 0.01494945
#
# Stress axis : x y z
#
# Youngs Moduli (GPa) = 67.03174 49.00421 127.23489
#
# Poissons Ratio (x) = 0.36947 0.73905
# Poissons Ratio (y) = 0.50539 0.09787
# Poissons Ratio (z) = 0.38936 0.03770
#
# Static dielectric constant tensor:
#      x y z
#    x 1.707160 0.000000 0.000000 
#    y 0.000000 1.452550 0.000000 
#    z 0.000000 0.000000 1.702320 
# 
# From -- ./inp_files/7772.got.cif
#   From: 2010.05.17/outbox.cif.g08.bks.cpg/sg38_4_cif.got.tgz:7772.got - 2010.06.03 18:07:57.
