data_PCOD9359177
_publ_section_title
;
Structure prediction by ZEFSAII (Michael W. Deem and Ramdas Pophale) SiO2 
 PCOD9359177
Probable space group: A M M 2
;
_chemical_formula_sum "Si O2"
_cell_formula_units_Z 34
_cell_length_a 9.961279
_cell_length_b 7.665722
_cell_length_c 20.576030
_cell_angle_alpha 90.000000
_cell_angle_beta 90.000000
_cell_angle_gamma 90.000000
_cell_volume 1571.193790
_symmetry_space_group_name_H-M "A M M 2"
_symmetry_group_IT_number 38
_symmetry_cell_setting 'orthorhombic'
loop_
_space_group_symop_operation_xyz
x,y,z
-x,-y,z
-x,y,z
x,-y,z
x,1/2+y,1/2+z
-x,1/2-y,1/2+z
-x,1/2+y,1/2+z
x,1/2-y,1/2+z
loop_
_atom_site_type_symbol
_atom_site_label
_atom_site_fract_x
_atom_site_fract_y
_atom_site_fract_z
Si Si1 0.148907 0.708308 0.304100
Si Si2 0.849378 0.711837 0.574150
Si Si3 0.347436 0.290518 0.687446
Si Si4 0.500000 0.500000 0.436306
Si Si5 0.273984 0.694549 0.938338
O O1 0.147255 0.500000 0.311562
O O2 0.262901 0.751842 0.251861
O O3 0.185610 0.787742 0.373447
O O4 0.000000 0.765635 0.282305
O O5 0.844970 0.500000 0.572532
O O6 0.738246 0.772991 0.625789
O O7 0.814128 0.778681 0.502865
O O8 0.000000 0.763536 0.593762
O O9 0.500000 0.223054 0.689829
O O10 0.355561 0.500000 0.681500
O O11 0.383597 0.346736 0.436865
O O12 0.332766 0.500000 0.939758
#
# Coordination Sequence:
#
# PCOD9359177 Si02
#       5
#     8   8   8   2   8
#     4  11  24  44  67  95 136 183 230 288 346 403
#     4  10  21  41  68  99 138 183 229 287 347 402
#     4  10  23  40  65  98 136 180 231 284 346 410
#     4  12  26  48  66 102 152 172 224 286 348 410
#     4  12  26  43  73 103 135 184 229 280 344 408
#
# _framework density 21.639597999999999
#
# number of rings (size 3 to 8) (size 9 to 14) (size 15 to 20)
#    0.000    1.176    2.353    2.471    3.294    7.529 
#    0.000    0.000    0.000    0.000    0.000    0.000 
#    0.000    0.000    0.000    0.000    0.000    0.000 
#
# Total GULP energy -94829.519561 kJ/mol
# GULP energy per Si atom -5578.207033 kJ/mol
# Density = 2.159035 g / cm^3
# Si number density = 21.639598 Si / 1000 Ang^3
#
#
#
# Elastic Constant Matrix: (Units=GPa)
#
#
# Indices 1 2 3 4 5 6 
#
# 1 211.5943 45.7806 91.8157 0.0000 0.0000 0.0000
# 2 45.7806 115.3448 1.9689 0.0000 0.0000 0.0000
# 3 91.8157 1.9689 166.8251 0.0000 0.0000 0.0000
# 4 0.0000 0.0000 0.0000 25.6728 0.0000 0.0000
# 5 0.0000 0.0000 0.0000 0.0000 -48.5586 0.0000
# 6 0.0000 0.0000 0.0000 0.0000 0.0000 13.7628
#
#
#
# Elastic Compliance Matrix: (Units=1/GPa)
#
#
# Indices 1 2 3 4 5 6 
#
# 1 0.006957 -0.002696 -0.003797 0.000000 0.000000 0.000000
# 2 -0.002696 0.009717 0.001369 0.000000 0.000000 0.000000
# 3 -0.003797 0.001369 0.008068 0.000000 0.000000 0.000000
# 4 0.000000 0.000000 0.000000 0.038952 0.000000 0.000000
# 5 0.000000 0.000000 0.000000 0.000000 -0.020594 0.000000
# 6 0.000000 0.000000 0.000000 0.000000 0.000000 0.072660
#
#
# Mechanical properties :
#
#
# Convention : Reuss Voigt Hill
#
# Bulk Modulus (GPa) = 68.99833 85.87716 77.43775
# Shear Modulus (GPa) = 38.21495 21.78867 30.00181
#
# Velocity S-wave (km/s) = 4.20691 3.17659 3.72752
# Velocity P-wave (km/s) = 7.45331 7.29559 7.37487
#
# Compressibility (1/GPa) = 0.01449310
#
# Stress axis : x y z
#
# Youngs Moduli (GPa) = 143.73774 102.91756 123.94659
#
# Poissons Ratio (x) = 0.27751 0.47065
# Poissons Ratio (y) = 0.38758 -0.16973
# Poissons Ratio (z) = 0.54580 -0.14093
#
# Static dielectric constant tensor:
#      x y z
#    x 1.767300 0.000000 0.000000 
#    y 0.000000 1.793090 0.000000 
#    z 0.000000 0.000000 1.744600 
# 
# From -- ./inp_files/19262.got.cif
#   From: 2010.05.17/outbox.cif.g08.bks.cpg/sg38_10_cif.got.tgz:19262.got - 2010.06.03 18:07:57.
