data_PCOD9359285
_publ_section_title
;
Structure prediction by ZEFSAII (Michael W. Deem and Ramdas Pophale) SiO2 
 PCOD9359285
Probable space group: A M M 2
;
_chemical_formula_sum "Si O2"
_cell_formula_units_Z 64
_cell_length_a 15.766189
_cell_length_b 8.754986
_cell_length_c 24.237104
_cell_angle_alpha 90.000000
_cell_angle_beta 90.000000
_cell_angle_gamma 90.000000
_cell_volume 3345.514456
_symmetry_space_group_name_H-M "A M M 2"
_symmetry_group_IT_number 38
_symmetry_cell_setting 'orthorhombic'
loop_
_space_group_symop_operation_xyz
x,y,z
-x,-y,z
-x,y,z
x,-y,z
x,1/2+y,1/2+z
-x,1/2-y,1/2+z
-x,1/2+y,1/2+z
x,1/2-y,1/2+z
loop_
_atom_site_type_symbol
_atom_site_label
_atom_site_fract_x
_atom_site_fract_y
_atom_site_fract_z
Si Si1 0.596075 0.682370 0.231040
Si Si2 0.095634 0.183073 0.236677
Si Si3 0.096379 0.816966 0.969165
Si Si4 0.165490 0.318646 0.347707
Si Si5 0.747610 0.681742 0.036476
Si Si6 0.352873 0.318191 0.847511
Si Si7 0.595828 0.682272 0.464099
Si Si8 0.747564 0.183139 0.158682
O O1 0.500000 0.715265 0.212388
O O2 0.608735 0.500000 0.230467
O O3 0.607418 0.742816 0.293220
O O4 0.666517 0.760978 0.193241
O O5 0.113849 0.266345 0.294271
O O6 0.168020 0.226269 0.193018
O O7 0.000000 0.216014 0.217549
O O8 0.102516 0.000000 0.245613
O O9 0.116487 0.788536 0.904700
O O10 0.000000 0.770666 0.981961
O O11 0.103390 0.000000 0.977701
O O12 0.167224 0.735712 0.005546
O O13 0.183174 0.500000 0.344853
O O14 0.253907 0.228263 0.348179
O O15 0.742172 0.500000 0.035772
O O16 0.747905 0.743239 0.098600
O O17 0.667525 0.750109 0.003571
O O18 0.362077 0.500000 0.845001
O O19 0.392760 0.253551 0.903500
O O20 0.500000 0.712971 0.483899
O O21 0.607479 0.500000 0.460042
O O22 0.745781 0.000000 0.153743
#
# Coordination Sequence:
#
# PCOD9359285 Si02
#       8
#     8   8   8   8   8   8   8   8
#     4  11  24  42  65  94 128 166 207 256 312 369
#     4  10  22  40  63  93 127 163 205 256 313 370
#     4  10  22  41  65  93 127 168 211 256 311 373
#     4  11  21  36  63  94 128 167 207 251 306 370
#     4  12  26  43  65  92 125 165 211 263 317 372
#     4  12  23  37  62  96 131 167 204 251 312 372
#     4  11  24  43  67  94 125 164 209 257 312 375
#     4  11  24  43  66  90 123 167 212 260 313 368
#
# _framework density 19.130092999999999
#
# number of rings (size 3 to 8) (size 9 to 14) (size 15 to 20)
#    0.000    1.000    2.500    4.500    0.000    6.500 
#    0.000    1.250    0.000    0.000    0.000    0.000 
#    0.000    0.000    0.000    0.000    0.000    0.000 
#
# Total GULP energy -179026.910105 kJ/mol
# GULP energy per Si atom -5594.590941 kJ/mol
# Density = 1.908655 g / cm^3
# Si number density = 19.130093 Si / 1000 Ang^3
#
#
#
# Elastic Constant Matrix: (Units=GPa)
#
#
# Indices 1 2 3 4 5 6 
#
# 1 153.0582 56.2485 58.9658 0.0000 0.0000 0.0000
# 2 56.2485 67.1122 37.7535 0.0000 0.0000 0.0000
# 3 58.9658 37.7535 124.9648 0.0000 0.0000 0.0000
# 4 0.0000 0.0000 0.0000 36.6562 0.0000 0.0000
# 5 0.0000 0.0000 0.0000 0.0000 -4.4604 0.0000
# 6 0.0000 0.0000 0.0000 0.0000 0.0000 25.5275
#
#
#
# Elastic Compliance Matrix: (Units=1/GPa)
#
#
# Indices 1 2 3 4 5 6 
#
# 1 0.010130 -0.006989 -0.002668 0.000000 0.000000 0.000000
# 2 -0.006989 0.022773 -0.003582 0.000000 0.000000 0.000000
# 3 -0.002668 -0.003582 0.010344 0.000000 0.000000 0.000000
# 4 0.000000 0.000000 0.000000 0.027281 0.000000 0.000000
# 5 0.000000 0.000000 0.000000 0.000000 -0.224197 0.000000
# 6 0.000000 0.000000 0.000000 0.000000 0.000000 0.039174
#
#
# Mechanical properties :
#
#
# Convention : Reuss Voigt Hill
#
# Bulk Modulus (GPa) = 59.63959 72.34120 65.99039
# Shear Modulus (GPa) = -60.65949 24.35582 -18.15184
#
# Velocity S-wave (km/s) = -5.63718 3.57202 -3.08370
# Velocity P-wave (km/s) = 3.33570 7.41012 4.67884
#
# Compressibility (1/GPa) = 0.01676739
#
# Stress axis : x y z
#
# Youngs Moduli (GPa) = 98.71738 43.91101 96.67797
#
# Poissons Ratio (x) = 0.30690 0.25798
# Poissons Ratio (y) = 0.68994 0.34633
# Poissons Ratio (z) = 0.26342 0.15730
#
# Static dielectric constant tensor:
#      x y z
#    x 1.664050 0.000000 0.000000 
#    y 0.000000 1.639700 0.000000 
#    z 0.000000 0.000000 1.626160 
# 
# From -- ./inp_files/22931.got.cif
#   From: 2010.05.17/outbox.cif.g08.bks.cpg/sg38_12_cif.got.tgz:22931.got - 2010.06.03 18:07:57.
