data_PCOD9359162
_publ_section_title
;
Structure prediction by ZEFSAII (Michael W. Deem and Ramdas Pophale) SiO2 
 PCOD9359162
Probable space group: A M M 2
;
_chemical_formula_sum "Si O2"
_cell_formula_units_Z 48
_cell_length_a 8.592144
_cell_length_b 18.847009
_cell_length_c 15.157165
_cell_angle_alpha 90.000000
_cell_angle_beta 90.000000
_cell_angle_gamma 90.000000
_cell_volume 2454.493935
_symmetry_space_group_name_H-M "A M M 2"
_symmetry_group_IT_number 38
_symmetry_cell_setting 'orthorhombic'
loop_
_space_group_symop_operation_xyz
x,y,z
-x,-y,z
-x,y,z
x,-y,z
x,1/2+y,1/2+z
-x,1/2-y,1/2+z
-x,1/2+y,1/2+z
x,1/2-y,1/2+z
loop_
_atom_site_type_symbol
_atom_site_label
_atom_site_fract_x
_atom_site_fract_y
_atom_site_fract_z
Si Si1 0.184718 0.500000 0.364710
Si Si2 0.314422 0.423705 0.833009
Si Si3 0.311672 0.768487 0.276183
Si Si4 0.317688 0.118545 0.532050
Si Si5 0.182157 0.737124 0.580819
Si Si6 0.185345 0.500000 0.155741
Si Si7 0.686503 0.651638 0.422334
O O1 0.212245 0.500000 0.259622
O O2 0.255296 0.427309 0.402034
O O3 0.000000 0.500000 0.380211
O O4 0.500000 0.423995 0.813497
O O5 0.250248 0.500000 0.801500
O O6 0.253638 0.348227 0.798659
O O7 0.299590 0.420095 0.938678
O O8 0.500000 0.769153 0.281036
O O9 0.259864 0.754387 0.176545
O O10 0.259706 0.708322 0.346540
O O11 0.500000 0.137215 0.541769
O O12 0.216915 0.189130 0.531786
O O13 0.262550 0.067947 0.610122
O O14 0.254733 0.677686 0.517568
O O15 0.000000 0.725026 0.591623
O O16 0.000000 0.500000 0.139125
O O17 0.500000 0.652803 0.421878
#
# Coordination Sequence:
#
# PCOD9359162 Si02
#       7
#     4   8   8   8   8   4   8
#     4  11  25  43  61  88 129 166 203 259 324 381
#     4   9  17  34  61  92 121 153 198 256 307 352
#     4  10  21  40  66  93 123 161 215 266 307 371
#     4  11  20  36  62  90 122 161 208 256 305 370
#     4  12  25  40  61  91 128 167 207 259 322 378
#     4  11  23  37  57  94 133 164 199 251 324 387
#     4  11  23  43  69  93 121 164 218 267 311 370
#
# _framework density 19.555966000000002
#
# number of rings (size 3 to 8) (size 9 to 14) (size 15 to 20)
#    0.000    1.333    2.500    4.000    0.000    5.333 
#    1.500    0.000    0.000    0.000    0.000    0.000 
#    0.000    0.000    0.000    0.000    0.000    0.000 
#
# Total GULP energy -134037.207958 kJ/mol
# GULP energy per Si atom -5584.883665 kJ/mol
# Density = 1.951146 g / cm^3
# Si number density = 19.555966 Si / 1000 Ang^3
#
#
#
# Elastic Constant Matrix: (Units=GPa)
#
#
# Indices 1 2 3 4 5 6 
#
# 1 27.0918 12.6375 9.8784 0.0000 0.0000 0.0000
# 2 12.6375 129.1104 14.7450 0.0000 0.0000 0.0000
# 3 9.8784 14.7450 49.9306 0.0000 0.0000 0.0000
# 4 0.0000 0.0000 0.0000 28.4827 0.0000 0.0000
# 5 0.0000 0.0000 0.0000 0.0000 -8.0354 0.0000
# 6 0.0000 0.0000 0.0000 0.0000 0.0000 70.3707
#
#
#
# Elastic Compliance Matrix: (Units=1/GPa)
#
#
# Indices 1 2 3 4 5 6 
#
# 1 0.041017 -0.003196 -0.007171 0.000000 0.000000 0.000000
# 2 -0.003196 0.008265 -0.001808 0.000000 0.000000 0.000000
# 3 -0.007171 -0.001808 0.021981 0.000000 0.000000 0.000000
# 4 0.000000 0.000000 0.000000 0.035109 0.000000 0.000000
# 5 0.000000 0.000000 0.000000 0.000000 -0.124449 0.000000
# 6 0.000000 0.000000 0.000000 0.000000 0.000000 0.014210
#
#
# Mechanical properties :
#
#
# Convention : Reuss Voigt Hill
#
# Bulk Modulus (GPa) = 21.31668 31.18384 26.25026
# Shear Modulus (GPa) = 138.42429 29.42170 83.92299
#
# Velocity S-wave (km/s) = 8.42243 3.88298 6.55801
# Velocity P-wave (km/s) = 10.27167 6.00699 8.41401
#
# Compressibility (1/GPa) = 0.04691162
#
# Stress axis : x y z
#
# Youngs Moduli (GPa) = 24.38007 120.99727 45.49468
#
# Poissons Ratio (x) = 0.38669 0.32625
# Poissons Ratio (y) = 0.07791 0.08227
# Poissons Ratio (z) = 0.17483 0.21881
#
# Static dielectric constant tensor:
#      x y z
#    x 1.669920 0.000000 0.000000 
#    y 0.000000 1.694310 0.000000 
#    z 0.000000 0.000000 1.664850 
# 
# From -- ./inp_files/12148.got.cif
#   From: 2010.05.17/outbox.cif.g08.bks.cpg/sg38_7_cif.got.tgz:12148.got - 2010.06.03 18:07:57.
