data_PCOD9359609
_publ_section_title
;
Structure prediction by ZEFSAII (Michael W. Deem and Ramdas Pophale) SiO2 
 PCOD9359609
Probable space group: A M M 2
;
_chemical_formula_sum "Si O2"
_cell_formula_units_Z 32
_cell_length_a 9.000000
_cell_length_b 18.000000
_cell_length_c 21.000000
_cell_angle_alpha 90.000000
_cell_angle_beta 90.000000
_cell_angle_gamma 90.000000
_cell_volume 3402.000000
_symmetry_space_group_name_H-M "A M M 2"
_symmetry_group_IT_number 38
_symmetry_cell_setting 'orthorhombic'
loop_
_space_group_symop_operation_xyz
x,y,z
-x,-y,z
-x,y,z
x,-y,z
x,1/2+y,1/2+z
-x,1/2-y,1/2+z
-x,1/2+y,1/2+z
x,1/2-y,1/2+z
loop_
_atom_site_type_symbol
_atom_site_label
_atom_site_fract_x
_atom_site_fract_y
_atom_site_fract_z
Si Si1 0.831707 0.088829 0.221420
Si Si2 0.178921 0.310030 0.493465
Si Si3 0.180510 0.087761 0.714952
Si Si4 0.671822 0.589457 0.592957
Si Si5 0.179508 0.819444 0.841953
Si Si6 0.321866 0.663002 0.837119
Si Si7 0.178523 0.835622 0.580325
Si Si8 0.324820 0.585796 0.967576
O O1 0.752326 0.116703 0.157356
O O2 0.737753 0.107874 0.283486
O O3 0.000000 0.118338 0.226299
O O4 0.840023 0.000000 0.216086
O O5 0.242514 0.379292 0.532373
O O6 0.223683 0.320915 0.418296
O O7 0.226660 0.239085 0.539195
O O8 0.000000 0.308216 0.493259
O O9 0.222652 0.121614 0.785356
O O10 0.226817 0.139063 0.652795
O O11 0.000000 0.088004 0.713708
O O12 0.226337 0.000000 0.708675
O O13 0.500000 0.613086 0.592413
O O14 0.675205 0.500000 0.593004
O O15 0.249074 0.741495 0.821116
O O16 0.000000 0.817825 0.841790
O O17 0.500000 0.666346 0.836213
O O18 0.275517 0.636038 0.907791
O O19 0.233920 0.898448 0.531323
O O20 0.000000 0.831681 0.583035
O O21 0.500000 0.600611 0.979358
O O22 0.310292 0.500000 0.948321
#
# Coordination Sequence:
#
# PCOD9359609 Si02
#       8
#     8   8   8   8   8   8   8   8
#     4  10  21  37  58  84 115 151 192 239 289 344
#     4  10  21  36  57  87 118 151 196 250 302 351
#     4   9  19  36  59  86 115 152 195 243 298 350
#     4  10  22  39  59  85 117 153 193 238 294 361
#     4  10  21  38  59  84 115 152 199 247 291 351
#     4  11  22  36  55  82 118 158 196 239 293 356
#     4  10  20  36  58  87 117 147 192 246 297 352
#     4  10  21  36  55  81 115 155 193 234 292 359
#
# _framework density 9.4062319999999993
#
# number of rings (size 3 to 8) (size 9 to 14) (size 15 to 20)
#    0.000    2.000    1.250    1.875    1.750    4.750 
#    0.000    1.875    0.000    1.125    0.000    0.000 
#    0.000    0.000    0.000    0.000    0.000    0.000 
#
# Total GULP energy -178219.094149 kJ/mol
# GULP energy per Si atom -5569.346692 kJ/mol
# Density = 0.938482 g / cm^3
# Si number density = 9.406232 Si / 1000 Ang^3
#
#
#
# Elastic Constant Matrix: (Units=GPa)
#
#
# Indices 1 2 3 4 5 6 
#
# 1 -5.4587 12.5087 19.1402 0.0000 0.0000 0.0000
# 2 12.5087 48.8605 38.4728 0.0000 0.0000 0.0000
# 3 19.1402 38.4728 155.0709 0.0000 0.0000 0.0000
# 4 0.0000 0.0000 0.0000 32.0762 0.0000 0.0000
# 5 0.0000 0.0000 0.0000 0.0000 21.9270 0.0000
# 6 0.0000 0.0000 0.0000 0.0000 0.0000 23.9538
#
#
#
# Elastic Compliance Matrix: (Units=1/GPa)
#
#
# Indices 1 2 3 4 5 6 
#
# 1 -0.106920 0.021104 0.007961 0.000000 0.000000 0.000000
# 2 0.021104 0.021270 -0.007882 0.000000 0.000000 0.000000
# 3 0.007961 -0.007882 0.007421 0.000000 0.000000 0.000000
# 4 0.000000 0.000000 0.000000 0.031176 0.000000 0.000000
# 5 0.000000 0.000000 0.000000 0.000000 0.045606 0.000000
# 6 0.000000 0.000000 0.000000 0.000000 0.000000 0.041747
#
#
# Mechanical properties :
#
#
# Convention : Reuss Voigt Hill
#
# Bulk Modulus (GPa) = -27.88453 37.63512 4.87529
# Shear Modulus (GPa) = -356.63958 24.14813 -166.24572
#
# Velocity S-wave (km/s) = -13.78361 3.58666 -9.41073
# Velocity P-wave (km/s) = 16.37595 6.09926 10.74641
#
# Compressibility (1/GPa) = -0.03586218
#
# Stress axis : x y z
#
# Youngs Moduli (GPa) = -9.35282 47.01492 134.74373
#
# Poissons Ratio (x) = -0.99219 -1.07271
# Poissons Ratio (y) = 0.19738 1.06202
# Poissons Ratio (z) = 0.07446 0.37056
#
# Static dielectric constant tensor:
#      x y z
#    x 1.630940 0.000000 0.000000 
#    y 0.000000 1.684440 0.000000 
#    z 0.000000 0.000000 1.660630 
# 
# From -- ./inp_files/20115.got.cif
#   From: 2010.05.17/outbox.ucp.g08.bks.cvg/sg38_11_cif.got.tgz:20115.got - 2010.06.11 10:39:43.
