data_PCOD9359428
_publ_section_title
;
Structure prediction by ZEFSAII (Michael W. Deem and Ramdas Pophale) SiO2 
 PCOD9359428
Probable space group: A M M 2
;
_chemical_formula_sum "Si O2"
_cell_formula_units_Z 64
_cell_length_a 13.236792
_cell_length_b 7.667790
_cell_length_c 26.013615
_cell_angle_alpha 90.000000
_cell_angle_beta 90.000000
_cell_angle_gamma 90.000000
_cell_volume 2640.302355
_symmetry_space_group_name_H-M "A M M 2"
_symmetry_group_IT_number 38
_symmetry_cell_setting 'orthorhombic'
loop_
_space_group_symop_operation_xyz
x,y,z
-x,-y,z
-x,y,z
x,-y,z
x,1/2+y,1/2+z
-x,1/2-y,1/2+z
-x,1/2+y,1/2+z
x,1/2-y,1/2+z
loop_
_atom_site_type_symbol
_atom_site_label
_atom_site_fract_x
_atom_site_fract_y
_atom_site_fract_z
Si Si1 0.826882 0.791826 0.289890
Si Si2 0.671623 0.290045 0.544738
Si Si3 0.608523 0.700298 0.766421
Si Si4 0.109229 0.711662 0.678565
Si Si5 0.826905 0.708981 0.400417
Si Si6 0.891254 0.213257 0.012557
Si Si7 0.608446 0.212868 0.931341
Si Si8 0.664538 0.197094 0.656318
O O1 0.712270 0.717802 0.287107
O O2 0.883779 0.734320 0.238651
O O3 0.871758 0.755622 0.345493
O O4 0.819779 0.000000 0.284484
O O5 0.672266 0.500000 0.544915
O O6 0.788270 0.229088 0.539468
O O7 0.618586 0.237661 0.491609
O O8 0.626925 0.234467 0.599050
O O9 0.500000 0.781895 0.778910
O O10 0.606135 0.500000 0.784335
O O11 0.622532 0.696147 0.704421
O O12 0.111891 0.500000 0.674844
O O13 0.214068 0.775394 0.655007
O O14 0.000000 0.768073 0.657930
O O15 0.824653 0.500000 0.403213
O O16 0.881067 0.765785 0.452634
O O17 0.710683 0.774039 0.404106
O O18 0.000000 0.270845 0.032716
O O19 0.890231 0.000000 0.014731
O O20 0.500000 0.272212 0.910937
O O21 0.609653 0.000000 0.929501
O O22 0.641192 0.000000 0.669944
#
# Coordination Sequence:
#
# PCOD9359428 Si02
#       8
#     8   8   8   8   8   8   8   8
#     4   9  18  32  50  74 101 126 158 204 253 294
#     4   9  17  31  51  71  91 124 170 206 237 287
#     4   9  19  37  57  73  94 131 177 214 242 286
#     4   9  19  37  57  73  94 131 177 214 242 286
#     4   9  17  29  47  71  97 126 160 196 239 293
#     4   8  15  29  48  69  93 123 163 207 241 276
#     4   8  15  29  48  69  93 123 163 207 241 276
#     4  11  22  34  50  76 109 134 156 200 261 312
#
# _framework density 24.239647000000001
#
# number of rings (size 3 to 8) (size 9 to 14) (size 15 to 20)
#    0.000    3.000    0.000    3.375    0.000    4.500 
#    0.000    5.000    0.000    1.500    0.000    0.000 
#    0.000    0.000    0.000    0.000    0.000    0.000 
#
# Total GULP energy -178650.057699 kJ/mol
# GULP energy per Si atom -5582.814303 kJ/mol
# Density = 2.418448 g / cm^3
# Si number density = 24.239647 Si / 1000 Ang^3
#
#
#
# Elastic Constant Matrix: (Units=GPa)
#
#
# Indices 1 2 3 4 5 6 
#
# 1 113.1794 1.2277 -6.1632 0.0000 0.0000 0.0000
# 2 1.2277 46.9882 -8.6939 0.0000 0.0000 0.0000
# 3 -6.1632 -8.6939 112.3703 0.0000 0.0000 0.0000
# 4 0.0000 0.0000 0.0000 14.7719 0.0000 0.0000
# 5 0.0000 0.0000 0.0000 0.0000 -14.4482 0.0000
# 6 0.0000 0.0000 0.0000 0.0000 0.0000 -126.2783
#
#
#
# Elastic Compliance Matrix: (Units=1/GPa)
#
#
# Indices 1 2 3 4 5 6 
#
# 1 0.008863 -0.000144 0.000475 0.000000 0.000000 0.000000
# 2 -0.000144 0.021593 0.001663 0.000000 0.000000 0.000000
# 3 0.000475 0.001663 0.009054 0.000000 0.000000 0.000000
# 4 0.000000 0.000000 0.000000 0.067696 0.000000 0.000000
# 5 0.000000 0.000000 0.000000 0.000000 -0.069213 0.000000
# 6 0.000000 0.000000 0.000000 0.000000 0.000000 -0.007919
#
#
# Mechanical properties :
#
#
# Convention : Reuss Voigt Hill
#
# Bulk Modulus (GPa) = 22.98943 27.25324 25.12133
# Shear Modulus (GPa) = 123.19592 -6.11310 58.54141
#
# Velocity S-wave (km/s) = 7.13684 -1.58979 4.91971
# Velocity P-wave (km/s) = 8.79872 2.81030 6.53128
#
# Compressibility (1/GPa) = 0.04349826
#
# Stress axis : x y z
#
# Youngs Moduli (GPa) = 112.82921 46.31057 110.45031
#
# Poissons Ratio (x) = 0.00665 -0.05246
# Poissons Ratio (y) = 0.01621 -0.18365
# Poissons Ratio (z) = -0.05359 -0.07700
#
# Static dielectric constant tensor:
#      x y z
#    x 1.951250 0.000000 0.000000 
#    y 0.000000 1.903720 0.000000 
#    z 0.000000 0.000000 1.910730 
# 
# From -- ./inp_files/25073.got.cif
#   From: 2010.05.17/outbox.cif.g08.bks.cpg/sg38_13_cif.got.tgz:25073.got - 2010.06.03 18:07:57.
