data_PCOD9359863
_publ_section_title
;
Structure prediction by ZEFSAII (Michael W. Deem and Ramdas Pophale) SiO2 
 PCOD9359863
Probable space group: A B M 2
;
_chemical_formula_sum "Si O2"
_cell_formula_units_Z 64
_cell_length_a 19.897799
_cell_length_b 8.523398
_cell_length_c 21.145411
_cell_angle_alpha 90.000000
_cell_angle_beta 90.000000
_cell_angle_gamma 90.000000
_cell_volume 3586.195313
_symmetry_space_group_name_H-M "A B M 2"
_symmetry_group_IT_number 39
_symmetry_cell_setting 'orthorhombic'
loop_
_space_group_symop_operation_xyz
x,y,z
-x,-y,z
-x,1/2+y,z
x,1/2-y,z
x,1/2+y,1/2+z
-x,1/2-y,1/2+z
-x,y,1/2+z
x,-y,1/2+z
loop_
_atom_site_type_symbol
_atom_site_label
_atom_site_fract_x
_atom_site_fract_y
_atom_site_fract_z
Si Si1 0.427346 0.061656 0.959620
Si Si2 0.207406 0.062096 0.531820
Si Si3 0.715034 0.439351 0.409626
Si Si4 0.926581 0.437936 0.585952
Si Si5 0.711358 0.059112 0.156544
Si Si6 0.571974 0.061696 0.102832
Si Si7 0.788836 0.559917 0.782003
Si Si8 0.073655 0.437799 0.232950
O O1 0.429683 0.250000 0.961139
O O2 0.362557 0.010346 0.919192
O O3 0.500000 0.000000 0.937684
O O4 0.417475 0.001038 0.031475
O O5 0.209993 0.250000 0.529401
O O6 0.247763 0.008587 0.594450
O O7 0.242726 0.994882 0.469970
O O8 0.131512 0.006215 0.542162
O O9 0.714687 0.250000 0.408892
O O10 0.751052 0.493017 0.345421
O O11 0.925502 0.250000 0.583843
O O12 0.914698 0.487654 0.659415
O O13 0.000000 0.500000 0.568243
O O14 0.712579 0.250000 0.157490
O O15 0.634263 0.011554 0.146243
O O16 0.747205 0.005425 0.220352
O O17 0.570514 0.250000 0.099657
O O18 0.500000 0.000000 0.124986
O O19 0.789958 0.750000 0.781745
O O20 0.864945 0.501313 0.774293
O O21 0.072989 0.250000 0.234736
O O22 0.000000 0.500000 0.251407
#
# Coordination Sequence:
#
# PCOD9359863 Si02
#       8
#     8   8   8   8   8   8   8   8
#     4  10  19  32  51  77 105 138 180 222 270 323
#     4  11  20  34  57  82 109 142 180 224 272 323
#     4  10  22  37  55  80 111 147 183 226 274 324
#     4  10  20  34  54  83 115 144 180 226 274 325
#     4   9  18  32  54  79 104 138 179 219 267 321
#     4  10  18  31  50  78 107 138 177 223 274 322
#     4  10  20  38  58  78 109 147 185 223 268 326
#     4  10  20  34  55  83 111 142 179 223 269 321
#
# _framework density 17.846211
#
# number of rings (size 3 to 8) (size 9 to 14) (size 15 to 20)
#    0.000    2.000    2.500    2.625    0.000    2.000 
#    0.000    2.500    0.000    3.000    0.000    0.000 
#    0.000    0.000    0.000    0.000    0.000    0.000 
#
# Total GULP energy -178596.293314 kJ/mol
# GULP energy per Si atom -5581.134166 kJ/mol
# Density = 1.780559 g / cm^3
# Si number density = 17.846211 Si / 1000 Ang^3
#
#
#
# Elastic Constant Matrix: (Units=GPa)
#
#
# Indices 1 2 3 4 5 6 
#
# 1 188.0893 26.3471 86.5288 0.0000 0.0000 0.0000
# 2 26.3471 24.2465 19.0163 0.0000 0.0000 0.0000
# 3 86.5288 19.0163 114.8174 0.0000 0.0000 0.0000
# 4 0.0000 0.0000 0.0000 18.3598 0.0000 0.0000
# 5 0.0000 0.0000 0.0000 0.0000 26.5625 0.0000
# 6 0.0000 0.0000 0.0000 0.0000 0.0000 25.6385
#
#
#
# Elastic Compliance Matrix: (Units=1/GPa)
#
#
# Indices 1 2 3 4 5 6 
#
# 1 0.008618 -0.004909 -0.005682 0.000000 0.000000 0.000000
# 2 -0.004909 0.050196 -0.004614 0.000000 0.000000 0.000000
# 3 -0.005682 -0.004614 0.013756 0.000000 0.000000 0.000000
# 4 0.000000 0.000000 0.000000 0.054467 0.000000 0.000000
# 5 0.000000 0.000000 0.000000 0.000000 0.037647 0.000000
# 6 0.000000 0.000000 0.000000 0.000000 0.000000 0.039004
#
#
# Mechanical properties :
#
#
# Convention : Reuss Voigt Hill
#
# Bulk Modulus (GPa) = 23.71904 65.65972 44.68938
# Shear Modulus (GPa) = 20.14910 27.12957 23.63933
#
# Velocity S-wave (km/s) = 3.36377 3.90319 3.64347
# Velocity P-wave (km/s) = 5.32975 7.56208 6.54183
#
# Compressibility (1/GPa) = 0.04216022
#
# Stress axis : x y z
#
# Youngs Moduli (GPa) = 116.03551 19.92195 72.69748
#
# Poissons Ratio (x) = 0.09779 0.41305
# Poissons Ratio (y) = 0.56956 0.33545
# Poissons Ratio (z) = 0.65929 0.09193
#
# Static dielectric constant tensor:
#      x y z
#    x 1.618520 0.000000 0.000000 
#    y 0.000000 1.608990 0.000000 
#    z 0.000000 0.000000 1.588650 
# 
# From -- ./inp_files/13187.got.cif
#   From: 2010.05.17/outbox.cif.g08.bks.cpg/sg39_7_cif.got.tgz:13187.got - 2010.06.03 18:22:40.
