data_PCOD9359443
_publ_section_title
;
Structure prediction by ZEFSAII (Michael W. Deem and Ramdas Pophale) SiO2 
 PCOD9359443
Probable space group: A M M 2
;
_chemical_formula_sum "Si O2"
_cell_formula_units_Z 56
_cell_length_a 16.222722
_cell_length_b 7.753423
_cell_length_c 20.884794
_cell_angle_alpha 90.000000
_cell_angle_beta 90.000000
_cell_angle_gamma 90.000000
_cell_volume 2626.923345
_symmetry_space_group_name_H-M "A M M 2"
_symmetry_group_IT_number 38
_symmetry_cell_setting 'orthorhombic'
loop_
_space_group_symop_operation_xyz
x,y,z
-x,-y,z
-x,y,z
x,-y,z
x,1/2+y,1/2+z
-x,1/2-y,1/2+z
-x,1/2+y,1/2+z
x,1/2-y,1/2+z
loop_
_atom_site_type_symbol
_atom_site_label
_atom_site_fract_x
_atom_site_fract_y
_atom_site_fract_z
Si Si1 0.266723 0.706793 0.038410
Si Si2 0.089722 0.198408 0.718696
Si Si3 0.865986 0.792655 0.359685
Si Si4 0.680972 0.790917 0.402311
Si Si5 0.273775 0.297480 0.679802
Si Si6 0.408294 0.711814 0.780044
Si Si7 0.912470 0.789938 0.502492
O O1 0.262574 0.500000 0.031928
O O2 0.299079 0.744670 0.108494
O O3 0.315179 0.771612 0.975618
O O4 0.172121 0.772305 0.033699
O O5 0.098567 0.211225 0.795739
O O6 0.177005 0.263088 0.692049
O O7 0.000000 0.277225 0.701438
O O8 0.086584 0.000000 0.698497
O O9 0.769642 0.751795 0.370190
O O10 0.907410 0.746278 0.427063
O O11 0.873199 0.000000 0.351952
O O12 0.612420 0.732006 0.352547
O O13 0.675852 0.000000 0.405086
O O14 0.283053 0.500000 0.684450
O O15 0.335803 0.224211 0.733206
O O16 0.500000 0.764453 0.760461
O O17 0.406730 0.500000 0.780122
O O18 0.000000 0.730198 0.529412
O O19 0.911585 0.000000 0.506083
#
# Coordination Sequence:
#
# PCOD9359443 Si02
#       7
#     8   8   8   8   8   8   8
#     4   9  18  32  52  75 107 145 178 218 271 325
#     4  11  23  35  49  74 109 148 186 225 274 326
#     4   9  15  28  51  77 103 133 175 225 271 317
#     4   8  14  29  53  80 106 135 175 220 265 320
#     4  11  22  37  56  79 110 146 186 229 271 321
#     4   9  17  32  58  87 109 136 181 231 273 320
#     4   8  14  25  45  72 100 135 179 221 261 313
#
# _framework density 21.317713000000001
#
# number of rings (size 3 to 8) (size 9 to 14) (size 15 to 20)
#    0.000    2.714    1.429    3.000    0.000    2.286 
#    0.000    5.000    0.000    3.429    0.000    0.000 
#    0.000    0.000    0.000    0.000    0.000    0.000 
#
# Total GULP energy -156135.267658 kJ/mol
# GULP energy per Si atom -5576.259559 kJ/mol
# Density = 2.126919 g / cm^3
# Si number density = 21.317713 Si / 1000 Ang^3
#
#
#
# Elastic Constant Matrix: (Units=GPa)
#
#
# Indices 1 2 3 4 5 6 
#
# 1 84.3959 2.8979 70.5606 0.0000 0.0000 0.0000
# 2 2.8979 24.6362 5.3007 0.0000 0.0000 0.0000
# 3 70.5606 5.3007 128.6304 0.0000 0.0000 0.0000
# 4 0.0000 0.0000 0.0000 20.8429 0.0000 0.0000
# 5 0.0000 0.0000 0.0000 0.0000 20.8739 0.0000
# 6 0.0000 0.0000 0.0000 0.0000 0.0000 -1.2224
#
#
#
# Elastic Compliance Matrix: (Units=1/GPa)
#
#
# Indices 1 2 3 4 5 6 
#
# 1 0.021887 0.000009 -0.012006 0.000000 0.000000 0.000000
# 2 0.000009 0.040954 -0.001692 0.000000 0.000000 0.000000
# 3 -0.012006 -0.001692 0.014430 0.000000 0.000000 0.000000
# 4 0.000000 0.000000 0.000000 0.047978 0.000000 0.000000
# 5 0.000000 0.000000 0.000000 0.000000 0.047907 0.000000
# 6 0.000000 0.000000 0.000000 0.000000 0.000000 -0.818080
#
#
# Mechanical properties :
#
#
# Convention : Reuss Voigt Hill
#
# Bulk Modulus (GPa) = 20.04388 43.90899 31.97643
# Shear Modulus (GPa) = -8.32066 18.69242 5.18588
#
# Velocity S-wave (km/s) = -1.97779 2.96438 1.56139
# Velocity P-wave (km/s) = 2.05118 5.68848 4.27587
#
# Compressibility (1/GPa) = 0.04989055
#
# Stress axis : x y z
#
# Youngs Moduli (GPa) = 45.68967 24.41771 69.29947
#
# Poissons Ratio (x) = -0.00021 0.83204
# Poissons Ratio (y) = -0.00040 0.11729
# Poissons Ratio (z) = 0.54857 0.04133
#
# Static dielectric constant tensor:
#      x y z
#    x 1.777220 0.000000 0.000000 
#    y 0.000000 1.791240 0.000000 
#    z 0.000000 0.000000 1.789380 
# 
# From -- ./inp_files/21082.got.cif
#   From: 2010.05.17/outbox.cif.g08.bks.cpg/sg38_11_cif.got.tgz:21082.got - 2010.06.03 18:07:57.
