data_PCOD9359441
_publ_section_title
;
Structure prediction by ZEFSAII (Michael W. Deem and Ramdas Pophale) SiO2 
 PCOD9359441
Probable space group: A M M 2
;
_chemical_formula_sum "Si O2"
_cell_formula_units_Z 64
_cell_length_a 24.442991
_cell_length_b 7.942595
_cell_length_c 15.952747
_cell_angle_alpha 90.000000
_cell_angle_beta 90.000000
_cell_angle_gamma 90.000000
_cell_volume 3097.078715
_symmetry_space_group_name_H-M "A M M 2"
_symmetry_group_IT_number 38
_symmetry_cell_setting 'orthorhombic'
loop_
_space_group_symop_operation_xyz
x,y,z
-x,-y,z
-x,y,z
x,-y,z
x,1/2+y,1/2+z
-x,1/2-y,1/2+z
-x,1/2+y,1/2+z
x,1/2-y,1/2+z
loop_
_atom_site_type_symbol
_atom_site_label
_atom_site_fract_x
_atom_site_fract_y
_atom_site_fract_z
Si Si1 0.867719 0.803018 0.049660
Si Si2 0.323918 0.793207 0.366149
Si Si3 0.322731 0.303827 0.681966
Si Si4 0.938403 0.798670 0.706099
Si Si5 0.063269 0.205342 0.893838
Si Si6 0.559823 0.204394 0.431460
Si Si7 0.560740 0.296911 0.129768
Si Si8 0.745135 0.804018 0.524604
O O1 0.895046 0.737530 0.134372
O O2 0.803106 0.777174 0.044442
O O3 0.879237 0.000000 0.049430
O O4 0.897431 0.730260 0.966962
O O5 0.305538 0.740586 0.273694
O O6 0.386057 0.735939 0.384539
O O7 0.285246 0.735990 0.441853
O O8 0.324734 0.000000 0.366971
O O9 0.308265 0.500000 0.674857
O O10 0.388210 0.284332 0.675807
O O11 0.295157 0.213116 0.603700
O O12 0.923336 0.736139 0.799408
O O13 0.000000 0.735741 0.685091
O O14 0.942216 0.000000 0.712439
O O15 0.000000 0.249205 0.911308
O O16 0.066222 0.000000 0.892805
O O17 0.500000 0.264795 0.402097
O O18 0.564914 0.243978 0.530500
O O19 0.559380 0.000000 0.426177
O O20 0.500000 0.245385 0.158556
O O21 0.564690 0.500000 0.136795
O O22 0.755695 0.000000 0.509479
#
# Coordination Sequence:
#
# PCOD9359441 Si02
#       8
#     8   8   8   8   8   8   8   8
#     4  11  22  36  57  85 115 146 186 235 283 323
#     4   9  19  35  56  80 106 140 183 227 277 334
#     4  11  22  36  57  86 113 137 176 236 291 329
#     4   9  18  35  59  87 119 154 189 221 262 326
#     4   8  16  33  57  84 116 151 183 220 271 328
#     4   8  13  26  52  80 103 134 177 216 256 320
#     4   9  17  32  56  82 110 147 185 217 262 334
#     4  11  23  42  60  75 105 150 195 231 272 334
#
# _framework density 20.664634
#
# number of rings (size 3 to 8) (size 9 to 14) (size 15 to 20)
#    0.000    2.500    1.250    3.000    0.000    2.500 
#    0.000    7.500    0.000    1.500    0.000    0.000 
#    0.000    0.000    0.000    0.000    0.000    0.000 
#
# Total GULP energy -178600.806302 kJ/mol
# GULP energy per Si atom -5581.275197 kJ/mol
# Density = 2.061760 g / cm^3
# Si number density = 20.664634 Si / 1000 Ang^3
#
#
#
# Elastic Constant Matrix: (Units=GPa)
#
#
# Indices 1 2 3 4 5 6 
#
# 1 84.4364 -8.0710 53.2119 0.0000 0.0000 0.0000
# 2 -8.0710 16.5913 0.6072 0.0000 0.0000 0.0000
# 3 53.2119 0.6072 110.0875 0.0000 0.0000 0.0000
# 4 0.0000 0.0000 0.0000 13.3363 0.0000 0.0000
# 5 0.0000 0.0000 0.0000 0.0000 -8.4906 0.0000
# 6 0.0000 0.0000 0.0000 0.0000 0.0000 3.8937
#
#
#
# Elastic Compliance Matrix: (Units=1/GPa)
#
#
# Indices 1 2 3 4 5 6 
#
# 1 0.018349 0.009253 -0.008920 0.000000 0.000000 0.000000
# 2 0.009253 0.064950 -0.004831 0.000000 0.000000 0.000000
# 3 -0.008920 -0.004831 0.013422 0.000000 0.000000 0.000000
# 4 0.000000 0.000000 0.000000 0.074983 0.000000 0.000000
# 5 0.000000 0.000000 0.000000 0.000000 -0.117777 0.000000
# 6 0.000000 0.000000 0.000000 0.000000 0.000000 0.256823
#
#
# Mechanical properties :
#
#
# Convention : Reuss Voigt Hill
#
# Bulk Modulus (GPa) = 11.39922 33.62348 22.51135
# Shear Modulus (GPa) = 14.32709 12.77235 13.54972
#
# Velocity S-wave (km/s) = 2.63594 2.48881 2.56343
# Velocity P-wave (km/s) = 3.84611 4.95634 4.43609
#
# Compressibility (1/GPa) = 0.08772530
#
# Stress axis : x y z
#
# Youngs Moduli (GPa) = 54.49801 15.39634 74.50410
#
# Poissons Ratio (x) = -0.14246 0.66460
# Poissons Ratio (y) = -0.50425 0.35990
# Poissons Ratio (z) = 0.48614 0.07437
#
# Static dielectric constant tensor:
#      x y z
#    x 1.710840 0.000000 0.000000 
#    y 0.000000 1.746800 0.000000 
#    z 0.000000 0.000000 1.753720 
# 
# From -- ./inp_files/15807.got.cif
#   From: 2010.05.17/outbox.cif.g08.bks.cpg/sg38_8_cif.got.tgz:15807.got - 2010.06.03 18:07:57.
