data_PCOD9359289
_publ_section_title
;
Structure prediction by ZEFSAII (Michael W. Deem and Ramdas Pophale) SiO2 
 PCOD9359289
Probable space group: A M M 2
;
_chemical_formula_sum "Si O2"
_cell_formula_units_Z 64
_cell_length_a 19.609874
_cell_length_b 16.969069
_cell_length_c 9.120237
_cell_angle_alpha 90.000000
_cell_angle_beta 90.000000
_cell_angle_gamma 90.000000
_cell_volume 3034.861966
_symmetry_space_group_name_H-M "A M M 2"
_symmetry_group_IT_number 38
_symmetry_cell_setting 'orthorhombic'
loop_
_space_group_symop_operation_xyz
x,y,z
-x,-y,z
-x,y,z
x,-y,z
x,1/2+y,1/2+z
-x,1/2-y,1/2+z
-x,1/2+y,1/2+z
x,1/2-y,1/2+z
loop_
_atom_site_type_symbol
_atom_site_label
_atom_site_fract_x
_atom_site_fract_y
_atom_site_fract_z
Si Si1 0.422310 0.341047 0.142900
Si Si2 0.781142 0.619187 0.400165
Si Si3 0.282032 0.085848 0.606176
Si Si4 0.577621 0.830018 0.993782
Si Si5 0.303549 0.411235 0.673289
Si Si6 0.782694 0.690763 0.885228
Si Si7 0.924180 0.305873 0.731544
Si Si8 0.073826 0.357347 0.392263
O O1 0.500000 0.370475 0.121735
O O2 0.361322 0.394642 0.083549
O O3 0.411973 0.329110 0.318140
O O4 0.416418 0.257804 0.059523
O O5 0.730620 0.587350 0.278895
O O6 0.757830 0.590137 0.556894
O O7 0.778436 0.714988 0.395655
O O8 0.858188 0.594514 0.366639
O O9 0.231839 0.152221 0.542248
O O10 0.263911 0.000000 0.547058
O O11 0.500000 0.857156 0.019591
O O12 0.631212 0.882486 0.081844
O O13 0.313360 0.500000 0.728999
O O14 0.278965 0.347329 0.791658
O O15 0.855775 0.666358 0.815657
O O16 0.918311 0.320409 0.557157
O O17 0.926222 0.213872 0.775433
O O18 0.000000 0.337509 0.775662
O O19 0.000000 0.396803 0.387103
#
# Coordination Sequence:
#
# PCOD9359289 Si02
#       8
#     8   8   8   8   8   8   8   8
#     4  10  22  41  65  91 120 156 201 247 296 356
#     4  11  21  38  64  88 116 156 203 251 293 353
#     4  12  26  41  59  90 127 161 198 246 303 357
#     4  10  22  40  64  92 120 156 201 248 297 355
#     4  12  24  39  59  89 124 157 195 245 300 351
#     4  11  23  40  62  89 119 162 204 247 297 357
#     4   9  18  33  56  88 120 150 197 256 304 348
#     4   9  18  32  55  89 120 150 197 256 306 347
#
# _framework density 21.088273000000001
#
# number of rings (size 3 to 8) (size 9 to 14) (size 15 to 20)
#    0.000    1.500    2.500    3.000    7.000    0.500 
#    0.000    1.250    0.000    6.000    0.000    0.000 
#    0.000    0.000    0.000    0.000    0.000    0.000 
#
# Total GULP energy -178643.404646 kJ/mol
# GULP energy per Si atom -5582.606395 kJ/mol
# Density = 2.104027 g / cm^3
# Si number density = 21.088273 Si / 1000 Ang^3
#
#
#
# Elastic Constant Matrix: (Units=GPa)
#
#
# Indices 1 2 3 4 5 6 
#
# 1 119.6558 27.6513 -5.2626 0.0000 0.0000 0.0000
# 2 27.6513 85.2271 5.8730 0.0000 0.0000 0.0000
# 3 -5.2626 5.8730 39.1173 0.0000 0.0000 0.0000
# 4 0.0000 0.0000 0.0000 1.9467 0.0000 0.0000
# 5 0.0000 0.0000 0.0000 0.0000 34.5068 0.0000
# 6 0.0000 0.0000 0.0000 0.0000 0.0000 -8.6887
#
#
#
# Elastic Compliance Matrix: (Units=1/GPa)
#
#
# Indices 1 2 3 4 5 6 
#
# 1 0.009144 -0.003083 0.001693 0.000000 0.000000 0.000000
# 2 -0.003083 0.012896 -0.002351 0.000000 0.000000 0.000000
# 3 0.001693 -0.002351 0.026145 0.000000 0.000000 0.000000
# 4 0.000000 0.000000 0.000000 0.513701 0.000000 0.000000
# 5 0.000000 0.000000 0.000000 0.000000 0.028980 0.000000
# 6 0.000000 0.000000 0.000000 0.000000 0.000000 -0.115092
#
#
# Mechanical properties :
#
#
# Convention : Reuss Voigt Hill
#
# Bulk Modulus (GPa) = 24.56856 33.39151 28.98004
# Shear Modulus (GPa) = 10.06393 19.93551 14.99972
#
# Velocity S-wave (km/s) = 2.18693 3.07797 2.66988
# Velocity P-wave (km/s) = 4.24882 5.33858 4.82457
#
# Compressibility (1/GPa) = 0.04070242
#
# Stress axis : x y z
#
# Youngs Moduli (GPa) = 109.35729 77.54477 38.24835
#
# Poissons Ratio (x) = 0.23911 -0.06476
# Poissons Ratio (y) = 0.33720 0.08992
# Poissons Ratio (z) = -0.18516 0.18231
#
# Static dielectric constant tensor:
#      x y z
#    x 1.793350 0.000000 0.000000 
#    y 0.000000 1.748800 0.000000 
#    z 0.000000 0.000000 1.772170 
# 
# From -- ./inp_files/6826.got.cif
#   From: 2010.05.17/outbox.cif.g08.bks.cpg/sg38_4_cif.got.tgz:6826.got - 2010.06.03 18:07:57.
