data_PCOD9359043
_publ_section_title
;
Structure prediction by ZEFSAII (Michael W. Deem and Ramdas Pophale) SiO2 
 PCOD9359043
Probable space group: A M M 2
;
_chemical_formula_sum "Si O2"
_cell_formula_units_Z 64
_cell_length_a 16.241531
_cell_length_b 13.533648
_cell_length_c 12.842272
_cell_angle_alpha 90.000000
_cell_angle_beta 90.000000
_cell_angle_gamma 90.000000
_cell_volume 2822.823382
_symmetry_space_group_name_H-M "A M M 2"
_symmetry_group_IT_number 38
_symmetry_cell_setting 'orthorhombic'
loop_
_space_group_symop_operation_xyz
x,y,z
-x,-y,z
-x,y,z
x,-y,z
x,1/2+y,1/2+z
-x,1/2-y,1/2+z
-x,1/2+y,1/2+z
x,1/2-y,1/2+z
loop_
_atom_site_type_symbol
_atom_site_label
_atom_site_fract_x
_atom_site_fract_y
_atom_site_fract_z
Si Si1 0.819787 0.685149 0.094320
Si Si2 0.224157 0.615707 0.478733
Si Si3 0.411375 0.613635 0.968268
Si Si4 0.357470 0.697122 0.172405
Si Si5 0.407609 0.381923 0.395881
Si Si6 0.691394 0.611160 0.773335
Si Si7 0.132569 0.609842 0.869425
Si Si8 0.090760 0.825790 0.807590
O O1 0.732560 0.654161 0.144383
O O2 0.885509 0.670804 0.185898
O O3 0.809555 0.799948 0.057265
O O4 0.839520 0.624942 0.989547
O O5 0.220660 0.500000 0.513087
O O6 0.319636 0.641473 0.451386
O O7 0.164520 0.628180 0.377402
O O8 0.500000 0.617547 0.915240
O O9 0.396022 0.500000 0.998512
O O10 0.344786 0.643316 0.884681
O O11 0.409797 0.675968 0.071492
O O12 0.394957 0.651839 0.276520
O O13 0.342621 0.812276 0.192030
O O14 0.500000 0.346945 0.430425
O O15 0.410664 0.500000 0.399390
O O16 0.664166 0.500000 0.751736
O O17 0.788168 0.612701 0.793158
O O18 0.095935 0.500000 0.858944
O O19 0.087006 0.710156 0.839953
O O20 0.000000 0.869524 0.826812
#
# Coordination Sequence:
#
# PCOD9359043 Si02
#       8
#     8   8   8   8   8   8   8   8
#     4  11  22  38  63  98 129 164 214 261 320 379
#     4  10  23  44  68  94 130 175 218 263 320 389
#     4  10  22  38  58  88 122 159 208 262 314 373
#     4  12  20  35  61  91 124 162 211 259 317 374
#     4  10  21  38  63  95 130 170 216 267 322 383
#     4  10  21  38  60  86 120 163 208 255 308 376
#     4  10  21  40  65  92 123 160 204 255 314 379
#     4  11  24  44  67  94 132 168 210 269 322 381
#
# _framework density 22.672333999999999
#
# number of rings (size 3 to 8) (size 9 to 14) (size 15 to 20)
#    0.000    1.500    3.750    1.500    0.000    6.500 
#    0.000    0.625    0.000    0.000    0.000    3.500 
#    0.000    0.000    0.000    0.000    0.000    0.000 
#
# Total GULP energy -178790.618524 kJ/mol
# GULP energy per Si atom -5587.206829 kJ/mol
# Density = 2.262073 g / cm^3
# Si number density = 22.672334 Si / 1000 Ang^3
#
#
#
# Elastic Constant Matrix: (Units=GPa)
#
#
# Indices 1 2 3 4 5 6 
#
# 1 116.1958 11.6030 22.1001 0.0000 0.0000 0.0000
# 2 11.6030 94.3984 15.9874 0.0000 0.0000 0.0000
# 3 22.1001 15.9874 76.9235 0.0000 0.0000 0.0000
# 4 0.0000 0.0000 0.0000 25.3551 0.0000 0.0000
# 5 0.0000 0.0000 0.0000 0.0000 10.2493 0.0000
# 6 0.0000 0.0000 0.0000 0.0000 0.0000 9.3307
#
#
#
# Elastic Compliance Matrix: (Units=1/GPa)
#
#
# Indices 1 2 3 4 5 6 
#
# 1 0.009149 -0.000704 -0.002482 0.000000 0.000000 0.000000
# 2 -0.000704 0.011034 -0.002091 0.000000 0.000000 0.000000
# 3 -0.002482 -0.002091 0.014148 0.000000 0.000000 0.000000
# 4 0.000000 0.000000 0.000000 0.039440 0.000000 0.000000
# 5 0.000000 0.000000 0.000000 0.000000 0.097568 0.000000
# 6 0.000000 0.000000 0.000000 0.000000 0.000000 0.107173
#
#
# Mechanical properties :
#
#
# Convention : Reuss Voigt Hill
#
# Bulk Modulus (GPa) = 42.05932 42.98875 42.52403
# Shear Modulus (GPa) = 16.83557 24.84217 20.83887
#
# Velocity S-wave (km/s) = 2.72795 3.31373 3.03501
# Velocity P-wave (km/s) = 5.33980 5.80027 5.57479
#
# Compressibility (1/GPa) = 0.02377594
#
# Stress axis : x y z
#
# Youngs Moduli (GPa) = 109.30696 90.62830 70.68342
#
# Poissons Ratio (x) = 0.06381 0.17544
# Poissons Ratio (y) = 0.07697 0.14780
# Poissons Ratio (z) = 0.27130 0.18950
#
# Static dielectric constant tensor:
#      x y z
#    x 1.774800 0.000000 0.000000 
#    y 0.000000 1.862650 0.000000 
#    z 0.000000 0.000000 1.828320 
# 
# From -- ./inp_files/10592.got.cif
#   From: 2010.05.17/outbox.cif.g08.bks.cpg/sg38_6_cif.got.tgz:10592.got - 2010.06.03 18:07:57.
