data_PCOD9359030
_publ_section_title
;
Structure prediction by ZEFSAII (Michael W. Deem and Ramdas Pophale) SiO2 
 PCOD9359030
Probable space group: A M M 2
;
_chemical_formula_sum "Si O2"
_cell_formula_units_Z 48
_cell_length_a 7.327666
_cell_length_b 9.142137
_cell_length_c 36.059920
_cell_angle_alpha 90.000000
_cell_angle_beta 90.000000
_cell_angle_gamma 90.000000
_cell_volume 2415.673025
_symmetry_space_group_name_H-M "A M M 2"
_symmetry_group_IT_number 38
_symmetry_cell_setting 'orthorhombic'
loop_
_space_group_symop_operation_xyz
x,y,z
-x,-y,z
-x,y,z
x,-y,z
x,1/2+y,1/2+z
-x,1/2-y,1/2+z
-x,1/2+y,1/2+z
x,1/2-y,1/2+z
loop_
_atom_site_type_symbol
_atom_site_label
_atom_site_fract_x
_atom_site_fract_y
_atom_site_fract_z
Si Si1 0.221974 0.168008 0.618990
Si Si2 0.777202 0.831558 0.044495
Si Si3 0.500000 0.322728 0.333416
Si Si4 0.500000 0.323416 0.248123
Si Si5 0.781485 0.672538 0.694963
Si Si6 0.222396 0.168279 0.469928
Si Si7 0.784728 0.174316 0.894413
O O1 0.281690 0.243086 0.580829
O O2 0.273406 0.260008 0.655206
O O3 0.000000 0.167091 0.618227
O O4 0.281792 0.000000 0.621689
O O5 0.000000 0.830161 0.044504
O O6 0.720657 0.000000 0.046248
O O7 0.718448 0.755714 0.006367
O O8 0.500000 0.500000 0.331926
O O9 0.500000 0.274360 0.291019
O O10 0.326320 0.278921 0.358155
O O11 0.500000 0.500000 0.246289
O O12 0.674013 0.258672 0.226626
O O13 0.740003 0.500000 0.696118
O O14 0.000000 0.690052 0.698868
O O15 0.277624 0.243883 0.431553
O O16 0.000000 0.170868 0.470135
O O17 0.279294 0.000000 0.471621
O O18 0.000000 0.199820 0.889436
O O19 0.757672 0.000000 0.899746
#
# Coordination Sequence:
#
# PCOD9359030 Si02
#       7
#     8   8   4   4   8   8   8
#     4   9  16  27  46  74 107 143 184 229 275 322
#     4   9  15  23  39  67 103 142 183 223 264 315
#     4   9  20  37  57  82 107 134 173 219 269 328
#     4  11  23  39  61  88 115 144 183 233 287 342
#     4  10  21  38  59  83 114 152 191 231 279 338
#     4   9  16  26  42  68 102 138 177 220 264 311
#     4   9  17  32  54  77 103 137 175 215 262 318
#
# _framework density 19.870236999999999
#
# number of rings (size 3 to 8) (size 9 to 14) (size 15 to 20)
#    0.000    2.667    0.000    2.250    0.000    7.667 
#    0.000    3.750    0.000    3.000    0.000    5.833 
#    0.000    0.000    0.000    0.000    0.000    0.000 
#
# Total GULP energy -134069.604315 kJ/mol
# GULP energy per Si atom -5586.233513 kJ/mol
# Density = 1.982501 g / cm^3
# Si number density = 19.870237 Si / 1000 Ang^3
#
#
#
# Elastic Constant Matrix: (Units=GPa)
#
#
# Indices 1 2 3 4 5 6 
#
# 1 82.7364 39.2993 49.9631 0.0000 0.0000 0.0000
# 2 39.2993 137.1215 99.4668 0.0000 0.0000 0.0000
# 3 49.9631 99.4668 223.2556 0.0000 0.0000 0.0000
# 4 0.0000 0.0000 0.0000 32.7731 0.0000 0.0000
# 5 0.0000 0.0000 0.0000 0.0000 45.2199 0.0000
# 6 0.0000 0.0000 0.0000 0.0000 0.0000 7.7148
#
#
#
# Elastic Compliance Matrix: (Units=1/GPa)
#
#
# Indices 1 2 3 4 5 6 
#
# 1 0.014614 -0.002683 -0.002075 0.000000 0.000000 0.000000
# 2 -0.002683 0.011268 -0.004420 0.000000 0.000000 0.000000
# 3 -0.002075 -0.004420 0.006913 0.000000 0.000000 0.000000
# 4 0.000000 0.000000 0.000000 0.030513 0.000000 0.000000
# 5 0.000000 0.000000 0.000000 0.000000 0.022114 0.000000
# 6 0.000000 0.000000 0.000000 0.000000 0.000000 0.129622
#
#
# Mechanical properties :
#
#
# Convention : Reuss Voigt Hill
#
# Bulk Modulus (GPa) = 69.25815 91.17466 80.21640
# Shear Modulus (GPa) = 20.98969 34.10049 27.54509
#
# Velocity S-wave (km/s) = 3.25366 4.14715 3.72728
# Velocity P-wave (km/s) = 7.00328 8.30159 7.67992
#
# Compressibility (1/GPa) = 0.01443873
#
# Stress axis : x y z
#
# Youngs Moduli (GPa) = 68.42652 88.74859 144.66241
#
# Poissons Ratio (x) = 0.23813 0.30019
# Poissons Ratio (y) = 0.18360 0.63936
# Poissons Ratio (z) = 0.14199 0.39224
#
# Static dielectric constant tensor:
#      x y z
#    x 1.763990 0.000000 0.000000 
#    y 0.000000 1.661720 0.000000 
#    z 0.000000 0.000000 1.648610 
# 
# From -- ./inp_files/24304.got.cif
#   From: 2010.05.17/outbox.cif.g08.bks.cpg/sg38_13_cif.got.tgz:24304.got - 2010.06.03 18:07:57.
