data_PCOD9359211
_publ_section_title
;
Structure prediction by ZEFSAII (Michael W. Deem and Ramdas Pophale) SiO2 
 PCOD9359211
Probable space group: A M M 2
;
_chemical_formula_sum "Si O2"
_cell_formula_units_Z 64
_cell_length_a 25.896813
_cell_length_b 7.623330
_cell_length_c 15.147150
_cell_angle_alpha 90.000000
_cell_angle_beta 90.000000
_cell_angle_gamma 90.000000
_cell_volume 2990.349618
_symmetry_space_group_name_H-M "A M M 2"
_symmetry_group_IT_number 38
_symmetry_cell_setting 'orthorhombic'
loop_
_space_group_symop_operation_xyz
x,y,z
-x,-y,z
-x,y,z
x,-y,z
x,1/2+y,1/2+z
-x,1/2-y,1/2+z
-x,1/2+y,1/2+z
x,1/2-y,1/2+z
loop_
_atom_site_type_symbol
_atom_site_label
_atom_site_fract_x
_atom_site_fract_y
_atom_site_fract_z
Si Si1 0.942020 0.285455 0.712920
Si Si2 0.255310 0.708640 0.373420
Si Si3 0.444685 0.712952 0.217774
Si Si4 0.942106 0.211930 0.009466
Si Si5 0.668232 0.711821 0.520520
Si Si6 0.136379 0.703273 0.857296
Si Si7 0.332430 0.710208 0.227266
Si Si8 0.444342 0.706901 0.508761
O O1 0.942108 0.500000 0.715131
O O2 0.933916 0.234649 0.611116
O O3 0.897918 0.217863 0.778011
O O4 0.000000 0.230430 0.739881
O O5 0.262845 0.500000 0.374353
O O6 0.284704 0.776184 0.460496
O O7 0.194337 0.733185 0.369776
O O8 0.286476 0.778647 0.288425
O O9 0.500000 0.769404 0.256616
O O10 0.444365 0.500000 0.218733
O O11 0.389789 0.773724 0.255306
O O12 0.444548 0.772819 0.115466
O O13 0.000000 0.269819 0.982632
O O14 0.941629 0.000000 0.007270
O O15 0.898106 0.276378 0.944561
O O16 0.665821 0.500000 0.515910
O O17 0.674615 0.754562 0.623527
O O18 0.612350 0.777487 0.485024
O O19 0.141764 0.500000 0.836129
O O20 0.333575 0.500000 0.236526
O O21 0.500000 0.780458 0.478469
O O22 0.444782 0.500000 0.485841
#
# Coordination Sequence:
#
# PCOD9359211 Si02
#       8
#     8   8   8   8   8   8   8   8
#     4   8  16  33  56  80 106 135 164 196 241 297
#     4  10  22  38  51  68 100 138 175 212 253 302
#     4   8  13  23  42  68  94 120 153 195 249 310
#     4   9  18  35  59  84 110 140 169 198 243 302
#     4   9  18  33  52  71  95 131 168 205 255 311
#     4  11  22  35  54  79 106 137 175 217 253 286
#     4   9  18  33  52  72  97 130 166 210 259 303
#     4   8  13  23  42  68  93 117 152 199 249 302
#
# _framework density 21.402179
#
# number of rings (size 3 to 8) (size 9 to 14) (size 15 to 20)
#    0.000    3.000    0.000    1.500    0.000    2.750 
#    0.000    5.625    0.000    5.250    0.000    0.000 
#    0.000   21.000    0.000    0.000    0.000    0.000 
#
# Total GULP energy -178408.588096 kJ/mol
# GULP energy per Si atom -5575.268378 kJ/mol
# Density = 2.135347 g / cm^3
# Si number density = 21.402179 Si / 1000 Ang^3
#
#
#
# Elastic Constant Matrix: (Units=GPa)
#
#
# Indices 1 2 3 4 5 6 
#
# 1 221.8569 2.6517 92.7373 0.0000 0.0000 0.0000
# 2 2.6517 41.7579 -4.9426 0.0000 0.0000 0.0000
# 3 92.7373 -4.9426 88.2828 0.0000 0.0000 0.0000
# 4 0.0000 0.0000 0.0000 10.1446 0.0000 0.0000
# 5 0.0000 0.0000 0.0000 0.0000 -38.8335 0.0000
# 6 0.0000 0.0000 0.0000 0.0000 0.0000 8.2891
#
#
#
# Elastic Compliance Matrix: (Units=1/GPa)
#
#
# Indices 1 2 3 4 5 6 
#
# 1 0.008133 -0.001538 -0.008629 0.000000 0.000000 0.000000
# 2 -0.001538 0.024398 0.002981 0.000000 0.000000 0.000000
# 3 -0.008629 0.002981 0.020559 0.000000 0.000000 0.000000
# 4 0.000000 0.000000 0.000000 0.098574 0.000000 0.000000
# 5 0.000000 0.000000 0.000000 0.000000 -0.025751 0.000000
# 6 0.000000 0.000000 0.000000 0.000000 0.000000 0.120640
#
#
# Mechanical properties :
#
#
# Convention : Reuss Voigt Hill
#
# Bulk Modulus (GPa) = 25.82757 59.19894 42.51326
# Shear Modulus (GPa) = 18.25942 13.35014 15.80478
#
# Velocity S-wave (km/s) = 2.92405 2.50026 2.72042
# Velocity P-wave (km/s) = 4.84707 6.00461 5.45662
#
# Compressibility (1/GPa) = 0.03871831
#
# Stress axis : x y z
#
# Youngs Moduli (GPa) = 122.95720 40.98678 48.64064
#
# Poissons Ratio (x) = 0.06303 0.41974
# Poissons Ratio (y) = 0.18909 -0.14502
# Poissons Ratio (z) = 1.06104 -0.12220
#
# Static dielectric constant tensor:
#      x y z
#    x 1.807020 0.000000 0.000000 
#    y 0.000000 1.821540 0.000000 
#    z 0.000000 0.000000 1.783050 
# 
# From -- ./inp_files/15792.got.cif
#   From: 2010.05.17/outbox.cif.g08.bks.cpg/sg38_8_cif.got.tgz:15792.got - 2010.06.03 18:07:57.
