data_PCOD9359615
_publ_section_title
;
Structure prediction by ZEFSAII (Michael W. Deem and Ramdas Pophale) SiO2 
 PCOD9359615
Probable space group: A M M 2
;
_chemical_formula_sum "Si O2"
_cell_formula_units_Z 32
_cell_length_a 18.000000
_cell_length_b 9.000000
_cell_length_c 21.000000
_cell_angle_alpha 90.000000
_cell_angle_beta 90.000000
_cell_angle_gamma 90.000000
_cell_volume 3402.000000
_symmetry_space_group_name_H-M "A M M 2"
_symmetry_group_IT_number 38
_symmetry_cell_setting 'orthorhombic'
loop_
_space_group_symop_operation_xyz
x,y,z
-x,-y,z
-x,y,z
x,-y,z
x,1/2+y,1/2+z
-x,1/2-y,1/2+z
-x,1/2+y,1/2+z
x,1/2-y,1/2+z
loop_
_atom_site_type_symbol
_atom_site_label
_atom_site_fract_x
_atom_site_fract_y
_atom_site_fract_z
Si Si1 0.694440 0.681192 0.698690
Si Si2 0.149288 0.322343 0.635760
Si Si3 0.912610 0.178884 0.509679
Si Si4 0.847185 0.672875 0.874197
Si Si5 0.085571 0.331859 0.253130
Si Si6 0.413665 0.321622 0.588177
Si Si7 0.411371 0.675577 0.958913
Si Si8 0.321953 0.825629 0.342160
O O1 0.696111 0.500000 0.701983
O O2 0.771425 0.724050 0.665412
O O3 0.629645 0.726606 0.650911
O O4 0.683990 0.736704 0.770761
O O5 0.147019 0.500000 0.631122
O O6 0.131126 0.252365 0.567776
O O7 0.093246 0.263536 0.689303
O O8 0.882294 0.225738 0.440401
O O9 0.000000 0.214423 0.514942
O O10 0.904593 0.000000 0.513603
O O11 0.869345 0.500000 0.865412
O O12 0.871507 0.761148 0.811976
O O13 0.758415 0.679221 0.874935
O O14 0.110928 0.500000 0.240099
O O15 0.000000 0.335665 0.272202
O O16 0.500000 0.280493 0.593526
O O17 0.408628 0.500000 0.583880
O O18 0.383011 0.253249 0.522914
O O19 0.500000 0.691246 0.957359
O O20 0.393596 0.500000 0.962747
O O21 0.378408 0.739022 0.893512
O O22 0.342555 0.000000 0.333935
#
# Coordination Sequence:
#
# PCOD9359615 Si02
#       8
#     8   8   8   8   8   8   8   8
#     4   9  18  33  53  79 108 135 175 225 262 306
#     4  11  22  37  57  80 108 144 183 225 271 325
#     4  10  22  38  55  79 110 141 179 228 276 325
#     4  10  20  37  59  81 107 144 185 223 269 327
#     4  11  23  38  57  81 110 141 177 226 277 324
#     4   9  18  33  54  79 108 143 178 214 261 313
#     4   9  18  32  53  82 111 140 176 217 261 310
#     4   9  17  32  54  79 108 138 175 222 263 308
#
# _framework density 9.4062319999999993
#
# number of rings (size 3 to 8) (size 9 to 14) (size 15 to 20)
#    0.000    2.250    1.250    1.500    1.750    4.250 
#    0.000    3.750    0.000    0.000    0.000    3.500 
#    0.000    0.000    0.000    0.000    0.000    0.000 
#
# Total GULP energy -178408.343257 kJ/mol
# GULP energy per Si atom -5575.260727 kJ/mol
# Density = 0.938482 g / cm^3
# Si number density = 9.406232 Si / 1000 Ang^3
#
#
#
# Elastic Constant Matrix: (Units=GPa)
#
#
# Indices 1 2 3 4 5 6 
#
# 1 37.2326 18.1061 42.2690 0.0000 0.0000 0.0000
# 2 18.1061 9.0400 11.7550 0.0000 0.0000 0.0000
# 3 42.2690 11.7550 118.8069 0.0000 0.0000 0.0000
# 4 0.0000 0.0000 0.0000 29.4256 0.0000 0.0000
# 5 0.0000 0.0000 0.0000 0.0000 33.8674 0.0000
# 6 0.0000 0.0000 0.0000 0.0000 0.0000 11.8287
#
#
#
# Elastic Compliance Matrix: (Units=1/GPa)
#
#
# Indices 1 2 3 4 5 6 
#
# 1 -0.413437 0.730823 0.074783 0.000000 0.000000 0.000000
# 2 0.730823 -1.164904 -0.144754 0.000000 0.000000 0.000000
# 3 0.074783 -0.144754 -0.003867 0.000000 0.000000 0.000000
# 4 0.000000 0.000000 0.000000 0.033984 0.000000 0.000000
# 5 0.000000 0.000000 0.000000 0.000000 0.029527 0.000000
# 6 0.000000 0.000000 0.000000 0.000000 0.000000 0.084540
#
#
# Mechanical properties :
#
#
# Convention : Reuss Voigt Hill
#
# Bulk Modulus (GPa) = -3.83872 34.37109 15.26619
# Shear Modulus (GPa) = -1.75889 21.22097 9.73104
#
# Velocity S-wave (km/s) = -0.96798 3.36225 2.27681
# Velocity P-wave (km/s) = 1.81501 5.77781 3.87871
#
# Compressibility (1/GPa) = -0.26050383
#
# Stress axis : x y z
#
# Youngs Moduli (GPa) = -2.41875 -0.85844 -258.58941
#
# Poissons Ratio (x) = 0.62737 19.33819
# Poissons Ratio (y) = 1.76767 -37.43176
# Poissons Ratio (z) = 0.18088 -0.12426
#
# Static dielectric constant tensor:
#      x y z
#    x 1.680390 0.000000 0.000000 
#    y 0.000000 1.655830 0.000000 
#    z 0.000000 0.000000 1.636460 
# 
# From -- ./inp_files/21356.got.cif
#   From: 2010.05.17/outbox.ucp.g08.bks.cvg/sg38_11_cif.got.tgz:21356.got - 2010.06.11 10:39:43.
