data_PCOD9359765
_publ_section_title
;
Structure prediction by ZEFSAII (Michael W. Deem and Ramdas Pophale) SiO2 
 PCOD9359765
Probable space group: A B M 2
;
_chemical_formula_sum "Si O2"
_cell_formula_units_Z 56
_cell_length_a 14.902276
_cell_length_b 21.074732
_cell_length_c 9.561322
_cell_angle_alpha 90.000000
_cell_angle_beta 90.000000
_cell_angle_gamma 90.000000
_cell_volume 3002.842870
_symmetry_space_group_name_H-M "A B M 2"
_symmetry_group_IT_number 39
_symmetry_cell_setting 'orthorhombic'
loop_
_space_group_symop_operation_xyz
x,y,z
-x,-y,z
-x,1/2+y,z
x,1/2-y,z
x,1/2+y,1/2+z
-x,1/2-y,1/2+z
-x,y,1/2+z
x,-y,1/2+z
loop_
_atom_site_type_symbol
_atom_site_label
_atom_site_fract_x
_atom_site_fract_y
_atom_site_fract_z
Si Si1 0.397029 0.600421 0.805420
Si Si2 0.547732 0.568756 0.024186
Si Si3 0.264137 0.887512 0.041315
Si Si4 0.316362 0.461231 0.791355
Si Si5 0.910067 0.824297 0.643815
Si Si6 0.985864 0.399637 0.406392
Si Si7 0.140547 0.992435 0.906557
O O1 0.479959 0.596540 0.909846
O O2 0.433986 0.616543 0.652321
O O3 0.361579 0.529375 0.768425
O O4 0.317731 0.630649 0.899601
O O5 0.500000 0.500000 0.060460
O O6 0.640334 0.559244 0.938461
O O7 0.329603 0.912311 0.164457
O O8 0.193159 0.837414 0.100003
O O9 0.204196 0.949111 0.001459
O O10 0.210438 0.473646 0.804492
O O11 0.926108 0.750000 0.660162
O O12 0.936787 0.861445 0.784423
O O13 0.971177 0.853717 0.520736
O O14 0.917083 0.450725 0.472742
O O15 0.067520 0.443045 0.346596
#
# Coordination Sequence:
#
# PCOD9359765 Si02
#       7
#     8   8   8   8   8   8   8
#     4  10  18  29  46  74 111 146 177 209 264 329
#     4  10  18  28  46  75 114 155 175 202 257 341
#     4  10  20  33  51  78 110 144 180 227 275 327
#     4  10  17  29  46  74 111 143 175 211 266 327
#     4  11  23  40  56  76 104 146 194 238 282 327
#     4  10  21  36  57  76 105 141 183 232 283 335
#     4   9  19  30  52  82 109 137 177 225 280 337
#
# _framework density 18.648996
#
# number of rings (size 3 to 8) (size 9 to 14) (size 15 to 20)
#    0.000    2.000    1.429    5.143    2.000    1.143 
#    2.571    0.000    0.000    0.000    0.000    4.000 
#    0.000    0.000    0.000    0.000    0.000    0.000 
#
# Total GULP energy -155904.899040 kJ/mol
# GULP energy per Si atom -5568.032109 kJ/mol
# Density = 1.860655 g / cm^3
# Si number density = 18.648996 Si / 1000 Ang^3
#
#
#
# Elastic Constant Matrix: (Units=GPa)
#
#
# Indices 1 2 3 4 5 6 
#
# 1 47.4639 17.1363 2.8592 0.0000 0.0000 0.0000
# 2 17.1363 59.9181 13.6278 0.0000 0.0000 0.0000
# 3 2.8592 13.6278 61.4427 0.0000 0.0000 0.0000
# 4 0.0000 0.0000 0.0000 8.4703 0.0000 0.0000
# 5 0.0000 0.0000 0.0000 0.0000 27.9323 0.0000
# 6 0.0000 0.0000 0.0000 0.0000 0.0000 13.0524
#
#
#
# Elastic Compliance Matrix: (Units=1/GPa)
#
#
# Indices 1 2 3 4 5 6 
#
# 1 0.023505 -0.006817 0.000418 0.000000 0.000000 0.000000
# 2 -0.006817 0.019553 -0.004020 0.000000 0.000000 0.000000
# 3 0.000418 -0.004020 0.017147 0.000000 0.000000 0.000000
# 4 0.000000 0.000000 0.000000 0.118059 0.000000 0.000000
# 5 0.000000 0.000000 0.000000 0.000000 0.035801 0.000000
# 6 0.000000 0.000000 0.000000 0.000000 0.000000 0.076615
#
#
# Mechanical properties :
#
#
# Convention : Reuss Voigt Hill
#
# Bulk Modulus (GPa) = 25.40126 26.23014 25.81570
# Shear Modulus (GPa) = 15.40165 18.90443 17.15304
#
# Velocity S-wave (km/s) = 2.87691 3.18731 3.03608
# Velocity P-wave (km/s) = 4.96848 5.25747 5.11502
#
# Compressibility (1/GPa) = 0.03936813
#
# Stress axis : x y z
#
# Youngs Moduli (GPa) = 42.54457 51.14202 58.31789
#
# Poissons Ratio (x) = 0.34865 -0.02439
# Poissons Ratio (y) = 0.29004 0.23442
# Poissons Ratio (z) = -0.01780 0.20557
#
# Static dielectric constant tensor:
#      x y z
#    x 1.711150 0.000000 0.000000 
#    y 0.000000 1.617940 0.000000 
#    z 0.000000 0.000000 1.730470 
# 
# From -- ./inp_files/3397.got.cif
#   From: 2010.05.17/outbox.cif.g08.bks.cpg/sg39_2_cif.got.tgz:3397.got - 2010.06.03 18:22:40.
