data_PCOD9359340
_publ_section_title
;
Structure prediction by ZEFSAII (Michael W. Deem and Ramdas Pophale) SiO2 
 PCOD9359340
Probable space group: A M M 2
;
_chemical_formula_sum "Si O2"
_cell_formula_units_Z 48
_cell_length_a 15.750378
_cell_length_b 8.704209
_cell_length_c 18.077098
_cell_angle_alpha 90.000000
_cell_angle_beta 90.000000
_cell_angle_gamma 90.000000
_cell_volume 2478.272193
_symmetry_space_group_name_H-M "A M M 2"
_symmetry_group_IT_number 38
_symmetry_cell_setting 'orthorhombic'
loop_
_space_group_symop_operation_xyz
x,y,z
-x,-y,z
-x,y,z
x,-y,z
x,1/2+y,1/2+z
-x,1/2-y,1/2+z
-x,1/2+y,1/2+z
x,1/2-y,1/2+z
loop_
_atom_site_type_symbol
_atom_site_label
_atom_site_fract_x
_atom_site_fract_y
_atom_site_fract_z
Si Si1 0.333353 0.183604 0.368120
Si Si2 0.669364 0.815954 0.033055
Si Si3 0.166555 0.816085 0.615463
Si Si4 0.500000 0.317147 0.289275
Si Si5 0.834316 0.816142 0.790707
Si Si6 0.000000 0.316167 0.536401
Si Si7 0.000000 0.683664 0.870792
Si Si8 0.500000 0.316318 0.626052
O O1 0.333755 0.239369 0.452744
O O2 0.416618 0.247597 0.327496
O O3 0.249983 0.249799 0.328273
O O4 0.332497 0.000000 0.364737
O O5 0.750412 0.754634 0.077530
O O6 0.583831 0.780785 0.078619
O O7 0.675105 0.000000 0.024486
O O8 0.166660 0.784279 0.703077
O O9 0.083186 0.745523 0.578087
O O10 0.166281 0.000000 0.605031
O O11 0.500000 0.500000 0.298337
O O12 0.500000 0.272295 0.203154
O O13 0.916753 0.742064 0.828056
O O14 0.837102 0.000000 0.801088
O O15 0.000000 0.252951 0.453025
O O16 0.000000 0.500000 0.535511
O O17 0.000000 0.500000 0.874846
O O18 0.500000 0.500000 0.641292
#
# Coordination Sequence:
#
# PCOD9359340 Si02
#       8
#     8   8   8   4   8   4   4   4
#     4  12  25  42  65  93 127 165 209 258 309 368
#     4  11  23  41  65  93 127 165 208 256 308 367
#     4  11  24  42  64  92 126 163 205 255 310 369
#     4  12  25  42  65  93 127 165 207 256 311 370
#     4  11  24  43  66  93 127 165 207 256 311 370
#     4  12  25  42  65  91 123 163 207 256 311 370
#     4  12  25  42  65  93 127 165 209 258 309 368
#     4  10  23  42  65  93 125 163 207 256 307 364
#
# _framework density 19.368333
#
# number of rings (size 3 to 8) (size 9 to 14) (size 15 to 20)
#    0.000    0.667    0.000    8.250    0.000    9.333 
#    0.000    0.000    0.000    0.000    0.000    0.000 
#    0.000    0.000    0.000    0.000    0.000    0.000 
#
# Total GULP energy -134433.358969 kJ/mol
# GULP energy per Si atom -5601.389957 kJ/mol
# Density = 1.932425 g / cm^3
# Si number density = 19.368333 Si / 1000 Ang^3
#
#
#
# Elastic Constant Matrix: (Units=GPa)
#
#
# Indices 1 2 3 4 5 6 
#
# 1 207.6794 69.9622 88.1008 0.0000 0.0000 0.0000
# 2 69.9622 105.5573 73.7489 0.0000 0.0000 0.0000
# 3 88.1008 73.7489 141.3207 0.0000 0.0000 0.0000
# 4 0.0000 0.0000 0.0000 33.3803 0.0000 0.0000
# 5 0.0000 0.0000 0.0000 0.0000 37.7074 0.0000
# 6 0.0000 0.0000 0.0000 0.0000 0.0000 29.4992
#
#
#
# Elastic Compliance Matrix: (Units=1/GPa)
#
#
# Indices 1 2 3 4 5 6 
#
# 1 0.006936 -0.002480 -0.003029 0.000000 0.000000 0.000000
# 2 -0.002480 0.015797 -0.006697 0.000000 0.000000 0.000000
# 3 -0.003029 -0.006697 0.012460 0.000000 0.000000 0.000000
# 4 0.000000 0.000000 0.000000 0.029958 0.000000 0.000000
# 5 0.000000 0.000000 0.000000 0.000000 0.026520 0.000000
# 6 0.000000 0.000000 0.000000 0.000000 0.000000 0.033899
#
#
# Mechanical properties :
#
#
# Convention : Reuss Voigt Hill
#
# Bulk Modulus (GPa) = 92.78217 102.02015 97.40116
# Shear Modulus (GPa) = 32.55716 34.96707 33.76211
#
# Velocity S-wave (km/s) = 4.10438 4.25358 4.17965
# Velocity P-wave (km/s) = 8.39460 8.76995 8.58433
#
# Compressibility (1/GPa) = 0.01077793
#
# Stress axis : x y z
#
# Youngs Moduli (GPa) = 144.17822 63.30465 80.25896
#
# Poissons Ratio (x) = 0.15702 0.24314
# Poissons Ratio (y) = 0.35763 0.53751
# Poissons Ratio (z) = 0.43678 0.42396
#
# Static dielectric constant tensor:
#      x y z
#    x 1.629610 0.000000 0.000000 
#    y 0.000000 1.649220 0.000000 
#    z 0.000000 0.000000 1.636930 
# 
# From -- ./inp_files/18261.got.cif
#   From: 2010.05.17/outbox.cif.g08.bks.cpg/sg38_10_cif.got.tgz:18261.got - 2010.06.03 18:07:57.
