data_PCOD9359113
_publ_section_title
;
Structure prediction by ZEFSAII (Michael W. Deem and Ramdas Pophale) SiO2 
 PCOD9359113
Probable space group: A M M 2
;
_chemical_formula_sum "Si O2"
_cell_formula_units_Z 56
_cell_length_a 14.495000
_cell_length_b 20.757529
_cell_length_c 8.990441
_cell_angle_alpha 90.000000
_cell_angle_beta 90.000000
_cell_angle_gamma 90.000000
_cell_volume 2705.047330
_symmetry_space_group_name_H-M "A M M 2"
_symmetry_group_IT_number 38
_symmetry_cell_setting 'orthorhombic'
loop_
_space_group_symop_operation_xyz
x,y,z
-x,-y,z
-x,y,z
x,-y,z
x,1/2+y,1/2+z
-x,1/2-y,1/2+z
-x,1/2+y,1/2+z
x,1/2-y,1/2+z
loop_
_atom_site_type_symbol
_atom_site_label
_atom_site_fract_x
_atom_site_fract_y
_atom_site_fract_z
Si Si1 0.894139 0.694407 0.647700
Si Si2 0.397178 0.274135 0.291209
Si Si3 0.597615 0.395315 0.100767
Si Si4 0.195935 0.194231 0.832101
Si Si5 0.203864 0.071119 0.633824
Si Si6 0.398515 0.621595 0.750776
Si Si7 0.199407 0.574704 0.776335
O O1 0.828530 0.744021 0.733404
O O2 0.866026 0.695832 0.476750
O O3 0.873443 0.623394 0.708114
O O4 0.000000 0.712745 0.670280
O O5 0.500000 0.216226 0.860432
O O6 0.395261 0.319920 0.145361
O O7 0.304899 0.298346 0.374144
O O8 0.390372 0.199089 0.252070
O O9 0.500000 0.419048 0.160093
O O10 0.686288 0.430017 0.162356
O O11 0.596755 0.399912 0.923711
O O12 0.173310 0.130734 0.734785
O O13 0.197274 0.084830 0.456361
O O14 0.164116 0.000000 0.663671
O O15 0.500000 0.604674 0.684315
O O16 0.300245 0.591728 0.705703
O O17 0.180314 0.500000 0.749858
#
# Coordination Sequence:
#
# PCOD9359113 Si02
#       7
#     8   8   8   8   8   8   8
#     4  12  26  44  66  90 116 155 206 261 316 364
#     4   9  17  29  51  85 121 157 195 238 296 362
#     4   8  15  26  44  76 116 158 201 238 276 336
#     4  11  23  40  65  91 125 158 200 253 307 365
#     4   9  19  36  60  88 121 160 197 239 297 360
#     4   9  16  28  50  82 121 160 198 239 289 358
#     4  10  21  39  62  89 124 163 203 251 305 364
#
# _framework density 20.702041000000001
#
# number of rings (size 3 to 8) (size 9 to 14) (size 15 to 20)
#    0.000    2.286    1.429    1.286    4.000    1.429 
#    0.000    4.286    0.000    3.000    0.000    2.000 
#    0.000    0.000    0.000    0.000    0.000    0.000 
#
# Total GULP energy -156119.975226 kJ/mol
# GULP energy per Si atom -5575.713401 kJ/mol
# Density = 2.065492 g / cm^3
# Si number density = 20.702041 Si / 1000 Ang^3
#
#
#
# Elastic Constant Matrix: (Units=GPa)
#
#
# Indices 1 2 3 4 5 6 
#
# 1 60.4167 -1.6685 7.1631 0.0000 0.0000 0.0000
# 2 -1.6685 92.8891 26.0088 0.0000 0.0000 0.0000
# 3 7.1631 26.0088 36.0380 0.0000 0.0000 0.0000
# 4 0.0000 0.0000 0.0000 18.5152 0.0000 0.0000
# 5 0.0000 0.0000 0.0000 0.0000 20.9315 0.0000
# 6 0.0000 0.0000 0.0000 0.0000 0.0000 8.1229
#
#
#
# Elastic Compliance Matrix: (Units=1/GPa)
#
#
# Indices 1 2 3 4 5 6 
#
# 1 0.017134 0.001581 -0.004547 0.000000 0.000000 0.000000
# 2 0.001581 0.013638 -0.010157 0.000000 0.000000 0.000000
# 3 -0.004547 -0.010157 0.035982 0.000000 0.000000 0.000000
# 4 0.000000 0.000000 0.000000 0.054010 0.000000 0.000000
# 5 0.000000 0.000000 0.000000 0.000000 0.047775 0.000000
# 6 0.000000 0.000000 0.000000 0.000000 0.000000 0.123108
#
#
# Mechanical properties :
#
#
# Convention : Reuss Voigt Hill
#
# Bulk Modulus (GPa) = 24.68554 28.03899 26.36226
# Shear Modulus (GPa) = 15.08773 20.03662 17.56217
#
# Velocity S-wave (km/s) = 2.70257 3.11442 2.91577
# Velocity P-wave (km/s) = 4.65710 5.14842 4.90891
#
# Compressibility (1/GPa) = 0.04050954
#
# Stress axis : x y z
#
# Youngs Moduli (GPa) = 58.36200 73.32579 27.79145
#
# Poissons Ratio (x) = -0.11591 0.12636
# Poissons Ratio (y) = -0.09226 0.28227
# Poissons Ratio (z) = 0.26535 0.74475
#
# Static dielectric constant tensor:
#      x y z
#    x 1.939950 0.000000 0.000000 
#    y 0.000000 1.746570 0.000000 
#    z 0.000000 0.000000 1.741450 
# 
# From -- ./inp_files/5680.got.cif
#   From: 2010.05.17/outbox.cif.g08.bks.cpg/sg38_3_cif.got.tgz:5680.got - 2010.06.03 18:07:57.
