data_PCOD9359838
_publ_section_title
;
Structure prediction by ZEFSAII (Michael W. Deem and Ramdas Pophale) SiO2 
 PCOD9359838
Probable space group: A B M 2
;
_chemical_formula_sum "Si O2"
_cell_formula_units_Z 60
_cell_length_a 16.063630
_cell_length_b 9.345503
_cell_length_c 22.099501
_cell_angle_alpha 90.000000
_cell_angle_beta 90.000000
_cell_angle_gamma 90.000000
_cell_volume 3317.636811
_symmetry_space_group_name_H-M "A B M 2"
_symmetry_group_IT_number 39
_symmetry_cell_setting 'orthorhombic'
loop_
_space_group_symop_operation_xyz
x,y,z
-x,-y,z
-x,1/2+y,z
x,1/2-y,z
x,1/2+y,1/2+z
-x,1/2-y,1/2+z
-x,y,1/2+z
x,-y,1/2+z
loop_
_atom_site_type_symbol
_atom_site_label
_atom_site_fract_x
_atom_site_fract_y
_atom_site_fract_z
Si Si1 0.919590 0.078018 0.171140
Si Si2 0.412739 0.919546 0.053427
Si Si3 0.264447 0.585759 0.354759
Si Si4 0.153015 0.595627 0.474630
Si Si5 0.121024 0.914317 0.792252
Si Si6 0.585643 0.418998 0.909063
Si Si7 0.000000 0.000000 0.897688
Si Si8 0.229142 0.079003 0.581487
O O1 0.931322 0.250000 0.172929
O O2 0.833394 0.045451 0.136420
O O3 0.912493 0.010793 0.237742
O O4 0.000000 0.000000 0.141852
O O5 0.424099 0.750000 0.065868
O O6 0.325829 0.971547 0.083902
O O7 0.500000 0.000000 0.067457
O O8 0.396629 0.934693 0.981111
O O9 0.276080 0.750000 0.333614
O O10 0.216834 0.593901 0.418904
O O11 0.205441 0.492216 0.312298
O O12 0.347208 0.499438 0.368721
O O13 0.156945 0.750000 0.505749
O O14 0.063818 0.578500 0.442453
O O15 0.182104 0.478378 0.522065
O O16 0.131971 0.750000 0.773415
O O17 0.059486 0.916174 0.850555
O O18 0.500000 0.500000 0.898533
O O19 0.581764 0.250000 0.896461
O O20 0.234715 0.250000 0.577131
#
# Coordination Sequence:
#
# PCOD9359838 Si02
#       8
#     8   8   8   8   8   8   4   8
#     4  11  24  41  60  81 110 148 192 237 282 334
#     4   9  18  33  54  80 110 146 185 227 277 335
#     4  10  20  34  53  81 114 145 184 231 280 330
#     4  10  21  34  52  79 110 144 182 224 273 331
#     4  11  22  38  61  81 107 145 192 238 282 331
#     4  10  18  30  51  79 115 151 187 224 276 339
#     4  10  22  36  54  82 110 144 186 234 278 328
#     4  10  22  39  56  80 116 152 184 229 284 338
#
# _framework density 18.085163000000001
#
# number of rings (size 3 to 8) (size 9 to 14) (size 15 to 20)
#    0.000    1.867    2.000    2.000    0.933    5.867 
#    0.000    0.000    0.000    0.800    0.000    3.733 
#    0.000    0.000    0.000    0.000    0.000    0.000 
#
# Total GULP energy -167199.673863 kJ/mol
# GULP energy per Si atom -5573.322462 kJ/mol
# Density = 1.804400 g / cm^3
# Si number density = 18.085163 Si / 1000 Ang^3
#
#
#
# Elastic Constant Matrix: (Units=GPa)
#
#
# Indices 1 2 3 4 5 6 
#
# 1 162.1209 64.3564 38.9548 0.0000 0.0000 0.0000
# 2 64.3564 75.4864 12.9618 0.0000 0.0000 0.0000
# 3 38.9548 12.9618 38.2375 0.0000 0.0000 0.0000
# 4 0.0000 0.0000 0.0000 16.6749 0.0000 0.0000
# 5 0.0000 0.0000 0.0000 0.0000 -17.4548 0.0000
# 6 0.0000 0.0000 0.0000 0.0000 0.0000 10.7539
#
#
#
# Elastic Compliance Matrix: (Units=1/GPa)
#
#
# Indices 1 2 3 4 5 6 
#
# 1 0.011678 -0.008402 -0.009049 0.000000 0.000000 0.000000
# 2 -0.008402 0.020112 0.001742 0.000000 0.000000 0.000000
# 3 -0.009049 0.001742 0.034780 0.000000 0.000000 0.000000
# 4 0.000000 0.000000 0.000000 0.059970 0.000000 0.000000
# 5 0.000000 0.000000 0.000000 0.000000 -0.057291 0.000000
# 6 0.000000 0.000000 0.000000 0.000000 0.000000 0.092989
#
#
# Mechanical properties :
#
#
# Convention : Reuss Voigt Hill
#
# Bulk Modulus (GPa) = 28.44747 56.48786 42.46767
# Shear Modulus (GPa) = 24.34594 12.63294 18.48944
#
# Velocity S-wave (km/s) = 3.67302 2.64583 3.20090
# Velocity P-wave (km/s) = 5.80964 6.37464 6.09869
#
# Compressibility (1/GPa) = 0.03515251
#
# Stress axis : x y z
#
# Youngs Moduli (GPa) = 85.63174 49.72244 28.75204
#
# Poissons Ratio (x) = 0.41778 0.26017
# Poissons Ratio (y) = 0.71950 -0.05010
# Poissons Ratio (z) = 0.77486 -0.08664
#
# Static dielectric constant tensor:
#      x y z
#    x 2.117500 0.000000 0.000000 
#    y 0.000000 1.618800 0.000000 
#    z 0.000000 0.000000 1.605810 
# 
# From -- ./inp_files/16102.got.cif
#   From: 2010.05.17/outbox.cif.g08.bks.cpg/sg39_9_cif.got.tgz:16102.got - 2010.06.03 18:22:40.
