data_PCOD9359926
_publ_section_title
;
Structure prediction by ZEFSAII (Michael W. Deem and Ramdas Pophale) SiO2 
 PCOD9359926
Probable space group: A B M 2
;
_chemical_formula_sum "Si O2"
_cell_formula_units_Z 40
_cell_length_a 14.956615
_cell_length_b 8.570528
_cell_length_c 16.016685
_cell_angle_alpha 90.000000
_cell_angle_beta 90.000000
_cell_angle_gamma 90.000000
_cell_volume 2053.116187
_symmetry_space_group_name_H-M "A B M 2"
_symmetry_group_IT_number 39
_symmetry_cell_setting 'orthorhombic'
loop_
_space_group_symop_operation_xyz
x,y,z
-x,-y,z
-x,1/2+y,z
x,1/2-y,z
x,1/2+y,1/2+z
-x,1/2-y,1/2+z
-x,y,1/2+z
x,-y,1/2+z
loop_
_atom_site_type_symbol
_atom_site_label
_atom_site_fract_x
_atom_site_fract_y
_atom_site_fract_z
Si Si1 0.600213 0.436955 0.352300
Si Si2 0.906101 0.936962 0.756669
Si Si3 0.906798 0.063368 0.945820
Si Si4 0.714063 0.940187 0.692622
Si Si5 0.712067 0.938269 0.507931
O O1 0.500000 0.500000 0.353826
O O2 0.598503 0.250000 0.350578
O O3 0.652524 0.492795 0.269220
O O4 0.654220 0.490795 0.433785
O O5 0.909316 0.750000 0.756967
O O6 0.816610 0.987901 0.709307
O O7 0.898458 0.995524 0.852181
O O8 0.000000 0.000000 0.722520
O O9 0.912500 0.250000 0.940605
O O10 0.816583 0.021739 0.994440
O O11 0.000000 0.000000 0.981813
O O12 0.713610 0.750000 0.693215
O O13 0.683917 0.989712 0.600607
O O14 0.704976 0.750000 0.503036
#
# Coordination Sequence:
#
# PCOD9359926 Si02
#       5
#     8   8   8   8   8
#     4  11  23  42  64  86 113 148 187 237 293 347
#     4  10  18  32  54  81 115 154 193 232 278 332
#     4  10  19  31  53  82 116 154 193 234 278 331
#     4   9  20  38  60  84 117 153 188 233 286 338
#     4  10  21  39  61  87 117 152 193 237 284 339
#
# _framework density 19.482581
#
# number of rings (size 3 to 8) (size 9 to 14) (size 15 to 20)
#    0.000    2.000    2.000    3.000    0.000    2.400 
#    0.000    6.000    0.000    0.000    0.000    0.000 
#    0.000    0.000    0.000    0.000    0.000    0.000 
#
# Total GULP energy -111683.542582 kJ/mol
# GULP energy per Si atom -5584.177129 kJ/mol
# Density = 1.943824 g / cm^3
# Si number density = 19.482581 Si / 1000 Ang^3
#
#
#
# Elastic Constant Matrix: (Units=GPa)
#
#
# Indices 1 2 3 4 5 6 
#
# 1 157.7021 40.7632 90.8983 0.0000 0.0000 0.0000
# 2 40.7632 36.9956 31.6547 0.0000 0.0000 0.0000
# 3 90.8983 31.6547 157.8247 0.0000 0.0000 0.0000
# 4 0.0000 0.0000 0.0000 19.4844 0.0000 0.0000
# 5 0.0000 0.0000 0.0000 0.0000 3.5496 0.0000
# 6 0.0000 0.0000 0.0000 0.0000 0.0000 23.2162
#
#
#
# Elastic Compliance Matrix: (Units=1/GPa)
#
#
# Indices 1 2 3 4 5 6 
#
# 1 0.011263 -0.008281 -0.004826 0.000000 0.000000 0.000000
# 2 -0.008281 0.038718 -0.002996 0.000000 0.000000 0.000000
# 3 -0.004826 -0.002996 0.009717 0.000000 0.000000 0.000000
# 4 0.000000 0.000000 0.000000 0.051323 0.000000 0.000000
# 5 0.000000 0.000000 0.000000 0.000000 0.281718 0.000000
# 6 0.000000 0.000000 0.000000 0.000000 0.000000 0.043073
#
#
# Mechanical properties :
#
#
# Convention : Reuss Voigt Hill
#
# Bulk Modulus (GPa) = 36.37487 75.46164 55.91825
# Shear Modulus (GPa) = 10.47815 21.86380 16.17097
#
# Velocity S-wave (km/s) = 2.32161 3.35359 2.88414
# Velocity P-wave (km/s) = 5.08896 7.33569 6.31308
#
# Compressibility (1/GPa) = 0.02749151
#
# Stress axis : x y z
#
# Youngs Moduli (GPa) = 88.78391 25.82757 102.91560
#
# Poissons Ratio (x) = 0.21388 0.49669
# Poissons Ratio (y) = 0.73522 0.30837
# Poissons Ratio (z) = 0.42848 0.07739
#
# Static dielectric constant tensor:
#      x y z
#    x 1.672820 0.000000 0.000000 
#    y 0.000000 1.667150 0.000000 
#    z 0.000000 0.000000 1.684970 
# 
# From -- ./inp_files/9629.got.cif
#   From: 2010.05.17/outbox.cif.g08.bks.cpg/sg39_5_cif.got.tgz:9629.got - 2010.06.03 18:22:40.
