data_PCOD9359295
_publ_section_title
;
Structure prediction by ZEFSAII (Michael W. Deem and Ramdas Pophale) SiO2 
 PCOD9359295
Probable space group: A M M 2
;
_chemical_formula_sum "Si O2"
_cell_formula_units_Z 64
_cell_length_a 14.573230
_cell_length_b 17.333100
_cell_length_c 12.138101
_cell_angle_alpha 90.000000
_cell_angle_beta 90.000000
_cell_angle_gamma 90.000000
_cell_volume 3066.075244
_symmetry_space_group_name_H-M "A M M 2"
_symmetry_group_IT_number 38
_symmetry_cell_setting 'orthorhombic'
loop_
_space_group_symop_operation_xyz
x,y,z
-x,-y,z
-x,y,z
x,-y,z
x,1/2+y,1/2+z
-x,1/2-y,1/2+z
-x,1/2+y,1/2+z
x,1/2-y,1/2+z
loop_
_atom_site_type_symbol
_atom_site_label
_atom_site_fract_x
_atom_site_fract_y
_atom_site_fract_z
Si Si1 0.758122 0.584453 0.245330
Si Si2 0.611306 0.410666 0.647341
Si Si3 0.604539 0.372735 0.399844
Si Si4 0.104125 0.089126 0.913449
Si Si5 0.889432 0.089937 0.335635
Si Si6 0.772204 0.667902 0.024359
Si Si7 0.393515 0.805982 0.357801
Si Si8 0.893192 0.194162 0.125155
O O1 0.797440 0.500000 0.222303
O O2 0.669444 0.580379 0.320787
O O3 0.831566 0.627892 0.322423
O O4 0.739422 0.622062 0.130473
O O5 0.500000 0.412220 0.647045
O O6 0.642583 0.500000 0.660823
O O7 0.638749 0.378346 0.526806
O O8 0.634716 0.353573 0.748216
O O9 0.500000 0.400460 0.400600
O O10 0.605327 0.286611 0.349661
O O11 0.000000 0.091114 0.872997
O O12 0.131927 0.000000 0.929468
O O13 0.107516 0.130116 0.029677
O O14 0.841291 0.120062 0.446266
O O15 0.865674 0.149864 0.237186
O O16 0.000000 0.092293 0.346446
O O17 0.864383 0.000000 0.312357
O O18 0.682228 0.681655 0.951146
O O19 0.826772 0.740180 0.077197
O O20 0.500000 0.828500 0.384864
O O21 0.000000 0.221284 0.136947
#
# Coordination Sequence:
#
# PCOD9359295 Si02
#       8
#     8   8   8   8   8   8   8   8
#     4  11  25  41  59  90 128 168 210 254 310 386
#     4   9  19  39  67  94 120 157 214 277 329 381
#     4  10  22  41  67  94 123 163 213 272 330 384
#     4   9  19  38  63  89 121 159 200 254 319 381
#     4  10  23  45  71  98 131 173 219 270 332 399
#     4  12  26  40  62  92 134 174 218 263 320 388
#     4  10  24  42  63  91 128 171 218 270 329 385
#     4  10  22  40  67  99 127 160 212 274 328 382
#
# _framework density 20.873591000000001
#
# number of rings (size 3 to 8) (size 9 to 14) (size 15 to 20)
#    0.000    1.875    0.000    2.250    5.250    5.750 
#    0.000    1.250    0.000    0.000    0.000    0.000 
#    0.000    0.000    0.000    0.000    0.000    0.000 
#
# Total GULP energy -178611.863128 kJ/mol
# GULP energy per Si atom -5581.620723 kJ/mol
# Density = 2.082608 g / cm^3
# Si number density = 20.873591 Si / 1000 Ang^3
#
#
#
# Elastic Constant Matrix: (Units=GPa)
#
#
# Indices 1 2 3 4 5 6 
#
# 1 75.5208 32.9131 57.1542 0.0000 0.0000 0.0000
# 2 32.9131 99.2170 62.6670 0.0000 0.0000 0.0000
# 3 57.1542 62.6670 150.4307 0.0000 0.0000 0.0000
# 4 0.0000 0.0000 0.0000 14.4442 0.0000 0.0000
# 5 0.0000 0.0000 0.0000 0.0000 20.6884 0.0000
# 6 0.0000 0.0000 0.0000 0.0000 0.0000 15.2528
#
#
#
# Elastic Compliance Matrix: (Units=1/GPa)
#
#
# Indices 1 2 3 4 5 6 
#
# 1 0.018985 -0.002364 -0.006228 0.000000 0.000000 0.000000
# 2 -0.002364 0.013972 -0.004922 0.000000 0.000000 0.000000
# 3 -0.006228 -0.004922 0.011065 0.000000 0.000000 0.000000
# 4 0.000000 0.000000 0.000000 0.069232 0.000000 0.000000
# 5 0.000000 0.000000 0.000000 0.000000 0.048336 0.000000
# 6 0.000000 0.000000 0.000000 0.000000 0.000000 0.065562
#
#
# Mechanical properties :
#
#
# Convention : Reuss Voigt Hill
#
# Bulk Modulus (GPa) = 58.84979 70.07082 64.46030
# Shear Modulus (GPa) = 19.24217 21.57268 20.40743
#
# Velocity S-wave (km/s) = 3.03948 3.21828 3.13016
# Velocity P-wave (km/s) = 6.36966 6.88853 6.63417
#
# Compressibility (1/GPa) = 0.01699242
#
# Stress axis : x y z
#
# Youngs Moduli (GPa) = 52.67224 71.57065 90.37840
#
# Poissons Ratio (x) = 0.16919 0.56291
# Poissons Ratio (y) = 0.12452 0.44488
# Poissons Ratio (z) = 0.32807 0.35230
#
# Static dielectric constant tensor:
#      x y z
#    x 1.786200 0.000000 0.000000 
#    y 0.000000 1.780190 0.000000 
#    z 0.000000 0.000000 1.726620 
# 
# From -- ./inp_files/10249.got.cif
#   From: 2010.05.17/outbox.cif.g08.bks.cpg/sg38_6_cif.got.tgz:10249.got - 2010.06.03 18:07:57.
