data_PCOD9359933
_publ_section_title
;
Structure prediction by ZEFSAII (Michael W. Deem and Ramdas Pophale) SiO2 
 PCOD9359933
Probable space group: A B M 2
;
_chemical_formula_sum "Si O2"
_cell_formula_units_Z 56
_cell_length_a 19.880016
_cell_length_b 8.794066
_cell_length_c 19.410570
_cell_angle_alpha 90.000000
_cell_angle_beta 90.000000
_cell_angle_gamma 90.000000
_cell_volume 3393.475665
_symmetry_space_group_name_H-M "A B M 2"
_symmetry_group_IT_number 39
_symmetry_cell_setting 'orthorhombic'
loop_
_space_group_symop_operation_xyz
x,y,z
-x,-y,z
-x,1/2+y,z
x,1/2-y,z
x,1/2+y,1/2+z
-x,1/2-y,1/2+z
-x,y,1/2+z
x,-y,1/2+z
loop_
_atom_site_type_symbol
_atom_site_label
_atom_site_fract_x
_atom_site_fract_y
_atom_site_fract_z
Si Si1 0.074104 0.931460 0.068870
Si Si2 0.302157 0.932650 0.242680
Si Si3 0.191030 0.429339 0.145762
Si Si4 0.808970 0.929339 0.991977
Si Si5 0.302157 0.932650 0.895060
Si Si6 0.572233 0.066744 0.148409
Si Si7 0.572233 0.066744 0.989330
O O1 0.072678 0.750000 0.068870
O O2 0.118321 0.993682 0.133360
O O3 0.000000 0.000000 0.068870
O O4 0.118321 0.993682 0.004380
O O5 0.300734 0.750000 0.245415
O O6 0.367575 0.980755 0.198437
O O7 0.236883 0.992388 0.202166
O O8 0.304980 0.000000 0.318870
O O9 0.183700 0.250000 0.158891
O O10 0.223272 0.447303 0.068870
O O11 0.816300 0.750000 0.978849
O O12 0.763117 0.007612 0.935574
O O13 0.300733 0.750000 0.892325
O O14 0.367575 0.980755 0.939302
O O15 0.568499 0.250000 0.149899
O O16 0.500000 0.000000 0.168851
O O17 0.585281 0.020666 0.068870
O O18 0.568499 0.250000 0.987841
O O19 0.500000 0.000000 0.968889
#
# Coordination Sequence:
#
# PCOD9359933 Si02
#       7
#     8   8   8   8   8   8   8
#     4  10  18  32  56  86 115 142 175 218 262 306
#     4  11  22  35  52  75 107 144 182 225 272 323
#     4   9  19  34  54  81 108 138 178 220 263 315
#     4   9  19  34  54  81 108 138 178 220 263 315
#     4  11  22  35  52  75 107 144 182 225 272 323
#     4   9  19  35  54  75  99 133 177 225 277 327
#     4   9  19  35  54  75  99 133 177 225 277 327
#
# _framework density 16.502255999999999
#
# number of rings (size 3 to 8) (size 9 to 14) (size 15 to 20)
#    0.857    1.429    0.000    3.429    0.000    4.000 
#    0.000    5.714    0.000    0.857    0.000    6.000 
#    0.000    0.000    0.000    0.000    0.000    0.000 
#
# Total GULP energy -156010.109869 kJ/mol
# GULP energy per Si atom -5571.789638 kJ/mol
# Density = 1.646470 g / cm^3
# Si number density = 16.502256 Si / 1000 Ang^3
#
#
#
# Elastic Constant Matrix: (Units=GPa)
#
#
# Indices 1 2 3 4 5 6 
#
# 1 164.5977 59.8074 89.6830 0.0000 0.0000 0.0000
# 2 59.8074 82.5878 53.4471 0.0000 0.0000 0.0000
# 3 89.6830 53.4471 102.7319 0.0000 0.0000 0.0000
# 4 0.0000 0.0000 0.0000 25.4471 0.0000 0.0000
# 5 0.0000 0.0000 0.0000 0.0000 1.2985 0.0000
# 6 0.0000 0.0000 0.0000 0.0000 0.0000 31.1210
#
#
#
# Elastic Compliance Matrix: (Units=1/GPa)
#
#
# Indices 1 2 3 4 5 6 
#
# 1 0.012026 -0.002887 -0.008997 0.000000 0.000000 0.000000
# 2 -0.002887 0.018947 -0.007337 0.000000 0.000000 0.000000
# 3 -0.008997 -0.007337 0.021406 0.000000 0.000000 0.000000
# 4 0.000000 0.000000 0.000000 0.039297 0.000000 0.000000
# 5 0.000000 0.000000 0.000000 0.000000 0.770099 0.000000
# 6 0.000000 0.000000 0.000000 0.000000 0.000000 0.032133
#
#
# Mechanical properties :
#
#
# Convention : Reuss Voigt Hill
#
# Bulk Modulus (GPa) = 71.75123 83.97695 77.86409
# Shear Modulus (GPa) = 5.33620 21.37199 13.35409
#
# Velocity S-wave (km/s) = 1.80018 3.60265 2.84778
# Velocity P-wave (km/s) = 6.92061 8.26463 7.62230
#
# Compressibility (1/GPa) = 0.01393704
#
# Stress axis : x y z
#
# Youngs Moduli (GPa) = 83.15000 52.77822 46.71661
#
# Poissons Ratio (x) = 0.15235 0.42031
# Poissons Ratio (y) = 0.24003 0.34278
# Poissons Ratio (z) = 0.74810 0.38726
#
# Static dielectric constant tensor:
#      x y z
#    x 1.537580 0.000000 0.000000 
#    y 0.000000 1.550400 0.000000 
#    z 0.000000 0.000000 1.542100 
# 
# From -- ./inp_files/13059.got.cif
#   From: 2010.05.17/outbox.cif.g08.bks.cpg/sg39_7_cif.got.tgz:13059.got - 2010.06.03 18:22:40.
