data_PCOD9359440
_publ_section_title
;
Structure prediction by ZEFSAII (Michael W. Deem and Ramdas Pophale) SiO2 
 PCOD9359440
Probable space group: A M M 2
;
_chemical_formula_sum "Si O2"
_cell_formula_units_Z 64
_cell_length_a 25.545461
_cell_length_b 7.804621
_cell_length_c 15.163004
_cell_angle_alpha 90.000000
_cell_angle_beta 90.000000
_cell_angle_gamma 90.000000
_cell_volume 3023.088159
_symmetry_space_group_name_H-M "A M M 2"
_symmetry_group_IT_number 38
_symmetry_cell_setting 'orthorhombic'
loop_
_space_group_symop_operation_xyz
x,y,z
-x,-y,z
-x,y,z
x,-y,z
x,1/2+y,1/2+z
-x,1/2-y,1/2+z
-x,1/2+y,1/2+z
x,1/2-y,1/2+z
loop_
_atom_site_type_symbol
_atom_site_label
_atom_site_fract_x
_atom_site_fract_y
_atom_site_fract_z
Si Si1 0.059064 0.207254 0.655160
Si Si2 0.742827 0.799633 0.527010
Si Si3 0.443332 0.800475 0.149866
Si Si4 0.861513 0.200303 0.004503
Si Si5 0.668909 0.795211 0.374550
Si Si6 0.941226 0.209235 0.858873
Si Si7 0.332420 0.703256 0.675416
Si Si8 0.556375 0.204982 0.854659
O O1 0.102728 0.278024 0.590715
O O2 0.067218 0.257483 0.757096
O O3 0.000000 0.261056 0.629361
O O4 0.060733 0.000000 0.651436
O O5 0.804524 0.778213 0.516653
O O6 0.710916 0.725766 0.443577
O O7 0.718196 0.725211 0.615750
O O8 0.730993 0.000000 0.531260
O O9 0.500000 0.724344 0.123238
O O10 0.385737 0.726215 0.129467
O O11 0.442694 0.789404 0.257313
O O12 0.444482 0.000000 0.121717
O O13 0.896348 0.272288 0.924088
O O14 0.853149 0.000000 0.987602
O O15 0.674435 0.726326 0.274484
O O16 0.609174 0.759026 0.402843
O O17 0.676047 0.000000 0.369532
O O18 0.000000 0.264340 0.885274
O O19 0.941270 0.000000 0.862116
O O20 0.341938 0.500000 0.684382
O O21 0.500000 0.248703 0.895886
O O22 0.558002 0.000000 0.842811
#
# Coordination Sequence:
#
# PCOD9359440 Si02
#       8
#     8   8   8   8   8   8   8   8
#     4   9  18  35  59  86 116 147 177 212 258 312
#     4  11  24  40  55  75 105 141 184 227 267 315
#     4   8  14  27  49  75 103 136 170 207 261 327
#     4  11  22  36  56  81 110 144 182 224 266 309
#     4   9  20  38  57  75 102 141 178 218 270 325
#     4   8  16  33  57  84 113 143 174 210 256 310
#     4   9  18  35  57  79 104 136 175 218 266 319
#     4   9  16  26  46  78 108 132 166 215 266 318
#
# _framework density 21.170404000000001
#
# number of rings (size 3 to 8) (size 9 to 14) (size 15 to 20)
#    0.000    2.750    0.000    3.000    0.000    5.500 
#    0.000    4.375    0.000    3.750    0.000    0.000 
#    0.000    0.000    0.000    0.000    0.000    0.000 
#
# Total GULP energy -178481.891345 kJ/mol
# GULP energy per Si atom -5577.559105 kJ/mol
# Density = 2.112222 g / cm^3
# Si number density = 21.170404 Si / 1000 Ang^3
#
#
#
# Elastic Constant Matrix: (Units=GPa)
#
#
# Indices 1 2 3 4 5 6 
#
# 1 142.0776 -15.9887 59.7369 0.0000 0.0000 0.0000
# 2 -15.9887 23.4829 -3.0529 0.0000 0.0000 0.0000
# 3 59.7369 -3.0529 76.2297 0.0000 0.0000 0.0000
# 4 0.0000 0.0000 0.0000 10.4047 0.0000 0.0000
# 5 0.0000 0.0000 0.0000 0.0000 -53.2448 0.0000
# 6 0.0000 0.0000 0.0000 0.0000 0.0000 -22.7547
#
#
#
# Elastic Compliance Matrix: (Units=1/GPa)
#
#
# Indices 1 2 3 4 5 6 
#
# 1 0.011448 0.006663 -0.008704 0.000000 0.000000 0.000000
# 2 0.006663 0.046685 -0.003352 0.000000 0.000000 0.000000
# 3 -0.008704 -0.003352 0.019805 0.000000 0.000000 0.000000
# 4 0.000000 0.000000 0.000000 0.096110 0.000000 0.000000
# 5 0.000000 0.000000 0.000000 0.000000 -0.018781 0.000000
# 6 0.000000 0.000000 0.000000 0.000000 0.000000 -0.043947
#
#
# Mechanical properties :
#
#
# Convention : Reuss Voigt Hill
#
# Bulk Modulus (GPa) = 14.89160 35.90897 25.40028
# Shear Modulus (GPa) = 34.60449 0.28737 17.44593
#
# Velocity S-wave (km/s) = 4.04737 0.36883 2.87378
# Velocity P-wave (km/s) = 5.37503 4.14489 4.79953
#
# Compressibility (1/GPa) = 0.06715196
#
# Stress axis : x y z
#
# Youngs Moduli (GPa) = 87.35196 21.42017 50.49214
#
# Poissons Ratio (x) = -0.14272 0.43950
# Poissons Ratio (y) = -0.58202 0.16923
# Poissons Ratio (z) = 0.76033 0.07179
#
# Static dielectric constant tensor:
#      x y z
#    x 1.763220 0.000000 0.000000 
#    y 0.000000 1.779780 0.000000 
#    z 0.000000 0.000000 1.771890 
# 
# From -- ./inp_files/15848.got.cif
#   From: 2010.05.17/outbox.cif.g08.bks.cpg/sg38_8_cif.got.tgz:15848.got - 2010.06.03 18:07:57.
