data_PCOD9359200
_publ_section_title
;
Structure prediction by ZEFSAII (Michael W. Deem and Ramdas Pophale) SiO2 
 PCOD9359200
Probable space group: A M M 2
;
_chemical_formula_sum "Si O2"
_cell_formula_units_Z 56
_cell_length_a 13.350383
_cell_length_b 21.744782
_cell_length_c 9.183143
_cell_angle_alpha 90.000000
_cell_angle_beta 90.000000
_cell_angle_gamma 90.000000
_cell_volume 2665.877138
_symmetry_space_group_name_H-M "A M M 2"
_symmetry_group_IT_number 38
_symmetry_cell_setting 'orthorhombic'
loop_
_space_group_symop_operation_xyz
x,y,z
-x,-y,z
-x,y,z
x,-y,z
x,1/2+y,1/2+z
-x,1/2-y,1/2+z
-x,1/2+y,1/2+z
x,1/2-y,1/2+z
loop_
_atom_site_type_symbol
_atom_site_label
_atom_site_fract_x
_atom_site_fract_y
_atom_site_fract_z
Si Si1 0.619046 0.931326 0.684360
Si Si2 0.119439 0.205462 0.026666
Si Si3 0.618506 0.803959 0.833172
Si Si4 0.678291 0.930239 0.347798
Si Si5 0.113123 0.928455 0.485026
Si Si6 0.880459 0.673826 0.197408
Si Si7 0.684438 0.816710 0.163168
O O1 0.500000 0.933629 0.712218
O O2 0.654347 0.869210 0.764998
O O3 0.635219 0.924276 0.511065
O O4 0.659720 0.000000 0.724575
O O5 0.149718 0.191494 0.860573
O O6 0.000000 0.193995 0.047731
O O7 0.141239 0.275868 0.072827
O O8 0.197576 0.171319 0.130576
O O9 0.500000 0.798868 0.803706
O O10 0.667835 0.744218 0.759042
O O11 0.636439 0.805208 0.005615
O O12 0.798227 0.922219 0.369609
O O13 0.641316 0.876215 0.244255
O O14 0.657719 0.000000 0.297075
O O15 0.145427 0.891205 0.628142
O O16 0.000000 0.908405 0.440704
O O17 0.108175 0.000000 0.520793
O O18 0.000000 0.674060 0.210791
#
# Coordination Sequence:
#
# PCOD9359200 Si02
#       7
#     8   8   8   8   8   8   8
#     4   9  20  41  67  91 118 154 195 244 305 367
#     4  10  22  37  55  87 124 157 199 248 299 360
#     4  11  25  43  64  93 124 157 202 254 306 368
#     4  10  23  40  60  89 121 158 205 252 300 364
#     4   9  19  36  59  85 117 160 204 245 292 351
#     4   9  19  34  54  80 113 151 195 244 292 344
#     4  12  25  39  63  89 123 164 204 249 315 363
#
# _framework density 21.006219000000002
#
# number of rings (size 3 to 8) (size 9 to 14) (size 15 to 20)
#    0.000    2.000    0.000    2.143    8.000    3.429 
#    0.000    0.714    0.000    0.857    0.000    0.000 
#    0.000    0.000    0.000    0.000    0.000    0.000 
#
# Total GULP energy -156217.911755 kJ/mol
# GULP energy per Si atom -5579.211134 kJ/mol
# Density = 2.095841 g / cm^3
# Si number density = 21.006219 Si / 1000 Ang^3
#
#
#
# Elastic Constant Matrix: (Units=GPa)
#
#
# Indices 1 2 3 4 5 6 
#
# 1 56.2563 10.9661 5.1582 0.0000 0.0000 0.0000
# 2 10.9661 146.8664 102.1857 0.0000 0.0000 0.0000
# 3 5.1582 102.1857 106.2337 0.0000 0.0000 0.0000
# 4 0.0000 0.0000 0.0000 35.1065 0.0000 0.0000
# 5 0.0000 0.0000 0.0000 0.0000 19.1823 0.0000
# 6 0.0000 0.0000 0.0000 0.0000 0.0000 19.2893
#
#
#
# Elastic Compliance Matrix: (Units=1/GPa)
#
#
# Indices 1 2 3 4 5 6 
#
# 1 0.018095 -0.002237 0.001273 0.000000 0.000000 0.000000
# 2 -0.002237 0.020863 -0.019960 0.000000 0.000000 0.000000
# 3 0.001273 -0.019960 0.028551 0.000000 0.000000 0.000000
# 4 0.000000 0.000000 0.000000 0.028485 0.000000 0.000000
# 5 0.000000 0.000000 0.000000 0.000000 0.052131 0.000000
# 6 0.000000 0.000000 0.000000 0.000000 0.000000 0.051842
#
#
# Mechanical properties :
#
#
# Convention : Reuss Voigt Hill
#
# Bulk Modulus (GPa) = 38.96835 60.66404 49.81620
# Shear Modulus (GPa) = 19.97054 27.45204 23.71129
#
# Velocity S-wave (km/s) = 3.08668 3.61896 3.36337
# Velocity P-wave (km/s) = 5.59416 6.81207 6.23293
#
# Compressibility (1/GPa) = 0.02566185
#
# Stress axis : x y z
#
# Youngs Moduli (GPa) = 55.26362 47.93072 35.02546
#
# Poissons Ratio (x) = 0.10721 -0.04459
# Poissons Ratio (y) = 0.12361 0.69910
# Poissons Ratio (z) = -0.07035 0.95669
#
# Static dielectric constant tensor:
#      x y z
#    x 1.868180 0.000000 0.000000 
#    y 0.000000 1.762200 0.000000 
#    z 0.000000 0.000000 1.709870 
# 
# From -- ./inp_files/5717.got.cif
#   From: 2010.05.17/outbox.cif.g08.bks.cpg/sg38_3_cif.got.tgz:5717.got - 2010.06.03 18:07:57.
