data_PCOD9359888
_publ_section_title
;
Structure prediction by ZEFSAII (Michael W. Deem and Ramdas Pophale) SiO2 
 PCOD9359888
Probable space group: A B M 2
;
_chemical_formula_sum "Si O2"
_cell_formula_units_Z 64
_cell_length_a 8.397432
_cell_length_b 25.608053
_cell_length_c 14.933312
_cell_angle_alpha 90.000000
_cell_angle_beta 90.000000
_cell_angle_gamma 90.000000
_cell_volume 3211.287543
_symmetry_space_group_name_H-M "A B M 2"
_symmetry_group_IT_number 39
_symmetry_cell_setting 'orthorhombic'
loop_
_space_group_symop_operation_xyz
x,y,z
-x,-y,z
-x,1/2+y,z
x,1/2-y,z
x,1/2+y,1/2+z
-x,1/2-y,1/2+z
-x,y,1/2+z
x,-y,1/2+z
loop_
_atom_site_type_symbol
_atom_site_label
_atom_site_fract_x
_atom_site_fract_y
_atom_site_fract_z
Si Si1 0.314078 1.000000 0.334420
Si Si2 0.189528 0.891776 0.316064
Si Si3 0.192906 0.886130 0.024863
Si Si4 0.187118 0.500000 0.533602
Si Si5 0.810472 0.891777 0.316064
Si Si6 0.690280 0.809855 0.173808
Si Si7 0.690279 0.809855 0.673808
Si Si8 0.192904 0.886129 0.524863
O O1 0.270134 0.946152 0.286325
O O2 0.500000 0.000000 0.358058
O O3 0.209111 1.000000 0.425451
O O4 0.270133 0.053848 0.286325
O O5 0.239074 0.843980 0.254339
O O6 0.235203 0.882200 0.419928
O O7 0.000000 0.898867 0.311912
O O8 0.235204 0.882201 0.919928
O O9 0.000001 0.885754 0.030903
O O10 0.251190 0.943099 0.060264
O O11 0.260504 0.839594 0.083401
O O12 0.251189 0.556902 0.560265
O O13 0.000000 0.500000 0.555701
O O14 0.760925 0.843981 0.254339
O O15 0.746635 0.750000 0.174912
O O16 0.500000 0.809944 0.181297
O O17 0.739499 0.839594 0.083401
O O18 0.746635 0.750000 0.674910
#
# Coordination Sequence:
#
# PCOD9359888 Si02
#       8
#     8   8   8   8   8   8   8   8
#     4  10  18  31  56  89 121 149 181 226 284 347
#     4  10  21  39  62  86 115 151 191 236 283 336
#     4   9  19  37  61  86 113 147 186 231 285 342
#     4   8  16  33  56  85 117 147 183 228 280 339
#     4  10  21  39  62  86 115 151 191 236 283 336
#     4  11  25  41  56  80 115 153 195 242 289 339
#     4  11  25  41  56  80 115 153 195 242 289 339
#     4   9  19  37  61  86 113 147 186 231 285 342
#
# _framework density 19.929701999999999
#
# number of rings (size 3 to 8) (size 9 to 14) (size 15 to 20)
#    0.000    2.250    0.000    4.125    0.000    9.000 
#    0.000    8.750    0.000    0.000    0.000    0.000 
#    0.000    0.000    0.000    0.000    0.000    0.000 
#
# Total GULP energy -178637.328728 kJ/mol
# GULP energy per Si atom -5582.416523 kJ/mol
# Density = 1.988434 g / cm^3
# Si number density = 19.929702 Si / 1000 Ang^3
#
#
#
# Elastic Constant Matrix: (Units=GPa)
#
#
# Indices 1 2 3 4 5 6 
#
# 1 28.4762 31.8016 22.5622 0.0000 0.0000 0.0000
# 2 31.8016 205.5486 69.2407 0.0000 0.0000 0.0000
# 3 22.5622 69.2407 89.5551 0.0000 0.0000 0.0000
# 4 0.0000 0.0000 0.0000 35.0353 0.0000 0.0000
# 5 0.0000 0.0000 0.0000 0.0000 51.2702 0.0000
# 6 0.0000 0.0000 0.0000 0.0000 0.0000 33.2691
#
#
#
# Elastic Compliance Matrix: (Units=1/GPa)
#
#
# Indices 1 2 3 4 5 6 
#
# 1 0.046651 -0.004406 -0.008346 0.000000 0.000000 0.000000
# 2 -0.004406 0.006994 -0.004298 0.000000 0.000000 0.000000
# 3 -0.008346 -0.004298 0.016592 0.000000 0.000000 0.000000
# 4 0.000000 0.000000 0.000000 0.028543 0.000000 0.000000
# 5 0.000000 0.000000 0.000000 0.000000 0.019505 0.000000
# 6 0.000000 0.000000 0.000000 0.000000 0.000000 0.030058
#
#
# Mechanical properties :
#
#
# Convention : Reuss Voigt Hill
#
# Bulk Modulus (GPa) = 27.67281 63.42099 45.54690
# Shear Modulus (GPa) = 25.70850 37.24661 31.47756
#
# Velocity S-wave (km/s) = 3.59550 4.32777 3.97852
# Velocity P-wave (km/s) = 5.58141 7.54083 6.63387
#
# Compressibility (1/GPa) = 0.03613656
#
# Stress axis : x y z
#
# Youngs Moduli (GPa) = 21.43594 142.97001 60.27000
#
# Poissons Ratio (x) = 0.62993 0.50304
# Poissons Ratio (y) = 0.09445 0.25903
# Poissons Ratio (z) = 0.17891 0.61446
#
# Static dielectric constant tensor:
#      x y z
#    x 1.688970 0.000000 0.000000 
#    y 0.000000 1.714830 0.000000 
#    z 0.000000 0.000000 1.711880 
# 
# From -- ./inp_files/8776.got.cif
#   From: 2010.05.17/outbox.cif.g08.bks.cpg/sg39_5_cif.got.tgz:8776.got - 2010.06.03 18:22:40.
