data_PCOD9359891
_publ_section_title
;
Structure prediction by ZEFSAII (Michael W. Deem and Ramdas Pophale) SiO2 
 PCOD9359891
Probable space group: A B M 2
;
_chemical_formula_sum "Si O2"
_cell_formula_units_Z 52
_cell_length_a 13.214628
_cell_length_b 30.558208
_cell_length_c 5.363424
_cell_angle_alpha 90.000000
_cell_angle_beta 90.000000
_cell_angle_gamma 90.000000
_cell_volume 2165.832945
_symmetry_space_group_name_H-M "A B M 2"
_symmetry_group_IT_number 39
_symmetry_cell_setting 'orthorhombic'
loop_
_space_group_symop_operation_xyz
x,y,z
-x,-y,z
-x,1/2+y,z
x,1/2-y,z
x,1/2+y,1/2+z
-x,1/2-y,1/2+z
-x,y,1/2+z
x,-y,1/2+z
loop_
_atom_site_type_symbol
_atom_site_label
_atom_site_fract_x
_atom_site_fract_y
_atom_site_fract_z
Si Si1 0.370044 0.519906 0.979180
Si Si2 0.609824 0.379848 0.984167
Si Si3 0.432800 0.750000 0.589384
Si Si4 0.623408 0.345507 0.483911
Si Si5 0.932520 0.702799 0.911428
Si Si6 0.143797 0.984262 0.434232
Si Si7 0.068073 0.392134 0.835119
O O1 0.406041 0.512259 0.697630
O O2 0.391760 0.569391 0.052513
O O3 0.251704 0.507943 0.967514
O O4 0.662379 0.373477 0.716918
O O5 0.496026 0.360297 0.957960
O O6 0.662558 0.354478 0.208641
O O7 0.512165 0.750000 0.357729
O O8 0.372523 0.705023 0.559149
O O9 0.877852 0.750000 0.889169
O O10 0.881570 0.655633 0.875289
O O11 0.014324 0.702620 0.683712
O O12 0.141971 0.933424 0.362778
O O13 0.096812 0.988806 0.707030
O O14 0.013708 0.394742 0.563859
#
# Coordination Sequence:
#
# PCOD9359891 Si02
#       7
#     8   8   4   8   8   8   8
#     4  10  21  37  52  66  93 133 183 219 248 301
#     4  10  18  32  48  70 100 132 173 210 254 294
#     4  12  16  30  48  74 114 142 156 200 260 322
#     4  10  19  30  48  77 107 133 162 210 258 309
#     4   8  14  25  41  64  98 128 149 183 231 293
#     4  10  21  35  50  69  98 130 178 209 252 302
#     4  10  19  30  48  75 104 132 160 205 259 304
#
# _framework density 24.009239000000001
#
# number of rings (size 3 to 8) (size 9 to 14) (size 15 to 20)
#    0.000    2.154    3.077    1.846    0.000    1.846 
#    0.000    9.231    0.000    0.000    0.000    0.000 
#   73.846    0.000    0.000    0.000    0.000    0.000 
#
# Total GULP energy -145059.136415 kJ/mol
# GULP energy per Si atom -5579.197554 kJ/mol
# Density = 2.395459 g / cm^3
# Si number density = 24.009239 Si / 1000 Ang^3
#
#
#
# Elastic Constant Matrix: (Units=GPa)
#
#
# Indices 1 2 3 4 5 6 
#
# 1 61.2718 -0.4309 -9.5020 0.0000 0.0000 0.0000
# 2 -0.4309 156.7524 -36.7848 0.0000 0.0000 0.0000
# 3 -9.5020 -36.7848 153.0475 0.0000 0.0000 0.0000
# 4 0.0000 0.0000 0.0000 19.3380 0.0000 0.0000
# 5 0.0000 0.0000 0.0000 0.0000 -26.4274 0.0000
# 6 0.0000 0.0000 0.0000 0.0000 0.0000 -2.1624
#
#
#
# Elastic Compliance Matrix: (Units=1/GPa)
#
#
# Indices 1 2 3 4 5 6 
#
# 1 0.016493 0.000303 0.001097 0.000000 0.000000 0.000000
# 2 0.000303 0.006766 0.001645 0.000000 0.000000 0.000000
# 3 0.001097 0.001645 0.006997 0.000000 0.000000 0.000000
# 4 0.000000 0.000000 0.000000 0.051712 0.000000 0.000000
# 5 0.000000 0.000000 0.000000 0.000000 -0.037840 0.000000
# 6 0.000000 0.000000 0.000000 0.000000 0.000000 -0.462445
#
#
# Mechanical properties :
#
#
# Convention : Reuss Voigt Hill
#
# Bulk Modulus (GPa) = 27.51356 30.84848 29.18102
# Shear Modulus (GPa) = -12.12739 26.00227 6.93744
#
# Velocity S-wave (km/s) = -2.24991 3.29448 1.70169
# Velocity P-wave (km/s) = 2.17600 5.22953 4.00518
#
# Compressibility (1/GPa) = 0.03634572
#
# Stress axis : x y z
#
# Youngs Moduli (GPa) = 60.63206 147.78979 142.91017
#
# Poissons Ratio (x) = -0.04474 -0.15673
# Poissons Ratio (y) = -0.01835 -0.23510
# Poissons Ratio (z) = -0.06650 -0.24313
#
# Static dielectric constant tensor:
#      x y z
#    x 2.199610 0.000000 0.000000 
#    y 0.000000 1.941590 0.000000 
#    z 0.000000 0.000000 1.997860 
# 
# From -- ./inp_files/849.got.cif
#   From: 2010.05.17/outbox.cif.g08.bks.cpg/sg39_1_cif.got.tgz:849.got - 2010.06.03 18:22:40.
