data_PCOD9359070
_publ_section_title
;
Structure prediction by ZEFSAII (Michael W. Deem and Ramdas Pophale) SiO2 
 PCOD9359070
Probable space group: A M M 2
;
_chemical_formula_sum "Si O2"
_cell_formula_units_Z 32
_cell_length_a 8.366061
_cell_length_b 29.426351
_cell_length_c 5.106863
_cell_angle_alpha 90.000000
_cell_angle_beta 90.000000
_cell_angle_gamma 90.000000
_cell_volume 1257.221054
_symmetry_space_group_name_H-M "A M M 2"
_symmetry_group_IT_number 38
_symmetry_cell_setting 'orthorhombic'
loop_
_space_group_symop_operation_xyz
x,y,z
-x,-y,z
-x,y,z
x,-y,z
x,1/2+y,1/2+z
-x,1/2-y,1/2+z
-x,1/2+y,1/2+z
x,1/2-y,1/2+z
loop_
_atom_site_type_symbol
_atom_site_label
_atom_site_fract_x
_atom_site_fract_y
_atom_site_fract_z
Si Si1 0.500000 0.364268 0.944130
Si Si2 0.306427 0.219383 0.965322
Si Si3 0.825504 0.049048 0.157693
Si Si4 0.825335 0.348479 0.827648
Si Si5 0.500000 0.575346 0.432341
O O1 0.662773 0.336848 0.981699
O O2 0.500000 0.384801 0.652288
O O3 0.500000 0.404952 0.145385
O O4 0.500000 0.211883 0.970782
O O5 0.264601 0.252169 0.210344
O O6 0.209515 0.173695 0.042428
O O7 0.822904 0.096352 0.316484
O O8 0.000000 0.050361 0.020202
O O9 0.819693 0.000000 0.300868
O O10 0.667068 0.050536 0.982648
O O11 0.000000 0.334294 0.920341
#
# Coordination Sequence:
#
# PCOD9359070 Si02
#       5
#     4   8   8   8   4
#     4  10  22  40  61  91 124 162 208 261 315 378
#     4  10  22  41  65  93 129 171 215 268 330 387
#     4   9  19  38  64  96 133 173 218 269 326 388
#     4  10  21  40  67  98 132 174 219 270 327 387
#     4  10  21  38  62  87 124 166 212 257 312 372
#
# _framework density 25.452963
#
# number of rings (size 3 to 8) (size 9 to 14) (size 15 to 20)
#    0.000    2.250    1.250    0.375    0.000    6.000 
#    0.000   15.000    0.000   12.000    0.000    0.000 
#    0.000    0.000    0.000    0.000    0.000    0.000 
#
# Total GULP energy -89325.496949 kJ/mol
# GULP energy per Si atom -5582.843559 kJ/mol
# Density = 2.539503 g / cm^3
# Si number density = 25.452963 Si / 1000 Ang^3
#
#
#
# Elastic Constant Matrix: (Units=GPa)
#
#
# Indices 1 2 3 4 5 6 
#
# 1 243.1994 4.5619 13.5924 0.0000 0.0000 0.0000
# 2 4.5619 138.1676 28.3726 0.0000 0.0000 0.0000
# 3 13.5924 28.3726 57.4056 0.0000 0.0000 0.0000
# 4 0.0000 0.0000 0.0000 21.3180 0.0000 0.0000
# 5 0.0000 0.0000 0.0000 0.0000 14.2824 0.0000
# 6 0.0000 0.0000 0.0000 0.0000 0.0000 19.0382
#
#
#
# Elastic Compliance Matrix: (Units=1/GPa)
#
#
# Indices 1 2 3 4 5 6 
#
# 1 0.004168 0.000072 -0.001023 0.000000 0.000000 0.000000
# 2 0.000072 0.008056 -0.003999 0.000000 0.000000 0.000000
# 3 -0.001023 -0.003999 0.019639 0.000000 0.000000 0.000000
# 4 0.000000 0.000000 0.000000 0.046909 0.000000 0.000000
# 5 0.000000 0.000000 0.000000 0.000000 0.070016 0.000000
# 6 0.000000 0.000000 0.000000 0.000000 0.000000 0.052526
#
#
# Mechanical properties :
#
#
# Convention : Reuss Voigt Hill
#
# Bulk Modulus (GPa) = 45.52867 59.09183 52.31025
# Shear Modulus (GPa) = 22.87984 37.07745 29.97864
#
# Velocity S-wave (km/s) = 3.00143 3.82082 3.43564
# Velocity P-wave (km/s) = 5.47153 6.53692 6.02781
#
# Compressibility (1/GPa) = 0.02196418
#
# Stress axis : x y z
#
# Youngs Moduli (GPa) = 239.94361 124.12510 50.92028
#
# Poissons Ratio (x) = -0.00898 0.05207
# Poissons Ratio (y) = -0.01737 0.20363
# Poissons Ratio (z) = 0.24536 0.49638
#
# Static dielectric constant tensor:
#      x y z
#    x 2.059940 0.000000 0.000000 
#    y 0.000000 2.059600 0.000000 
#    z 0.000000 0.000000 1.999860 
# 
# From -- ./inp_files/464.got.cif
#   From: 2010.05.17/outbox.cif.g08.bks.cpg/sg38_1_cif.got.tgz:464.got - 2010.06.03 18:07:57.
