data_PCOD9359870
_publ_section_title
;
Structure prediction by ZEFSAII (Michael W. Deem and Ramdas Pophale) SiO2 
 PCOD9359870
Probable space group: A B M 2
;
_chemical_formula_sum "Si O2"
_cell_formula_units_Z 48
_cell_length_a 16.736773
_cell_length_b 8.579274
_cell_length_c 18.809048
_cell_angle_alpha 90.000000
_cell_angle_beta 90.000000
_cell_angle_gamma 90.000000
_cell_volume 2700.779192
_symmetry_space_group_name_H-M "A B M 2"
_symmetry_group_IT_number 39
_symmetry_cell_setting 'orthorhombic'
loop_
_space_group_symop_operation_xyz
x,y,z
-x,-y,z
-x,1/2+y,z
x,1/2-y,z
x,1/2+y,1/2+z
-x,1/2-y,1/2+z
-x,y,1/2+z
x,-y,1/2+z
loop_
_atom_site_type_symbol
_atom_site_label
_atom_site_fract_x
_atom_site_fract_y
_atom_site_fract_z
Si Si1 0.320946 0.434788 0.618760
Si Si2 0.742366 0.438067 0.831443
Si Si3 0.584469 0.936776 0.241088
Si Si4 0.165552 0.434392 0.196476
Si Si5 0.243447 0.434744 0.989123
Si Si6 0.085776 0.065641 0.565570
O O1 0.307999 0.250000 0.625940
O O2 0.397049 0.486626 0.664239
O O3 0.248826 0.529278 0.656235
O O4 0.311935 0.483010 0.536884
O O5 0.744181 0.250000 0.838576
O O6 0.658433 0.478918 0.792958
O O7 0.814325 0.481571 0.777193
O O8 0.750097 0.515924 0.907534
O O9 0.583249 0.750000 0.234421
O O10 0.500000 0.000000 0.267760
O O11 0.149425 0.250000 0.194019
O O12 0.101517 0.523013 0.148501
O O13 0.249828 0.250000 0.997295
O O14 0.158235 0.490585 0.020946
O O15 0.089004 0.250000 0.556671
O O16 0.000000 0.000000 0.543955
#
# Coordination Sequence:
#
# PCOD9359870 Si02
#       6
#     8   8   8   8   8   8
#     4  10  18  31  52  75 101 134 173 211 252 304
#     4   9  19  35  54  77 107 141 175 213 259 314
#     4  10  20  35  55  79 107 137 174 219 265 312
#     4   9  17  32  53  76 102 132 170 211 252 303
#     4  11  21  34  54  79 107 139 178 218 261 314
#     4  11  21  35  55  78 106 137 174 218 265 313
#
# _framework density 17.772649000000001
#
# number of rings (size 3 to 8) (size 9 to 14) (size 15 to 20)
#    0.000    2.000    0.000    8.500    0.000    4.000 
#    0.000    1.667    0.000    6.000    0.000    0.000 
#    0.000    0.000    0.000    0.000    0.000    0.000 
#
# Total GULP energy -133832.621174 kJ/mol
# GULP energy per Si atom -5576.359216 kJ/mol
# Density = 1.773220 g / cm^3
# Si number density = 17.772649 Si / 1000 Ang^3
#
#
#
# Elastic Constant Matrix: (Units=GPa)
#
#
# Indices 1 2 3 4 5 6 
#
# 1 71.0816 20.1351 28.0541 0.0000 0.0000 0.0000
# 2 20.1351 53.2204 31.8841 0.0000 0.0000 0.0000
# 3 28.0541 31.8841 118.3639 0.0000 0.0000 0.0000
# 4 0.0000 0.0000 0.0000 30.9301 0.0000 0.0000
# 5 0.0000 0.0000 0.0000 0.0000 16.3443 0.0000
# 6 0.0000 0.0000 0.0000 0.0000 0.0000 26.8500
#
#
#
# Elastic Compliance Matrix: (Units=1/GPa)
#
#
# Indices 1 2 3 4 5 6 
#
# 1 0.016424 -0.004629 -0.002646 0.000000 0.000000 0.000000
# 2 -0.004629 0.023710 -0.005290 0.000000 0.000000 0.000000
# 3 -0.002646 -0.005290 0.010501 0.000000 0.000000 0.000000
# 4 0.000000 0.000000 0.000000 0.032331 0.000000 0.000000
# 5 0.000000 0.000000 0.000000 0.000000 0.061183 0.000000
# 6 0.000000 0.000000 0.000000 0.000000 0.000000 0.037244
#
#
# Mechanical properties :
#
#
# Convention : Reuss Voigt Hill
#
# Bulk Modulus (GPa) = 39.20666 44.75694 41.98180
# Shear Modulus (GPa) = 23.25333 25.66439 24.45886
#
# Velocity S-wave (km/s) = 3.62107 3.80417 3.71375
# Velocity P-wave (km/s) = 6.29213 6.67333 6.48553
#
# Compressibility (1/GPa) = 0.02550587
#
# Stress axis : x y z
#
# Youngs Moduli (GPa) = 60.88755 42.17624 95.23299
#
# Poissons Ratio (x) = 0.19521 0.25197
# Poissons Ratio (y) = 0.28182 0.50376
# Poissons Ratio (z) = 0.16110 0.22310
#
# Static dielectric constant tensor:
#      x y z
#    x 1.627680 0.000000 0.000000 
#    y 0.000000 1.588490 0.000000 
#    z 0.000000 0.000000 1.633320 
# 
# From -- ./inp_files/12844.got.cif
#   From: 2010.05.17/outbox.cif.g08.bks.cpg/sg39_7_cif.got.tgz:12844.got - 2010.06.03 18:22:40.
