data_PCOD9359976
_publ_section_title
;
Structure prediction by ZEFSAII (Michael W. Deem and Ramdas Pophale) SiO2 
 PCOD9359976
Probable space group: A B M 2
;
_chemical_formula_sum "Si O2"
_cell_formula_units_Z 56
_cell_length_a 9.493222
_cell_length_b 20.704732
_cell_length_c 14.384883
_cell_angle_alpha 90.000000
_cell_angle_beta 90.000000
_cell_angle_gamma 90.000000
_cell_volume 2827.415173
_symmetry_space_group_name_H-M "A B M 2"
_symmetry_group_IT_number 39
_symmetry_cell_setting 'orthorhombic'
loop_
_space_group_symop_operation_xyz
x,y,z
-x,-y,z
-x,1/2+y,z
x,1/2-y,z
x,1/2+y,1/2+z
-x,1/2-y,1/2+z
-x,y,1/2+z
x,-y,1/2+z
loop_
_atom_site_type_symbol
_atom_site_label
_atom_site_fract_x
_atom_site_fract_y
_atom_site_fract_z
Si Si1 0.744028 0.677377 0.514150
Si Si2 0.534311 0.926501 0.441965
Si Si3 0.256623 0.966648 0.784419
Si Si4 0.771865 0.583330 0.907144
Si Si5 0.049412 0.356989 0.347412
Si Si6 0.863599 0.043939 0.595019
Si Si7 0.993910 0.179262 0.638584
O O1 0.682328 0.750000 0.516964
O O2 0.634722 0.618779 0.503196
O O3 0.845937 0.673248 0.423203
O O4 0.846466 0.669391 0.602819
O O5 0.612853 0.937244 0.342326
O O6 0.383486 0.892211 0.430255
O O7 0.500000 0.000000 0.474868
O O8 0.121213 0.925424 0.818755
O O9 0.254290 0.964615 0.673456
O O10 0.240550 0.039992 0.815691
O O11 0.897761 0.632412 0.892827
O O12 0.814191 0.533825 0.990096
O O13 0.026643 0.322172 0.249395
O O14 0.907821 0.118793 0.600531
O O15 0.000000 0.000000 0.615683
O O16 0.949852 0.250000 0.603429
#
# Coordination Sequence:
#
# PCOD9359976 Si02
#       7
#     8   8   8   8   8   8   8
#     4  10  20  38  60  84 118 161 200 245 303 367
#     4   9  21  38  56  80 125 161 197 243 295 367
#     4   9  19  36  53  83 120 155 195 245 300 362
#     4  11  20  36  56  91 119 152 200 256 303 356
#     4  10  18  34  60  85 114 151 198 251 298 348
#     4  11  21  34  63  91 116 157 201 258 309 351
#     4  10  21  36  57  89 119 151 198 246 301 358
#
# _framework density 19.806076000000001
#
# number of rings (size 3 to 8) (size 9 to 14) (size 15 to 20)
#    0.000    2.000    1.429    3.429    4.000    0.000 
#    2.571    5.714    0.000    0.000    0.000    0.000 
#    0.000    0.000    0.000    0.000    0.000    0.000 
#
# Total GULP energy -156133.350169 kJ/mol
# GULP energy per Si atom -5576.191077 kJ/mol
# Density = 1.976100 g / cm^3
# Si number density = 19.806076 Si / 1000 Ang^3
#
#
#
# Elastic Constant Matrix: (Units=GPa)
#
#
# Indices 1 2 3 4 5 6 
#
# 1 76.4775 25.0459 7.6176 0.0000 0.0000 0.0000
# 2 25.0459 80.7311 15.5555 0.0000 0.0000 0.0000
# 3 7.6176 15.5555 52.3150 0.0000 0.0000 0.0000
# 4 0.0000 0.0000 0.0000 16.3668 0.0000 0.0000
# 5 0.0000 0.0000 0.0000 0.0000 22.4606 0.0000
# 6 0.0000 0.0000 0.0000 0.0000 0.0000 22.6901
#
#
#
# Elastic Compliance Matrix: (Units=1/GPa)
#
#
# Indices 1 2 3 4 5 6 
#
# 1 0.014588 -0.004367 -0.000826 0.000000 0.000000 0.000000
# 2 -0.004367 0.014447 -0.003660 0.000000 0.000000 0.000000
# 3 -0.000826 -0.003660 0.020323 0.000000 0.000000 0.000000
# 4 0.000000 0.000000 0.000000 0.061099 0.000000 0.000000
# 5 0.000000 0.000000 0.000000 0.000000 0.044522 0.000000
# 6 0.000000 0.000000 0.000000 0.000000 0.000000 0.044072
#
#
# Mechanical properties :
#
#
# Convention : Reuss Voigt Hill
#
# Bulk Modulus (GPa) = 31.59188 33.99575 32.79382
# Shear Modulus (GPa) = 21.99661 23.05713 22.52687
#
# Velocity S-wave (km/s) = 3.33618 3.41566 3.37615
# Velocity P-wave (km/s) = 5.55206 5.72339 5.63838
#
# Compressibility (1/GPa) = 0.03165370
#
# Stress axis : x y z
#
# Youngs Moduli (GPa) = 68.54924 69.22004 49.20431
#
# Poissons Ratio (x) = 0.30226 0.04063
# Poissons Ratio (y) = 0.29933 0.18008
# Poissons Ratio (z) = 0.05661 0.25333
#
# Static dielectric constant tensor:
#      x y z
#    x 1.708420 0.000000 0.000000 
#    y 0.000000 1.714900 0.000000 
#    z 0.000000 0.000000 1.707760 
# 
# From -- ./inp_files/8605.got.cif
#   From: 2010.05.17/outbox.cif.g08.bks.cpg/sg39_5_cif.got.tgz:8605.got - 2010.06.03 18:22:40.
