data_PCOD9359214
_publ_section_title
;
Structure prediction by ZEFSAII (Michael W. Deem and Ramdas Pophale) SiO2 
 PCOD9359214
Probable space group: A M M 2
;
_chemical_formula_sum "Si O2"
_cell_formula_units_Z 64
_cell_length_a 18.974737
_cell_length_b 13.781971
_cell_length_c 12.879943
_cell_angle_alpha 90.000000
_cell_angle_beta 90.000000
_cell_angle_gamma 90.000000
_cell_volume 3368.224557
_symmetry_space_group_name_H-M "A M M 2"
_symmetry_group_IT_number 38
_symmetry_cell_setting 'orthorhombic'
loop_
_space_group_symop_operation_xyz
x,y,z
-x,-y,z
-x,y,z
x,-y,z
x,1/2+y,1/2+z
-x,1/2-y,1/2+z
-x,1/2+y,1/2+z
x,1/2-y,1/2+z
loop_
_atom_site_type_symbol
_atom_site_label
_atom_site_fract_x
_atom_site_fract_y
_atom_site_fract_z
Si Si1 0.707221 0.383772 0.519720
Si Si2 0.081317 0.113317 0.518236
Si Si3 0.419437 0.117041 0.868168
Si Si4 0.081317 0.613317 0.266890
Si Si5 0.580563 0.882959 0.416958
Si Si6 0.292779 0.883772 0.265406
Si Si7 0.185851 0.750000 0.892563
Si Si8 0.414253 0.888673 0.642563
O O1 0.721277 0.500000 0.506180
O O2 0.634708 0.361855 0.458924
O O3 0.701962 0.365288 0.642563
O O4 0.766146 0.318035 0.465502
O O5 0.087577 0.123317 0.642563
O O6 0.136182 0.181413 0.461337
O O7 0.000000 0.136136 0.490383
O O8 0.093732 0.000000 0.492954
O O9 0.500000 0.146319 0.889128
O O10 0.394776 0.154013 0.754435
O O11 0.421283 0.000000 0.858192
O O12 0.093731 0.500000 0.292172
O O13 0.136182 0.681413 0.323789
O O14 0.000000 0.636136 0.294743
O O15 0.500000 0.853681 0.395998
O O16 0.634708 0.861855 0.326202
O O17 0.605224 0.845987 0.530691
O O18 0.578717 0.000000 0.426934
O O19 0.233854 0.818035 0.319624
O O20 0.278723 0.000000 0.278946
O O21 0.500000 0.891119 0.642563
O O22 0.388152 0.000000 0.642563
#
# Coordination Sequence:
#
# PCOD9359214 Si02
#       8
#     8   8   8   8   8   8   8   8
#     4  10  22  38  54  78 114 153 191 234 283 335
#     4   9  19  37  61  88 115 143 181 228 272 320
#     4   8  14  28  51  76 102 140 190 240 287 333
#     4   9  19  37  61  88 115 143 181 228 272 320
#     4   8  14  28  51  76 102 140 190 240 287 333
#     4  10  22  38  54  78 114 153 191 234 283 335
#     4  12  21  36  57  84 114 154 186 222 273 338
#     4   7  10  20  42  72 100 124 164 229 290 330
#
# _framework density 19.001107999999999
#
# number of rings (size 3 to 8) (size 9 to 14) (size 15 to 20)
#    0.000    2.875    0.000    4.125    0.000    0.500 
#    4.500    3.125    0.000    0.000    0.000   10.500 
#    0.000    0.000    0.000    0.250    0.000    0.250 
#
# Total GULP energy -178545.493874 kJ/mol
# GULP energy per Si atom -5579.546684 kJ/mol
# Density = 1.895786 g / cm^3
# Si number density = 19.001108 Si / 1000 Ang^3
#
#
#
# Elastic Constant Matrix: (Units=GPa)
#
#
# Indices 1 2 3 4 5 6 
#
# 1 137.2637 76.2576 107.4697 0.0000 0.0000 0.0000
# 2 76.2576 111.1905 86.4564 0.0000 0.0000 0.0000
# 3 107.4697 86.4564 156.1152 0.0000 0.0000 0.0000
# 4 0.0000 0.0000 0.0000 20.2567 0.0000 0.0000
# 5 0.0000 0.0000 0.0000 0.0000 40.3722 0.0000
# 6 0.0000 0.0000 0.0000 0.0000 0.0000 87.0561
#
#
#
# Elastic Compliance Matrix: (Units=1/GPa)
#
#
# Indices 1 2 3 4 5 6 
#
# 1 0.016991 -0.004493 -0.009208 0.000000 0.000000 0.000000
# 2 -0.004493 0.016983 -0.006312 0.000000 0.000000 0.000000
# 3 -0.009208 -0.006312 0.016240 0.000000 0.000000 0.000000
# 4 0.000000 0.000000 0.000000 0.049366 0.000000 0.000000
# 5 0.000000 0.000000 0.000000 0.000000 0.024770 0.000000
# 6 0.000000 0.000000 0.000000 0.000000 0.000000 0.011487
#
#
# Mechanical properties :
#
#
# Convention : Reuss Voigt Hill
#
# Bulk Modulus (GPa) = 98.16267 104.99298 101.57783
# Shear Modulus (GPa) = 27.89244 38.49604 33.19424
#
# Velocity S-wave (km/s) = 3.83552 4.50598 4.18420
# Velocity P-wave (km/s) = 8.44918 9.08009 8.77031
#
# Compressibility (1/GPa) = 0.01018717
#
# Stress axis : x y z
#
# Youngs Moduli (GPa) = 58.85481 58.88222 61.57483
#
# Poissons Ratio (x) = 0.26455 0.56701
# Poissons Ratio (y) = 0.26442 0.38868
# Poissons Ratio (z) = 0.54196 0.37168
#
# Static dielectric constant tensor:
#      x y z
#    x 1.627560 0.000000 0.000000 
#    y 0.000000 1.684680 0.000000 
#    z 0.000000 0.000000 1.654520 
# 
# From -- ./inp_files/10602.got.cif
#   From: 2010.05.17/outbox.cif.g08.bks.cpg/sg38_6_cif.got.tgz:10602.got - 2010.06.03 18:07:57.
