data_PCOD9359537
_publ_section_title
;
Structure prediction by ZEFSAII (Michael W. Deem and Ramdas Pophale) SiO2 
 PCOD9359537
Probable space group: A M M 2
;
_chemical_formula_sum "Si O2"
_cell_formula_units_Z 64
_cell_length_a 17.505316
_cell_length_b 7.344310
_cell_length_c 23.279857
_cell_angle_alpha 90.000000
_cell_angle_beta 90.000000
_cell_angle_gamma 90.000000
_cell_volume 2992.962415
_symmetry_space_group_name_H-M "A M M 2"
_symmetry_group_IT_number 38
_symmetry_cell_setting 'orthorhombic'
loop_
_space_group_symop_operation_xyz
x,y,z
-x,-y,z
-x,y,z
x,-y,z
x,1/2+y,1/2+z
-x,1/2-y,1/2+z
-x,1/2+y,1/2+z
x,1/2-y,1/2+z
loop_
_atom_site_type_symbol
_atom_site_label
_atom_site_fract_x
_atom_site_fract_y
_atom_site_fract_z
Si Si1 0.417562 0.280371 0.257660
Si Si2 0.918218 0.220138 0.111360
Si Si3 0.275216 0.278738 0.185856
Si Si4 0.246024 0.723196 0.931642
Si Si5 0.586022 0.208286 0.390991
Si Si6 0.760768 0.704707 0.060922
Si Si7 0.913053 0.777894 0.367451
Si Si8 0.115134 0.290706 0.738079
O O1 0.500000 0.231293 0.233978
O O2 0.413041 0.500000 0.262103
O O3 0.351313 0.219221 0.216518
O O4 0.411735 0.209345 0.322024
O O5 0.850384 0.300744 0.075129
O O6 0.915502 0.285415 0.177647
O O7 0.000000 0.262936 0.086112
O O8 0.908626 0.000000 0.112792
O O9 0.270628 0.500000 0.183721
O O10 0.270445 0.212207 0.120215
O O11 0.205295 0.216424 0.225502
O O12 0.244697 0.500000 0.928969
O O13 0.329725 0.782641 0.907909
O O14 0.165535 0.778976 0.900746
O O15 0.246911 0.784467 0.997988
O O16 0.500000 0.284925 0.406045
O O17 0.584987 0.000000 0.412296
O O18 0.728763 0.500000 0.057252
O O19 0.904805 0.716419 0.300623
O O20 0.000000 0.725626 0.387243
O O21 0.911688 0.000000 0.368275
O O22 0.089336 0.500000 0.739773
#
# Coordination Sequence:
#
# PCOD9359537 Si02
#       8
#     8   8   8   8   8   8   8   8
#     4   9  17  29  45  66  91 116 142 175 218 269
#     4   9  17  29  45  65  88 113 144 185 228 266
#     4   9  17  29  44  63  88 116 145 179 219 261
#     4   9  17  29  44  64  91 119 148 184 221 257
#     4   9  17  30  49  72  94 115 143 182 226 268
#     4   9  18  31  45  62  86 117 152 184 214 256
#     4   9  16  25  40  64  90 114 143 180 219 259
#     4   9  16  27  45  66  86 110 142 180 223 268
#
# _framework density 21.383495
#
# number of rings (size 3 to 8) (size 9 to 14) (size 15 to 20)
#    0.000    3.000    0.000    1.125    0.000    3.750 
#    0.000    2.500    0.000    5.625    0.000    0.000 
#    0.000    5.000    0.000    0.000    0.000    0.000 
#
# Total GULP energy -178201.500952 kJ/mol
# GULP energy per Si atom -5568.796905 kJ/mol
# Density = 2.133483 g / cm^3
# Si number density = 21.383495 Si / 1000 Ang^3
#
#
#
# Elastic Constant Matrix: (Units=GPa)
#
#
# Indices 1 2 3 4 5 6 
#
# 1 206.1016 4.1177 79.1886 0.0000 0.0000 0.0000
# 2 4.1177 79.4587 1.1592 0.0000 0.0000 0.0000
# 3 79.1886 1.1592 85.6571 0.0000 0.0000 0.0000
# 4 0.0000 0.0000 0.0000 -1.4431 0.0000 0.0000
# 5 0.0000 0.0000 0.0000 0.0000 -28.6326 0.0000
# 6 0.0000 0.0000 0.0000 0.0000 0.0000 7.9009
#
#
#
# Elastic Compliance Matrix: (Units=1/GPa)
#
#
# Indices 1 2 3 4 5 6 
#
# 1 0.007531 -0.000289 -0.006959 0.000000 0.000000 0.000000
# 2 -0.000289 0.012599 0.000096 0.000000 0.000000 0.000000
# 3 -0.006959 0.000096 0.018106 0.000000 0.000000 0.000000
# 4 0.000000 0.000000 0.000000 -0.692976 0.000000 0.000000
# 5 0.000000 0.000000 0.000000 0.000000 -0.034925 0.000000
# 6 0.000000 0.000000 0.000000 0.000000 0.000000 0.126568
#
#
# Mechanical properties :
#
#
# Convention : Reuss Voigt Hill
#
# Bulk Modulus (GPa) = 41.78087 60.01648 50.89868
# Shear Modulus (GPa) = -9.24529 14.68183 2.71827
#
# Velocity S-wave (km/s) = -2.08157 2.62314 1.12870
# Velocity P-wave (km/s) = 3.71537 6.10755 5.05500
#
# Compressibility (1/GPa) = 0.02393440
#
# Stress axis : x y z
#
# Youngs Moduli (GPa) = 132.77617 79.37316 55.22891
#
# Poissons Ratio (x) = 0.02292 0.38433
# Poissons Ratio (y) = 0.03834 -0.00533
# Poissons Ratio (z) = 0.92396 -0.00766
#
# Static dielectric constant tensor:
#      x y z
#    x 1.818150 0.000000 0.000000 
#    y 0.000000 1.857680 0.000000 
#    z 0.000000 0.000000 1.732190 
# 
# From -- ./inp_files/23076.got.cif
#   From: 2010.05.17/outbox.cif.g08.bks.cpg/sg38_12_cif.got.tgz:23076.got - 2010.06.03 18:07:57.
