data_PCOD9359521
_publ_section_title
;
Structure prediction by ZEFSAII (Michael W. Deem and Ramdas Pophale) SiO2 
 PCOD9359521
Probable space group: A M M 2
;
_chemical_formula_sum "Si O2"
_cell_formula_units_Z 56
_cell_length_a 7.704138
_cell_length_b 14.206829
_cell_length_c 30.584579
_cell_angle_alpha 90.000000
_cell_angle_beta 90.000000
_cell_angle_gamma 90.000000
_cell_volume 3347.524108
_symmetry_space_group_name_H-M "A M M 2"
_symmetry_group_IT_number 38
_symmetry_cell_setting 'orthorhombic'
loop_
_space_group_symop_operation_xyz
x,y,z
-x,-y,z
-x,y,z
x,-y,z
x,1/2+y,1/2+z
-x,1/2-y,1/2+z
-x,1/2+y,1/2+z
x,1/2-y,1/2+z
loop_
_atom_site_type_symbol
_atom_site_label
_atom_site_fract_x
_atom_site_fract_y
_atom_site_fract_z
Si Si1 0.208484 0.209670 0.022690
Si Si2 0.291948 0.709256 0.887142
Si Si3 0.207547 0.607914 0.609162
Si Si4 0.790873 0.893928 0.934852
Si Si5 0.708865 0.394091 0.974861
Si Si6 0.287955 0.110302 0.299727
Si Si7 0.708577 0.891120 0.204231
O O1 0.274440 0.168889 0.068533
O O2 0.000000 0.200802 0.022938
O O3 0.273020 0.148455 0.981222
O O4 0.248633 0.317789 0.011837
O O5 0.500000 0.697931 0.886569
O O6 0.254695 0.817655 0.898088
O O7 0.225952 0.648703 0.928662
O O8 0.225772 0.669949 0.841083
O O9 0.275986 0.500000 0.607299
O O10 0.240798 0.649788 0.657344
O O11 0.000000 0.601775 0.604563
O O12 0.000000 0.897277 0.937278
O O13 0.727475 0.000000 0.927728
O O14 0.500000 0.398024 0.971913
O O15 0.773014 0.500000 0.982084
O O16 0.500000 0.112231 0.300017
O O17 0.232081 0.145771 0.251562
O O18 0.239857 0.000000 0.304350
O O19 0.500000 0.891795 0.205228
O O20 0.769250 0.000000 0.202965
#
# Coordination Sequence:
#
# PCOD9359521 Si02
#       7
#     8   8   8   8   8   8   8
#     4   9  17  28  42  59  78 105 139 165 190 231
#     4   9  16  26  42  62  81 104 135 165 192 227
#     4   9  16  26  40  58  81 107 133 162 196 233
#     4   9  17  29  42  56  79 109 136 163 196 233
#     4   9  17  28  41  59  83 107 131 162 198 232
#     4   8  13  23  40  60  82 108 134 158 189 233
#     4   8  14  24  38  57  80 105 132 160 192 233
#
# _framework density 16.728781999999999
#
# number of rings (size 3 to 8) (size 9 to 14) (size 15 to 20)
#    0.000    3.286    0.000    1.714    0.000    4.571 
#    0.000    0.714    0.000    4.714    0.000    1.000 
#    0.000    1.143    0.000    0.000    0.000    0.000 
#
# Total GULP energy -155887.227443 kJ/mol
# GULP energy per Si atom -5567.400980 kJ/mol
# Density = 1.669071 g / cm^3
# Si number density = 16.728782 Si / 1000 Ang^3
#
#
#
# Elastic Constant Matrix: (Units=GPa)
#
#
# Indices 1 2 3 4 5 6 
#
# 1 24.3614 1.5744 6.5513 0.0000 0.0000 0.0000
# 2 1.5744 113.2721 82.6531 0.0000 0.0000 0.0000
# 3 6.5513 82.6531 166.4428 0.0000 0.0000 0.0000
# 4 0.0000 0.0000 0.0000 25.7002 0.0000 0.0000
# 5 0.0000 0.0000 0.0000 0.0000 -19.9189 0.0000
# 6 0.0000 0.0000 0.0000 0.0000 0.0000 14.1943
#
#
#
# Elastic Compliance Matrix: (Units=1/GPa)
#
#
# Indices 1 2 3 4 5 6 
#
# 1 0.041555 0.000966 -0.002115 0.000000 0.000000 0.000000
# 2 0.000966 0.013868 -0.006924 0.000000 0.000000 0.000000
# 3 -0.002115 -0.006924 0.009530 0.000000 0.000000 0.000000
# 4 0.000000 0.000000 0.000000 0.038910 0.000000 0.000000
# 5 0.000000 0.000000 0.000000 0.000000 -0.050203 0.000000
# 6 0.000000 0.000000 0.000000 0.000000 0.000000 0.070451
#
#
# Mechanical properties :
#
#
# Convention : Reuss Voigt Hill
#
# Bulk Modulus (GPa) = 20.48981 53.95932 37.22457
# Shear Modulus (GPa) = 31.94360 18.21494 25.07927
#
# Velocity S-wave (km/s) = 4.37452 3.30334 3.87611
# Velocity P-wave (km/s) = 6.14736 6.84652 6.50634
#
# Compressibility (1/GPa) = 0.04880475
#
# Stress axis : x y z
#
# Youngs Moduli (GPa) = 24.06454 72.11074 104.93272
#
# Poissons Ratio (x) = -0.06965 0.22196
# Poissons Ratio (y) = -0.02324 0.72660
# Poissons Ratio (z) = 0.05090 0.49933
#
# Static dielectric constant tensor:
#      x y z
#    x 1.625690 0.000000 0.000000 
#    y 0.000000 1.545280 0.000000 
#    z 0.000000 0.000000 1.594610 
# 
# From -- ./inp_files/20691.got.cif
#   From: 2010.05.17/outbox.cif.g08.bks.cpg/sg38_11_cif.got.tgz:20691.got - 2010.06.03 18:07:57.
