data_PCOD9359645
_publ_section_title
;
Structure prediction by ZEFSAII (Michael W. Deem and Ramdas Pophale) SiO2 
 PCOD9359645
Probable space group: A M M 2
;
_chemical_formula_sum "Si O2"
_cell_formula_units_Z 32
_cell_length_a 24.000000
_cell_length_b 9.000000
_cell_length_c 15.000000
_cell_angle_alpha 90.000000
_cell_angle_beta 90.000000
_cell_angle_gamma 90.000000
_cell_volume 3240.000000
_symmetry_space_group_name_H-M "A M M 2"
_symmetry_group_IT_number 38
_symmetry_cell_setting 'orthorhombic'
loop_
_space_group_symop_operation_xyz
x,y,z
-x,-y,z
-x,y,z
x,-y,z
x,1/2+y,1/2+z
-x,1/2-y,1/2+z
-x,1/2+y,1/2+z
x,1/2-y,1/2+z
loop_
_atom_site_type_symbol
_atom_site_label
_atom_site_fract_x
_atom_site_fract_y
_atom_site_fract_z
Si Si1 0.631417 0.324881 0.516320
Si Si2 0.437031 0.678677 0.867663
Si Si3 0.113708 0.675801 0.755428
Si Si4 0.872925 0.673694 0.432319
Si Si5 0.756197 0.324904 0.509542
Si Si6 0.935216 0.172476 0.590029
Si Si7 0.229139 0.176523 0.698677
Si Si8 0.345069 0.678794 0.723611
O O1 0.620047 0.500000 0.506853
O O2 0.586277 0.234532 0.461790
O O3 0.693552 0.294950 0.477792
O O4 0.635907 0.291783 0.621606
O O5 0.500000 0.731390 0.851400
O O6 0.437643 0.500000 0.866944
O O7 0.393125 0.725426 0.791837
O O8 0.110505 0.500000 0.741978
O O9 0.102068 0.723121 0.856254
O O10 0.073858 0.763398 0.688352
O O11 0.175700 0.736938 0.735286
O O12 0.883886 0.500000 0.415263
O O13 0.806110 0.693199 0.440318
O O14 0.898769 0.725562 0.525344
O O15 0.757247 0.500000 0.538713
O O16 0.767496 0.220758 0.594176
O O17 0.000000 0.180276 0.565207
O O18 0.917115 0.000000 0.585916
O O19 0.287015 0.236903 0.738800
O O20 0.223222 0.000000 0.711070
O O21 0.336064 0.500000 0.730741
#
# Coordination Sequence:
#
# PCOD9359645 Si02
#       8
#     8   8   8   8   8   8   8   8
#     4   9  19  36  58  85 116 150 195 243 294 356
#     4  10  22  39  58  83 116 154 200 249 298 357
#     4  12  25  41  63  93 129 168 211 256 307 366
#     4  11  23  40  65  96 128 164 207 256 311 370
#     4   9  19  37  60  88 124 160 196 246 307 371
#     4  11  25  46  69  94 127 166 211 260 308 365
#     4  11  21  35  60  91 125 159 201 253 309 368
#     4   9  20  39  59  82 115 158 200 242 301 366
#
# _framework density 9.8765429999999999
#
# number of rings (size 3 to 8) (size 9 to 14) (size 15 to 20)
#    0.000    1.750    1.250    3.750    1.750    5.250 
#    0.000    1.250    0.000    0.000    0.000    0.000 
#    0.000    0.000    0.000    0.000    0.000    0.000 
#
# Total GULP energy -178784.224352 kJ/mol
# GULP energy per Si atom -5587.007011 kJ/mol
# Density = 0.985406 g / cm^3
# Si number density = 9.876543 Si / 1000 Ang^3
#
#
#
# Elastic Constant Matrix: (Units=GPa)
#
#
# Indices 1 2 3 4 5 6 
#
# 1 58.9069 9.4895 -1.9610 0.0000 0.0000 0.0000
# 2 9.4895 52.2305 -5.0669 0.0000 0.0000 0.0000
# 3 -1.9610 -5.0669 29.4075 0.0000 0.0000 0.0000
# 4 0.0000 0.0000 0.0000 30.8981 0.0000 0.0000
# 5 0.0000 0.0000 0.0000 0.0000 14.5462 0.0000
# 6 0.0000 0.0000 0.0000 0.0000 0.0000 27.4822
#
#
#
# Elastic Compliance Matrix: (Units=1/GPa)
#
#
# Indices 1 2 3 4 5 6 
#
# 1 0.017499 -0.003118 0.000630 0.000000 0.000000 0.000000
# 2 -0.003118 0.020027 0.003243 0.000000 0.000000 0.000000
# 3 0.000630 0.003243 0.034606 0.000000 0.000000 0.000000
# 4 0.000000 0.000000 0.000000 0.032364 0.000000 0.000000
# 5 0.000000 0.000000 0.000000 0.000000 0.068746 0.000000
# 6 0.000000 0.000000 0.000000 0.000000 0.000000 0.036387
#
#
# Mechanical properties :
#
#
# Convention : Reuss Voigt Hill
#
# Bulk Modulus (GPa) = 13.57959 16.16315 14.87137
# Shear Modulus (GPa) = 21.48982 23.79086 22.64034
#
# Velocity S-wave (km/s) = 3.30194 3.47423 3.38918
# Velocity P-wave (km/s) = 4.62890 4.92890 4.78125
#
# Compressibility (1/GPa) = 0.07363991
#
# Stress axis : x y z
#
# Youngs Moduli (GPa) = 57.14535 49.93259 28.89704
#
# Poissons Ratio (x) = 0.15570 -0.01819
# Poissons Ratio (y) = 0.17819 -0.09370
# Poissons Ratio (z) = -0.03598 -0.16192
#
# Static dielectric constant tensor:
#      x y z
#    x 1.692990 0.000000 0.000000 
#    y 0.000000 1.654850 0.000000 
#    z 0.000000 0.000000 1.706650 
# 
# From -- ./inp_files/15818.got.cif
#   From: 2010.05.17/outbox.ucp.g08.bks.cvg/sg38_8_cif.got.tgz:15818.got - 2010.06.11 10:39:43.
