data_PCOD9359054
_publ_section_title
;
Structure prediction by ZEFSAII (Michael W. Deem and Ramdas Pophale) SiO2 
 PCOD9359054
Probable space group: A M M 2
;
_chemical_formula_sum "Si O2"
_cell_formula_units_Z 58
_cell_length_a 26.903923
_cell_length_b 7.427951
_cell_length_c 14.724816
_cell_angle_alpha 90.000000
_cell_angle_beta 90.000000
_cell_angle_gamma 90.000000
_cell_volume 2942.622275
_symmetry_space_group_name_H-M "A M M 2"
_symmetry_group_IT_number 38
_symmetry_cell_setting 'orthorhombic'
loop_
_space_group_symop_operation_xyz
x,y,z
-x,-y,z
-x,y,z
x,-y,z
x,1/2+y,1/2+z
-x,1/2-y,1/2+z
-x,1/2+y,1/2+z
x,1/2-y,1/2+z
loop_
_atom_site_type_symbol
_atom_site_label
_atom_site_fract_x
_atom_site_fract_y
_atom_site_fract_z
Si Si1 0.173454 0.284062 0.153430
Si Si2 0.000000 0.000000 0.003329
Si Si3 0.828613 0.218993 0.861686
Si Si4 0.554856 0.284916 0.366973
Si Si5 0.365691 0.779237 0.011199
Si Si6 0.746684 0.287166 0.503310
Si Si7 0.910370 0.789834 0.509380
Si Si8 0.554896 0.285377 0.654432
O O1 0.171746 0.500000 0.156777
O O2 0.172442 0.219533 0.257242
O O3 0.222552 0.236093 0.096338
O O4 0.126427 0.229603 0.091576
O O5 0.043503 0.157698 0.003568
O O6 0.828503 0.000000 0.861700
O O7 0.781383 0.282510 0.921368
O O8 0.877075 0.277190 0.917998
O O9 0.500000 0.215660 0.394207
O O10 0.553236 0.500000 0.379608
O O11 0.601152 0.220867 0.425534
O O12 0.561235 0.247935 0.260879
O O13 0.309109 0.714791 0.008810
O O14 0.398507 0.719144 0.097056
O O15 0.363782 0.000000 0.012562
O O16 0.742326 0.500000 0.487033
O O17 0.923838 0.000000 0.523612
O O18 0.500000 0.214925 0.627970
O O19 0.553068 0.500000 0.639882
#
# Coordination Sequence:
#
# PCOD9359054 Si02
#       8
#     8   2   8   8   8   8   8   8
#     4   9  19  35  58  81 110 144 185 225 269 325
#     4  12  22  40  64  86 128 154 186 236 278 314
#     4   9  17  35  58  79 108 146 184 228 275 328
#     4   9  17  30  48  68  92 127 172 217 265 327
#     4   9  17  30  47  70  99 130 173 217 267 326
#     4   9  18  31  51  77 101 136 179 222 272 330
#     4  10  21  38  61  87 117 156 191 227 277 325
#     4   9  17  30  47  65  91 130 171 213 267 326
#
# _framework density 19.710311999999998
#
# number of rings (size 3 to 8) (size 9 to 14) (size 15 to 20)
#    0.000    2.759    0.690    0.621    0.966    3.310 
#    0.000    4.138    0.000    3.310    0.000    0.000 
#    0.000    0.000    0.000    0.000    0.000    0.000 
#
# Total GULP energy -161503.012486 kJ/mol
# GULP energy per Si atom -5569.069396 kJ/mol
# Density = 1.966545 g / cm^3
# Si number density = 19.710312 Si / 1000 Ang^3
#
#
#
# Elastic Constant Matrix: (Units=GPa)
#
#
# Indices 1 2 3 4 5 6 
#
# 1 229.6881 40.1642 97.4013 0.0000 0.0000 0.0000
# 2 40.1642 83.2508 13.2068 0.0000 0.0000 0.0000
# 3 97.4013 13.2068 138.5862 0.0000 0.0000 0.0000
# 4 0.0000 0.0000 0.0000 7.5568 0.0000 0.0000
# 5 0.0000 0.0000 0.0000 0.0000 -1.9966 0.0000
# 6 0.0000 0.0000 0.0000 0.0000 0.0000 7.2964
#
#
#
# Elastic Compliance Matrix: (Units=1/GPa)
#
#
# Indices 1 2 3 4 5 6 
#
# 1 0.006684 -0.002518 -0.004458 0.000000 0.000000 0.000000
# 2 -0.002518 0.013145 0.000517 0.000000 0.000000 0.000000
# 3 -0.004458 0.000517 0.010300 0.000000 0.000000 0.000000
# 4 0.000000 0.000000 0.000000 0.132332 0.000000 0.000000
# 5 0.000000 0.000000 0.000000 0.000000 -0.500858 0.000000
# 6 0.000000 0.000000 0.000000 0.000000 0.000000 0.137053
#
#
# Mechanical properties :
#
#
# Convention : Reuss Voigt Hill
#
# Bulk Modulus (GPa) = 58.10260 83.67440 70.88850
# Shear Modulus (GPa) = -27.36880 22.62151 -2.37364
#
# Velocity S-wave (km/s) = -3.73037 3.39145 -1.09858
# Velocity P-wave (km/s) = 3.31482 7.60790 5.86806
#
# Compressibility (1/GPa) = 0.01721093
#
# Stress axis : x y z
#
# Youngs Moduli (GPa) = 149.60070 76.07708 97.09037
#
# Poissons Ratio (x) = 0.19154 0.43283
# Poissons Ratio (y) = 0.37665 -0.05018
# Poissons Ratio (z) = 0.66693 -0.03932
#
# Static dielectric constant tensor:
#      x y z
#    x 1.669580 0.000000 0.000000 
#    y 0.000000 1.744070 0.000000 
#    z 0.000000 0.000000 1.682950 
# 
# From -- ./inp_files/15638.got.cif
#   From: 2010.05.17/outbox.cif.g08.bks.cpg/sg38_8_cif.got.tgz:15638.got - 2010.06.03 18:07:57.
