data_PCOD9359364
_publ_section_title
;
Structure prediction by ZEFSAII (Michael W. Deem and Ramdas Pophale) SiO2 
 PCOD9359364
Probable space group: A M M 2
;
_chemical_formula_sum "Si O2"
_cell_formula_units_Z 40
_cell_length_a 7.910806
_cell_length_b 29.142663
_cell_length_c 8.931557
_cell_angle_alpha 90.000000
_cell_angle_beta 90.000000
_cell_angle_gamma 90.000000
_cell_volume 2059.098597
_symmetry_space_group_name_H-M "A M M 2"
_symmetry_group_IT_number 38
_symmetry_cell_setting 'orthorhombic'
loop_
_space_group_symop_operation_xyz
x,y,z
-x,-y,z
-x,y,z
x,-y,z
x,1/2+y,1/2+z
-x,1/2-y,1/2+z
-x,1/2+y,1/2+z
x,1/2-y,1/2+z
loop_
_atom_site_type_symbol
_atom_site_label
_atom_site_fract_x
_atom_site_fract_y
_atom_site_fract_z
Si Si1 0.810708 0.392324 0.603570
Si Si2 0.500000 0.054488 0.958557
Si Si3 0.305195 0.801809 0.946757
Si Si4 0.500000 0.054598 0.603319
Si Si5 0.800747 0.789656 0.604335
Si Si6 0.198442 0.887916 0.461410
O O1 0.665832 0.423367 0.532075
O O2 0.793105 0.341695 0.533190
O O3 0.787671 0.389202 0.782081
O O4 0.000000 0.409892 0.572870
O O5 0.500000 0.063767 0.781002
O O6 0.500000 0.000000 0.981648
O O7 0.500000 0.816361 0.938619
O O8 0.237791 0.795033 0.779334
O O9 0.291394 0.754000 0.034551
O O10 0.667679 0.077216 0.532464
O O11 0.500000 0.000000 0.578736
O O12 0.757861 0.837098 0.521319
O O13 0.000000 0.781654 0.583040
O O14 0.000000 0.896954 0.500617
#
# Coordination Sequence:
#
# PCOD9359364 Si02
#       6
#     8   4   8   4   8   8
#     4  11  23  43  67  95 130 170 212 262 319 379
#     4  11  25  45  66  97 128 163 213 265 323 385
#     4  12  24  38  61  94 129 171 215 261 312 372
#     4  11  25  43  68  93 126 165 205 263 323 379
#     4  11  23  40  61  89 127 173 215 259 310 371
#     4  10  24  42  66  95 127 167 213 260 314 377
#
# _framework density 19.425975000000001
#
# number of rings (size 3 to 8) (size 9 to 14) (size 15 to 20)
#    0.000    1.000    1.000    5.400    2.800    6.400 
#    0.000    4.000    0.000    0.000    0.000    0.000 
#    0.000    0.000    0.000    0.000    0.000    0.000 
#
# Total GULP energy -111900.091301 kJ/mol
# GULP energy per Si atom -5595.004565 kJ/mol
# Density = 1.938176 g / cm^3
# Si number density = 19.425975 Si / 1000 Ang^3
#
#
#
# Elastic Constant Matrix: (Units=GPa)
#
#
# Indices 1 2 3 4 5 6 
#
# 1 108.7409 73.3840 56.6188 0.0000 0.0000 0.0000
# 2 73.3840 111.7473 78.4978 0.0000 0.0000 0.0000
# 3 56.6188 78.4978 118.3328 0.0000 0.0000 0.0000
# 4 0.0000 0.0000 0.0000 35.4037 0.0000 0.0000
# 5 0.0000 0.0000 0.0000 0.0000 -18.2353 0.0000
# 6 0.0000 0.0000 0.0000 0.0000 0.0000 11.0732
#
#
#
# Elastic Compliance Matrix: (Units=1/GPa)
#
#
# Indices 1 2 3 4 5 6 
#
# 1 0.016627 -0.009982 -0.001334 0.000000 0.000000 0.000000
# 2 -0.009982 0.022750 -0.010316 0.000000 0.000000 0.000000
# 3 -0.001334 -0.010316 0.015932 0.000000 0.000000 0.000000
# 4 0.000000 0.000000 0.000000 0.028246 0.000000 0.000000
# 5 0.000000 0.000000 0.000000 0.000000 -0.054839 0.000000
# 6 0.000000 0.000000 0.000000 0.000000 0.000000 0.090308
#
#
# Mechanical properties :
#
#
# Convention : Reuss Voigt Hill
#
# Bulk Modulus (GPa) = 83.01277 83.98025 83.49651
# Shear Modulus (GPa) = 30.06576 14.33634 22.20105
#
# Velocity S-wave (km/s) = 3.93836 2.71956 3.38428
# Velocity P-wave (km/s) = 7.96910 7.29288 7.63848
#
# Compressibility (1/GPa) = 0.01204634
#
# Stress axis : x y z
#
# Youngs Moduli (GPa) = 60.14324 43.95600 62.76699
#
# Poissons Ratio (x) = 0.43876 0.08373
# Poissons Ratio (y) = 0.60034 0.64748
# Poissons Ratio (z) = 0.08023 0.45343
#
# Static dielectric constant tensor:
#      x y z
#    x 1.672300 0.000000 0.000000 
#    y 0.000000 1.659310 0.000000 
#    z 0.000000 0.000000 1.641260 
# 
# From -- ./inp_files/3515.got.cif
#   From: 2010.05.17/outbox.cif.g08.bks.cpg/sg38_2_cif.got.tgz:3515.got - 2010.06.03 18:07:57.
