data_PCOD9359898
_publ_section_title
;
Structure prediction by ZEFSAII (Michael W. Deem and Ramdas Pophale) SiO2 
 PCOD9359898
Probable space group: A B M 2
;
_chemical_formula_sum "Si O2"
_cell_formula_units_Z 32
_cell_length_a 15.683101
_cell_length_b 21.133389
_cell_length_c 5.272988
_cell_angle_alpha 90.000000
_cell_angle_beta 90.000000
_cell_angle_gamma 90.000000
_cell_volume 1747.663715
_symmetry_space_group_name_H-M "A B M 2"
_symmetry_group_IT_number 39
_symmetry_cell_setting 'orthorhombic'
loop_
_space_group_symop_operation_xyz
x,y,z
-x,-y,z
-x,1/2+y,z
x,1/2-y,z
x,1/2+y,1/2+z
-x,1/2-y,1/2+z
-x,y,1/2+z
x,-y,1/2+z
loop_
_atom_site_type_symbol
_atom_site_label
_atom_site_fract_x
_atom_site_fract_y
_atom_site_fract_z
Si Si1 0.222288 0.322527 0.729330
Si Si2 0.690892 0.865658 0.226805
Si Si3 0.943598 0.750000 0.788525
Si Si4 0.557717 0.250000 0.707374
Si Si5 0.535148 0.070681 0.875528
O O1 0.258801 0.250000 0.741190
O O2 0.246266 0.351639 0.459696
O O3 0.121684 0.309194 0.763199
O O4 0.261128 0.361974 0.960445
O O5 0.620303 0.810108 0.226456
O O6 0.632023 0.926362 0.282354
O O7 0.009380 0.750000 0.556931
O O8 0.506920 0.250000 0.443552
O O9 0.477204 0.100768 0.652978
O O10 0.500000 0.000000 0.914821
#
# Coordination Sequence:
#
# PCOD9359898 Si02
#       5
#     8   8   4   4   8
#     4  10  20  32  48  71  99 135 171 195 262 300
#     4  12  19  34  46  67 100 131 172 226 242 305
#     4  10  18  32  50  72 104 142 170 194 242 326
#     4  12  20  26  40  62  88 122 166 204 250 282
#     4  10  21  36  51  68  92 135 182 223 275 294
#
# _framework density 18.310161000000001
#
# number of rings (size 3 to 8) (size 9 to 14) (size 15 to 20)
#    0.750    0.500    2.500    6.000    0.000    0.000 
#    0.000    0.000    0.000    0.000    0.000    0.000 
#    0.000    0.000    0.000  315.000    0.000   35.000 
#
# Total GULP energy -89236.426856 kJ/mol
# GULP energy per Si atom -5577.276678 kJ/mol
# Density = 1.826849 g / cm^3
# Si number density = 18.310161 Si / 1000 Ang^3
#
#
#
# Elastic Constant Matrix: (Units=GPa)
#
#
# Indices 1 2 3 4 5 6 
#
# 1 57.9118 6.6207 0.2173 0.0000 0.0000 0.0000
# 2 6.6207 34.5048 -12.5832 0.0000 0.0000 0.0000
# 3 0.2173 -12.5832 107.8402 0.0000 0.0000 0.0000
# 4 0.0000 0.0000 0.0000 10.2177 0.0000 0.0000
# 5 0.0000 0.0000 0.0000 0.0000 44.4954 0.0000
# 6 0.0000 0.0000 0.0000 0.0000 0.0000 23.0354
#
#
#
# Elastic Compliance Matrix: (Units=1/GPa)
#
#
# Indices 1 2 3 4 5 6 
#
# 1 0.017676 -0.003556 -0.000451 0.000000 0.000000 0.000000
# 2 -0.003556 0.030985 0.003623 0.000000 0.000000 0.000000
# 3 -0.000451 0.003623 0.009697 0.000000 0.000000 0.000000
# 4 0.000000 0.000000 0.000000 0.097870 0.000000 0.000000
# 5 0.000000 0.000000 0.000000 0.000000 0.022474 0.000000
# 6 0.000000 0.000000 0.000000 0.000000 0.000000 0.043411
#
#
# Mechanical properties :
#
#
# Convention : Reuss Voigt Hill
#
# Bulk Modulus (GPa) = 17.36423 20.97404 19.16914
# Shear Modulus (GPa) = 20.65460 29.28316 24.96888
#
# Velocity S-wave (km/s) = 3.36228 4.00344 3.69679
# Velocity P-wave (km/s) = 4.95754 5.73148 5.35850
#
# Compressibility (1/GPa) = 0.05758965
#
# Stress axis : x y z
#
# Youngs Moduli (GPa) = 56.57433 32.27382 103.12909
#
# Poissons Ratio (x) = 0.11476 0.04646
# Poissons Ratio (y) = 0.20117 -0.37360
# Poissons Ratio (z) = 0.02549 -0.11692
#
# Static dielectric constant tensor:
#      x y z
#    x 1.628660 0.000000 0.000000 
#    y 0.000000 1.768000 0.000000 
#    z 0.000000 0.000000 1.678730 
# 
# From -- ./inp_files/510.got.cif
#   From: 2010.05.17/outbox.cif.g08.bks.cpg/sg39_1_cif.got.tgz:510.got - 2010.06.03 18:22:40.
