data_PCOD9359924
_publ_section_title
;
Structure prediction by ZEFSAII (Michael W. Deem and Ramdas Pophale) SiO2 
 PCOD9359924
Probable space group: A B M 2
;
_chemical_formula_sum "Si O2"
_cell_formula_units_Z 64
_cell_length_a 24.619640
_cell_length_b 8.608443
_cell_length_c 15.851446
_cell_angle_alpha 90.000000
_cell_angle_beta 90.000000
_cell_angle_gamma 90.000000
_cell_volume 3359.504227
_symmetry_space_group_name_H-M "A B M 2"
_symmetry_group_IT_number 39
_symmetry_cell_setting 'orthorhombic'
loop_
_space_group_symop_operation_xyz
x,y,z
-x,-y,z
-x,1/2+y,z
x,1/2-y,z
x,1/2+y,1/2+z
-x,1/2-y,1/2+z
-x,y,1/2+z
x,-y,1/2+z
loop_
_atom_site_type_symbol
_atom_site_label
_atom_site_fract_x
_atom_site_fract_y
_atom_site_fract_z
Si Si1 0.560551 0.063361 0.375000
Si Si2 0.173833 0.560699 0.363451
Si Si3 0.943942 0.064432 0.116771
Si Si4 0.439766 0.437292 0.682193
Si Si5 0.175429 0.562892 0.176948
Si Si6 0.633730 0.563596 0.525434
Si Si7 0.755156 0.936004 0.022658
Si Si8 0.943180 0.436142 0.426230
O O1 0.559801 0.250000 0.379226
O O2 0.574712 0.016702 0.278380
O O3 0.500000 0.000000 0.392212
O O4 0.601819 0.998875 0.443967
O O5 0.173387 0.750000 0.364460
O O6 0.192479 0.513173 0.270618
O O7 0.212303 0.509049 0.439403
O O8 0.111695 0.511689 0.380184
O O9 0.948323 0.250000 0.109747
O O10 0.888485 0.027189 0.165059
O O11 0.000000 0.000000 0.154604
O O12 0.939067 0.993117 0.023015
O O13 0.500000 0.500000 0.663932
O O14 0.441822 0.250000 0.680627
O O15 0.397997 0.488796 0.610199
O O16 0.181203 0.750000 0.169835
O O17 0.210155 0.485582 0.103776
O O18 0.632991 0.750000 0.523935
O O19 0.695208 0.505282 0.525972
O O20 0.751633 0.750000 0.019177
O O21 0.945215 0.250000 0.425230
O O22 0.000000 0.500000 0.391382
#
# Coordination Sequence:
#
# PCOD9359924 Si02
#       8
#     8   8   8   8   8   8   8   8
#     4  10  20  37  60  89 121 155 190 230 278 332
#     4   9  20  38  59  79 108 147 184 226 285 345
#     4  10  19  31  53  81 110 141 176 221 277 335
#     4   9  20  37  59  86 120 155 188 227 278 332
#     4  10  21  39  60  81 107 145 187 230 282 341
#     4  11  23  39  59  85 116 154 195 238 282 333
#     4  11  23  41  60  81 110 148 191 239 286 334
#     4  10  18  32  54  80 110 143 179 223 277 338
#
# _framework density 19.050429999999999
#
# number of rings (size 3 to 8) (size 9 to 14) (size 15 to 20)
#    0.000    2.000    1.250    3.000    0.000    4.500 
#    0.000    7.500    0.000    0.000    0.000    0.000 
#    0.000    0.000    0.000    0.000    0.000    0.000 
#
# Total GULP energy -178707.915463 kJ/mol
# GULP energy per Si atom -5584.622358 kJ/mol
# Density = 1.900707 g / cm^3
# Si number density = 19.050430 Si / 1000 Ang^3
#
#
#
# Elastic Constant Matrix: (Units=GPa)
#
#
# Indices 1 2 3 4 5 6 
#
# 1 150.6083 43.8765 96.0463 0.0000 0.0000 0.0000
# 2 43.8765 43.1808 37.0500 0.0000 0.0000 0.0000
# 3 96.0463 37.0500 142.1551 0.0000 0.0000 0.0000
# 4 0.0000 0.0000 0.0000 22.6047 0.0000 0.0000
# 5 0.0000 0.0000 0.0000 0.0000 4.6892 0.0000
# 6 0.0000 0.0000 0.0000 0.0000 0.0000 29.5293
#
#
#
# Elastic Compliance Matrix: (Units=1/GPa)
#
#
# Indices 1 2 3 4 5 6 
#
# 1 0.013311 -0.007482 -0.007044 0.000000 0.000000 0.000000
# 2 -0.007482 0.034035 -0.003815 0.000000 0.000000 0.000000
# 3 -0.007044 -0.003815 0.012788 0.000000 0.000000 0.000000
# 4 0.000000 0.000000 0.000000 0.044239 0.000000 0.000000
# 5 0.000000 0.000000 0.000000 0.000000 0.213258 0.000000
# 6 0.000000 0.000000 0.000000 0.000000 0.000000 0.033865
#
#
# Mechanical properties :
#
#
# Convention : Reuss Voigt Hill
#
# Bulk Modulus (GPa) = 42.64042 76.65444 59.64743
# Shear Modulus (GPa) = 12.62643 21.96271 17.29457
#
# Velocity S-wave (km/s) = 2.57726 3.39908 3.01629
# Velocity P-wave (km/s) = 5.59356 7.46525 6.59613
#
# Compressibility (1/GPa) = 0.02345193
#
# Stress axis : x y z
#
# Youngs Moduli (GPa) = 75.12312 29.38166 78.19864
#
# Poissons Ratio (x) = 0.21984 0.55081
# Poissons Ratio (y) = 0.56210 0.29834
# Poissons Ratio (z) = 0.52914 0.11210
#
# Static dielectric constant tensor:
#      x y z
#    x 1.636910 0.000000 0.000000 
#    y 0.000000 1.649400 0.000000 
#    z 0.000000 0.000000 1.669380 
# 
# From -- ./inp_files/10552.got.cif
#   From: 2010.05.17/outbox.cif.g08.bks.cpg/sg39_6_cif.got.tgz:10552.got - 2010.06.03 18:22:40.
