data_PCOD9359681
_publ_section_title
;
Structure prediction by ZEFSAII (Michael W. Deem and Ramdas Pophale) SiO2 
 PCOD9359681
Probable space group: A B M 2
;
_chemical_formula_sum "Si O2"
_cell_formula_units_Z 64
_cell_length_a 12.486779
_cell_length_b 15.843904
_cell_length_c 16.226220
_cell_angle_alpha 90.000000
_cell_angle_beta 90.000000
_cell_angle_gamma 90.000000
_cell_volume 3210.184457
_symmetry_space_group_name_H-M "A B M 2"
_symmetry_group_IT_number 39
_symmetry_cell_setting 'orthorhombic'
loop_
_space_group_symop_operation_xyz
x,y,z
-x,-y,z
-x,1/2+y,z
x,1/2-y,z
x,1/2+y,1/2+z
-x,1/2-y,1/2+z
-x,y,1/2+z
x,-y,1/2+z
loop_
_atom_site_type_symbol
_atom_site_label
_atom_site_fract_x
_atom_site_fract_y
_atom_site_fract_z
Si Si1 0.500011 0.597133 0.603590
Si Si2 0.499991 0.351308 0.915534
Si Si3 0.267247 0.154353 0.397443
Si Si4 0.878983 0.999974 0.845019
Si Si5 0.732808 0.343275 0.596963
Si Si6 0.267171 0.343276 0.596775
Si Si7 0.732814 0.154361 0.397633
Si Si8 0.878081 0.000033 0.148367
O O1 0.500000 0.500000 0.629369
O O2 0.499986 0.601808 0.503253
O O3 0.388143 0.639728 0.628420
O O4 0.611917 0.639727 0.628323
O O5 0.500036 0.250000 0.933765
O O6 0.611517 0.368917 0.870330
O O7 0.388394 0.368864 0.870417
O O8 0.241826 0.250000 0.369560
O O9 0.184282 0.083481 0.371964
O O10 0.272202 0.156273 0.497105
O O11 0.815728 0.916551 0.872188
O O12 0.883118 0.999831 0.746692
O O13 0.000000 0.000000 0.878152
O O14 0.768043 0.250000 0.623755
O O15 0.727813 0.343724 0.497290
O O16 0.812162 0.417525 0.621890
O O17 0.231910 0.250000 0.623550
O O18 0.187834 0.417540 0.621675
O O19 0.758313 0.250000 0.369767
O O20 0.000000 0.000000 0.115735
#
# Coordination Sequence:
#
# PCOD9359681 Si02
#       8
#     8   8   8   8   8   8   8   8
#     4  10  16  28  56  90 119 144 172 219 280 341
#     4   8  16  30  52  87 118 141 174 218 275 337
#     4   9  19  36  60  87 113 142 180 227 279 330
#     4  11  25  40  55  76 110 153 192 233 278 329
#     4  10  20  37  61  88 116 145 182 232 280 331
#     4  10  20  37  61  88 116 145 182 232 280 331
#     4   9  19  36  60  87 113 142 180 227 279 330
#     4  11  25  42  55  76 110 153 200 235 278 335
#
# _framework density 19.936548999999999
#
# number of rings (size 3 to 8) (size 9 to 14) (size 15 to 20)
#    0.000    2.250    1.250    3.375    5.250    4.000 
#    0.000    7.500    0.000    3.000    0.000    0.000 
#    0.000    0.000    0.000    0.000    0.000    0.000 
#
# Total GULP energy -178604.330170 kJ/mol
# GULP energy per Si atom -5581.385318 kJ/mol
# Density = 1.989117 g / cm^3
# Si number density = 19.936549 Si / 1000 Ang^3
#
#
#
# Elastic Constant Matrix: (Units=GPa)
#
#
# Indices 1 2 3 4 5 6 
#
# 1 194.4416 115.9975 17.3594 0.0000 0.0000 0.0000
# 2 115.9975 176.2396 14.4760 0.0000 0.0000 0.0000
# 3 17.3594 14.4760 15.7775 0.0000 0.0000 0.0000
# 4 0.0000 0.0000 0.0000 -25.2853 0.0000 0.0000
# 5 0.0000 0.0000 0.0000 0.0000 37.8207 0.0000
# 6 0.0000 0.0000 0.0000 0.0000 0.0000 0.0912
#
#
#
# Elastic Compliance Matrix: (Units=1/GPa)
#
#
# Indices 1 2 3 4 5 6 
#
# 1 0.008780 -0.005392 -0.004714 0.000000 0.000000 0.000000
# 2 -0.005392 0.009448 -0.002736 0.000000 0.000000 0.000000
# 3 -0.004714 -0.002736 0.071078 0.000000 0.000000 0.000000
# 4 0.000000 0.000000 0.000000 -0.039549 0.000000 0.000000
# 5 0.000000 0.000000 0.000000 0.000000 0.026441 0.000000
# 6 0.000000 0.000000 0.000000 0.000000 0.000000 10.967060
#
#
# Mechanical properties :
#
#
# Convention : Reuss Voigt Hill
#
# Bulk Modulus (GPa) = 15.71758 75.79162 45.75460
# Shear Modulus (GPa) = 0.45085 18.43370 9.44228
#
# Velocity S-wave (km/s) = 0.47606 3.04405 2.17863
# Velocity P-wave (km/s) = 2.86410 7.10310 5.41558
#
# Compressibility (1/GPa) = 0.06362303
#
# Stress axis : x y z
#
# Youngs Moduli (GPa) = 113.88997 105.84626 14.06914
#
# Poissons Ratio (x) = 0.57072 0.06632
# Poissons Ratio (y) = 0.61409 0.03849
# Poissons Ratio (z) = 0.53683 0.28957
#
# Static dielectric constant tensor:
#      x y z
#    x 1.725120 0.000000 0.000000 
#    y 0.000000 1.693270 0.000000 
#    z 0.000000 0.000000 1.704280 
# 
# From -- ./inp_files/12366.got.cif
#   From: 2010.05.17/outbox.cif.g08.bks.cpg/sg39_7_cif.got.tgz:12366.got - 2010.06.03 18:22:40.
