data_PCOD9359800
_publ_section_title
;
Structure prediction by ZEFSAII (Michael W. Deem and Ramdas Pophale) SiO2 
 PCOD9359800
Probable space group: A B M 2
;
_chemical_formula_sum "Si O2"
_cell_formula_units_Z 64
_cell_length_a 14.751199
_cell_length_b 8.552627
_cell_length_c 32.117196
_cell_angle_alpha 90.000000
_cell_angle_beta 90.000000
_cell_angle_gamma 90.000000
_cell_volume 4051.953715
_symmetry_space_group_name_H-M "A B M 2"
_symmetry_group_IT_number 39
_symmetry_cell_setting 'orthorhombic'
loop_
_space_group_symop_operation_xyz
x,y,z
-x,-y,z
-x,1/2+y,z
x,1/2-y,z
x,1/2+y,1/2+z
-x,1/2-y,1/2+z
-x,y,1/2+z
x,-y,1/2+z
loop_
_atom_site_type_symbol
_atom_site_label
_atom_site_fract_x
_atom_site_fract_y
_atom_site_fract_z
Si Si1 0.397013 0.061959 0.002080
Si Si2 0.398241 0.938662 0.665507
Si Si3 0.711977 0.440743 0.583716
Si Si4 0.397224 0.436070 0.827140
Si Si5 0.902430 0.438294 0.714144
Si Si6 0.097585 0.561460 0.617229
Si Si7 0.711461 0.560498 0.248472
Si Si8 0.603117 0.436429 0.914610
O O1 0.400702 0.250000 0.000817
O O2 0.336277 0.010357 0.041145
O O3 0.500000 0.000000 0.007177
O O4 0.358666 0.000453 0.958061
O O5 0.399637 0.750000 0.664823
O O6 0.346123 0.991174 0.623895
O O7 0.344309 0.985268 0.707044
O O8 0.500000 0.000000 0.666285
O O9 0.712002 0.250000 0.583811
O O10 0.815660 0.491190 0.590752
O O11 0.500000 0.500000 0.821389
O O12 0.402482 0.250000 0.829635
O O13 0.335922 0.489353 0.788725
O O14 0.359014 0.502060 0.870877
O O15 0.904263 0.250000 0.714327
O O16 0.889380 0.486991 0.665701
O O17 0.815610 0.487931 0.740886
O O18 0.000000 0.500000 0.728163
O O19 0.095773 0.750000 0.616764
O O20 0.000000 0.500000 0.603237
O O21 0.708557 0.750000 0.251500
O O22 0.500000 0.500000 0.914536
O O23 0.602552 0.250000 0.914956
#
# Coordination Sequence:
#
# PCOD9359800 Si02
#       8
#     8   8   8   8   8   8   8   8
#     4  10  18  29  46  68  94 125 158 193 231 275
#     4  10  19  31  44  61  90 128 163 191 222 267
#     4   9  17  30  47  65  91 127 160 188 229 279
#     4  11  21  33  49  70  96 125 159 197 235 281
#     4   9  17  30  49  68  91 122 158 200 241 280
#     4   9  16  30  48  67  89 120 157 197 238 275
#     4  10  19  32  48  67  94 128 161 194 236 280
#     4  10  18  31  49  68  92 121 154 194 237 279
#
# _framework density 15.794848999999999
#
# number of rings (size 3 to 8) (size 9 to 14) (size 15 to 20)
#    0.000    2.250    1.250    4.875    0.000    2.000 
#    0.000    2.500    0.000    0.000    0.000    0.875 
#    0.000    4.000    0.000    0.000    0.000    0.000 
#
# Total GULP energy -178438.496793 kJ/mol
# GULP energy per Si atom -5576.203025 kJ/mol
# Density = 1.575890 g / cm^3
# Si number density = 15.794849 Si / 1000 Ang^3
#
#
#
# Elastic Constant Matrix: (Units=GPa)
#
#
# Indices 1 2 3 4 5 6 
#
# 1 124.6077 28.3972 77.1737 0.0000 0.0000 0.0000
# 2 28.3972 51.1791 39.3884 0.0000 0.0000 0.0000
# 3 77.1737 39.3884 152.0958 0.0000 0.0000 0.0000
# 4 0.0000 0.0000 0.0000 14.9912 0.0000 0.0000
# 5 0.0000 0.0000 0.0000 0.0000 7.8695 0.0000
# 6 0.0000 0.0000 0.0000 0.0000 0.0000 22.4881
#
#
#
# Elastic Compliance Matrix: (Units=1/GPa)
#
#
# Indices 1 2 3 4 5 6 
#
# 1 0.011944 -0.002452 -0.005426 0.000000 0.000000 0.000000
# 2 -0.002452 0.024906 -0.005206 0.000000 0.000000 0.000000
# 3 -0.005426 -0.005206 0.010676 0.000000 0.000000 0.000000
# 4 0.000000 0.000000 0.000000 0.066706 0.000000 0.000000
# 5 0.000000 0.000000 0.000000 0.000000 0.127073 0.000000
# 6 0.000000 0.000000 0.000000 0.000000 0.000000 0.044468
#
#
# Mechanical properties :
#
#
# Convention : Reuss Voigt Hill
#
# Bulk Modulus (GPa) = 46.81693 68.64459 57.73076
# Shear Modulus (GPa) = 15.67106 21.26463 18.46785
#
# Velocity S-wave (km/s) = 3.15328 3.67318 3.42311
# Velocity P-wave (km/s) = 6.55458 7.84501 7.22865
#
# Compressibility (1/GPa) = 0.02135979
#
# Stress axis : x y z
#
# Youngs Moduli (GPa) = 83.72299 40.15059 93.66854
#
# Poissons Ratio (x) = 0.09844 0.50820
# Poissons Ratio (y) = 0.20526 0.48764
# Poissons Ratio (z) = 0.45424 0.20902
#
# Static dielectric constant tensor:
#      x y z
#    x 1.507830 0.000000 0.000000 
#    y 0.000000 1.495650 0.000000 
#    z 0.000000 0.000000 1.539750 
# 
# From -- ./inp_files/17943.got.cif
#   From: 2010.05.17/outbox.cif.g08.bks.cpg/sg39_9_cif.got.tgz:17943.got - 2010.06.03 18:22:40.
