data_PCOD9359619
_publ_section_title
;
Structure prediction by ZEFSAII (Michael W. Deem and Ramdas Pophale) SiO2 
 PCOD9359619
Probable space group: A M M 2
;
_chemical_formula_sum "Si O2"
_cell_formula_units_Z 21
_cell_length_a 21.000000
_cell_length_b 12.000000
_cell_length_c 9.000000
_cell_angle_alpha 90.000000
_cell_angle_beta 90.000000
_cell_angle_gamma 90.000000
_cell_volume 2268.000000
_symmetry_space_group_name_H-M "A M M 2"
_symmetry_group_IT_number 38
_symmetry_cell_setting 'orthorhombic'
loop_
_space_group_symop_operation_xyz
x,y,z
-x,-y,z
-x,y,z
x,-y,z
x,1/2+y,1/2+z
-x,1/2-y,1/2+z
-x,1/2+y,1/2+z
x,1/2-y,1/2+z
loop_
_atom_site_type_symbol
_atom_site_label
_atom_site_fract_x
_atom_site_fract_y
_atom_site_fract_z
Si Si1 0.737505 0.372682 0.319260
Si Si2 0.574884 0.367498 0.785275
Si Si3 0.884118 0.666458 0.233736
Si Si4 0.341854 0.271625 0.051233
Si Si5 0.924824 0.872359 0.402708
Si Si6 0.000000 0.000000 0.813160
O O1 0.724954 0.500000 0.359963
O O2 0.813431 0.359583 0.292915
O O3 0.699463 0.343562 0.167687
O O4 0.708212 0.295482 0.448197
O O5 0.500000 0.333762 0.791220
O O6 0.577068 0.500000 0.763276
O O7 0.612893 0.306831 0.652259
O O8 0.612166 0.337173 0.937365
O O9 0.899655 0.792687 0.275988
O O10 0.888615 0.647162 0.057477
O O11 0.942560 0.595361 0.302960
O O12 0.000000 0.853630 0.432662
O O13 0.917569 0.000000 0.358658
#
# Coordination Sequence:
#
# PCOD9359619 Si02
#       6
#     8   8   8   8   8   2
#     4  11  22  38  58  82 115 156 193 237 290 348
#     4  10  20  37  62  89 119 154 189 232 281 329
#     4  12  22  40  62  83 114 153 194 247 308 347
#     4  10  22  38  57  87 120 152 194 234 276 344
#     4  11  21  39  57  81 110 143 184 243 302 359
#     4  12  20  40  62  86 112 152 194 260 300 352
#
# _framework density 9.2592590000000001
#
# number of rings (size 3 to 8) (size 9 to 14) (size 15 to 20)
#    0.000    1.143    3.810    2.857    0.000    0.000 
#    1.714    4.762    0.000    9.143    0.000    0.000 
#    0.000    0.000    0.000    0.000    0.000    0.000 
#
# Total GULP energy -116993.835949 kJ/mol
# GULP energy per Si atom -5571.135045 kJ/mol
# Density = 0.923818 g / cm^3
# Si number density = 9.259259 Si / 1000 Ang^3
#
#
#
# Elastic Constant Matrix: (Units=GPa)
#
#
# Indices 1 2 3 4 5 6 
#
# 1 137.9093 22.2505 11.4772 0.0000 0.0000 0.0000
# 2 22.2505 68.4038 5.9733 0.0000 0.0000 0.0000
# 3 11.4772 5.9733 26.8516 0.0000 0.0000 0.0000
# 4 0.0000 0.0000 0.0000 125.8460 0.0000 0.0000
# 5 0.0000 0.0000 0.0000 0.0000 26.7984 0.0000
# 6 0.0000 0.0000 0.0000 0.0000 0.0000 22.2433
#
#
#
# Elastic Compliance Matrix: (Units=1/GPa)
#
#
# Indices 1 2 3 4 5 6 
#
# 1 0.007860 -0.002308 -0.002846 0.000000 0.000000 0.000000
# 2 -0.002308 0.015587 -0.002481 0.000000 0.000000 0.000000
# 3 -0.002846 -0.002481 0.039010 0.000000 0.000000 0.000000
# 4 0.000000 0.000000 0.000000 0.007946 0.000000 0.000000
# 5 0.000000 0.000000 0.000000 0.000000 0.037316 0.000000
# 6 0.000000 0.000000 0.000000 0.000000 0.000000 0.044957
#
#
# Mechanical properties :
#
#
# Convention : Reuss Voigt Hill
#
# Bulk Modulus (GPa) = 21.19245 34.72962 27.96104
# Shear Modulus (GPa) = 27.22189 47.87512 37.54851
#
# Velocity S-wave (km/s) = 3.83819 5.09006 4.50779
# Velocity P-wave (km/s) = 5.57773 7.30340 6.49810
#
# Compressibility (1/GPa) = 0.04718661
#
# Stress axis : x y z
#
# Youngs Moduli (GPa) = 127.21926 64.15787 25.63436
#
# Poissons Ratio (x) = 0.14810 0.07296
# Poissons Ratio (y) = 0.29366 0.06359
# Poissons Ratio (z) = 0.36210 0.15915
#
# Static dielectric constant tensor:
#      x y z
#    x 1.616690 0.000000 0.000000 
#    y 0.000000 1.611220 0.000000 
#    z 0.000000 0.000000 1.619070 
# 
# From -- ./inp_files/6661.got.cif
#   From: 2010.05.17/outbox.ucp.g08.bks.cvg/sg38_4_cif.got.tgz:6661.got - 2010.06.11 10:39:43.
