data_PCOD9359660
_publ_section_title
;
Structure prediction by ZEFSAII (Michael W. Deem and Ramdas Pophale) SiO2 
 PCOD9359660
Probable space group: A B M 2
;
_chemical_formula_sum "Si O2"
_cell_formula_units_Z 64
_cell_length_a 37.300105
_cell_length_b 14.616720
_cell_length_c 5.330784
_cell_angle_alpha 90.000000
_cell_angle_beta 90.000000
_cell_angle_gamma 90.000000
_cell_volume 2906.371108
_symmetry_space_group_name_H-M "A B M 2"
_symmetry_group_IT_number 39
_symmetry_cell_setting 'orthorhombic'
loop_
_space_group_symop_operation_xyz
x,y,z
-x,-y,z
-x,1/2+y,z
x,1/2-y,z
x,1/2+y,1/2+z
-x,1/2-y,1/2+z
-x,y,1/2+z
x,-y,1/2+z
loop_
_atom_site_type_symbol
_atom_site_label
_atom_site_fract_x
_atom_site_fract_y
_atom_site_fract_z
Si Si1 0.130388 0.396772 0.087490
Si Si2 0.406809 0.559424 0.110691
Si Si3 0.979384 0.639131 0.723308
Si Si4 0.669094 0.058664 0.215350
Si Si5 0.788013 0.861249 0.196339
Si Si6 0.898804 0.897429 0.587424
Si Si7 0.514548 0.105906 0.238950
Si Si8 0.747026 0.359591 0.195233
O O1 0.171708 0.395826 0.162740
O O2 0.107838 0.354224 0.315553
O O3 0.116063 0.499939 0.054052
O O4 0.123479 0.353915 0.815452
O O5 0.407117 0.480325 0.327856
O O6 0.368881 0.608578 0.162935
O O7 0.444136 0.609291 0.159449
O O8 0.976877 0.750000 0.720192
O O9 0.940018 0.602068 0.665791
O O10 0.005607 0.612056 0.495114
O O11 0.705750 0.112318 0.177038
O O12 0.668993 0.019650 0.498783
O O13 0.789740 0.750000 0.198143
O O14 0.769720 0.891752 0.455012
O O15 0.764371 0.890034 0.957459
O O16 0.508338 0.145762 0.512284
O O17 0.500000 0.000000 0.265035
O O18 0.748881 0.250000 0.193292
#
# Coordination Sequence:
#
# PCOD9359660 Si02
#       8
#     8   8   8   8   8   8   8   8
#     4  10  21  38  53  82 113 139 178 213 269 317
#     4  10  16  25  39  59  95 129 160 213 256 322
#     4  10  21  38  60  85 111 143 185 225 258 301
#     4  10  21  35  50  79 109 139 176 220 283 324
#     4  10  21  38  61  81 105 139 182 228 265 313
#     4  10  21  38  56  81 115 149 175 214 265 319
#     4  10  14  20  34  55  81 126 165 196 255 310
#     4  10  21  40  59  80 107 142 185 225 271 330
#
# _framework density 22.020589000000001
#
# number of rings (size 3 to 8) (size 9 to 14) (size 15 to 20)
#    0.000    2.000    2.500    2.250    0.000    1.000 
#   13.500    7.500    0.000    0.000    0.000    0.000 
#    0.000    1.000    0.000    0.000    0.000    5.000 
#
# Total GULP energy -178711.231625 kJ/mol
# GULP energy per Si atom -5584.725988 kJ/mol
# Density = 2.197047 g / cm^3
# Si number density = 22.020589 Si / 1000 Ang^3
#
#
#
# Elastic Constant Matrix: (Units=GPa)
#
#
# Indices 1 2 3 4 5 6 
#
# 1 82.9412 -4.4597 -37.8909 0.0000 0.0000 0.0000
# 2 -4.4597 63.4227 -6.3987 0.0000 0.0000 0.0000
# 3 -37.8909 -6.3987 106.5555 0.0000 0.0000 0.0000
# 4 0.0000 0.0000 0.0000 -8.2747 0.0000 0.0000
# 5 0.0000 0.0000 0.0000 0.0000 43.2263 0.0000
# 6 0.0000 0.0000 0.0000 0.0000 0.0000 20.4561
#
#
#
# Elastic Compliance Matrix: (Units=1/GPa)
#
#
# Indices 1 2 3 4 5 6 
#
# 1 0.014546 0.001554 0.005266 0.000000 0.000000 0.000000
# 2 0.001554 0.016029 0.001515 0.000000 0.000000 0.000000
# 3 0.005266 0.001515 0.011348 0.000000 0.000000 0.000000
# 4 0.000000 0.000000 0.000000 -0.120850 0.000000 0.000000
# 5 0.000000 0.000000 0.000000 0.000000 0.023134 0.000000
# 6 0.000000 0.000000 0.000000 0.000000 0.000000 0.048885
#
#
# Mechanical properties :
#
#
# Convention : Reuss Voigt Hill
#
# Bulk Modulus (GPa) = 17.06664 17.26899 17.16782
# Shear Modulus (GPa) = -1235.66786 31.19278 -602.23754
#
# Velocity S-wave (km/s) = -23.71414 3.76776 -16.55543
# Velocity P-wave (km/s) = 27.24053 5.17564 18.91110
#
# Compressibility (1/GPa) = 0.05859383
#
# Stress axis : x y z
#
# Youngs Moduli (GPa) = 68.74768 62.38552 88.11906
#
# Poissons Ratio (x) = -0.09695 -0.46402
# Poissons Ratio (y) = -0.10684 -0.13352
# Poissons Ratio (z) = -0.36201 -0.09453
#
# Static dielectric constant tensor:
#      x y z
#    x 1.780500 0.000000 0.000000 
#    y 0.000000 1.462320 0.000000 
#    z 0.000000 0.000000 1.863770 
# 
# From -- ./inp_files/1539.got.cif
#   From: 2010.05.17/outbox.cif.g08.bks.cpg/sg39_1_cif.got.tgz:1539.got - 2010.06.03 18:22:40.
