data_PCOD9359279
_publ_section_title
;
Structure prediction by ZEFSAII (Michael W. Deem and Ramdas Pophale) SiO2 
 PCOD9359279
Probable space group: A M M 2
;
_chemical_formula_sum "Si O2"
_cell_formula_units_Z 56
_cell_length_a 20.548798
_cell_length_b 13.814858
_cell_length_c 9.276133
_cell_angle_alpha 90.000000
_cell_angle_beta 90.000000
_cell_angle_gamma 90.000000
_cell_volume 2633.296822
_symmetry_space_group_name_H-M "A M M 2"
_symmetry_group_IT_number 38
_symmetry_cell_setting 'orthorhombic'
loop_
_space_group_symop_operation_xyz
x,y,z
-x,-y,z
-x,y,z
x,-y,z
x,1/2+y,1/2+z
-x,1/2-y,1/2+z
-x,1/2+y,1/2+z
x,1/2-y,1/2+z
loop_
_atom_site_type_symbol
_atom_site_label
_atom_site_fract_x
_atom_site_fract_y
_atom_site_fract_z
Si Si1 0.245897 0.114652 0.487190
Si Si2 0.000000 0.820166 0.774390
Si Si3 0.578061 0.383936 0.645240
Si Si4 0.000000 0.633944 0.938263
Si Si5 0.752851 0.887528 0.805310
Si Si6 0.131737 0.890506 0.290819
Si Si7 0.882003 0.614185 0.475825
Si Si8 0.359751 0.247569 0.398397
O O1 0.216979 0.124555 0.646693
O O2 0.194147 0.152766 0.370429
O O3 0.312798 0.172625 0.481491
O O4 0.257421 0.000000 0.463081
O O5 0.000000 0.845671 0.607590
O O6 0.935778 0.851570 0.862770
O O7 0.000000 0.708629 0.806634
O O8 0.500000 0.386521 0.645596
O O9 0.599741 0.500000 0.644493
O O10 0.601514 0.318951 0.507639
O O11 0.601928 0.320648 0.784171
O O12 0.072472 0.596996 0.902417
O O13 0.809048 0.870026 0.921185
O O14 0.691293 0.818901 0.820697
O O15 0.732457 0.000000 0.818925
O O16 0.152522 0.000000 0.252543
O O17 0.113127 0.844182 0.137457
O O18 0.894865 0.500000 0.482936
#
# Coordination Sequence:
#
# PCOD9359279 Si02
#       8
#     8   4   8   4   8   8   8   8
#     4  10  22  40  63  95 133 176 230 286 343 413
#     4  12  25  40  59  83 119 165 221 284 352 419
#     4  11  26  48  75 111 151 190 238 289 344 421
#     4  12  25  40  59  83 119 165 221 284 352 419
#     4  10  22  40  63  95 133 176 230 286 343 413
#     4  10  22  40  63  90 124 168 219 279 348 419
#     4  10  22  40  63  90 124 168 219 279 348 419
#     4  12  23  44  72 103 142 190 232 282 352 407
#
# _framework density 21.266117000000001
#
# number of rings (size 3 to 8) (size 9 to 14) (size 15 to 20)
#    0.000    1.286    1.429    3.857    4.000    3.429 
#    0.000    0.000    0.000    3.429    0.000    0.000 
#    0.000    0.000    0.000    0.000    0.000    0.000 
#
# Total GULP energy -156039.768967 kJ/mol
# GULP energy per Si atom -5572.848892 kJ/mol
# Density = 2.121771 g / cm^3
# Si number density = 21.266117 Si / 1000 Ang^3
#
#
#
# Elastic Constant Matrix: (Units=GPa)
#
#
# Indices 1 2 3 4 5 6 
#
# 1 95.2774 28.5316 57.7771 0.0000 0.0000 0.0000
# 2 28.5316 81.6944 41.4783 0.0000 0.0000 0.0000
# 3 57.7771 41.4783 163.4222 0.0000 0.0000 0.0000
# 4 0.0000 0.0000 0.0000 28.5424 0.0000 0.0000
# 5 0.0000 0.0000 0.0000 0.0000 37.6042 0.0000
# 6 0.0000 0.0000 0.0000 0.0000 0.0000 39.0114
#
#
#
# Elastic Compliance Matrix: (Units=1/GPa)
#
#
# Indices 1 2 3 4 5 6 
#
# 1 0.013860 -0.002701 -0.004215 0.000000 0.000000 0.000000
# 2 -0.002701 0.014578 -0.002745 0.000000 0.000000 0.000000
# 3 -0.004215 -0.002745 0.008306 0.000000 0.000000 0.000000
# 4 0.000000 0.000000 0.000000 0.035036 0.000000 0.000000
# 5 0.000000 0.000000 0.000000 0.000000 0.026593 0.000000
# 6 0.000000 0.000000 0.000000 0.000000 0.000000 0.025634
#
#
# Mechanical properties :
#
#
# Convention : Reuss Voigt Hill
#
# Bulk Modulus (GPa) = 57.39634 66.21866 61.80750
# Shear Modulus (GPa) = 33.52671 35.20540 34.36605
#
# Velocity S-wave (km/s) = 3.97486 4.07316 4.02431
# Velocity P-wave (km/s) = 6.93644 7.30250 7.12182
#
# Compressibility (1/GPa) = 0.01742272
#
# Stress axis : x y z
#
# Youngs Moduli (GPa) = 72.14855 68.59763 120.39517
#
# Poissons Ratio (x) = 0.18526 0.50744
# Poissons Ratio (y) = 0.19485 0.33050
# Poissons Ratio (z) = 0.30409 0.18831
#
# Static dielectric constant tensor:
#      x y z
#    x 1.777180 0.000000 0.000000 
#    y 0.000000 1.814000 0.000000 
#    z 0.000000 0.000000 1.807460 
# 
# From -- ./inp_files/6781.got.cif
#   From: 2010.05.17/outbox.cif.g08.bks.cpg/sg38_4_cif.got.tgz:6781.got - 2010.06.03 18:07:57.
