data_PCOD9359116
_publ_section_title
;
Structure prediction by ZEFSAII (Michael W. Deem and Ramdas Pophale) SiO2 
 PCOD9359116
Probable space group: A M M 2
;
_chemical_formula_sum "Si O2"
_cell_formula_units_Z 48
_cell_length_a 7.326734
_cell_length_b 9.171138
_cell_length_c 36.057037
_cell_angle_alpha 90.000000
_cell_angle_beta 90.000000
_cell_angle_gamma 90.000000
_cell_volume 2422.834162
_symmetry_space_group_name_H-M "A M M 2"
_symmetry_group_IT_number 38
_symmetry_cell_setting 'orthorhombic'
loop_
_space_group_symop_operation_xyz
x,y,z
-x,-y,z
-x,y,z
x,-y,z
x,1/2+y,1/2+z
-x,1/2-y,1/2+z
-x,1/2+y,1/2+z
x,1/2-y,1/2+z
loop_
_atom_site_type_symbol
_atom_site_label
_atom_site_fract_x
_atom_site_fract_y
_atom_site_fract_z
Si Si1 0.721565 0.330120 0.212830
Si Si2 0.281181 0.328299 0.981913
Si Si3 0.000000 0.325426 0.428887
Si Si4 0.711720 0.674207 0.787247
Si Si5 0.277954 0.666835 0.557358
Si Si6 0.277647 0.169792 0.630991
Si Si7 0.000000 0.824439 0.349410
O O1 0.500000 0.321614 0.212782
O O2 0.770765 0.500000 0.215804
O O3 0.782258 0.245401 0.249243
O O4 0.780586 0.278397 0.171953
O O5 0.500000 0.311957 0.977980
O O6 0.238303 0.500000 0.979566
O O7 0.173817 0.238835 0.950919
O O8 0.227392 0.264457 0.022087
O O9 0.000000 0.261995 0.387489
O O10 0.000000 0.500000 0.429342
O O11 0.500000 0.715479 0.792176
O O12 0.722133 0.500000 0.782865
O O13 0.827678 0.712268 0.823353
O O14 0.500000 0.666306 0.558264
O O15 0.218477 0.500000 0.552845
O O16 0.216231 0.735813 0.596171
O O17 0.500000 0.172162 0.630831
O O18 0.225353 0.000000 0.626693
O O19 0.000000 0.000000 0.356354
#
# Coordination Sequence:
#
# PCOD9359116 Si02
#       7
#     8   8   4   8   8   8   4
#     4   8  14  25  43  69 102 139 178 221 267 316
#     4  10  21  39  63  87 114 152 193 231 277 338
#     4  12  26  42  62  89 118 145 180 232 289 342
#     4   9  18  33  54  78 104 137 176 219 268 321
#     4   9  16  26  44  74 110 145 183 229 277 322
#     4   8  13  22  38  64 100 141 183 223 264 316
#     4  10  22  40  58  79 108 139 176 220 269 334
#
# _framework density 19.811509000000001
#
# number of rings (size 3 to 8) (size 9 to 14) (size 15 to 20)
#    0.000    2.833    0.000    2.750    0.000    5.000 
#    0.000    5.000    0.000    1.000    0.000    2.333 
#    0.000    0.000    0.000    0.000    0.000    0.000 
#
# Total GULP energy -133985.872432 kJ/mol
# GULP energy per Si atom -5582.744685 kJ/mol
# Density = 1.976642 g / cm^3
# Si number density = 19.811509 Si / 1000 Ang^3
#
#
#
# Elastic Constant Matrix: (Units=GPa)
#
#
# Indices 1 2 3 4 5 6 
#
# 1 89.7293 38.5633 55.1150 0.0000 0.0000 0.0000
# 2 38.5633 112.1402 103.9514 0.0000 0.0000 0.0000
# 3 55.1150 103.9514 217.9484 0.0000 0.0000 0.0000
# 4 0.0000 0.0000 0.0000 40.5198 0.0000 0.0000
# 5 0.0000 0.0000 0.0000 0.0000 42.6565 0.0000
# 6 0.0000 0.0000 0.0000 0.0000 0.0000 6.6158
#
#
#
# Elastic Compliance Matrix: (Units=1/GPa)
#
#
# Indices 1 2 3 4 5 6 
#
# 1 0.013627 -0.002674 -0.002171 0.000000 0.000000 0.000000
# 2 -0.002674 0.016509 -0.007198 0.000000 0.000000 0.000000
# 3 -0.002171 -0.007198 0.008570 0.000000 0.000000 0.000000
# 4 0.000000 0.000000 0.000000 0.024679 0.000000 0.000000
# 5 0.000000 0.000000 0.000000 0.000000 0.023443 0.000000
# 6 0.000000 0.000000 0.000000 0.000000 0.000000 0.151154
#
#
# Mechanical properties :
#
#
# Convention : Reuss Voigt Hill
#
# Bulk Modulus (GPa) = 68.39276 90.56414 79.47845
# Shear Modulus (GPa) = 18.73063 32.77096 25.75080
#
# Velocity S-wave (km/s) = 3.07814 4.07152 3.60917
# Velocity P-wave (km/s) = 6.87240 8.24107 7.58766
#
# Compressibility (1/GPa) = 0.01462143
#
# Stress axis : x y z
#
# Youngs Moduli (GPa) = 73.38293 60.57176 116.68235
#
# Poissons Ratio (x) = 0.16197 0.25328
# Poissons Ratio (y) = 0.19623 0.83988
# Poissons Ratio (z) = 0.15929 0.43600
#
# Static dielectric constant tensor:
#      x y z
#    x 1.774920 0.000000 0.000000 
#    y 0.000000 1.656440 0.000000 
#    z 0.000000 0.000000 1.662950 
# 
# From -- ./inp_files/24398.got.cif
#   From: 2010.05.17/outbox.cif.g08.bks.cpg/sg38_13_cif.got.tgz:24398.got - 2010.06.03 18:07:57.
