data_PCOD9359513
_publ_section_title
;
Structure prediction by ZEFSAII (Michael W. Deem and Ramdas Pophale) SiO2 
 PCOD9359513
Probable space group: A M M 2
;
_chemical_formula_sum "Si O2"
_cell_formula_units_Z 48
_cell_length_a 9.181391
_cell_length_b 9.379406
_cell_length_c 32.449773
_cell_angle_alpha 90.000000
_cell_angle_beta 90.000000
_cell_angle_gamma 90.000000
_cell_volume 2794.444452
_symmetry_space_group_name_H-M "A M M 2"
_symmetry_group_IT_number 38
_symmetry_cell_setting 'orthorhombic'
loop_
_space_group_symop_operation_xyz
x,y,z
-x,-y,z
-x,y,z
x,-y,z
x,1/2+y,1/2+z
-x,1/2-y,1/2+z
-x,1/2+y,1/2+z
x,1/2-y,1/2+z
loop_
_atom_site_type_symbol
_atom_site_label
_atom_site_fract_x
_atom_site_fract_y
_atom_site_fract_z
Si Si1 0.325241 0.332017 0.418070
Si Si2 0.677890 0.664043 0.255295
Si Si3 0.677720 0.165024 0.174685
Si Si4 0.832742 0.173794 0.001774
Si Si5 0.668429 0.826152 0.083741
Si Si6 0.677711 0.164120 0.336376
O O1 0.500000 0.319851 0.422029
O O2 0.292208 0.500000 0.411799
O O3 0.252349 0.283121 0.460585
O O4 0.277307 0.243309 0.378229
O O5 0.500000 0.665625 0.255227
O O6 0.723814 0.500000 0.257346
O O7 0.724952 0.739883 0.213056
O O8 0.724834 0.751367 0.295591
O O9 0.500000 0.165561 0.173776
O O10 0.723614 0.216351 0.129161
O O11 0.721684 0.000000 0.180558
O O12 0.000000 0.217794 0.999774
O O13 0.827990 0.000000 0.002435
O O14 0.758850 0.222136 0.044278
O O15 0.500000 0.782596 0.079099
O O16 0.669676 0.000000 0.084300
O O17 0.500000 0.165413 0.336155
O O18 0.724313 0.000000 0.335403
#
# Coordination Sequence:
#
# PCOD9359513 Si02
#       6
#     8   8   8   8   8   8
#     4   9  16  26  41  61  85 112 141 173 209 248
#     4   9  15  22  34  55  84 112 135 165 208 252
#     4   8  13  21  34  53  78 108 139 168 200 241
#     4   9  16  25  39  61  86 110 139 176 214 249
#     4   8  13  22  37  57  81 110 143 175 206 243
#     4   9  16  25  38  57  82 111 141 172 207 248
#
# _framework density 17.176936999999999
#
# number of rings (size 3 to 8) (size 9 to 14) (size 15 to 20)
#    0.000    3.333    0.000    2.500    0.000    6.000 
#    0.000    0.000    0.000    1.500    0.000    5.833 
#    0.000    4.000    0.000    0.000    0.000    0.000 
#
# Total GULP energy -133620.434590 kJ/mol
# GULP energy per Si atom -5567.518108 kJ/mol
# Density = 1.713784 g / cm^3
# Si number density = 17.176937 Si / 1000 Ang^3
#
#
#
# Elastic Constant Matrix: (Units=GPa)
#
#
# Indices 1 2 3 4 5 6 
#
# 1 16.9870 20.6353 42.4561 0.0000 0.0000 0.0000
# 2 20.6353 77.5276 86.8873 0.0000 0.0000 0.0000
# 3 42.4561 86.8873 221.2938 0.0000 0.0000 0.0000
# 4 0.0000 0.0000 0.0000 24.3628 0.0000 0.0000
# 5 0.0000 0.0000 0.0000 0.0000 -3.5357 0.0000
# 6 0.0000 0.0000 0.0000 0.0000 0.0000 3.7201
#
#
#
# Elastic Compliance Matrix: (Units=1/GPa)
#
#
# Indices 1 2 3 4 5 6 
#
# 1 0.117934 -0.010773 -0.018396 0.000000 0.000000 0.000000
# 2 -0.010773 0.024019 -0.007364 0.000000 0.000000 0.000000
# 3 -0.018396 -0.007364 0.010940 0.000000 0.000000 0.000000
# 4 0.000000 0.000000 0.000000 0.041046 0.000000 0.000000
# 5 0.000000 0.000000 0.000000 0.000000 -0.282826 0.000000
# 6 0.000000 0.000000 0.000000 0.000000 0.000000 0.268809
#
#
# Mechanical properties :
#
#
# Convention : Reuss Voigt Hill
#
# Bulk Modulus (GPa) = 12.52720 68.41839 40.47280
# Shear Modulus (GPa) = 17.88294 15.96474 16.92384
#
# Velocity S-wave (km/s) = 3.23011 3.05196 3.14230
# Velocity P-wave (km/s) = 4.60656 7.23445 6.06456
#
# Compressibility (1/GPa) = 0.07982628
#
# Stress axis : x y z
#
# Youngs Moduli (GPa) = 8.47934 41.63417 91.41160
#
# Poissons Ratio (x) = 0.44852 1.68163
# Poissons Ratio (y) = 0.09135 0.67313
# Poissons Ratio (z) = 0.15599 0.30658
#
# Static dielectric constant tensor:
#      x y z
#    x 1.557940 0.000000 0.000000 
#    y 0.000000 1.575250 0.000000 
#    z 0.000000 0.000000 1.588960 
# 
# From -- ./inp_files/24827.got.cif
#   From: 2010.05.17/outbox.cif.g08.bks.cpg/sg38_13_cif.got.tgz:24827.got - 2010.06.03 18:07:57.
