data_PCOD9359276
_publ_section_title
;
Structure prediction by ZEFSAII (Michael W. Deem and Ramdas Pophale) SiO2 
 PCOD9359276
Probable space group: A M M 2
;
_chemical_formula_sum "Si O2"
_cell_formula_units_Z 58
_cell_length_a 7.898931
_cell_length_b 26.504030
_cell_length_c 13.311433
_cell_angle_alpha 90.000000
_cell_angle_beta 90.000000
_cell_angle_gamma 90.000000
_cell_volume 2786.795144
_symmetry_space_group_name_H-M "A M M 2"
_symmetry_group_IT_number 38
_symmetry_cell_setting 'orthorhombic'
loop_
_space_group_symop_operation_xyz
x,y,z
-x,-y,z
-x,y,z
x,-y,z
x,1/2+y,1/2+z
-x,1/2-y,1/2+z
-x,1/2+y,1/2+z
x,1/2-y,1/2+z
loop_
_atom_site_type_symbol
_atom_site_label
_atom_site_fract_x
_atom_site_fract_y
_atom_site_fract_z
Si Si1 0.799019 0.161160 0.843530
Si Si2 0.198020 0.678033 0.568189
Si Si3 0.801754 0.555820 0.853343
Si Si4 0.697297 0.215415 0.643062
Si Si5 0.704716 0.557178 0.250748
Si Si6 0.000000 0.000000 0.073231
Si Si7 0.687734 0.071916 0.131192
Si Si8 0.295390 0.613511 0.048084
O O1 0.715307 0.193388 0.754992
O O2 0.761390 0.101744 0.825390
O O3 0.000000 0.168224 0.834506
O O4 0.742392 0.179512 0.952578
O O5 0.218924 0.731221 0.622861
O O6 0.291807 0.631695 0.619188
O O7 0.000000 0.665336 0.566218
O O8 0.767412 0.500000 0.895893
O O9 0.702156 0.560929 0.750031
O O10 0.000000 0.558377 0.825596
O O11 0.762522 0.594959 0.940209
O O12 0.500000 0.221999 0.620087
O O13 0.765889 0.169670 0.574424
O O14 0.500000 0.556493 0.252239
O O15 0.764585 0.500000 0.271729
O O16 0.758351 0.576357 0.139308
O O17 0.153275 0.956540 0.080477
O O18 0.500000 0.057311 0.094146
O O19 0.500000 0.613917 0.050160
#
# Coordination Sequence:
#
# PCOD9359276 Si02
#       8
#     8   8   8   8   8   2   8   8
#     4  10  22  40  63  88 122 162 200 253 317 370
#     4  11  24  44  65  92 125 159 208 261 306 375
#     4  11  21  36  55  86 127 165 210 267 313 376
#     4  10  22  41  64  89 121 159 207 263 312 377
#     4   9  18  35  56  83 121 160 205 261 307 366
#     4  12  22  48  64  94 132 162 218 268 294 390
#     4  12  24  42  68  92 128 174 208 258 320 368
#     4   9  19  34  55  84 118 160 210 257 315 382
#
# _framework density 20.812436000000002
#
# number of rings (size 3 to 8) (size 9 to 14) (size 15 to 20)
#    0.000    1.655    2.069    3.103    0.000    7.724 
#    1.241    2.759    0.000    0.000    0.000    0.000 
#    0.000    0.000    0.000    0.000    0.000    0.000 
#
# Total GULP energy -161741.171226 kJ/mol
# GULP energy per Si atom -5577.281766 kJ/mol
# Density = 2.076507 g / cm^3
# Si number density = 20.812436 Si / 1000 Ang^3
#
#
#
# Elastic Constant Matrix: (Units=GPa)
#
#
# Indices 1 2 3 4 5 6 
#
# 1 78.6283 22.5487 3.5554 0.0000 0.0000 0.0000
# 2 22.5487 150.1765 30.6348 0.0000 0.0000 0.0000
# 3 3.5554 30.6348 33.3787 0.0000 0.0000 0.0000
# 4 0.0000 0.0000 0.0000 10.2829 0.0000 0.0000
# 5 0.0000 0.0000 0.0000 0.0000 50.5149 0.0000
# 6 0.0000 0.0000 0.0000 0.0000 0.0000 27.2856
#
#
#
# Elastic Compliance Matrix: (Units=1/GPa)
#
#
# Indices 1 2 3 4 5 6 
#
# 1 0.013297 -0.002101 0.000512 0.000000 0.000000 0.000000
# 2 -0.002101 0.008525 -0.007600 0.000000 0.000000 0.000000
# 3 0.000512 -0.007600 0.036880 0.000000 0.000000 0.000000
# 4 0.000000 0.000000 0.000000 0.097249 0.000000 0.000000
# 5 0.000000 0.000000 0.000000 0.000000 0.019796 0.000000
# 6 0.000000 0.000000 0.000000 0.000000 0.000000 0.036649
#
#
# Mechanical properties :
#
#
# Convention : Reuss Voigt Hill
#
# Bulk Modulus (GPa) = 24.79929 41.74013 33.26971
# Shear Modulus (GPa) = 20.47365 31.31297 25.89331
#
# Velocity S-wave (km/s) = 3.13984 3.88304 3.53104
# Velocity P-wave (km/s) = 5.00862 6.34058 5.71354
#
# Compressibility (1/GPa) = 0.04032374
#
# Stress axis : x y z
#
# Youngs Moduli (GPa) = 75.20249 117.30693 27.11494
#
# Poissons Ratio (x) = 0.24646 -0.01388
# Poissons Ratio (y) = 0.15800 0.20608
# Poissons Ratio (z) = -0.03850 0.89154
#
# Static dielectric constant tensor:
#      x y z
#    x 1.697090 0.000000 0.000000 
#    y 0.000000 1.728590 0.000000 
#    z 0.000000 0.000000 1.737350 
# 
# From -- ./inp_files/12651.got.cif
#   From: 2010.05.17/outbox.cif.g08.bks.cpg/sg38_7_cif.got.tgz:12651.got - 2010.06.03 18:07:57.
