data_PCOD9359086
_publ_section_title
;
Structure prediction by ZEFSAII (Michael W. Deem and Ramdas Pophale) SiO2 
 PCOD9359086
Probable space group: A M M 2
;
_chemical_formula_sum "Si O2"
_cell_formula_units_Z 52
_cell_length_a 19.948344
_cell_length_b 7.498098
_cell_length_c 15.274006
_cell_angle_alpha 90.000000
_cell_angle_beta 90.000000
_cell_angle_gamma 90.000000
_cell_volume 2284.603922
_symmetry_space_group_name_H-M "A M M 2"
_symmetry_group_IT_number 38
_symmetry_cell_setting 'orthorhombic'
loop_
_space_group_symop_operation_xyz
x,y,z
-x,-y,z
-x,y,z
x,-y,z
x,1/2+y,1/2+z
-x,1/2-y,1/2+z
-x,1/2+y,1/2+z
x,1/2-y,1/2+z
loop_
_atom_site_type_symbol
_atom_site_label
_atom_site_fract_x
_atom_site_fract_y
_atom_site_fract_z
Si Si1 0.074351 0.784195 0.382010
Si Si2 0.675776 0.789937 0.888547
Si Si3 0.179849 0.000000 0.666864
Si Si4 0.575043 0.214214 0.541500
Si Si5 0.424600 0.217189 0.740526
Si Si6 0.795146 0.702967 0.785050
Si Si7 0.922286 0.206146 0.086062
O O1 0.132492 0.724969 0.317111
O O2 0.083779 0.715770 0.480383
O O3 0.000000 0.732944 0.351769
O O4 0.077800 0.000000 0.385462
O O5 0.634969 0.761900 0.977183
O O6 0.628648 0.719102 0.810555
O O7 0.748036 0.706943 0.870980
O O8 0.685060 0.000000 0.878999
O O9 0.227229 0.157436 0.712428
O O10 0.130469 0.157387 0.626106
O O11 0.500000 0.276932 0.513647
O O12 0.587003 0.275331 0.640899
O O13 0.572080 0.000000 0.543596
O O14 0.500000 0.270615 0.765825
O O15 0.423207 0.000000 0.741634
O O16 0.798816 0.500000 0.754874
O O17 0.000000 0.254129 0.106593
O O18 0.912464 0.000000 0.113664
#
# Coordination Sequence:
#
# PCOD9359086 Si02
#       7
#     8   8   4   8   8   8   8
#     4   9  19  40  66  91 121 162 211 264 321 383
#     4  11  21  38  59  86 127 167 211 263 319 381
#     4  12  23  42  62  90 127 166 206 262 310 386
#     4   9  18  35  60  90 119 158 209 256 313 380
#     4   8  16  33  59  88 120 162 210 256 311 380
#     4  11  25  43  62  90 129 169 218 267 319 385
#     4  10  21  38  65  97 125 156 201 260 326 388
#
# _framework density 22.761058999999999
#
# number of rings (size 3 to 8) (size 9 to 14) (size 15 to 20)
#    0.000    2.154    1.538    2.538    1.077    2.154 
#    2.769    3.077    0.000    1.846    0.000    0.000 
#    0.000    0.000    0.000    0.000    0.000    0.000 
#
# Total GULP energy -144813.581198 kJ/mol
# GULP energy per Si atom -5569.753123 kJ/mol
# Density = 2.270925 g / cm^3
# Si number density = 22.761059 Si / 1000 Ang^3
#
#
#
# Elastic Constant Matrix: (Units=GPa)
#
#
# Indices 1 2 3 4 5 6 
#
# 1 50.1944 -2.1822 15.3743 0.0000 0.0000 0.0000
# 2 -2.1822 109.2026 -3.1432 0.0000 0.0000 0.0000
# 3 15.3743 -3.1432 37.9862 0.0000 0.0000 0.0000
# 4 0.0000 0.0000 0.0000 -21.1411 0.0000 0.0000
# 5 0.0000 0.0000 0.0000 0.0000 76.1126 0.0000
# 6 0.0000 0.0000 0.0000 0.0000 0.0000 22.0118
#
#
#
# Elastic Compliance Matrix: (Units=1/GPa)
#
#
# Indices 1 2 3 4 5 6 
#
# 1 0.022746 0.000190 -0.009190 0.000000 0.000000 0.000000
# 2 0.000190 0.009181 0.000683 0.000000 0.000000 0.000000
# 3 -0.009190 0.000683 0.030101 0.000000 0.000000 0.000000
# 4 0.000000 0.000000 0.000000 -0.047301 0.000000 0.000000
# 5 0.000000 0.000000 0.000000 0.000000 0.013138 0.000000
# 6 0.000000 0.000000 0.000000 0.000000 0.000000 0.045430
#
#
# Mechanical properties :
#
#
# Convention : Reuss Voigt Hill
#
# Bulk Modulus (GPa) = 22.02985 24.16456 23.09721
# Shear Modulus (GPa) = 47.59135 27.88563 37.73849
#
# Velocity S-wave (km/s) = 4.57761 3.50401 4.07631
# Velocity P-wave (km/s) = 6.13507 5.19716 5.68549
#
# Compressibility (1/GPa) = 0.04539295
#
# Stress axis : x y z
#
# Youngs Moduli (GPa) = 43.96432 108.92370 33.22098
#
# Poissons Ratio (x) = -0.02070 0.30531
# Poissons Ratio (y) = -0.00835 -0.02268
# Poissons Ratio (z) = 0.40404 -0.07437
#
# Static dielectric constant tensor:
#      x y z
#    x 1.901090 0.000000 0.000000 
#    y 0.000000 1.871380 0.000000 
#    z 0.000000 0.000000 1.865120 
# 
# From -- ./inp_files/18635.got.cif
#   From: 2010.05.17/outbox.cif.g08.bks.cpg/sg38_10_cif.got.tgz:18635.got - 2010.06.03 18:07:57.
