data_PCOD9359581
_publ_section_title
;
Structure prediction by ZEFSAII (Michael W. Deem and Ramdas Pophale) SiO2 
 PCOD9359581
Probable space group: A M M 2
;
_chemical_formula_sum "Si O2"
_cell_formula_units_Z 24
_cell_length_a 9.000000
_cell_length_b 18.000000
_cell_length_c 15.000000
_cell_angle_alpha 90.000000
_cell_angle_beta 90.000000
_cell_angle_gamma 90.000000
_cell_volume 2430.000000
_symmetry_space_group_name_H-M "A M M 2"
_symmetry_group_IT_number 38
_symmetry_cell_setting 'orthorhombic'
loop_
_space_group_symop_operation_xyz
x,y,z
-x,-y,z
-x,y,z
x,-y,z
x,1/2+y,1/2+z
-x,1/2-y,1/2+z
-x,1/2+y,1/2+z
x,1/2-y,1/2+z
loop_
_atom_site_type_symbol
_atom_site_label
_atom_site_fract_x
_atom_site_fract_y
_atom_site_fract_z
Si Si1 0.821474 0.363675 0.378880
Si Si2 0.819380 0.291467 0.059134
Si Si3 0.679502 0.701084 0.873297
Si Si4 0.678807 0.128351 0.062588
Si Si5 0.178748 0.578837 0.187495
Si Si6 0.176021 0.916360 0.241600
O O1 0.747306 0.283440 0.359409
O O2 0.744487 0.395245 0.467119
O O3 0.794916 0.412460 0.292034
O O4 0.000000 0.355058 0.392075
O O5 0.740189 0.212637 0.072972
O O6 0.772340 0.348617 0.135299
O O7 0.000000 0.282910 0.056776
O O8 0.756285 0.322340 0.966211
O O9 0.500000 0.703774 0.878447
O O10 0.736375 0.644482 0.798775
O O11 0.500000 0.125894 0.063890
O O12 0.752303 0.084942 0.143734
O O13 0.238639 0.500000 0.154307
O O14 0.000000 0.577927 0.175767
O O15 0.000000 0.898119 0.237355
O O16 0.190381 0.000000 0.278787
#
# Coordination Sequence:
#
# PCOD9359581 Si02
#       6
#     8   8   8   8   8   8
#     4  10  19  35  60  85 112 149 193 233 272 328
#     4  10  19  35  60  85 112 149 193 233 272 328
#     4  11  22  37  58  84 115 146 183 234 286 334
#     4  11  22  37  58  84 115 146 183 234 286 334
#     4   9  19  34  54  82 112 143 182 229 274 316
#     4  11  24  41  60  82 110 147 190 233 282 346
#
# _framework density 9.8765429999999999
#
# number of rings (size 3 to 8) (size 9 to 14) (size 15 to 20)
#    0.000    1.667    0.000    7.500    0.000    4.000 
#    0.000    5.833    0.000    7.000    0.000    0.000 
#    0.000    0.000    0.000    0.000    0.000    0.000 
#
# Total GULP energy -134003.579222 kJ/mol
# GULP energy per Si atom -5583.482468 kJ/mol
# Density = 0.985406 g / cm^3
# Si number density = 9.876543 Si / 1000 Ang^3
#
#
#
# Elastic Constant Matrix: (Units=GPa)
#
#
# Indices 1 2 3 4 5 6 
#
# 1 128.5456 13.2949 14.2454 0.0000 0.0000 0.0000
# 2 13.2949 36.7026 28.1219 0.0000 0.0000 0.0000
# 3 14.2454 28.1219 59.6841 0.0000 0.0000 0.0000
# 4 0.0000 0.0000 0.0000 -138.4029 0.0000 0.0000
# 5 0.0000 0.0000 0.0000 0.0000 18.7659 0.0000
# 6 0.0000 0.0000 0.0000 0.0000 0.0000 -2.0366
#
#
#
# Elastic Compliance Matrix: (Units=1/GPa)
#
#
# Indices 1 2 3 4 5 6 
#
# 1 0.008110 -0.002277 -0.000863 0.000000 0.000000 0.000000
# 2 -0.002277 0.043279 -0.019849 0.000000 0.000000 0.000000
# 3 -0.000863 -0.019849 0.026313 0.000000 0.000000 0.000000
# 4 0.000000 0.000000 0.000000 -0.007225 0.000000 0.000000
# 5 0.000000 0.000000 0.000000 0.000000 0.053288 0.000000
# 6 0.000000 0.000000 0.000000 0.000000 0.000000 -0.491026
#
#
# Mechanical properties :
#
#
# Convention : Reuss Voigt Hill
#
# Bulk Modulus (GPa) = 31.52016 37.36185 34.44101
# Shear Modulus (GPa) = -16.09224 -13.05004 -14.57114
#
# Velocity S-wave (km/s) = -2.85734 -2.57312 -2.71894
# Velocity P-wave (km/s) = 2.25962 3.18239 2.75984
#
# Compressibility (1/GPa) = 0.03172573
#
# Stress axis : x y z
#
# Youngs Moduli (GPa) = 123.29776 23.10591 38.00369
#
# Poissons Ratio (x) = 0.05260 0.03280
# Poissons Ratio (y) = 0.28069 0.75433
# Poissons Ratio (z) = 0.10642 0.45862
#
# Static dielectric constant tensor:
#      x y z
#    x 1.648710 0.000000 0.000000 
#    y 0.000000 1.739080 0.000000 
#    z 0.000000 0.000000 1.732310 
# 
# From -- ./inp_files/12051.got.cif
#   From: 2010.05.17/outbox.ucp.g08.bks.cvg/sg38_7_cif.got.tgz:12051.got - 2010.06.11 10:39:43.
