data_PCOD9359061
_publ_section_title
;
Structure prediction by ZEFSAII (Michael W. Deem and Ramdas Pophale) SiO2 
 PCOD9359061
Probable space group: A M M 2
;
_chemical_formula_sum "Si O2"
_cell_formula_units_Z 64
_cell_length_a 15.921122
_cell_length_b 8.641210
_cell_length_c 24.406819
_cell_angle_alpha 90.000000
_cell_angle_beta 90.000000
_cell_angle_gamma 90.000000
_cell_volume 3357.835453
_symmetry_space_group_name_H-M "A M M 2"
_symmetry_group_IT_number 38
_symmetry_cell_setting 'orthorhombic'
loop_
_space_group_symop_operation_xyz
x,y,z
-x,-y,z
-x,y,z
x,-y,z
x,1/2+y,1/2+z
-x,1/2-y,1/2+z
-x,1/2+y,1/2+z
x,1/2-y,1/2+z
loop_
_atom_site_type_symbol
_atom_site_label
_atom_site_fract_x
_atom_site_fract_y
_atom_site_fract_z
Si Si1 0.250948 0.812584 0.598840
Si Si2 0.662299 0.684739 0.788943
Si Si3 0.150246 0.314921 0.292694
Si Si4 0.594813 0.813598 0.676091
Si Si5 0.594229 0.686336 0.908342
Si Si6 0.094203 0.314909 0.907877
Si Si7 0.249840 0.183815 0.976474
Si Si8 0.906903 0.688440 0.171809
O O1 0.334001 0.766565 0.632739
O O2 0.250576 0.747757 0.537978
O O3 0.168794 0.760682 0.632822
O O4 0.249786 0.000000 0.596225
O O5 0.675699 0.500000 0.787543
O O6 0.752012 0.768925 0.791227
O O7 0.614662 0.738247 0.734592
O O8 0.612363 0.721779 0.844561
O O9 0.141887 0.500000 0.297692
O O10 0.108784 0.236729 0.345280
O O11 0.110666 0.266211 0.234659
O O12 0.500000 0.775576 0.658545
O O13 0.600681 0.000000 0.682329
O O14 0.500000 0.736705 0.923292
O O15 0.598409 0.500000 0.914125
O O16 0.667575 0.758183 0.944568
O O17 0.100518 0.500000 0.911081
O O18 0.167679 0.243649 0.944477
O O19 0.000000 0.268420 0.925110
O O20 0.248917 0.000000 0.976817
O O21 0.905683 0.500000 0.171138
O O22 0.000000 0.739004 0.154694
#
# Coordination Sequence:
#
# PCOD9359061 Si02
#       8
#     8   8   8   8   8   8   8   8
#     4  10  21  40  61  83 116 158 207 251 296 355
#     4  11  21  35  60  91 125 161 197 240 299 363
#     4  11  20  35  61  93 126 159 196 243 300 357
#     4  10  21  38  61  89 120 157 201 247 296 354
#     4  10  22  41  64  89 120 161 204 245 298 363
#     4  11  24  42  64  91 123 162 205 247 298 362
#     4  12  26  42  62  89 121 158 204 256 310 360
#     4   9  18  34  59  89 119 152 192 237 289 351
#
# _framework density 19.059896999999999
#
# number of rings (size 3 to 8) (size 9 to 14) (size 15 to 20)
#    0.000    1.500    2.500    3.000    0.000    4.500 
#    0.000    2.500    0.000    1.500    0.000    0.000 
#    0.000    0.000    0.000    0.000    0.000    0.000 
#
# Total GULP energy -178850.200042 kJ/mol
# GULP energy per Si atom -5589.068751 kJ/mol
# Density = 1.901652 g / cm^3
# Si number density = 19.059897 Si / 1000 Ang^3
#
#
#
# Elastic Constant Matrix: (Units=GPa)
#
#
# Indices 1 2 3 4 5 6 
#
# 1 192.1253 44.4050 95.6037 0.0000 0.0000 0.0000
# 2 44.4050 31.7225 39.8353 0.0000 0.0000 0.0000
# 3 95.6037 39.8353 163.1313 0.0000 0.0000 0.0000
# 4 0.0000 0.0000 0.0000 32.6736 0.0000 0.0000
# 5 0.0000 0.0000 0.0000 0.0000 -1.1813 0.0000
# 6 0.0000 0.0000 0.0000 0.0000 0.0000 12.4887
#
#
#
# Elastic Compliance Matrix: (Units=1/GPa)
#
#
# Indices 1 2 3 4 5 6 
#
# 1 0.008626 -0.008259 -0.003038 0.000000 0.000000 0.000000
# 2 -0.008259 0.053372 -0.008193 0.000000 0.000000 0.000000
# 3 -0.003038 -0.008193 0.009911 0.000000 0.000000 0.000000
# 4 0.000000 0.000000 0.000000 0.030606 0.000000 0.000000
# 5 0.000000 0.000000 0.000000 0.000000 -0.846538 0.000000
# 6 0.000000 0.000000 0.000000 0.000000 0.000000 0.080072
#
#
# Mechanical properties :
#
#
# Convention : Reuss Voigt Hill
#
# Bulk Modulus (GPa) = 30.36838 82.96300 56.66569
# Shear Modulus (GPa) = -8.14340 22.60520 7.23090
#
# Velocity S-wave (km/s) = -2.06925 3.44758 1.94988
# Velocity P-wave (km/s) = 3.20291 7.71167 5.90459
#
# Compressibility (1/GPa) = 0.03292899
#
# Stress axis : x y z
#
# Youngs Moduli (GPa) = 115.93295 18.73635 100.89435
#
# Poissons Ratio (x) = 0.15474 0.30656
# Poissons Ratio (y) = 0.95746 0.82663
# Poissons Ratio (z) = 0.35225 0.15351
#
# Static dielectric constant tensor:
#      x y z
#    x 1.663370 0.000000 0.000000 
#    y 0.000000 1.644280 0.000000 
#    z 0.000000 0.000000 1.627090 
# 
# From -- ./inp_files/22873.got.cif
#   From: 2010.05.17/outbox.cif.g08.bks.cpg/sg38_12_cif.got.tgz:22873.got - 2010.06.03 18:07:57.
