data_PCOD9359299
_publ_section_title
;
Structure prediction by ZEFSAII (Michael W. Deem and Ramdas Pophale) SiO2 
 PCOD9359299
Probable space group: A M M 2
;
_chemical_formula_sum "Si O2"
_cell_formula_units_Z 56
_cell_length_a 23.057769
_cell_length_b 15.246344
_cell_length_c 7.167811
_cell_angle_alpha 90.000000
_cell_angle_beta 90.000000
_cell_angle_gamma 90.000000
_cell_volume 2519.820146
_symmetry_space_group_name_H-M "A M M 2"
_symmetry_group_IT_number 38
_symmetry_cell_setting 'orthorhombic'
loop_
_space_group_symop_operation_xyz
x,y,z
-x,-y,z
-x,y,z
x,-y,z
x,1/2+y,1/2+z
-x,1/2-y,1/2+z
-x,1/2+y,1/2+z
x,1/2-y,1/2+z
loop_
_atom_site_type_symbol
_atom_site_label
_atom_site_fract_x
_atom_site_fract_y
_atom_site_fract_z
Si Si1 0.064118 0.899661 0.013900
Si Si2 0.064860 0.600324 0.064540
Si Si3 0.660540 0.601396 0.331553
Si Si4 0.844773 0.248433 0.041623
Si Si5 0.665773 0.898409 0.269943
Si Si6 0.434613 0.606574 0.044265
Si Si7 0.243825 0.247107 0.791241
O O1 0.115576 0.836607 0.070114
O O2 0.000000 0.869241 0.074860
O O3 0.072268 0.000000 0.074810
O O4 0.063240 0.900641 0.789315
O O5 0.074923 0.500000 0.004522
O O6 0.115534 0.666080 0.011974
O O7 0.000000 0.627546 0.002515
O O8 0.673432 0.500000 0.280273
O O9 0.652860 0.605252 0.551780
O O10 0.601366 0.628341 0.229818
O O11 0.713286 0.664396 0.278544
O O12 0.772485 0.242534 0.042555
O O13 0.828169 0.235344 0.790346
O O14 0.609332 0.866382 0.381054
O O15 0.720635 0.837585 0.307389
O O16 0.677329 0.000000 0.320556
O O17 0.500000 0.640840 0.035396
O O18 0.438385 0.500000 0.035387
#
# Coordination Sequence:
#
# PCOD9359299 Si02
#       7
#     8   8   8   8   8   8   8
#     4   9  19  37  59  82 113 152 194 244 301 365
#     4   9  19  37  59  83 114 151 194 247 307 368
#     4  10  22  41  64  88 124 169 204 249 310 364
#     4  12  22  36  58  87 113 153 199 250 298 355
#     4  10  22  41  63  88 125 167 203 252 309 360
#     4   9  19  38  66  97 123 156 207 257 305 364
#     4  12  24  38  59  85 124 157 201 252 293 361
#
# _framework density 22.223807999999998
#
# number of rings (size 3 to 8) (size 9 to 14) (size 15 to 20)
#    0.000    1.857    2.857    2.143    0.000    2.857 
#    0.000    3.571    0.000    1.714    0.000    0.000 
#    0.000    0.000    0.000    0.000    0.000    0.000 
#
# Total GULP energy -156248.361643 kJ/mol
# GULP energy per Si atom -5580.298630 kJ/mol
# Density = 2.217323 g / cm^3
# Si number density = 22.223808 Si / 1000 Ang^3
#
#
#
# Elastic Constant Matrix: (Units=GPa)
#
#
# Indices 1 2 3 4 5 6 
#
# 1 205.5028 101.3956 60.2986 0.0000 0.0000 0.0000
# 2 101.3956 99.8297 29.7500 0.0000 0.0000 0.0000
# 3 60.2986 29.7500 138.5027 0.0000 0.0000 0.0000
# 4 0.0000 0.0000 0.0000 28.0280 0.0000 0.0000
# 5 0.0000 0.0000 0.0000 0.0000 27.0151 0.0000
# 6 0.0000 0.0000 0.0000 0.0000 0.0000 8.9289
#
#
#
# Elastic Compliance Matrix: (Units=1/GPa)
#
#
# Indices 1 2 3 4 5 6 
#
# 1 0.010467 -0.009908 -0.002429 0.000000 0.000000 0.000000
# 2 -0.009908 0.020080 0.000000 0.000000 0.000000 0.000000
# 3 -0.002429 0.000000 0.008277 0.000000 0.000000 0.000000
# 4 0.000000 0.000000 0.000000 0.035679 0.000000 0.000000
# 5 0.000000 0.000000 0.000000 0.000000 0.037016 0.000000
# 6 0.000000 0.000000 0.000000 0.000000 0.000000 0.111996
#
#
# Mechanical properties :
#
#
# Convention : Reuss Voigt Hill
#
# Bulk Modulus (GPa) = 70.66038 91.85818 81.25928
# Shear Modulus (GPa) = 19.77027 29.62048 24.69538
#
# Velocity S-wave (km/s) = 2.98585 3.65475 3.33710
# Velocity P-wave (km/s) = 6.61445 7.69627 7.17578
#
# Compressibility (1/GPa) = 0.01415220
#
# Stress axis : x y z
#
# Youngs Moduli (GPa) = 95.53636 49.80087 120.80994
#
# Poissons Ratio (x) = 0.49341 0.29343
# Poissons Ratio (y) = 0.94653 -0.00003
# Poissons Ratio (z) = 0.23205 -0.00001
#
# Static dielectric constant tensor:
#      x y z
#    x 1.722970 0.000000 0.000000 
#    y 0.000000 1.757100 0.000000 
#    z 0.000000 0.000000 2.867960 
# 
# From -- ./inp_files/6741.got.cif
#   From: 2010.05.17/outbox.cif.g08.bks.cpg/sg38_4_cif.got.tgz:6741.got - 2010.06.03 18:07:57.
