data_PCOD9359238
_publ_section_title
;
Structure prediction by ZEFSAII (Michael W. Deem and Ramdas Pophale) SiO2 
 PCOD9359238
Probable space group: A M M 2
;
_chemical_formula_sum "Si O2"
_cell_formula_units_Z 56
_cell_length_a 9.042341
_cell_length_b 17.007308
_cell_length_c 19.854926
_cell_angle_alpha 90.000000
_cell_angle_beta 90.000000
_cell_angle_gamma 90.000000
_cell_volume 3053.407236
_symmetry_space_group_name_H-M "A M M 2"
_symmetry_group_IT_number 38
_symmetry_cell_setting 'orthorhombic'
loop_
_space_group_symop_operation_xyz
x,y,z
-x,-y,z
-x,y,z
x,-y,z
x,1/2+y,1/2+z
-x,1/2-y,1/2+z
-x,1/2+y,1/2+z
x,1/2-y,1/2+z
loop_
_atom_site_type_symbol
_atom_site_label
_atom_site_fract_x
_atom_site_fract_y
_atom_site_fract_z
Si Si1 0.328613 0.911234 0.689800
Si Si2 0.679497 0.000000 0.915401
Si Si3 0.676191 0.827535 0.884456
Si Si4 0.677577 0.500000 0.573654
Si Si5 0.827976 0.753282 0.506141
Si Si6 0.823662 0.264039 0.256145
Si Si7 0.175119 0.847262 0.138209
Si Si8 0.328757 0.411358 0.027190
O O1 0.500000 0.896838 0.710211
O O2 0.226180 0.843884 0.718810
O O3 0.323839 0.909773 0.608665
O O4 0.289578 0.000000 0.711240
O O5 0.725619 0.081059 0.879874
O O6 0.500000 0.000000 0.915655
O O7 0.725441 0.000000 0.994519
O O8 0.500000 0.824756 0.878235
O O9 0.727210 0.798092 0.957211
O O10 0.749557 0.772188 0.828742
O O11 0.500000 0.500000 0.574341
O O12 0.738739 0.577006 0.611450
O O13 0.808430 0.720671 0.581729
O O14 0.776328 0.843043 0.501546
O O15 0.000000 0.744231 0.488107
O O16 0.776499 0.190833 0.209070
O O17 0.000000 0.261115 0.261990
O O18 0.000000 0.866108 0.142209
O O19 0.500000 0.396121 0.008029
O O20 0.289523 0.500000 0.005896
#
# Coordination Sequence:
#
# PCOD9359238 Si02
#       8
#     8   4   8   4   8   8   8   8
#     4   9  18  32  51  78 112 149 186 225 270 322
#     4   9  20  37  57  87 123 156 193 244 301 355
#     4  11  23  40  59  83 119 159 198 245 299 358
#     4  11  21  37  65  95 117 146 201 256 301 357
#     4  11  21  36  58  86 116 152 193 239 296 358
#     4  11  23  39  56  83 118 157 198 238 290 356
#     4  10  22  39  59  86 122 156 192 242 302 359
#     4   9  18  33  55  83 112 145 188 235 282 334
#
# _framework density 18.340168999999999
#
# number of rings (size 3 to 8) (size 9 to 14) (size 15 to 20)
#    0.000    1.857    2.857    2.357    1.000    2.286 
#    0.000    2.500    1.571    0.000    0.000    0.000 
#    0.000    0.000    0.000    0.000    0.000    0.000 
#
# Total GULP energy -156288.619741 kJ/mol
# GULP energy per Si atom -5581.736419 kJ/mol
# Density = 1.829843 g / cm^3
# Si number density = 18.340169 Si / 1000 Ang^3
#
#
#
# Elastic Constant Matrix: (Units=GPa)
#
#
# Indices 1 2 3 4 5 6 
#
# 1 43.2512 27.5830 17.0232 0.0000 0.0000 0.0000
# 2 27.5830 75.4022 6.7339 0.0000 0.0000 0.0000
# 3 17.0232 6.7339 54.7773 0.0000 0.0000 0.0000
# 4 0.0000 0.0000 0.0000 26.9727 0.0000 0.0000
# 5 0.0000 0.0000 0.0000 0.0000 28.8879 0.0000
# 6 0.0000 0.0000 0.0000 0.0000 0.0000 30.5185
#
#
#
# Elastic Compliance Matrix: (Units=1/GPa)
#
#
# Indices 1 2 3 4 5 6 
#
# 1 0.034190 -0.011687 -0.009189 0.000000 0.000000 0.000000
# 2 -0.011687 0.017404 0.001492 0.000000 0.000000 0.000000
# 3 -0.009189 0.001492 0.020928 0.000000 0.000000 0.000000
# 4 0.000000 0.000000 0.000000 0.037075 0.000000 0.000000
# 5 0.000000 0.000000 0.000000 0.000000 0.034617 0.000000
# 6 0.000000 0.000000 0.000000 0.000000 0.000000 0.032767
#
#
# Mechanical properties :
#
#
# Convention : Reuss Voigt Hill
#
# Bulk Modulus (GPa) = 29.62411 30.67899 30.15155
# Shear Modulus (GPa) = 22.02658 25.41519 23.72089
#
# Velocity S-wave (km/s) = 3.46931 3.72663 3.60027
# Velocity P-wave (km/s) = 5.67766 5.93979 5.81020
#
# Compressibility (1/GPa) = 0.03375629
#
# Stress axis : x y z
#
# Youngs Moduli (GPa) = 29.24803 57.45794 47.78312
#
# Poissons Ratio (x) = 0.67149 0.43907
# Poissons Ratio (y) = 0.34181 -0.07131
# Poissons Ratio (z) = 0.26875 -0.08575
#
# Static dielectric constant tensor:
#      x y z
#    x 1.615640 0.000000 0.000000 
#    y 0.000000 1.624710 0.000000 
#    z 0.000000 0.000000 1.640300 
# 
# From -- ./inp_files/19850.got.cif
#   From: 2010.05.17/outbox.cif.g08.bks.cpg/sg38_10_cif.got.tgz:19850.got - 2010.06.03 18:07:57.
