data_PCOD9359892
_publ_section_title
;
Structure prediction by ZEFSAII (Michael W. Deem and Ramdas Pophale) SiO2 
 PCOD9359892
Probable space group: A B M 2
;
_chemical_formula_sum "Si O2"
_cell_formula_units_Z 52
_cell_length_a 13.706428
_cell_length_b 31.377242
_cell_length_c 5.253896
_cell_angle_alpha 90.000000
_cell_angle_beta 90.000000
_cell_angle_gamma 90.000000
_cell_volume 2259.542571
_symmetry_space_group_name_H-M "A B M 2"
_symmetry_group_IT_number 39
_symmetry_cell_setting 'orthorhombic'
loop_
_space_group_symop_operation_xyz
x,y,z
-x,-y,z
-x,1/2+y,z
x,1/2-y,z
x,1/2+y,1/2+z
-x,1/2-y,1/2+z
-x,y,1/2+z
x,-y,1/2+z
loop_
_atom_site_type_symbol
_atom_site_label
_atom_site_fract_x
_atom_site_fract_y
_atom_site_fract_z
Si Si1 0.143965 0.024591 0.368610
Si Si2 0.602195 0.379539 0.979050
Si Si3 0.432539 0.750000 0.389117
Si Si4 0.061500 0.884281 0.012475
Si Si5 0.381740 0.343624 0.977919
Si Si6 0.622086 0.524638 0.346421
Si Si7 0.066760 0.295743 0.393153
O O1 0.111286 0.071372 0.448246
O O2 0.260908 0.026566 0.359414
O O3 0.112478 0.991584 0.590048
O O4 0.497853 0.355382 0.004547
O O5 0.658706 0.357829 0.747528
O O6 0.584229 0.428559 0.914166
O O7 0.654592 0.372563 0.246861
O O8 0.510716 0.750000 0.620949
O O9 0.373585 0.793902 0.417600
O O10 0.118598 0.840569 0.946225
O O11 0.972486 0.883067 0.805891
O O12 0.596135 0.490537 0.564158
O O13 0.119292 0.250000 0.420335
O O14 0.983014 0.296088 0.614279
#
# Coordination Sequence:
#
# PCOD9359892 Si02
#       7
#     8   8   4   8   8   8   8
#     4  10  21  35  50  69  96 128 167 199 237 296
#     4  10  18  32  48  70  98 122 164 202 241 281
#     4  12  16  30  48  74 108 132 156 190 246 300
#     4  10  19  30  48  75 100 122 156 196 248 293
#     4  10  19  30  48  77 101 125 157 203 242 293
#     4  10  21  37  52  66  91 131 173 204 237 294
#     4   8  14  25  41  64  92 116 145 178 217 272
#
# _framework density 23.013506
#
# number of rings (size 3 to 8) (size 9 to 14) (size 15 to 20)
#    0.000    2.154    3.077    1.846    0.000    1.846 
#    0.000    9.231    0.000    0.000    6.000    0.000 
#    4.615    0.000    0.000    0.000    0.000    0.000 
#
# Total GULP energy -145150.882867 kJ/mol
# GULP energy per Si atom -5582.726264 kJ/mol
# Density = 2.296113 g / cm^3
# Si number density = 23.013506 Si / 1000 Ang^3
#
#
#
# Elastic Constant Matrix: (Units=GPa)
#
#
# Indices 1 2 3 4 5 6 
#
# 1 34.7428 3.7622 -1.6755 0.0000 0.0000 0.0000
# 2 3.7622 112.5071 -37.6391 0.0000 0.0000 0.0000
# 3 -1.6755 -37.6391 100.6216 0.0000 0.0000 0.0000
# 4 0.0000 0.0000 0.0000 36.6666 0.0000 0.0000
# 5 0.0000 0.0000 0.0000 0.0000 1.9258 0.0000
# 6 0.0000 0.0000 0.0000 0.0000 0.0000 -21.5046
#
#
#
# Elastic Compliance Matrix: (Units=1/GPa)
#
#
# Indices 1 2 3 4 5 6 
#
# 1 0.028889 -0.000920 0.000137 0.000000 0.000000 0.000000
# 2 -0.000920 0.010189 0.003796 0.000000 0.000000 0.000000
# 3 0.000137 0.003796 0.011360 0.000000 0.000000 0.000000
# 4 0.000000 0.000000 0.000000 0.027273 0.000000 0.000000
# 5 0.000000 0.000000 0.000000 0.000000 0.519266 0.000000
# 6 0.000000 0.000000 0.000000 0.000000 0.000000 -0.046502
#
#
# Mechanical properties :
#
#
# Convention : Reuss Voigt Hill
#
# Bulk Modulus (GPa) = 17.71044 19.64075 18.67560
# Shear Modulus (GPa) = 8.87671 22.31249 15.59460
#
# Velocity S-wave (km/s) = 1.96610 3.11712 2.60595
# Velocity P-wave (km/s) = 3.58698 4.63770 4.14576
#
# Compressibility (1/GPa) = 0.05646386
#
# Stress axis : x y z
#
# Youngs Moduli (GPa) = 34.61506 98.14438 88.02448
#
# Poissons Ratio (x) = 0.09032 -0.01204
# Poissons Ratio (y) = 0.03186 -0.33415
# Poissons Ratio (z) = -0.00474 -0.37256
#
# Static dielectric constant tensor:
#      x y z
#    x 1.876410 0.000000 0.000000 
#    y 0.000000 1.873670 0.000000 
#    z 0.000000 0.000000 1.909490 
# 
# From -- ./inp_files/844.got.cif
#   From: 2010.05.17/outbox.cif.g08.bks.cpg/sg39_1_cif.got.tgz:844.got - 2010.06.03 18:22:40.
