data_PCOD9359459
_publ_section_title
;
Structure prediction by ZEFSAII (Michael W. Deem and Ramdas Pophale) SiO2 
 PCOD9359459
Probable space group: A M M 2
;
_chemical_formula_sum "Si O2"
_cell_formula_units_Z 40
_cell_length_a 8.016485
_cell_length_b 7.433118
_cell_length_c 30.536632
_cell_angle_alpha 90.000000
_cell_angle_beta 90.000000
_cell_angle_gamma 90.000000
_cell_volume 1819.600917
_symmetry_space_group_name_H-M "A M M 2"
_symmetry_group_IT_number 38
_symmetry_cell_setting 'orthorhombic'
loop_
_space_group_symop_operation_xyz
x,y,z
-x,-y,z
-x,y,z
x,-y,z
x,1/2+y,1/2+z
-x,1/2-y,1/2+z
-x,1/2+y,1/2+z
x,1/2-y,1/2+z
loop_
_atom_site_type_symbol
_atom_site_label
_atom_site_fract_x
_atom_site_fract_y
_atom_site_fract_z
Si Si1 0.299044 0.207435 0.605670
Si Si2 0.000000 0.279353 0.862830
Si Si3 0.194734 0.216205 0.511913
Si Si4 0.000000 0.787817 0.263602
Si Si5 0.689253 0.285084 0.201322
Si Si6 0.317684 0.780273 0.419131
O O1 0.500000 0.204771 0.604217
O O2 0.238622 0.288669 0.559955
O O3 0.256689 0.286369 0.653252
O O4 0.236969 0.000000 0.605846
O O5 0.000000 0.214347 0.812891
O O6 0.835154 0.222165 0.889007
O O7 0.000000 0.500000 0.863075
O O8 0.292536 0.280761 0.469301
O O9 0.000000 0.243783 0.503258
O O10 0.225747 0.000000 0.513989
O O11 0.832572 0.743616 0.236726
O O12 0.000000 0.000000 0.268325
O O13 0.500000 0.220399 0.211875
O O14 0.675262 0.500000 0.195955
O O15 0.500000 0.726440 0.402917
O O16 0.312649 0.000000 0.419862
#
# Coordination Sequence:
#
# PCOD9359459 Si02
#       6
#     8   4   8   4   8   8
#     4   8  14  24  39  63  93 124 158 194 238 293
#     4   9  18  31  40  57  87 121 165 203 240 295
#     4   9  14  19  32  58  90 120 151 189 234 289
#     4  11  23  35  52  75 103 137 173 219 266 307
#     4   9  19  36  56  77 103 136 174 214 255 304
#     4   9  15  24  38  54  81 122 159 192 234 289
#
# _framework density 21.982842000000002
#
# number of rings (size 3 to 8) (size 9 to 14) (size 15 to 20)
#    0.000    3.000    1.000    2.100    1.400    3.600 
#    0.000    2.000    0.000    0.000    0.000    0.000 
#    0.000    6.400    0.000    5.200    0.000    4.000 
#
# Total GULP energy -111573.187820 kJ/mol
# GULP energy per Si atom -5578.659391 kJ/mol
# Density = 2.193281 g / cm^3
# Si number density = 21.982842 Si / 1000 Ang^3
#
#
#
# Elastic Constant Matrix: (Units=GPa)
#
#
# Indices 1 2 3 4 5 6 
#
# 1 136.2408 11.6520 129.7617 0.0000 0.0000 0.0000
# 2 11.6520 66.3317 2.0790 0.0000 0.0000 0.0000
# 3 129.7617 2.0790 187.6457 0.0000 0.0000 0.0000
# 4 0.0000 0.0000 0.0000 0.0903 0.0000 0.0000
# 5 0.0000 0.0000 0.0000 0.0000 -1.4100 0.0000
# 6 0.0000 0.0000 0.0000 0.0000 0.0000 -286.7886
#
#
#
# Elastic Compliance Matrix: (Units=1/GPa)
#
#
# Indices 1 2 3 4 5 6 
#
# 1 0.022255 -0.003428 -0.015352 0.000000 0.000000 0.000000
# 2 -0.003428 0.015609 0.002198 0.000000 0.000000 0.000000
# 3 -0.015352 0.002198 0.015921 0.000000 0.000000 0.000000
# 4 0.000000 0.000000 0.000000 11.068472 0.000000 0.000000
# 5 0.000000 0.000000 0.000000 0.000000 -0.709215 0.000000
# 6 0.000000 0.000000 0.000000 0.000000 0.000000 -0.003487
#
#
# Mechanical properties :
#
#
# Convention : Reuss Voigt Hill
#
# Bulk Modulus (GPa) = 48.49565 75.24485 61.87025
# Shear Modulus (GPa) = 0.47849 -41.17328 -20.34740
#
# Velocity S-wave (km/s) = 0.46705 -4.33248 -3.04567
# Velocity P-wave (km/s) = 4.73280 3.04566 3.97966
#
# Compressibility (1/GPa) = 0.02062041
#
# Stress axis : x y z
#
# Youngs Moduli (GPa) = 44.93395 64.06534 62.81007
#
# Poissons Ratio (x) = 0.21963 0.96425
# Poissons Ratio (y) = 0.15404 -0.13804
# Poissons Ratio (z) = 0.68982 -0.14080
#
# Static dielectric constant tensor:
#      x y z
#    x 1.705130 0.000000 0.000000 
#    y 0.000000 2.022780 0.000000 
#    z 0.000000 0.000000 1.823140 
# 
# From -- ./inp_files/23240.got.cif
#   From: 2010.05.17/outbox.cif.g08.bks.cpg/sg38_12_cif.got.tgz:23240.got - 2010.06.03 18:07:57.
