data_PCOD9359810
_publ_section_title
;
Structure prediction by ZEFSAII (Michael W. Deem and Ramdas Pophale) SiO2 
 PCOD9359810
Probable space group: A B M 2
;
_chemical_formula_sum "Si O2"
_cell_formula_units_Z 60
_cell_length_a 14.302508
_cell_length_b 27.209442
_cell_length_c 8.926064
_cell_angle_alpha 90.000000
_cell_angle_beta 90.000000
_cell_angle_gamma 90.000000
_cell_volume 3473.696182
_symmetry_space_group_name_H-M "A B M 2"
_symmetry_group_IT_number 39
_symmetry_cell_setting 'orthorhombic'
loop_
_space_group_symop_operation_xyz
x,y,z
-x,-y,z
-x,1/2+y,z
x,1/2-y,z
x,1/2+y,1/2+z
-x,1/2-y,1/2+z
-x,y,1/2+z
x,-y,1/2+z
loop_
_atom_site_type_symbol
_atom_site_label
_atom_site_fract_x
_atom_site_fract_y
_atom_site_fract_z
Si Si1 0.396937 0.143622 0.266060
Si Si2 0.467665 0.696228 0.472873
Si Si3 0.682925 0.664246 0.746161
Si Si4 0.959777 0.308711 0.056279
Si Si5 0.130427 0.309066 0.877838
Si Si6 0.500000 0.000000 0.456422
Si Si7 0.234797 0.808065 0.924804
Si Si8 0.553615 0.930115 0.708511
O O1 0.454810 0.158860 0.414503
O O2 0.291393 0.156152 0.313207
O O3 0.447804 0.093055 0.218237
O O4 0.423275 0.179405 0.128338
O O5 0.509585 0.750000 0.488016
O O6 0.391361 0.695395 0.341038
O O7 0.773771 0.662096 0.852502
O O8 0.718630 0.687412 0.590787
O O9 0.629153 0.613203 0.716038
O O10 0.964175 0.250000 0.035197
O O11 0.872701 0.323878 0.951178
O O12 0.062413 0.326121 0.010291
O O13 0.929926 0.316678 0.226641
O O14 0.151626 0.250000 0.889241
O O15 0.557918 0.963349 0.561762
O O16 0.437605 0.966004 0.349766
O O17 0.239428 0.750000 0.879551
#
# Coordination Sequence:
#
# PCOD9359810 Si02
#       8
#     8   8   8   8   8   4   8   8
#     4  11  21  31  45  65  95 121 160 196 226 262
#     4  11  20  29  41  63  93 132 161 184 219 266
#     4  10  19  31  48  68  95 119 159 197 233 269
#     4   8  16  27  42  62  90 129 170 191 217 250
#     4   9  16  29  45  65  95 131 158 190 220 255
#     4  10  20  36  54  64  90 114 146 184 252 300
#     4  10  18  30  45  66  98 138 166 192 220 257
#     4  10  20  34  50  71  88 117 146 194 237 291
#
# _framework density 17.272666999999998
#
# number of rings (size 3 to 8) (size 9 to 14) (size 15 to 20)
#    0.000    2.133    0.000    7.200    0.000    1.067 
#    0.000    2.667    0.000    0.000    0.000    0.000 
#    0.000   36.267    0.000    0.000    0.000    0.000 
#
# Total GULP energy -167185.576253 kJ/mol
# GULP energy per Si atom -5572.852542 kJ/mol
# Density = 1.723335 g / cm^3
# Si number density = 17.272667 Si / 1000 Ang^3
#
#
#
# Elastic Constant Matrix: (Units=GPa)
#
#
# Indices 1 2 3 4 5 6 
#
# 1 50.8245 11.9858 -1.9721 0.0000 0.0000 0.0000
# 2 11.9858 62.7530 13.0746 0.0000 0.0000 0.0000
# 3 -1.9721 13.0746 36.7361 0.0000 0.0000 0.0000
# 4 0.0000 0.0000 0.0000 23.7025 0.0000 0.0000
# 5 0.0000 0.0000 0.0000 0.0000 26.4120 0.0000
# 6 0.0000 0.0000 0.0000 0.0000 0.0000 12.2313
#
#
#
# Elastic Compliance Matrix: (Units=1/GPa)
#
#
# Indices 1 2 3 4 5 6 
#
# 1 0.020856 -0.004554 0.002741 0.000000 0.000000 0.000000
# 2 -0.004554 0.018206 -0.006724 0.000000 0.000000 0.000000
# 3 0.002741 -0.006724 0.029761 0.000000 0.000000 0.000000
# 4 0.000000 0.000000 0.000000 0.042190 0.000000 0.000000
# 5 0.000000 0.000000 0.000000 0.000000 0.037862 0.000000
# 6 0.000000 0.000000 0.000000 0.000000 0.000000 0.081757
#
#
# Mechanical properties :
#
#
# Convention : Reuss Voigt Hill
#
# Bulk Modulus (GPa) = 19.32459 21.83223 20.57841
# Shear Modulus (GPa) = 18.87091 20.95084 19.91088
#
# Velocity S-wave (km/s) = 3.30893 3.48652 3.39888
# Velocity P-wave (km/s) = 5.08045 5.37354 5.22905
#
# Compressibility (1/GPa) = 0.05174755
#
# Stress axis : x y z
#
# Youngs Moduli (GPa) = 47.94792 54.92572 33.60047
#
# Poissons Ratio (x) = 0.25016 -0.09209
# Poissons Ratio (y) = 0.21838 0.22594
# Poissons Ratio (z) = -0.13141 0.36934
#
# Static dielectric constant tensor:
#      x y z
#    x 1.636790 0.000000 0.000000 
#    y 0.000000 1.581800 0.000000 
#    z 0.000000 0.000000 1.643840 
# 
# From -- ./inp_files/3553.got.cif
#   From: 2010.05.17/outbox.cif.g08.bks.cpg/sg39_2_cif.got.tgz:3553.got - 2010.06.03 18:22:40.
