data_PCOD9359572
_publ_section_title
;
Structure prediction by ZEFSAII (Michael W. Deem and Ramdas Pophale) SiO2 
 PCOD9359572
Probable space group: A M M 2
;
_chemical_formula_sum "Si O2"
_cell_formula_units_Z 32
_cell_length_a 9.000000
_cell_length_b 21.000000
_cell_length_c 18.000000
_cell_angle_alpha 90.000000
_cell_angle_beta 90.000000
_cell_angle_gamma 90.000000
_cell_volume 3402.000000
_symmetry_space_group_name_H-M "A M M 2"
_symmetry_group_IT_number 38
_symmetry_cell_setting 'orthorhombic'
loop_
_space_group_symop_operation_xyz
x,y,z
-x,-y,z
-x,y,z
x,-y,z
x,1/2+y,1/2+z
-x,1/2-y,1/2+z
-x,1/2+y,1/2+z
x,1/2-y,1/2+z
loop_
_atom_site_type_symbol
_atom_site_label
_atom_site_fract_x
_atom_site_fract_y
_atom_site_fract_z
Si Si1 0.839108 0.755915 0.142270
Si Si2 0.322254 0.933289 0.442162
Si Si3 0.668377 0.746440 0.277864
Si Si4 0.174707 0.687537 0.402790
Si Si5 0.323623 0.897160 0.278881
Si Si6 0.324617 0.568384 0.476476
Si Si7 0.829930 0.406091 0.626684
Si Si8 0.166669 0.190271 0.487329
O O1 0.699121 0.738689 0.191384
O O2 0.826824 0.829405 0.118994
O O3 0.000000 0.751087 0.182430
O O4 0.844129 0.713085 0.070809
O O5 0.500000 0.930927 0.443832
O O6 0.280206 0.929295 0.355505
O O7 0.258344 0.872725 0.481260
O O8 0.270198 0.000000 0.474488
O O9 0.500000 0.733797 0.300151
O O10 0.780228 0.700177 0.319039
O O11 0.701598 0.821344 0.290419
O O12 0.245621 0.625073 0.435012
O O13 0.236029 0.750689 0.443189
O O14 0.000000 0.685493 0.415928
O O15 0.500000 0.906003 0.265689
O O16 0.233478 0.919995 0.207890
O O17 0.500000 0.576921 0.473994
O O18 0.285577 0.500000 0.442944
O O19 0.271047 0.568607 0.561281
O O20 0.000000 0.426489 0.618565
O O21 0.000000 0.179185 0.457150
#
# Coordination Sequence:
#
# PCOD9359572 Si02
#       8
#     8   8   8   8   8   8   8   8
#     4   9  18  34  53  79 111 141 175 222 273 321
#     4  10  21  36  53  76 109 147 184 223 269 319
#     4  10  19  32  53  83 111 141 179 223 272 320
#     4  11  21  36  58  83 109 143 182 226 274 322
#     4   9  18  32  49  75 110 148 186 221 263 318
#     4  11  24  39  55  78 110 147 184 225 273 326
#     4  10  19  33  53  78 109 144 182 224 268 320
#     4  10  20  35  56  81 108 140 181 225 271 318
#
# _framework density 9.4062319999999993
#
# number of rings (size 3 to 8) (size 9 to 14) (size 15 to 20)
#    0.000    2.000    2.500    1.500    0.000    4.250 
#    0.000    1.250    0.000    0.750    0.000    3.500 
#    0.000    0.000    0.000    0.000    0.000    0.000 
#
# Total GULP energy -178320.856357 kJ/mol
# GULP energy per Si atom -5572.526761 kJ/mol
# Density = 0.938482 g / cm^3
# Si number density = 9.406232 Si / 1000 Ang^3
#
#
#
# Elastic Constant Matrix: (Units=GPa)
#
#
# Indices 1 2 3 4 5 6 
#
# 1 15.4135 53.8600 14.3735 0.0000 0.0000 0.0000
# 2 53.8600 105.1542 49.6713 0.0000 0.0000 0.0000
# 3 14.3735 49.6713 31.5366 0.0000 0.0000 0.0000
# 4 0.0000 0.0000 0.0000 -7.0784 0.0000 0.0000
# 5 0.0000 0.0000 0.0000 0.0000 12.1784 0.0000
# 6 0.0000 0.0000 0.0000 0.0000 0.0000 -6.3733
#
#
#
# Elastic Compliance Matrix: (Units=1/GPa)
#
#
# Indices 1 2 3 4 5 6 
#
# 1 -0.036567 0.042409 -0.050130 0.000000 0.000000 0.000000
# 2 0.042409 -0.012038 -0.000368 0.000000 0.000000 0.000000
# 3 -0.050130 -0.000368 0.055137 0.000000 0.000000 0.000000
# 4 0.000000 0.000000 0.000000 -0.141274 0.000000 0.000000
# 5 0.000000 0.000000 0.000000 0.000000 0.082113 0.000000
# 6 0.000000 0.000000 0.000000 0.000000 0.000000 -0.156905
#
#
# Mechanical properties :
#
#
# Convention : Reuss Voigt Hill
#
# Bulk Modulus (GPa) = -103.66739 43.10152 -30.28293
# Shear Modulus (GPa) = -25.43600 2.02530 -11.70535
#
# Velocity S-wave (km/s) = -3.68106 1.03871 -2.49712
# Velocity P-wave (km/s) = 8.56109 4.93958 4.94433
#
# Compressibility (1/GPa) = -0.00964624
#
# Stress axis : x y z
#
# Youngs Moduli (GPa) = -27.34734 -83.06773 18.13668
#
# Poissons Ratio (x) = 3.52285 0.90920
# Poissons Ratio (y) = 1.15978 0.00668
# Poissons Ratio (z) = -1.37093 -0.03057
#
# Static dielectric constant tensor:
#      x y z
#    x 1.862980 0.000000 0.000000 
#    y 0.000000 1.635530 0.000000 
#    z 0.000000 0.000000 1.659600 
# 
# From -- ./inp_files/17156.got.cif
#   From: 2010.05.17/outbox.ucp.g08.bks.cvg/sg38_9_cif.got.tgz:17156.got - 2010.06.11 10:39:43.
