data_PCOD9359961
_publ_section_title
;
Structure prediction by ZEFSAII (Michael W. Deem and Ramdas Pophale) SiO2 
 PCOD9359961
Probable space group: A B M 2
;
_chemical_formula_sum "Si O2"
_cell_formula_units_Z 64
_cell_length_a 24.326522
_cell_length_b 7.634770
_cell_length_c 16.056662
_cell_angle_alpha 90.000000
_cell_angle_beta 90.000000
_cell_angle_gamma 90.000000
_cell_volume 2982.162092
_symmetry_space_group_name_H-M "A B M 2"
_symmetry_group_IT_number 39
_symmetry_cell_setting 'orthorhombic'
loop_
_space_group_symop_operation_xyz
x,y,z
-x,-y,z
-x,1/2+y,z
x,1/2-y,z
x,1/2+y,1/2+z
-x,1/2-y,1/2+z
-x,y,1/2+z
x,-y,1/2+z
loop_
_atom_site_type_symbol
_atom_site_label
_atom_site_fract_x
_atom_site_fract_y
_atom_site_fract_z
Si Si1 0.744163 0.037636 0.110900
Si Si2 0.622808 0.046689 0.556499
Si Si3 0.637554 0.456984 0.378020
Si Si4 0.063987 0.539442 0.207902
Si Si5 0.435872 0.458741 0.220678
Si Si6 0.751876 0.963725 0.805675
Si Si7 0.862335 0.040779 0.054506
Si Si8 0.870278 0.960695 0.868057
O O1 0.740608 0.250000 0.106117
O O2 0.749488 0.989260 0.208249
O O3 0.687839 0.963793 0.074730
O O4 0.799513 0.976837 0.064647
O O5 0.605294 0.250000 0.553384
O O6 0.614775 0.968366 0.464693
O O7 0.591130 0.968489 0.635609
O O8 0.646003 0.250000 0.392724
O O9 0.596648 0.474740 0.301023
O O10 0.697264 0.528506 0.351904
O O11 0.069675 0.750000 0.208283
O O12 0.089202 0.474971 0.295426
O O13 0.000000 0.500000 0.199637
O O14 0.099579 0.472988 0.129471
O O15 0.500000 0.500000 0.224267
O O16 0.428475 0.250000 0.221322
O O17 0.751720 0.750000 0.807795
O O18 0.808605 0.023745 0.846785
O O19 0.859299 0.250000 0.064910
O O20 0.884701 0.005860 0.962552
O O21 0.869299 0.750000 0.863088
#
# Coordination Sequence:
#
# PCOD9359961 Si02
#       8
#     8   8   8   8   8   8   8   8
#     4  10  18  33  59  86 114 151 187 223 276 339
#     4  10  22  38  58  88 120 147 183 232 281 332
#     4  10  20  37  61  86 114 149 185 225 277 336
#     4  10  22  40  59  79 110 150 192 237 283 335
#     4  11  24  41  59  82 113 148 190 237 280 326
#     4   9  16  31  58  85 111 147 184 220 273 337
#     4  10  21  37  57  84 116 147 185 233 282 334
#     4  10  20  37  60  84 112 149 189 229 280 339
#
# _framework density 21.460940000000001
#
# number of rings (size 3 to 8) (size 9 to 14) (size 15 to 20)
#    0.000    2.000    2.500    1.125    0.000    4.500 
#    0.000    5.000    0.000    0.000    0.000    0.000 
#    0.000    0.000    0.000    0.000    0.000    0.000 
#
# Total GULP energy -178789.253822 kJ/mol
# GULP energy per Si atom -5587.164182 kJ/mol
# Density = 2.141209 g / cm^3
# Si number density = 21.460940 Si / 1000 Ang^3
#
#
#
# Elastic Constant Matrix: (Units=GPa)
#
#
# Indices 1 2 3 4 5 6 
#
# 1 95.6730 -17.2306 27.5871 0.0000 0.0000 0.0000
# 2 -17.2306 38.7215 -8.0974 0.0000 0.0000 0.0000
# 3 27.5871 -8.0974 137.9917 0.0000 0.0000 0.0000
# 4 0.0000 0.0000 0.0000 16.7942 0.0000 0.0000
# 5 0.0000 0.0000 0.0000 0.0000 3.1166 0.0000
# 6 0.0000 0.0000 0.0000 0.0000 0.0000 16.0010
#
#
#
# Elastic Compliance Matrix: (Units=1/GPa)
#
#
# Indices 1 2 3 4 5 6 
#
# 1 0.011935 0.004872 -0.002100 0.000000 0.000000 0.000000
# 2 0.004872 0.028135 0.000677 0.000000 0.000000 0.000000
# 3 -0.002100 0.000677 0.007706 0.000000 0.000000 0.000000
# 4 0.000000 0.000000 0.000000 0.059544 0.000000 0.000000
# 5 0.000000 0.000000 0.000000 0.000000 0.320861 0.000000
# 6 0.000000 0.000000 0.000000 0.000000 0.000000 0.062496
#
#
# Mechanical properties :
#
#
# Convention : Reuss Voigt Hill
#
# Bulk Modulus (GPa) = 18.29029 30.76718 24.52873
# Shear Modulus (GPa) = 9.96005 25.19083 17.57544
#
# Velocity S-wave (km/s) = 2.15664 3.42979 2.86483
# Velocity P-wave (km/s) = 3.83960 5.48198 4.73258
#
# Compressibility (1/GPa) = 0.05467382
#
# Stress axis : x y z
#
# Youngs Moduli (GPa) = 83.78534 35.54306 129.76216
#
# Poissons Ratio (x) = -0.17316 0.27253
# Poissons Ratio (y) = -0.40819 -0.08785
# Poissons Ratio (z) = 0.17597 -0.02406
#
# Static dielectric constant tensor:
#      x y z
#    x 1.729960 0.000000 0.000000 
#    y 0.000000 1.805520 0.000000 
#    z 0.000000 0.000000 1.787970 
# 
# From -- ./inp_files/10626.got.cif
#   From: 2010.05.17/outbox.cif.g08.bks.cpg/sg39_6_cif.got.tgz:10626.got - 2010.06.03 18:22:40.
