data_PCOD9359102
_publ_section_title
;
Structure prediction by ZEFSAII (Michael W. Deem and Ramdas Pophale) SiO2 
 PCOD9359102
Probable space group: A M M 2
;
_chemical_formula_sum "Si O2"
_cell_formula_units_Z 40
_cell_length_a 13.240856
_cell_length_b 15.629919
_cell_length_c 10.521372
_cell_angle_alpha 90.000000
_cell_angle_beta 90.000000
_cell_angle_gamma 90.000000
_cell_volume 2177.434831
_symmetry_space_group_name_H-M "A M M 2"
_symmetry_group_IT_number 38
_symmetry_cell_setting 'orthorhombic'
loop_
_space_group_symop_operation_xyz
x,y,z
-x,-y,z
-x,y,z
x,-y,z
x,1/2+y,1/2+z
-x,1/2-y,1/2+z
-x,1/2+y,1/2+z
x,1/2-y,1/2+z
loop_
_atom_site_type_symbol
_atom_site_label
_atom_site_fract_x
_atom_site_fract_y
_atom_site_fract_z
Si Si1 0.755558 0.902358 0.799170
Si Si2 0.383140 0.144592 0.564572
Si Si3 0.292679 0.326990 0.566969
Si Si4 0.750639 0.596449 0.824609
Si Si5 0.118841 0.240254 0.223679
O O1 0.669949 0.888775 0.692396
O O2 0.841492 0.832792 0.766760
O O3 0.791025 0.000000 0.796983
O O4 0.711845 0.878372 0.937161
O O5 0.500000 0.121538 0.558995
O O6 0.368445 0.247467 0.562157
O O7 0.321297 0.109647 0.444303
O O8 0.308771 0.383841 0.692910
O O9 0.182028 0.285237 0.597068
O O10 0.790258 0.500000 0.822346
O O11 0.838330 0.668226 0.821168
O O12 0.000000 0.236429 0.208657
#
# Coordination Sequence:
#
# PCOD9359102 Si02
#       5
#     8   8   8   8   8
#     4  11  22  39  62  93 125 158 206 259 309 365
#     4  11  22  41  64  87 124 170 205 248 315 374
#     4   9  20  40  60  90 117 160 201 259 296 359
#     4  10  21  39  61  90 121 158 205 251 296 362
#     4   9  21  40  62  89 122 161 200 247 310 363
#
# _framework density 18.370239000000002
#
# number of rings (size 3 to 8) (size 9 to 14) (size 15 to 20)
#    1.200    0.800    2.000    1.200    0.000    6.400 
#    0.000    0.000    0.000    6.000    0.000    0.000 
#    0.000    0.000    0.000    0.000    0.000    0.000 
#
# Total GULP energy -111444.648475 kJ/mol
# GULP energy per Si atom -5572.232424 kJ/mol
# Density = 1.832843 g / cm^3
# Si number density = 18.370239 Si / 1000 Ang^3
#
#
#
# Elastic Constant Matrix: (Units=GPa)
#
#
# Indices 1 2 3 4 5 6 
#
# 1 61.7830 23.3309 28.9070 0.0000 0.0000 0.0000
# 2 23.3309 148.8764 31.2590 0.0000 0.0000 0.0000
# 3 28.9070 31.2590 139.1841 0.0000 0.0000 0.0000
# 4 0.0000 0.0000 0.0000 13.2908 0.0000 0.0000
# 5 0.0000 0.0000 0.0000 0.0000 11.2838 0.0000
# 6 0.0000 0.0000 0.0000 0.0000 0.0000 0.3014
#
#
#
# Elastic Compliance Matrix: (Units=1/GPa)
#
#
# Indices 1 2 3 4 5 6 
#
# 1 0.018594 -0.002207 -0.003366 0.000000 0.000000 0.000000
# 2 -0.002207 0.007311 -0.001184 0.000000 0.000000 0.000000
# 3 -0.003366 -0.001184 0.008150 0.000000 0.000000 0.000000
# 4 0.000000 0.000000 0.000000 0.075240 0.000000 0.000000
# 5 0.000000 0.000000 0.000000 0.000000 0.088623 0.000000
# 6 0.000000 0.000000 0.000000 0.000000 0.000000 3.317495
#
#
# Mechanical properties :
#
#
# Convention : Reuss Voigt Hill
#
# Bulk Modulus (GPa) = 48.68230 57.42636 53.05433
# Shear Modulus (GPa) = 1.41412 22.73165 12.07288
#
# Velocity S-wave (km/s) = 0.87833 3.52151 2.56637
# Velocity P-wave (km/s) = 5.25231 6.91832 6.14206
#
# Compressibility (1/GPa) = 0.02054135
#
# Stress axis : x y z
#
# Youngs Moduli (GPa) = 53.78054 136.77276 122.70458
#
# Poissons Ratio (x) = 0.30188 0.41303
# Poissons Ratio (y) = 0.11870 0.14524
# Poissons Ratio (z) = 0.18103 0.16189
#
# Static dielectric constant tensor:
#      x y z
#    x 1.586890 0.000000 0.000000 
#    y 0.000000 1.647300 0.000000 
#    z 0.000000 0.000000 1.640900 
# 
# From -- ./inp_files/9073.got.cif
#   From: 2010.05.17/outbox.cif.g08.bks.cpg/sg38_5_cif.got.tgz:9073.got - 2010.06.03 18:07:57.
