data_PCOD9359118
_publ_section_title
;
Structure prediction by ZEFSAII (Michael W. Deem and Ramdas Pophale) SiO2 
 PCOD9359118
Probable space group: A M M 2
;
_chemical_formula_sum "Si O2"
_cell_formula_units_Z 64
_cell_length_a 9.203660
_cell_length_b 22.120641
_cell_length_c 15.782378
_cell_angle_alpha 90.000000
_cell_angle_beta 90.000000
_cell_angle_gamma 90.000000
_cell_volume 3213.147890
_symmetry_space_group_name_H-M "A M M 2"
_symmetry_group_IT_number 38
_symmetry_cell_setting 'orthorhombic'
loop_
_space_group_symop_operation_xyz
x,y,z
-x,-y,z
-x,y,z
x,-y,z
x,1/2+y,1/2+z
-x,1/2-y,1/2+z
-x,1/2+y,1/2+z
x,1/2-y,1/2+z
loop_
_atom_site_type_symbol
_atom_site_label
_atom_site_fract_x
_atom_site_fract_y
_atom_site_fract_z
Si Si1 0.663277 0.926495 0.517370
Si Si2 0.827203 0.308381 0.255276
Si Si3 0.172947 0.067444 0.689841
Si Si4 0.327620 0.738271 0.607307
Si Si5 0.833525 0.927010 0.353456
Si Si6 0.824325 0.701936 0.443179
Si Si7 0.170770 0.881201 0.166469
Si Si8 0.171756 0.434437 0.487929
O O1 0.500000 0.903780 0.527608
O O2 0.756617 0.914008 0.600643
O O3 0.734197 0.904786 0.430143
O O4 0.658856 0.000000 0.512148
O O5 0.800044 0.380474 0.257613
O O6 0.737825 0.283194 0.176858
O O7 0.791503 0.280410 0.346522
O O8 0.000000 0.299221 0.240605
O O9 0.000000 0.064763 0.677564
O O10 0.224071 0.000000 0.712943
O O11 0.500000 0.756877 0.100895
O O12 0.252712 0.741521 0.514972
O O13 0.275420 0.673335 0.642589
O O14 0.795215 0.905296 0.259584
O O15 0.000000 0.908840 0.370635
O O16 0.828952 0.000000 0.352902
O O17 0.776551 0.631337 0.455785
O O18 0.000000 0.703839 0.454979
O O19 0.183026 0.929106 0.090226
O O20 0.000000 0.861319 0.165763
O O21 0.232830 0.500000 0.460467
O O22 0.000000 0.435384 0.466134
#
# Coordination Sequence:
#
# PCOD9359118 Si02
#       8
#     8   8   8   8   8   8   8   8
#     4   9  17  29  45  68 104 147 183 218 266 325
#     4  10  21  39  63  88 113 146 187 231 281 335
#     4   9  18  34  57  85 114 141 175 223 277 333
#     4  11  23  39  58  80 111 149 189 236 283 329
#     4   9  16  27  47  75 105 140 186 237 286 334
#     4   9  19  37  61  86 114 148 186 231 280 333
#     4   9  17  31  51  75 106 145 188 232 280 330
#     4   8  13  24  48  82 114 141 173 217 271 329
#
# _framework density 19.918161999999999
#
# number of rings (size 3 to 8) (size 9 to 14) (size 15 to 20)
#    0.000    2.750    0.000    2.625    0.000    5.000 
#    2.250    2.500    0.000    9.000    0.000    3.500 
#    0.000    0.000    0.000    0.000    0.000    0.000 
#
# Total GULP energy -178401.692738 kJ/mol
# GULP energy per Si atom -5575.052898 kJ/mol
# Density = 1.987283 g / cm^3
# Si number density = 19.918162 Si / 1000 Ang^3
#
#
#
# Elastic Constant Matrix: (Units=GPa)
#
#
# Indices 1 2 3 4 5 6 
#
# 1 48.8547 26.8464 52.1108 0.0000 0.0000 0.0000
# 2 26.8464 41.2962 23.6419 0.0000 0.0000 0.0000
# 3 52.1108 23.6419 121.5590 0.0000 0.0000 0.0000
# 4 0.0000 0.0000 0.0000 21.3722 0.0000 0.0000
# 5 0.0000 0.0000 0.0000 0.0000 1.0177 0.0000
# 6 0.0000 0.0000 0.0000 0.0000 0.0000 9.1571
#
#
#
# Elastic Compliance Matrix: (Units=1/GPa)
#
#
# Indices 1 2 3 4 5 6 
#
# 1 0.052895 -0.024087 -0.017991 0.000000 0.000000 0.000000
# 2 -0.024087 0.038218 0.002893 0.000000 0.000000 0.000000
# 3 -0.017991 0.002893 0.015376 0.000000 0.000000 0.000000
# 4 0.000000 0.000000 0.000000 0.046790 0.000000 0.000000
# 5 0.000000 0.000000 0.000000 0.000000 0.982636 0.000000
# 6 0.000000 0.000000 0.000000 0.000000 0.000000 0.109205
#
#
# Mechanical properties :
#
#
# Convention : Reuss Voigt Hill
#
# Bulk Modulus (GPa) = 35.56280 46.32311 40.94296
# Shear Modulus (GPa) = 3.75132 13.58344 8.66738
#
# Velocity S-wave (km/s) = 1.37385 2.61427 2.08829
# Velocity P-wave (km/s) = 4.51772 5.69384 5.13953
#
# Compressibility (1/GPa) = 0.02811927
#
# Stress axis : x y z
#
# Youngs Moduli (GPa) = 18.90545 26.16569 65.03553
#
# Poissons Ratio (x) = 0.63025 1.17003
# Poissons Ratio (y) = 0.45538 -0.18814
# Poissons Ratio (z) = 0.34012 -0.07569
#
# Static dielectric constant tensor:
#      x y z
#    x 1.667010 0.000000 0.000000 
#    y 0.000000 1.764200 0.000000 
#    z 0.000000 0.000000 1.695790 
# 
# From -- ./inp_files/12855.got.cif
#   From: 2010.05.17/outbox.cif.g08.bks.cpg/sg38_7_cif.got.tgz:12855.got - 2010.06.03 18:07:57.
