data_PCOD9359188
_publ_section_title
;
Structure prediction by ZEFSAII (Michael W. Deem and Ramdas Pophale) SiO2 
 PCOD9359188
Probable space group: A M M 2
;
_chemical_formula_sum "Si O2"
_cell_formula_units_Z 58
_cell_length_a 24.465865
_cell_length_b 7.891182
_cell_length_c 15.206120
_cell_angle_alpha 90.000000
_cell_angle_beta 90.000000
_cell_angle_gamma 90.000000
_cell_volume 2935.763377
_symmetry_space_group_name_H-M "A M M 2"
_symmetry_group_IT_number 38
_symmetry_cell_setting 'orthorhombic'
loop_
_space_group_symop_operation_xyz
x,y,z
-x,-y,z
-x,y,z
x,-y,z
x,1/2+y,1/2+z
-x,1/2-y,1/2+z
-x,1/2+y,1/2+z
x,1/2-y,1/2+z
loop_
_atom_site_type_symbol
_atom_site_label
_atom_site_fract_x
_atom_site_fract_y
_atom_site_fract_z
Si Si1 0.500000 0.000000 0.099240
Si Si2 0.061640 0.707462 0.020455
Si Si3 0.558314 0.187404 0.672654
Si Si4 0.665201 0.697705 0.763406
Si Si5 0.270880 0.196632 0.928031
Si Si6 0.244900 0.293674 0.622399
Si Si7 0.151098 0.697368 0.880073
Si Si8 0.873842 0.698709 0.187317
O O1 0.547504 0.847270 0.108525
O O2 0.062219 0.500000 0.019115
O O3 0.106287 0.763561 0.948949
O O4 0.000000 0.762461 0.001280
O O5 0.081560 0.760472 0.117235
O O6 0.500000 0.188944 0.723979
O O7 0.609290 0.213624 0.736040
O O8 0.563044 0.000000 0.630756
O O9 0.657195 0.500000 0.745352
O O10 0.686709 0.718540 0.862062
O O11 0.713771 0.758671 0.699176
O O12 0.209515 0.213459 0.889404
O O13 0.285661 0.000000 0.932152
O O14 0.267072 0.262276 0.027605
O O15 0.240608 0.500000 0.622573
O O16 0.184959 0.222974 0.641183
O O17 0.161419 0.500000 0.899874
O O18 0.128898 0.712874 0.781358
O O19 0.882967 0.500000 0.203325
#
# Coordination Sequence:
#
# PCOD9359188 Si02
#       8
#     2   8   8   8   8   8   8   8
#     4   8  14  32  52  82 116 156 198 242 290 334
#     4   9  20  38  58  78 106 143 182 225 277 340
#     4   9  17  31  54  84 114 155 200 241 288 342
#     4  11  20  35  57  83 114 154 192 232 286 342
#     4  11  22  35  53  83 114 146 184 231 282 339
#     4  10  22  36  54  80 115 148 181 228 284 338
#     4  11  21  36  56  79 107 144 181 222 280 337
#     4  11  21  35  57  81 106 140 181 226 278 334
#
# _framework density 19.756360999999998
#
# number of rings (size 3 to 8) (size 9 to 14) (size 15 to 20)
#    0.414    1.379    3.448    1.655    0.000    1.655 
#    0.000    0.000    0.000    6.621    0.000    1.931 
#    0.000    0.000    0.000    0.000    0.000    0.000 
#
# Total GULP energy -161469.416820 kJ/mol
# GULP energy per Si atom -5567.910925 kJ/mol
# Density = 1.971140 g / cm^3
# Si number density = 19.756361 Si / 1000 Ang^3
#
#
#
# Elastic Constant Matrix: (Units=GPa)
#
#
# Indices 1 2 3 4 5 6 
#
# 1 50.1738 1.6015 -14.4800 0.0000 0.0000 0.0000
# 2 1.6015 63.9594 -3.4664 0.0000 0.0000 0.0000
# 3 -14.4800 -3.4664 61.7541 0.0000 0.0000 0.0000
# 4 0.0000 0.0000 0.0000 18.2736 0.0000 0.0000
# 5 0.0000 0.0000 0.0000 0.0000 -11.7884 0.0000
# 6 0.0000 0.0000 0.0000 0.0000 0.0000 17.6889
#
#
#
# Elastic Compliance Matrix: (Units=1/GPa)
#
#
# Indices 1 2 3 4 5 6 
#
# 1 0.021382 -0.000264 0.004999 0.000000 0.000000 0.000000
# 2 -0.000264 0.015686 0.000818 0.000000 0.000000 0.000000
# 3 0.004999 0.000818 0.017411 0.000000 0.000000 0.000000
# 4 0.000000 0.000000 0.000000 0.054724 0.000000 0.000000
# 5 0.000000 0.000000 0.000000 0.000000 -0.084829 0.000000
# 6 0.000000 0.000000 0.000000 0.000000 0.000000 0.056532
#
#
# Mechanical properties :
#
#
# Convention : Reuss Voigt Hill
#
# Bulk Modulus (GPa) = 15.24752 15.91083 15.57918
# Shear Modulus (GPa) = 54.54812 17.65031 36.09922
#
# Velocity S-wave (km/s) = 5.26026 2.99222 4.27924
# Velocity P-wave (km/s) = 6.68044 4.47313 5.68494
#
# Compressibility (1/GPa) = 0.06558442
#
# Stress axis : x y z
#
# Youngs Moduli (GPa) = 46.76881 63.75152 57.43398
#
# Poissons Ratio (x) = 0.01686 -0.28710
# Poissons Ratio (y) = 0.01237 -0.04701
# Poissons Ratio (z) = -0.23378 -0.05218
#
# Static dielectric constant tensor:
#      x y z
#    x 1.689150 0.000000 0.000000 
#    y 0.000000 1.727520 0.000000 
#    z 0.000000 0.000000 1.685470 
# 
# From -- ./inp_files/15657.got.cif
#   From: 2010.05.17/outbox.cif.g08.bks.cpg/sg38_8_cif.got.tgz:15657.got - 2010.06.03 18:07:57.
