data_PCOD9359511
_publ_section_title
;
Structure prediction by ZEFSAII (Michael W. Deem and Ramdas Pophale) SiO2 
 PCOD9359511
Probable space group: A M M 2
;
_chemical_formula_sum "Si O2"
_cell_formula_units_Z 40
_cell_length_a 10.014414
_cell_length_b 7.391239
_cell_length_c 27.116274
_cell_angle_alpha 90.000000
_cell_angle_beta 90.000000
_cell_angle_gamma 90.000000
_cell_volume 2007.117514
_symmetry_space_group_name_H-M "A M M 2"
_symmetry_group_IT_number 38
_symmetry_cell_setting 'orthorhombic'
loop_
_space_group_symop_operation_xyz
x,y,z
-x,-y,z
-x,y,z
x,-y,z
x,1/2+y,1/2+z
-x,1/2-y,1/2+z
-x,1/2+y,1/2+z
x,1/2-y,1/2+z
loop_
_atom_site_type_symbol
_atom_site_label
_atom_site_fract_x
_atom_site_fract_y
_atom_site_fract_z
Si Si1 0.846398 0.220451 0.220380
Si Si2 0.348022 0.286142 0.916882
Si Si3 0.655556 0.279240 0.632873
Si Si4 0.153397 0.220848 0.331735
Si Si5 0.654159 0.216997 0.025054
O O1 0.746950 0.282886 0.177799
O O2 0.808662 0.275240 0.276029
O O3 0.000000 0.274645 0.211531
O O4 0.844614 0.000000 0.219817
O O5 0.500000 0.211761 0.916278
O O6 0.359223 0.500000 0.908327
O O7 0.253460 0.214054 0.873887
O O8 0.287899 0.265819 0.971895
O O9 0.500000 0.226139 0.637880
O O10 0.656678 0.500000 0.633599
O O11 0.706903 0.222812 0.578405
O O12 0.000000 0.275755 0.340545
O O13 0.154042 0.000000 0.332393
O O14 0.500000 0.280796 0.023502
O O15 0.652626 0.000000 0.026449
#
# Coordination Sequence:
#
# PCOD9359511 Si02
#       5
#     8   8   8   8   8
#     4   8  13  21  33  50  73  98 120 146 185 226
#     4   9  16  25  39  59  78  97 127 162 186 211
#     4   8  13  21  34  51  70  94 123 151 180 218
#     4   8  14  24  36  51  75 104 126 148 188 234
#     4   8  14  25  39  55  78 105 126 148 187 231
#
# _framework density 19.929078000000001
#
# number of rings (size 3 to 8) (size 9 to 14) (size 15 to 20)
#    0.000    3.800    0.000    2.400    0.000    0.800 
#    0.000    5.000    0.000    1.800    0.000    1.400 
#    0.000    8.000    0.000    0.000    0.000    0.000 
#
# Total GULP energy -111373.203028 kJ/mol
# GULP energy per Si atom -5568.660151 kJ/mol
# Density = 1.988372 g / cm^3
# Si number density = 19.929078 Si / 1000 Ang^3
#
#
#
# Elastic Constant Matrix: (Units=GPa)
#
#
# Indices 1 2 3 4 5 6 
#
# 1 79.6867 3.8411 116.5392 0.0000 0.0000 0.0000
# 2 3.8411 66.1112 4.7955 0.0000 0.0000 0.0000
# 3 116.5392 4.7955 244.1350 0.0000 0.0000 0.0000
# 4 0.0000 0.0000 0.0000 11.1649 0.0000 0.0000
# 5 0.0000 0.0000 0.0000 0.0000 -20.7856 0.0000
# 6 0.0000 0.0000 0.0000 0.0000 0.0000 -6.9857
#
#
#
# Elastic Compliance Matrix: (Units=1/GPa)
#
#
# Indices 1 2 3 4 5 6 
#
# 1 0.041633 -0.000979 -0.019854 0.000000 0.000000 0.000000
# 2 -0.000979 0.015171 0.000169 0.000000 0.000000 0.000000
# 3 -0.019854 0.000169 0.013570 0.000000 0.000000 0.000000
# 4 0.000000 0.000000 0.000000 0.089566 0.000000 0.000000
# 5 0.000000 0.000000 0.000000 0.000000 -0.048110 0.000000
# 6 0.000000 0.000000 0.000000 0.000000 0.000000 -0.143150
#
#
# Mechanical properties :
#
#
# Convention : Reuss Voigt Hill
#
# Bulk Modulus (GPa) = 34.42822 71.14273 52.78548
# Shear Modulus (GPa) = 253.94098 14.32919 134.13509
#
# Velocity S-wave (km/s) = 11.30040 2.68434 8.21294
# Velocity P-wave (km/s) = 13.69592 6.73669 10.79262
#
# Compressibility (1/GPa) = 0.02904594
#
# Stress axis : x y z
#
# Youngs Moduli (GPa) = 24.01948 65.91691 73.68969
#
# Poissons Ratio (x) = 0.06451 1.46307
# Poissons Ratio (y) = 0.02351 -0.01247
# Poissons Ratio (z) = 0.47689 -0.01115
#
# Static dielectric constant tensor:
#      x y z
#    x 1.667130 0.000000 0.000000 
#    y 0.000000 1.806890 0.000000 
#    z 0.000000 0.000000 1.721940 
# 
# From -- ./inp_files/13493.got.cif
#   From: 2010.05.17/outbox.cif.g08.bks.cpg/sg38_7_cif.got.tgz:13493.got - 2010.06.03 18:07:57.
