data_PCOD9359868
_publ_section_title
;
Structure prediction by ZEFSAII (Michael W. Deem and Ramdas Pophale) SiO2 
 PCOD9359868
Probable space group: A B M 2
;
_chemical_formula_sum "Si O2"
_cell_formula_units_Z 40
_cell_length_a 9.854578
_cell_length_b 8.602220
_cell_length_c 26.613241
_cell_angle_alpha 90.000000
_cell_angle_beta 90.000000
_cell_angle_gamma 90.000000
_cell_volume 2256.037652
_symmetry_space_group_name_H-M "A B M 2"
_symmetry_group_IT_number 39
_symmetry_cell_setting 'orthorhombic'
loop_
_space_group_symop_operation_xyz
x,y,z
-x,-y,z
-x,1/2+y,z
x,1/2-y,z
x,1/2+y,1/2+z
-x,1/2-y,1/2+z
-x,y,1/2+z
x,-y,1/2+z
loop_
_atom_site_type_symbol
_atom_site_label
_atom_site_fract_x
_atom_site_fract_y
_atom_site_fract_z
Si Si1 0.845650 0.564245 0.464440
Si Si2 0.348324 0.062839 0.655266
Si Si3 0.153326 0.564463 0.569536
Si Si4 0.349886 0.437058 0.769951
Si Si5 0.153139 0.937067 0.359495
O O1 0.846884 0.750000 0.464601
O O2 0.787784 0.500757 0.516782
O O3 0.787257 0.501158 0.412077
O O4 0.000000 0.500000 0.464284
O O5 0.347569 0.250000 0.651648
O O6 0.312517 0.017629 0.712829
O O7 0.500000 0.000000 0.645833
O O8 0.244504 0.992192 0.615540
O O9 0.147745 0.750000 0.567075
O O10 0.000000 0.500000 0.575096
O O11 0.500000 0.500000 0.780431
O O12 0.355012 0.250000 0.771057
O O13 0.243464 0.487272 0.812171
O O14 0.148429 0.750000 0.361994
O O15 0.000000 0.000000 0.354088
#
# Coordination Sequence:
#
# PCOD9359868 Si02
#       5
#     8   8   8   8   8
#     4  10  18  31  51  76 104 137 171 211 260 312
#     4  10  20  37  56  78 106 140 177 216 262 315
#     4  11  21  35  55  80 107 139 175 218 263 311
#     4   9  20  36  55  76 104 138 174 212 257 308
#     4  10  19  33  52  78 106 136 172 213 256 306
#
# _framework density 17.730201000000001
#
# number of rings (size 3 to 8) (size 9 to 14) (size 15 to 20)
#    0.000    2.000    0.000    7.200    0.000    3.200 
#    0.000    3.000    0.000    2.400    0.000    0.000 
#    0.000    0.000    0.000    0.000    0.000    0.000 
#
# Total GULP energy -111598.507216 kJ/mol
# GULP energy per Si atom -5579.925361 kJ/mol
# Density = 1.768985 g / cm^3
# Si number density = 17.730201 Si / 1000 Ang^3
#
#
#
# Elastic Constant Matrix: (Units=GPa)
#
#
# Indices 1 2 3 4 5 6 
#
# 1 68.7023 35.7358 94.9308 0.0000 0.0000 0.0000
# 2 35.7358 114.9478 64.7136 0.0000 0.0000 0.0000
# 3 94.9308 64.7136 191.7147 0.0000 0.0000 0.0000
# 4 0.0000 0.0000 0.0000 26.4049 0.0000 0.0000
# 5 0.0000 0.0000 0.0000 0.0000 -34.3540 0.0000
# 6 0.0000 0.0000 0.0000 0.0000 0.0000 26.5218
#
#
#
# Elastic Compliance Matrix: (Units=1/GPa)
#
#
# Indices 1 2 3 4 5 6 
#
# 1 0.046405 -0.001840 -0.022357 0.000000 0.000000 0.000000
# 2 -0.001840 0.010814 -0.002739 0.000000 0.000000 0.000000
# 3 -0.022357 -0.002739 0.017211 0.000000 0.000000 0.000000
# 4 0.000000 0.000000 0.000000 0.037872 0.000000 0.000000
# 5 0.000000 0.000000 0.000000 0.000000 -0.029109 0.000000
# 6 0.000000 0.000000 0.000000 0.000000 0.000000 0.037705
#
#
# Mechanical properties :
#
#
# Convention : Reuss Voigt Hill
#
# Bulk Modulus (GPa) = 48.64410 85.12502 66.88456
# Shear Modulus (GPa) = 27.52955 15.71353 21.62154
#
# Velocity S-wave (km/s) = 3.94470 2.98024 3.49589
# Velocity P-wave (km/s) = 6.94570 7.74325 7.35530
#
# Compressibility (1/GPa) = 0.02055748
#
# Stress axis : x y z
#
# Youngs Moduli (GPa) = 21.54929 92.47544 58.10169
#
# Poissons Ratio (x) = 0.17016 1.29899
# Poissons Ratio (y) = 0.03965 0.15914
# Poissons Ratio (z) = 0.48178 0.25329
#
# Static dielectric constant tensor:
#      x y z
#    x 1.589610 0.000000 0.000000 
#    y 0.000000 1.596100 0.000000 
#    z 0.000000 0.000000 1.643000 
# 
# From -- ./inp_files/14354.got.cif
#   From: 2010.05.17/outbox.cif.g08.bks.cpg/sg39_8_cif.got.tgz:14354.got - 2010.06.03 18:22:40.
