data_PCOD9359002
_publ_section_title
;
Structure prediction by ZEFSAII (Michael W. Deem and Ramdas Pophale) SiO2 
 PCOD9359002
Probable space group: A M M 2
;
_chemical_formula_sum "Si O2"
_cell_formula_units_Z 64
_cell_length_a 18.234538
_cell_length_b 14.612201
_cell_length_c 12.442900
_cell_angle_alpha 90.000000
_cell_angle_beta 90.000000
_cell_angle_gamma 90.000000
_cell_volume 3315.370071
_symmetry_space_group_name_H-M "A M M 2"
_symmetry_group_IT_number 38
_symmetry_cell_setting 'orthorhombic'
loop_
_space_group_symop_operation_xyz
x,y,z
-x,-y,z
-x,y,z
x,-y,z
x,1/2+y,1/2+z
-x,1/2-y,1/2+z
-x,1/2+y,1/2+z
x,1/2-y,1/2+z
loop_
_atom_site_type_symbol
_atom_site_label
_atom_site_fract_x
_atom_site_fract_y
_atom_site_fract_z
Si Si1 0.793698 0.601405 0.356030
Si Si2 0.413203 0.104128 0.634286
Si Si3 0.916575 0.865291 0.271538
Si Si4 0.163519 0.105980 0.498156
Si Si5 0.307588 0.751290 0.240287
Si Si6 0.082556 0.155649 0.707866
Si Si7 0.786674 0.896673 0.108771
Si Si8 0.673682 0.605568 0.920334
O O1 0.759483 0.500000 0.342980
O O2 0.748317 0.682382 0.300148
O O3 0.870540 0.600224 0.293797
O O4 0.801714 0.618994 0.482870
O O5 0.500000 0.115120 0.646569
O O6 0.368425 0.184573 0.691254
O O7 0.388526 0.108429 0.510159
O O8 0.393481 0.000000 0.670867
O O9 0.880642 0.885867 0.386942
O O10 0.920434 0.756776 0.256223
O O11 0.860809 0.897433 0.179386
O O12 0.000000 0.899633 0.264178
O O13 0.125219 0.159259 0.594591
O O14 0.247982 0.130321 0.475346
O O15 0.163012 0.000000 0.532823
O O16 0.264488 0.816387 0.156189
O O17 0.339142 0.822829 0.326443
O O18 0.000000 0.121522 0.690228
O O19 0.754351 0.000000 0.119225
O O20 0.681625 0.500000 0.882303
#
# Coordination Sequence:
#
# PCOD9359002 Si02
#       8
#     8   8   8   8   8   8   8   8
#     4  11  24  39  58  86 120 159 207 259 314 371
#     4  10  23  42  64  96 133 164 200 250 310 374
#     4  11  24  38  58  86 121 162 211 266 323 373
#     4  11  22  39  61  87 117 156 209 262 317 374
#     4  12  21  39  67  92 122 161 211 250 304 369
#     4  11  24  38  56  82 116 158 209 266 320 378
#     4  11  24  41  61  90 125 162 209 264 315 372
#     4  10  21  37  64  95 124 158 201 258 311 368
#
# _framework density 19.304027999999999
#
# number of rings (size 3 to 8) (size 9 to 14) (size 15 to 20)
#    0.000    1.125    2.500    3.375    3.500    4.500 
#    0.000    1.250    0.000    1.125    0.000    0.000 
#    0.000    0.000    0.000    0.000    0.000    0.000 
#
# Total GULP energy -178805.311587 kJ/mol
# GULP energy per Si atom -5587.665987 kJ/mol
# Density = 1.926009 g / cm^3
# Si number density = 19.304028 Si / 1000 Ang^3
#
#
#
# Elastic Constant Matrix: (Units=GPa)
#
#
# Indices 1 2 3 4 5 6 
#
# 1 88.3084 46.7260 50.4430 0.0000 0.0000 0.0000
# 2 46.7260 133.1102 56.8344 0.0000 0.0000 0.0000
# 3 50.4430 56.8344 118.9106 0.0000 0.0000 0.0000
# 4 0.0000 0.0000 0.0000 34.7954 0.0000 0.0000
# 5 0.0000 0.0000 0.0000 0.0000 21.5070 0.0000
# 6 0.0000 0.0000 0.0000 0.0000 0.0000 5.7105
#
#
#
# Elastic Compliance Matrix: (Units=1/GPa)
#
#
# Indices 1 2 3 4 5 6 
#
# 1 0.016108 -0.003439 -0.005190 0.000000 0.000000 0.000000
# 2 -0.003439 0.010173 -0.003404 0.000000 0.000000 0.000000
# 3 -0.005190 -0.003404 0.012238 0.000000 0.000000 0.000000
# 4 0.000000 0.000000 0.000000 0.028739 0.000000 0.000000
# 5 0.000000 0.000000 0.000000 0.000000 0.046497 0.000000
# 6 0.000000 0.000000 0.000000 0.000000 0.000000 0.175115
#
#
# Mechanical properties :
#
#
# Convention : Reuss Voigt Hill
#
# Bulk Modulus (GPa) = 69.17943 72.03734 70.60838
# Shear Modulus (GPa) = 15.73560 24.82431 20.27996
#
# Velocity S-wave (km/s) = 2.85817 3.58993 3.24474
# Velocity P-wave (km/s) = 6.84155 7.38794 7.11999
#
# Compressibility (1/GPa) = 0.01445516
#
# Stress axis : x y z
#
# Youngs Moduli (GPa) = 62.08205 98.30111 81.71341
#
# Poissons Ratio (x) = 0.33801 0.42406
# Poissons Ratio (y) = 0.21347 0.27811
# Poissons Ratio (z) = 0.32218 0.33457
#
# Static dielectric constant tensor:
#      x y z
#    x 1.661840 0.000000 0.000000 
#    y 0.000000 1.708290 0.000000 
#    z 0.000000 0.000000 1.649970 
# 
# From -- ./inp_files/10597.got.cif
#   From: 2010.05.17/outbox.cif.g08.bks.cpg/sg38_6_cif.got.tgz:10597.got - 2010.06.03 18:07:57.
