data_PCOD9359141
_publ_section_title
;
Structure prediction by ZEFSAII (Michael W. Deem and Ramdas Pophale) SiO2 
 PCOD9359141
Probable space group: A M M 2
;
_chemical_formula_sum "Si O2"
_cell_formula_units_Z 64
_cell_length_a 8.051001
_cell_length_b 31.754828
_cell_length_c 12.186207
_cell_angle_alpha 90.000000
_cell_angle_beta 90.000000
_cell_angle_gamma 90.000000
_cell_volume 3115.503161
_symmetry_space_group_name_H-M "A M M 2"
_symmetry_group_IT_number 38
_symmetry_cell_setting 'orthorhombic'
loop_
_space_group_symop_operation_xyz
x,y,z
-x,-y,z
-x,y,z
x,-y,z
x,1/2+y,1/2+z
-x,1/2-y,1/2+z
-x,1/2+y,1/2+z
x,1/2-y,1/2+z
loop_
_atom_site_type_symbol
_atom_site_label
_atom_site_fract_x
_atom_site_fract_y
_atom_site_fract_z
Si Si1 0.696233 0.454199 0.411650
Si Si2 0.809104 0.567203 0.172628
Si Si3 0.195628 0.795705 0.883520
Si Si4 0.311133 0.340712 0.167403
Si Si5 0.202745 0.046482 0.428745
Si Si6 0.302682 0.629309 0.533332
Si Si7 0.798836 0.798040 0.444995
Si Si8 0.201362 0.626248 0.784738
O O1 0.500000 0.455095 0.435939
O O2 0.767038 0.500000 0.443424
O O3 0.718306 0.448207 0.281432
O O4 0.763757 0.412975 0.473354
O O5 0.801525 0.617844 0.170859
O O6 0.742320 0.552287 0.054908
O O7 0.000000 0.553226 0.181469
O O8 0.284444 0.813648 0.776263
O O9 0.254489 0.749195 0.916182
O O10 0.000000 0.792870 0.858356
O O11 0.222133 0.829394 0.980104
O O12 0.500000 0.356110 0.163477
O O13 0.271149 0.313643 0.060474
O O14 0.257379 0.085120 0.352995
O O15 0.000000 0.048273 0.431196
O O16 0.251235 0.000000 0.389046
O O17 0.500000 0.632173 0.512237
O O18 0.269882 0.626606 0.662293
O O19 0.751044 0.832002 0.352450
O O20 0.000000 0.701583 0.952956
O O21 0.000000 0.625366 0.779026
#
# Coordination Sequence:
#
# PCOD9359141 Si02
#       8
#     8   8   8   8   8   8   8   8
#     4  10  22  40  60  85 122 164 202 250 310 367
#     4  11  20  36  62  91 124 160 202 249 300 359
#     4  11  24  42  66  91 120 160 207 252 299 360
#     4  12  24  39  63  94 128 160 197 248 309 365
#     4   9  18  34  59  90 120 151 194 250 301 347
#     4  11  24  41  60  87 123 161 202 251 306 364
#     4  10  23  43  65  90 119 160 206 249 300 358
#     4  10  21  40  62  86 119 159 203 250 300 359
#
# _framework density 20.542427
#
# number of rings (size 3 to 8) (size 9 to 14) (size 15 to 20)
#    0.000    1.500    2.500    2.625    1.750    3.250 
#    0.000    0.000    0.000    1.500    0.000    0.000 
#    0.000    0.000    0.000    0.000    0.000    0.000 
#
# Total GULP energy -178880.271550 kJ/mol
# GULP energy per Si atom -5590.008486 kJ/mol
# Density = 2.049567 g / cm^3
# Si number density = 20.542427 Si / 1000 Ang^3
#
#
#
# Elastic Constant Matrix: (Units=GPa)
#
#
# Indices 1 2 3 4 5 6 
#
# 1 25.1107 3.9790 -3.6518 0.0000 0.0000 0.0000
# 2 3.9790 175.6908 56.4593 0.0000 0.0000 0.0000
# 3 -3.6518 56.4593 114.3019 0.0000 0.0000 0.0000
# 4 0.0000 0.0000 0.0000 32.6064 0.0000 0.0000
# 5 0.0000 0.0000 0.0000 0.0000 30.1861 0.0000
# 6 0.0000 0.0000 0.0000 0.0000 0.0000 -3.9395
#
#
#
# Elastic Compliance Matrix: (Units=1/GPa)
#
#
# Indices 1 2 3 4 5 6 
#
# 1 0.040375 -0.001580 0.002070 0.000000 0.000000 0.000000
# 2 -0.001580 0.006828 -0.003423 0.000000 0.000000 0.000000
# 3 0.002070 -0.003423 0.010506 0.000000 0.000000 0.000000
# 4 0.000000 0.000000 0.000000 0.030669 0.000000 0.000000
# 5 0.000000 0.000000 0.000000 0.000000 0.033128 0.000000
# 6 0.000000 0.000000 0.000000 0.000000 0.000000 -0.253842
#
#
# Mechanical properties :
#
#
# Convention : Reuss Voigt Hill
#
# Bulk Modulus (GPa) = 19.28883 47.63071 33.45977
# Shear Modulus (GPa) = -45.79130 28.99174 -8.39978
#
# Velocity S-wave (km/s) = -4.72647 3.76082 -2.02432
# Velocity P-wave (km/s) = 4.51396 6.48808 3.29540
#
# Compressibility (1/GPa) = 0.05184349
#
# Stress axis : x y z
#
# Youngs Moduli (GPa) = 24.76776 146.46485 95.18674
#
# Poissons Ratio (x) = 0.23137 -0.19706
# Poissons Ratio (y) = 0.03912 0.32582
# Poissons Ratio (z) = -0.05127 0.50134
#
# Static dielectric constant tensor:
#      x y z
#    x 1.735870 0.000000 0.000000 
#    y 0.000000 1.733350 0.000000 
#    z 0.000000 0.000000 1.678410 
# 
# From -- ./inp_files/8575.got.cif
#   From: 2010.05.17/outbox.cif.g08.bks.cpg/sg38_5_cif.got.tgz:8575.got - 2010.06.03 18:07:57.
