data_PCOD9359652
_publ_section_title
;
Structure prediction by ZEFSAII (Michael W. Deem and Ramdas Pophale) SiO2 
 PCOD9359652
Probable space group: A M M 2
;
_chemical_formula_sum "Si O2"
_cell_formula_units_Z 32
_cell_length_a 15.000000
_cell_length_b 15.000000
_cell_length_c 18.000000
_cell_angle_alpha 90.000000
_cell_angle_beta 90.000000
_cell_angle_gamma 90.000000
_cell_volume 4050.000000
_symmetry_space_group_name_H-M "A M M 2"
_symmetry_group_IT_number 38
_symmetry_cell_setting 'orthorhombic'
loop_
_space_group_symop_operation_xyz
x,y,z
-x,-y,z
-x,y,z
x,-y,z
x,1/2+y,1/2+z
-x,1/2-y,1/2+z
-x,1/2+y,1/2+z
x,1/2-y,1/2+z
loop_
_atom_site_type_symbol
_atom_site_label
_atom_site_fract_x
_atom_site_fract_y
_atom_site_fract_z
Si Si1 0.393005 0.106049 0.996050
Si Si2 0.605500 0.895050 0.347766
Si Si3 0.248075 0.276093 0.767131
Si Si4 0.764394 0.391191 0.376535
Si Si5 0.106019 0.892927 0.355041
Si Si6 0.108916 0.265166 0.474019
Si Si7 0.605201 0.605761 0.024698
Si Si8 0.727875 0.241537 0.089579
O O1 0.500000 0.129926 0.988118
O O2 0.329353 0.118082 0.922851
O O3 0.390614 0.000000 0.013569
O O4 0.339242 0.164550 0.057216
O O5 0.500000 0.882913 0.333384
O O6 0.666140 0.827931 0.301072
O O7 0.619920 0.879424 0.436142
O O8 0.626623 0.000000 0.333208
O O9 0.240818 0.177592 0.806188
O O10 0.166097 0.340540 0.794065
O O11 0.255794 0.268174 0.677904
O O12 0.776755 0.500000 0.364090
O O13 0.845255 0.345777 0.425274
O O14 0.118395 0.828707 0.427915
O O15 0.000000 0.889895 0.337443
O O16 0.129091 0.000000 0.363615
O O17 0.176886 0.260439 0.544897
O O18 0.000000 0.277608 0.486172
O O19 0.500000 0.626104 0.039797
O O20 0.617885 0.500000 0.038751
O O21 0.673531 0.667979 0.069174
#
# Coordination Sequence:
#
# PCOD9359652 Si02
#       8
#     8   8   8   8   8   8   8   8
#     4   9  18  34  54  72  94 130 176 220 254 289
#     4   9  18  33  54  77  99 129 171 214 254 298
#     4  11  22  32  48  76 109 139 163 198 252 311
#     4   9  19  36  55  74  96 130 178 219 249 289
#     4   9  18  35  59  81  98 122 162 210 256 302
#     4   9  19  36  57  78  98 127 170 215 254 296
#     4   9  18  34  55  76  99 133 178 219 252 291
#     4  11  22  32  48  76 109 140 164 199 253 312
#
# _framework density 7.9012349999999998
#
# number of rings (size 3 to 8) (size 9 to 14) (size 15 to 20)
#    0.000    2.500    0.000    3.750    0.000    6.250 
#    0.000    1.250    0.000    1.500    0.000    1.750 
#    0.000    0.000    0.000    0.000    0.000    0.000 
#
# Total GULP energy -178187.882050 kJ/mol
# GULP energy per Si atom -5568.371314 kJ/mol
# Density = 0.788325 g / cm^3
# Si number density = 7.901235 Si / 1000 Ang^3
#
#
#
# Elastic Constant Matrix: (Units=GPa)
#
#
# Indices 1 2 3 4 5 6 
#
# 1 134.0440 56.5838 61.5045 0.0000 0.0000 0.0000
# 2 56.5838 131.5979 60.6780 0.0000 0.0000 0.0000
# 3 61.5045 60.6780 115.4667 0.0000 0.0000 0.0000
# 4 0.0000 0.0000 0.0000 22.0941 0.0000 0.0000
# 5 0.0000 0.0000 0.0000 0.0000 22.4111 0.0000
# 6 0.0000 0.0000 0.0000 0.0000 0.0000 37.4073
#
#
#
# Elastic Compliance Matrix: (Units=1/GPa)
#
#
# Indices 1 2 3 4 5 6 
#
# 1 0.010484 -0.002551 -0.004244 0.000000 0.000000 0.000000
# 2 -0.002551 0.010650 -0.004238 0.000000 0.000000 0.000000
# 3 -0.004244 -0.004238 0.013148 0.000000 0.000000 0.000000
# 4 0.000000 0.000000 0.000000 0.045261 0.000000 0.000000
# 5 0.000000 0.000000 0.000000 0.000000 0.044621 0.000000
# 6 0.000000 0.000000 0.000000 0.000000 0.000000 0.026733
#
#
# Mechanical properties :
#
#
# Convention : Reuss Voigt Hill
#
# Bulk Modulus (GPa) = 81.85530 82.07124 81.96327
# Shear Modulus (GPa) = 28.24312 29.87199 29.05756
#
# Velocity S-wave (km/s) = 4.23219 4.35252 4.29277
# Velocity P-wave (km/s) = 8.70594 8.79248 8.74932
#
# Compressibility (1/GPa) = 0.01221668
#
# Stress axis : x y z
#
# Youngs Moduli (GPa) = 95.37905 93.89910 76.05760
#
# Poissons Ratio (x) = 0.23956 0.32279
# Poissons Ratio (y) = 0.24333 0.32230
# Poissons Ratio (z) = 0.40479 0.39790
#
# Static dielectric constant tensor:
#      x y z
#    x 1.540380 0.000000 0.000000 
#    y 0.000000 1.542840 0.000000 
#    z 0.000000 0.000000 1.521350 
# 
# From -- ./inp_files/18508.got.cif
#   From: 2010.05.17/outbox.ucp.g08.bks.cvg/sg38_10_cif.got.tgz:18508.got - 2010.06.11 10:39:43.
