data_PCOD9359475
_publ_section_title
;
Structure prediction by ZEFSAII (Michael W. Deem and Ramdas Pophale) SiO2 
 PCOD9359475
Probable space group: A M M 2
;
_chemical_formula_sum "Si O2"
_cell_formula_units_Z 40
_cell_length_a 7.525993
_cell_length_b 26.552765
_cell_length_c 9.755456
_cell_angle_alpha 90.000000
_cell_angle_beta 90.000000
_cell_angle_gamma 90.000000
_cell_volume 1949.490559
_symmetry_space_group_name_H-M "A M M 2"
_symmetry_group_IT_number 38
_symmetry_cell_setting 'orthorhombic'
loop_
_space_group_symop_operation_xyz
x,y,z
-x,-y,z
-x,y,z
x,-y,z
x,1/2+y,1/2+z
-x,1/2-y,1/2+z
-x,1/2+y,1/2+z
x,1/2-y,1/2+z
loop_
_atom_site_type_symbol
_atom_site_label
_atom_site_fract_x
_atom_site_fract_y
_atom_site_fract_z
Si Si1 0.500000 0.286619 0.635211
Si Si2 0.213634 0.053113 0.004258
Si Si3 0.288393 0.058072 0.434756
Si Si4 0.500000 0.313947 0.308279
Si Si5 0.208832 0.103583 0.731895
Si Si6 0.795726 0.362773 0.701987
O O1 0.500000 0.293795 0.467706
O O2 0.500000 0.230632 0.696013
O O3 0.670249 0.314830 0.700914
O O4 0.245311 0.060675 0.844811
O O5 0.000000 0.052911 0.026072
O O6 0.284458 0.000000 0.055986
O O7 0.279551 0.101849 0.081253
O O8 0.500000 0.057280 0.413104
O O9 0.250496 0.079990 0.585059
O O10 0.211083 0.099134 0.330039
O O11 0.223651 0.000000 0.419567
O O12 0.669747 0.349348 0.274705
O O13 0.000000 0.116683 0.739856
O O14 0.000000 0.348407 0.676846
#
# Coordination Sequence:
#
# PCOD9359475 Si02
#       6
#     4   8   8   4   8   8
#     4  12  28  48  71  96 128 166 221 288 345 396
#     4   9  18  35  63  96 128 167 210 253 311 384
#     4  11  23  39  65 103 145 185 221 260 319 391
#     4  12  28  48  71  96 128 166 221 288 345 396
#     4  11  23  43  68  96 134 174 218 269 326 393
#     4  11  23  43  68  96 134 174 218 269 326 393
#
# _framework density 20.518180000000001
#
# number of rings (size 3 to 8) (size 9 to 14) (size 15 to 20)
#    0.000    1.200    4.000    1.800    2.800    4.000 
#    0.000    1.000    0.000    0.000    0.000    0.000 
#    0.000    0.000    0.000    0.000    0.000    0.000 
#
# Total GULP energy -111683.204231 kJ/mol
# GULP energy per Si atom -5584.160212 kJ/mol
# Density = 2.047148 g / cm^3
# Si number density = 20.518180 Si / 1000 Ang^3
#
#
#
# Elastic Constant Matrix: (Units=GPa)
#
#
# Indices 1 2 3 4 5 6 
#
# 1 112.1007 39.6418 -2.2941 0.0000 0.0000 0.0000
# 2 39.6418 110.3912 4.0641 0.0000 0.0000 0.0000
# 3 -2.2941 4.0641 82.1093 0.0000 0.0000 0.0000
# 4 0.0000 0.0000 0.0000 -4.0108 0.0000 0.0000
# 5 0.0000 0.0000 0.0000 0.0000 6.7680 0.0000
# 6 0.0000 0.0000 0.0000 0.0000 0.0000 994.3408
#
#
#
# Elastic Compliance Matrix: (Units=1/GPa)
#
#
# Indices 1 2 3 4 5 6 
#
# 1 0.010236 -0.003693 0.000469 0.000000 0.000000 0.000000
# 2 -0.003693 0.010408 -0.000618 0.000000 0.000000 0.000000
# 3 0.000469 -0.000618 0.012223 0.000000 0.000000 0.000000
# 4 0.000000 0.000000 0.000000 -0.249326 0.000000 0.000000
# 5 0.000000 0.000000 0.000000 0.000000 0.147755 0.000000
# 6 0.000000 0.000000 0.000000 0.000000 0.000000 0.001006
#
#
# Mechanical properties :
#
#
# Convention : Reuss Voigt Hill
#
# Bulk Modulus (GPa) = 39.71228 43.04720 41.37974
# Shear Modulus (GPa) = -96.86206 216.96554 60.05174
#
# Velocity S-wave (km/s) = -6.87826 10.29430 5.41582
# Velocity P-wave (km/s) = 6.60938 12.74058 7.70190
#
# Compressibility (1/GPa) = 0.02518113
#
# Stress axis : x y z
#
# Youngs Moduli (GPa) = 97.69328 96.08313 81.81575
#
# Poissons Ratio (x) = 0.35484 -0.03835
# Poissons Ratio (y) = 0.36079 0.05059
# Poissons Ratio (z) = -0.04580 0.05941
#
# Static dielectric constant tensor:
#      x y z
#    x 1.742460 0.000000 0.000000 
#    y 0.000000 1.721460 0.000000 
#    z 0.000000 0.000000 1.762350 
# 
# From -- ./inp_files/3534.got.cif
#   From: 2010.05.17/outbox.cif.g08.bks.cpg/sg38_2_cif.got.tgz:3534.got - 2010.06.03 18:07:57.
