data_PCOD9359910
_publ_section_title
;
Structure prediction by ZEFSAII (Michael W. Deem and Ramdas Pophale) SiO2 
 PCOD9359910
Probable space group: A B M 2
;
_chemical_formula_sum "Si O2"
_cell_formula_units_Z 48
_cell_length_a 9.366585
_cell_length_b 8.615472
_cell_length_c 32.488713
_cell_angle_alpha 90.000000
_cell_angle_beta 90.000000
_cell_angle_gamma 90.000000
_cell_volume 2621.759568
_symmetry_space_group_name_H-M "A B M 2"
_symmetry_group_IT_number 39
_symmetry_cell_setting 'orthorhombic'
loop_
_space_group_symop_operation_xyz
x,y,z
-x,-y,z
-x,1/2+y,z
x,1/2-y,z
x,1/2+y,1/2+z
-x,1/2-y,1/2+z
-x,y,1/2+z
x,-y,1/2+z
loop_
_atom_site_type_symbol
_atom_site_label
_atom_site_fract_x
_atom_site_fract_y
_atom_site_fract_z
Si Si1 0.162538 0.435525 0.958580
Si Si2 0.838598 0.064427 0.044345
Si Si3 0.160830 0.435059 0.373104
Si Si4 0.338170 0.435894 0.706021
Si Si5 0.338269 0.564633 0.620812
Si Si6 0.661397 0.936431 0.797158
O O1 0.160589 0.250000 0.959196
O O2 0.225231 0.496603 0.915623
O O3 0.000000 0.500000 0.958265
O O4 0.224570 0.500578 0.001183
O O5 0.842538 0.250000 0.043069
O O6 0.749659 0.004571 0.083036
O O7 0.000000 0.000000 0.047804
O O8 0.155791 0.250000 0.376114
O O9 0.248714 0.489118 0.333626
O O10 0.000000 0.500000 0.369237
O O11 0.500000 0.500000 0.707458
O O12 0.341286 0.250000 0.701261
O O13 0.274450 0.510739 0.664908
O O14 0.278023 0.473104 0.751328
O O15 0.500000 0.500000 0.618705
O O16 0.341139 0.750000 0.618972
O O17 0.659141 0.750000 0.801246
O O18 0.500000 0.000000 0.799151
#
# Coordination Sequence:
#
# PCOD9359910 Si02
#       6
#     8   8   8   8   8   8
#     4  10  18  32  53  77 104 137 176 214 256 310
#     4  11  21  36  56  80 108 139 176 217 262 311
#     4  11  21  35  55  79 107 140 177 218 263 310
#     4   9  17  31  52  76 103 137 176 215 257 310
#     4  11  21  35  55  80 108 140 177 217 262 311
#     4  10  20  35  55  80 108 139 176 217 262 312
#
# _framework density 18.308316000000001
#
# number of rings (size 3 to 8) (size 9 to 14) (size 15 to 20)
#    0.000    1.667    0.000   10.000    0.000    2.000 
#    0.000    1.667    0.000    4.000    0.000    0.000 
#    0.000    0.000    0.000    0.000    0.000    0.000 
#
# Total GULP energy -133940.569838 kJ/mol
# GULP energy per Si atom -5580.857077 kJ/mol
# Density = 1.826665 g / cm^3
# Si number density = 18.308316 Si / 1000 Ang^3
#
#
#
# Elastic Constant Matrix: (Units=GPa)
#
#
# Indices 1 2 3 4 5 6 
#
# 1 34.6411 28.5703 53.6540 0.0000 0.0000 0.0000
# 2 28.5703 190.0153 95.9865 0.0000 0.0000 0.0000
# 3 53.6540 95.9865 223.1042 0.0000 0.0000 0.0000
# 4 0.0000 0.0000 0.0000 36.1605 0.0000 0.0000
# 5 0.0000 0.0000 0.0000 0.0000 34.7822 0.0000
# 6 0.0000 0.0000 0.0000 0.0000 0.0000 24.7780
#
#
#
# Elastic Compliance Matrix: (Units=1/GPa)
#
#
# Indices 1 2 3 4 5 6 
#
# 1 0.046435 -0.001713 -0.010430 0.000000 0.000000 0.000000
# 2 -0.001713 0.006787 -0.002508 0.000000 0.000000 0.000000
# 3 -0.010430 -0.002508 0.008070 0.000000 0.000000 0.000000
# 4 0.000000 0.000000 0.000000 0.027654 0.000000 0.000000
# 5 0.000000 0.000000 0.000000 0.000000 0.028750 0.000000
# 6 0.000000 0.000000 0.000000 0.000000 0.000000 0.040358
#
#
# Mechanical properties :
#
#
# Convention : Reuss Voigt Hill
#
# Bulk Modulus (GPa) = 31.26043 89.35357 60.30700
# Shear Modulus (GPa) = 25.24988 37.11415 31.18202
#
# Velocity S-wave (km/s) = 3.71772 4.50730 4.13141
# Velocity P-wave (km/s) = 5.96155 8.71771 7.46788
#
# Compressibility (1/GPa) = 0.03198933
#
# Stress axis : x y z
#
# Youngs Moduli (GPa) = 21.53546 147.33410 123.92192
#
# Poissons Ratio (x) = 0.25240 1.29251
# Poissons Ratio (y) = 0.03689 0.31081
# Poissons Ratio (z) = 0.22462 0.36953
#
# Static dielectric constant tensor:
#      x y z
#    x 1.616890 0.000000 0.000000 
#    y 0.000000 1.607630 0.000000 
#    z 0.000000 0.000000 1.689680 
# 
# From -- ./inp_files/16901.got.cif
#   From: 2010.05.17/outbox.cif.g08.bks.cpg/sg39_9_cif.got.tgz:16901.got - 2010.06.03 18:22:40.
