data_PCOD9359394
_publ_section_title
;
Structure prediction by ZEFSAII (Michael W. Deem and Ramdas Pophale) SiO2 
 PCOD9359394
Probable space group: A M M 2
;
_chemical_formula_sum "Si O2"
_cell_formula_units_Z 48
_cell_length_a 7.763325
_cell_length_b 24.725343
_cell_length_c 14.218380
_cell_angle_alpha 90.000000
_cell_angle_beta 90.000000
_cell_angle_gamma 90.000000
_cell_volume 2729.230460
_symmetry_space_group_name_H-M "A M M 2"
_symmetry_group_IT_number 38
_symmetry_cell_setting 'orthorhombic'
loop_
_space_group_symop_operation_xyz
x,y,z
-x,-y,z
-x,y,z
x,-y,z
x,1/2+y,1/2+z
-x,1/2-y,1/2+z
-x,1/2+y,1/2+z
x,1/2-y,1/2+z
loop_
_atom_site_type_symbol
_atom_site_label
_atom_site_fract_x
_atom_site_fract_y
_atom_site_fract_z
Si Si1 0.791800 0.229169 0.706240
Si Si2 0.301081 0.263785 0.991009
Si Si3 0.210688 0.438464 0.497702
Si Si4 0.210395 0.439043 0.713966
Si Si5 0.791849 0.334263 0.820290
Si Si6 0.800320 0.839220 0.877388
O O1 0.740922 0.223766 0.598547
O O2 0.735518 0.287072 0.748209
O O3 0.726213 0.183808 0.779556
O O4 0.000000 0.228571 0.710690
O O5 0.500000 0.249560 0.982790
O O6 0.263281 0.314162 0.922737
O O7 0.203468 0.211545 0.949370
O O8 0.261576 0.500000 0.473799
O O9 0.261760 0.427503 0.605935
O O10 0.275100 0.391958 0.427851
O O11 0.000000 0.437104 0.497272
O O12 0.265472 0.500000 0.737931
O O13 0.269868 0.392093 0.783572
O O14 0.000000 0.438837 0.714940
O O15 0.000000 0.334986 0.819565
O O16 0.000000 0.852232 0.858250
#
# Coordination Sequence:
#
# PCOD9359394 Si02
#       6
#     8   8   8   8   8   8
#     4   9  17  29  45  64  87 118 151 181 217 261
#     4  11  21  30  43  64  90 119 150 185 222 259
#     4   8  13  23  43  71  96 113 135 173 219 264
#     4   8  13  22  41  70  96 114 136 172 218 263
#     4   9  17  30  48  67  89 117 147 180 218 262
#     4   9  17  30  48  68  90 117 147 179 218 263
#
# _framework density 17.587374000000001
#
# number of rings (size 3 to 8) (size 9 to 14) (size 15 to 20)
#    0.000    3.000    0.000    4.500    0.000    5.333 
#    0.000    0.000    0.000    2.000    0.000    7.000 
#    0.000    0.000    0.000    0.000    0.000    0.000 
#
# Total GULP energy -133747.934525 kJ/mol
# GULP energy per Si atom -5572.830605 kJ/mol
# Density = 1.754734 g / cm^3
# Si number density = 17.587374 Si / 1000 Ang^3
#
#
#
# Elastic Constant Matrix: (Units=GPa)
#
#
# Indices 1 2 3 4 5 6 
#
# 1 24.1638 -0.0246 -0.1956 0.0000 0.0000 0.0000
# 2 -0.0246 112.3994 84.4625 0.0000 0.0000 0.0000
# 3 -0.1956 84.4625 152.5356 0.0000 0.0000 0.0000
# 4 0.0000 0.0000 0.0000 25.3504 0.0000 0.0000
# 5 0.0000 0.0000 0.0000 0.0000 -81.8805 0.0000
# 6 0.0000 0.0000 0.0000 0.0000 0.0000 -8.4393
#
#
#
# Elastic Compliance Matrix: (Units=1/GPa)
#
#
# Indices 1 2 3 4 5 6 
#
# 1 0.041385 -0.000053 0.000082 0.000000 0.000000 0.000000
# 2 -0.000053 0.015237 -0.008437 0.000000 0.000000 0.000000
# 3 0.000082 -0.008437 0.011228 0.000000 0.000000 0.000000
# 4 0.000000 0.000000 0.000000 0.039447 0.000000 0.000000
# 5 0.000000 0.000000 0.000000 0.000000 -0.012213 0.000000
# 6 0.000000 0.000000 0.000000 0.000000 0.000000 -0.118493
#
#
# Mechanical properties :
#
#
# Convention : Reuss Voigt Hill
#
# Bulk Modulus (GPa) = 19.59463 50.84259 35.21861
# Shear Modulus (GPa) = 479.95201 0.66320 240.30760
#
# Velocity S-wave (km/s) = 16.53748 0.61474 11.70184
# Velocity P-wave (km/s) = 19.38599 5.42911 14.23537
#
# Compressibility (1/GPa) = 0.05103439
#
# Stress axis : x y z
#
# Youngs Moduli (GPa) = 24.16342 65.63028 89.06499
#
# Poissons Ratio (x) = 0.00346 -0.00733
# Poissons Ratio (y) = 0.00128 0.75145
# Poissons Ratio (z) = -0.00199 0.55373
#
# Static dielectric constant tensor:
#      x y z
#    x 1.636070 0.000000 0.000000 
#    y 0.000000 1.602670 0.000000 
#    z 0.000000 0.000000 1.585640 
# 
# From -- ./inp_files/8224.got.cif
#   From: 2010.05.17/outbox.cif.g08.bks.cpg/sg38_5_cif.got.tgz:8224.got - 2010.06.03 18:07:57.
