data_PCOD9359804
_publ_section_title
;
Structure prediction by ZEFSAII (Michael W. Deem and Ramdas Pophale) SiO2 
 PCOD9359804
Probable space group: A B M 2
;
_chemical_formula_sum "Si O2"
_cell_formula_units_Z 48
_cell_length_a 9.539571
_cell_length_b 19.158771
_cell_length_c 15.119986
_cell_angle_alpha 90.000000
_cell_angle_beta 90.000000
_cell_angle_gamma 90.000000
_cell_volume 2763.426259
_symmetry_space_group_name_H-M "A B M 2"
_symmetry_group_IT_number 39
_symmetry_cell_setting 'orthorhombic'
loop_
_space_group_symop_operation_xyz
x,y,z
-x,-y,z
-x,1/2+y,z
x,1/2-y,z
x,1/2+y,1/2+z
-x,1/2-y,1/2+z
-x,y,1/2+z
x,-y,1/2+z
loop_
_atom_site_type_symbol
_atom_site_label
_atom_site_fract_x
_atom_site_fract_y
_atom_site_fract_z
Si Si1 0.644705 0.032992 0.515430
Si Si2 0.780112 0.009302 0.183651
Si Si3 0.813131 0.169050 0.490259
Si Si4 0.036845 0.828010 0.842346
Si Si5 0.997053 0.382215 0.651319
Si Si6 0.159663 0.972492 0.872150
O O1 0.657678 0.012055 0.618045
O O2 0.685389 0.114602 0.503214
O O3 0.500000 0.000000 0.481221
O O4 0.770833 0.995837 0.462580
O O5 0.758064 0.006001 0.288883
O O6 0.893071 0.947239 0.169455
O O7 0.851018 0.081352 0.151518
O O8 0.770955 0.250000 0.497627
O O9 0.893800 0.158372 0.397205
O O10 0.933479 0.152734 0.563985
O O11 0.083771 0.750000 0.865482
O O12 0.010630 0.834175 0.737705
O O13 0.145678 0.889134 0.865593
O O14 0.000000 0.000000 0.865945
#
# Coordination Sequence:
#
# PCOD9359804 Si02
#       6
#     8   8   8   8   8   8
#     4  11  23  35  52  78 106 145 180 211 255 316
#     4   9  17  30  52  77 104 132 173 217 255 297
#     4  10  19  31  50  74 105 137 169 211 262 312
#     4  10  18  29  50  83 108 128 165 218 273 309
#     4   9  15  28  49  77 102 130 163 213 262 302
#     4  11  18  34  57  80 104 135 175 224 262 300
#
# _framework density 17.369743
#
# number of rings (size 3 to 8) (size 9 to 14) (size 15 to 20)
#    0.000    2.000    5.000    1.500    2.333    0.667 
#    0.000    0.833    0.000    2.000    0.000    7.000 
#    0.000    0.000    0.000    0.000    0.000    0.000 
#
# Total GULP energy -133626.455549 kJ/mol
# GULP energy per Si atom -5567.768981 kJ/mol
# Density = 1.733021 g / cm^3
# Si number density = 17.369743 Si / 1000 Ang^3
#
#
#
# Elastic Constant Matrix: (Units=GPa)
#
#
# Indices 1 2 3 4 5 6 
#
# 1 37.5013 29.1455 23.0970 0.0000 0.0000 0.0000
# 2 29.1455 120.1132 19.3690 0.0000 0.0000 0.0000
# 3 23.0970 19.3690 79.1235 0.0000 0.0000 0.0000
# 4 0.0000 0.0000 0.0000 22.2252 0.0000 0.0000
# 5 0.0000 0.0000 0.0000 0.0000 13.1922 0.0000
# 6 0.0000 0.0000 0.0000 0.0000 0.0000 14.0060
#
#
#
# Elastic Compliance Matrix: (Units=1/GPa)
#
#
# Indices 1 2 3 4 5 6 
#
# 1 0.038497 -0.007839 -0.009319 0.000000 0.000000 0.000000
# 2 -0.007839 0.010264 -0.000224 0.000000 0.000000 0.000000
# 3 -0.009319 -0.000224 0.015414 0.000000 0.000000 0.000000
# 4 0.000000 0.000000 0.000000 0.044994 0.000000 0.000000
# 5 0.000000 0.000000 0.000000 0.000000 0.075802 0.000000
# 6 0.000000 0.000000 0.000000 0.000000 0.000000 0.071398
#
#
# Mechanical properties :
#
#
# Convention : Reuss Voigt Hill
#
# Bulk Modulus (GPa) = 34.00096 42.21788 38.10942
# Shear Modulus (GPa) = 16.61482 20.89312 18.75397
#
# Velocity S-wave (km/s) = 3.09615 3.47197 3.28943
# Velocity P-wave (km/s) = 5.69200 6.35853 6.03447
#
# Compressibility (1/GPa) = 0.02941094
#
# Stress axis : x y z
#
# Youngs Moduli (GPa) = 25.97582 97.43079 64.87743
#
# Poissons Ratio (x) = 0.76373 0.60459
# Poissons Ratio (y) = 0.20362 0.01455
# Poissons Ratio (z) = 0.24207 0.02185
#
# Static dielectric constant tensor:
#      x y z
#    x 1.587980 0.000000 0.000000 
#    y 0.000000 1.615790 0.000000 
#    z 0.000000 0.000000 1.636440 
# 
# From -- ./inp_files/8465.got.cif
#   From: 2010.05.17/outbox.cif.g08.bks.cpg/sg39_5_cif.got.tgz:8465.got - 2010.06.03 18:22:40.
