data_PCOD9359409
_publ_section_title
;
Structure prediction by ZEFSAII (Michael W. Deem and Ramdas Pophale) SiO2 
 PCOD9359409
Probable space group: A M M 2
;
_chemical_formula_sum "Si O2"
_cell_formula_units_Z 40
_cell_length_a 12.235117
_cell_length_b 7.818234
_cell_length_c 24.221261
_cell_angle_alpha 90.000000
_cell_angle_beta 90.000000
_cell_angle_gamma 90.000000
_cell_volume 2316.933351
_symmetry_space_group_name_H-M "A M M 2"
_symmetry_group_IT_number 38
_symmetry_cell_setting 'orthorhombic'
loop_
_space_group_symop_operation_xyz
x,y,z
-x,-y,z
-x,y,z
x,-y,z
x,1/2+y,1/2+z
-x,1/2-y,1/2+z
-x,1/2+y,1/2+z
x,1/2-y,1/2+z
loop_
_atom_site_type_symbol
_atom_site_label
_atom_site_fract_x
_atom_site_fract_y
_atom_site_fract_z
Si Si1 0.255763 0.308393 0.510740
Si Si2 0.500000 0.196430 0.512147
Si Si3 0.264337 0.707811 0.137462
Si Si4 0.500000 0.695395 0.146036
Si Si5 0.867219 0.000000 0.323415
Si Si6 0.131774 0.500000 0.951939
Si Si7 0.868666 0.195842 0.744485
O O1 0.222992 0.500000 0.495664
O O2 0.384663 0.281053 0.496919
O O3 0.244358 0.283074 0.576985
O O4 0.183911 0.165349 0.481080
O O5 0.500000 0.500000 0.166899
O O6 0.500000 0.192227 0.579111
O O7 0.271083 0.500000 0.130204
O O8 0.382352 0.771013 0.159790
O O9 0.175610 0.743949 0.183992
O O10 0.500000 0.500000 0.992933
O O11 0.836792 0.000000 0.387383
O O12 0.831100 0.831545 0.290080
O O13 0.000000 0.000000 0.322247
O O14 0.000000 0.500000 0.956873
O O15 0.000000 0.197917 0.743445
O O16 0.833342 0.000000 0.755925
#
# Coordination Sequence:
#
# PCOD9359409 Si02
#       7
#     8   4   8   4   4   4   8
#     4  11  21  34  56  86 113 147 186 226 282 336
#     4   9  15  33  57  78 110 145 184 228 267 334
#     4   9  16  30  50  77 112 141 168 215 272 328
#     4   7  12  23  45  71 101 143 171 193 251 321
#     4   9  20  38  57  73  97 141 193 228 261 318
#     4  11  24  41  55  75 113 154 190 236 285 330
#     4   9  18  32  53  78 100 131 175 224 271 318
#
# _framework density 17.264199999999999
#
# number of rings (size 3 to 8) (size 9 to 14) (size 15 to 20)
#    0.000    2.600    2.000    1.500    1.400    2.000 
#    0.000    2.000    0.000    2.400    0.000    2.800 
#    0.000    0.000    0.000    0.000    0.000    0.000 
#
# Total GULP energy -111414.025151 kJ/mol
# GULP energy per Si atom -5570.701258 kJ/mol
# Density = 1.722491 g / cm^3
# Si number density = 17.264200 Si / 1000 Ang^3
#
#
#
# Elastic Constant Matrix: (Units=GPa)
#
#
# Indices 1 2 3 4 5 6 
#
# 1 57.6865 42.6874 36.6681 0.0000 0.0000 0.0000
# 2 42.6874 122.1319 58.3381 0.0000 0.0000 0.0000
# 3 36.6681 58.3381 91.0624 0.0000 0.0000 0.0000
# 4 0.0000 0.0000 0.0000 9.3217 0.0000 0.0000
# 5 0.0000 0.0000 0.0000 0.0000 -7.0304 0.0000
# 6 0.0000 0.0000 0.0000 0.0000 0.0000 5.4997
#
#
#
# Elastic Compliance Matrix: (Units=1/GPa)
#
#
# Indices 1 2 3 4 5 6 
#
# 1 0.025924 -0.005871 -0.006677 0.000000 0.000000 0.000000
# 2 -0.005871 0.013128 -0.006046 0.000000 0.000000 0.000000
# 3 -0.006677 -0.006046 0.017544 0.000000 0.000000 0.000000
# 4 0.000000 0.000000 0.000000 0.107276 0.000000 0.000000
# 5 0.000000 0.000000 0.000000 0.000000 -0.142239 0.000000
# 6 0.000000 0.000000 0.000000 0.000000 0.000000 0.181827
#
#
# Mechanical properties :
#
#
# Convention : Reuss Voigt Hill
#
# Bulk Modulus (GPa) = 51.53030 60.69642 56.11336
# Shear Modulus (GPa) = 20.23322 10.43736 15.33529
#
# Velocity S-wave (km/s) = 3.42713 2.46146 2.98362
# Velocity P-wave (km/s) = 6.75079 6.58119 6.66653
#
# Compressibility (1/GPa) = 0.01940606
#
# Stress axis : x y z
#
# Youngs Moduli (GPa) = 38.57368 76.17282 57.00065
#
# Poissons Ratio (x) = 0.44725 0.38062
# Poissons Ratio (y) = 0.22648 0.34463
# Poissons Ratio (z) = 0.25758 0.46055
#
# Static dielectric constant tensor:
#      x y z
#    x 1.609440 0.000000 0.000000 
#    y 0.000000 1.625260 0.000000 
#    z 0.000000 0.000000 1.548030 
# 
# From -- ./inp_files/20522.got.cif
#   From: 2010.05.17/outbox.cif.g08.bks.cpg/sg38_11_cif.got.tgz:20522.got - 2010.06.03 18:07:57.
