data_PCOD9359760
_publ_section_title
;
Structure prediction by ZEFSAII (Michael W. Deem and Ramdas Pophale) SiO2 
 PCOD9359760
Probable space group: A B M 2
;
_chemical_formula_sum "Si O2"
_cell_formula_units_Z 48
_cell_length_a 15.766018
_cell_length_b 16.170206
_cell_length_c 8.850282
_cell_angle_alpha 90.000000
_cell_angle_beta 90.000000
_cell_angle_gamma 90.000000
_cell_volume 2256.288759
_symmetry_space_group_name_H-M "A B M 2"
_symmetry_group_IT_number 39
_symmetry_cell_setting 'orthorhombic'
loop_
_space_group_symop_operation_xyz
x,y,z
-x,-y,z
-x,1/2+y,z
x,1/2-y,z
x,1/2+y,1/2+z
-x,1/2-y,1/2+z
-x,y,1/2+z
x,-y,1/2+z
loop_
_atom_site_type_symbol
_atom_site_label
_atom_site_fract_x
_atom_site_fract_y
_atom_site_fract_z
Si Si1 0.194800 0.416856 0.134720
Si Si2 0.374021 0.359384 0.740372
Si Si3 0.612882 0.945947 0.199509
Si Si4 0.075094 0.750000 0.128240
Si Si5 0.489307 0.130423 0.470458
Si Si6 0.818790 0.397115 0.276106
Si Si7 0.889927 0.750000 0.267358
O O1 0.296431 0.411498 0.151759
O O2 0.175453 0.510237 0.200258
O O3 0.156728 0.336710 0.221681
O O4 0.171494 0.410129 0.956964
O O5 0.379727 0.458673 0.736656
O O6 0.423835 0.332124 0.590632
O O7 0.433431 0.330045 0.876344
O O8 0.272898 0.351307 0.750533
O O9 0.573646 0.903607 0.344998
O O10 0.546498 0.930534 0.068728
O O11 0.115194 0.667207 0.203479
O O12 0.976433 0.750000 0.171059
O O13 0.092101 0.750000 0.947773
#
# Coordination Sequence:
#
# PCOD9359760 Si02
#       7
#     8   8   8   4   8   8   4
#     4  11  24  43  71 107 145 184 232 284 344 409
#     4  10  18  28  52  87 135 179 233 279 336 382
#     4  10  18  28  52  87 135 179 233 279 336 382
#     4  12  28  52  80 105 136 175 221 281 356 427
#     4  10  17  28  48  87 130 183 235 284 323 393
#     4  11  24  43  71 107 145 184 232 284 344 409
#     4  12  28  52  80 105 136 175 221 281 356 427
#
# _framework density 21.273873999999999
#
# number of rings (size 3 to 8) (size 9 to 14) (size 15 to 20)
#    0.000    1.333    1.667    6.500    9.333    0.667 
#    0.000    3.333    0.000    6.000    0.000    0.000 
#    0.000    0.000    0.000    0.000    0.000    0.000 
#
# Total GULP energy -133765.928566 kJ/mol
# GULP energy per Si atom -5573.580357 kJ/mol
# Density = 2.122545 g / cm^3
# Si number density = 21.273874 Si / 1000 Ang^3
#
#
#
# Elastic Constant Matrix: (Units=GPa)
#
#
# Indices 1 2 3 4 5 6 
#
# 1 82.8554 64.9250 40.5753 0.0000 0.0000 0.0000
# 2 64.9250 158.0978 64.4977 0.0000 0.0000 0.0000
# 3 40.5753 64.4977 173.5731 0.0000 0.0000 0.0000
# 4 0.0000 0.0000 0.0000 52.6089 0.0000 0.0000
# 5 0.0000 0.0000 0.0000 0.0000 17.1909 0.0000
# 6 0.0000 0.0000 0.0000 0.0000 0.0000 50.4724
#
#
#
# Elastic Compliance Matrix: (Units=1/GPa)
#
#
# Indices 1 2 3 4 5 6 
#
# 1 0.018233 -0.006776 -0.001744 0.000000 0.000000 0.000000
# 2 -0.006776 0.009974 -0.002122 0.000000 0.000000 0.000000
# 3 -0.001744 -0.002122 0.006958 0.000000 0.000000 0.000000
# 4 0.000000 0.000000 0.000000 0.019008 0.000000 0.000000
# 5 0.000000 0.000000 0.000000 0.000000 0.058170 0.000000
# 6 0.000000 0.000000 0.000000 0.000000 0.000000 0.019813
#
#
# Mechanical properties :
#
#
# Convention : Reuss Voigt Hill
#
# Bulk Modulus (GPa) = 72.04962 83.83581 77.94271
# Shear Modulus (GPa) = 31.63215 40.35633 35.99424
#
# Velocity S-wave (km/s) = 3.86022 4.36017 4.11779
# Velocity P-wave (km/s) = 7.33550 8.05242 7.70231
#
# Compressibility (1/GPa) = 0.01387932
#
# Stress axis : x y z
#
# Youngs Moduli (GPa) = 54.84526 100.26481 143.72843
#
# Poissons Ratio (x) = 0.67940 0.25072
# Poissons Ratio (y) = 0.37163 0.30500
# Poissons Ratio (z) = 0.09567 0.21277
#
# Static dielectric constant tensor:
#      x y z
#    x 1.770130 0.000000 0.000000 
#    y 0.000000 1.833160 0.000000 
#    z 0.000000 0.000000 1.774680 
# 
# From -- ./inp_files/3269.got.cif
#   From: 2010.05.17/outbox.cif.g08.bks.cpg/sg39_2_cif.got.tgz:3269.got - 2010.06.03 18:22:40.
