data_PCOD9359045
_publ_section_title
;
Structure prediction by ZEFSAII (Michael W. Deem and Ramdas Pophale) SiO2 
 PCOD9359045
Probable space group: A M M 2
;
_chemical_formula_sum "Si O2"
_cell_formula_units_Z 56
_cell_length_a 8.035793
_cell_length_b 19.368471
_cell_length_c 16.961528
_cell_angle_alpha 90.000000
_cell_angle_beta 90.000000
_cell_angle_gamma 90.000000
_cell_volume 2639.909581
_symmetry_space_group_name_H-M "A M M 2"
_symmetry_group_IT_number 38
_symmetry_cell_setting 'orthorhombic'
loop_
_space_group_symop_operation_xyz
x,y,z
-x,-y,z
-x,y,z
x,-y,z
x,1/2+y,1/2+z
-x,1/2-y,1/2+z
-x,1/2+y,1/2+z
x,1/2-y,1/2+z
loop_
_atom_site_type_symbol
_atom_site_label
_atom_site_fract_x
_atom_site_fract_y
_atom_site_fract_z
Si Si1 0.801502 0.291454 0.945620
Si Si2 0.803144 0.922486 0.354934
Si Si3 0.296695 0.078737 0.727064
Si Si4 0.298179 0.794196 0.625773
Si Si5 0.696614 0.852695 0.891001
Si Si6 0.194186 0.580156 0.552312
Si Si7 0.308382 0.342995 0.703346
O O1 0.736373 0.365694 0.916247
O O2 0.726275 0.229179 0.894722
O O3 0.000000 0.289029 0.935045
O O4 0.761796 0.281014 0.037428
O O5 0.781032 0.888151 0.269245
O O6 0.000000 0.928216 0.370039
O O7 0.731797 0.000000 0.358291
O O8 0.500000 0.078141 0.727061
O O9 0.244857 0.131565 0.658741
O O10 0.244668 0.111404 0.810718
O O11 0.240059 0.000000 0.718024
O O12 0.500000 0.791218 0.625034
O O13 0.240874 0.733500 0.684835
O O14 0.500000 0.865759 0.897917
O O15 0.781572 0.884990 0.967751
O O16 0.241226 0.500000 0.547453
O O17 0.296810 0.618326 0.619702
O O18 0.000000 0.584983 0.574730
O O19 0.500000 0.336816 0.728367
#
# Coordination Sequence:
#
# PCOD9359045 Si02
#       7
#     8   8   8   8   8   8   8
#     4  11  23  39  61  87 117 157 201 245 297 355
#     4  10  23  42  61  84 118 158 199 248 304 359
#     4   9  19  36  59  87 118 152 192 241 297 352
#     4  10  21  38  60  87 118 153 194 244 296 348
#     4  11  21  37  61  88 118 154 198 245 295 352
#     4  11  23  37  56  85 122 160 195 238 294 354
#     4  11  22  37  59  88 119 154 198 246 295 353
#
# _framework density 21.212848000000001
#
# number of rings (size 3 to 8) (size 9 to 14) (size 15 to 20)
#    0.000    1.571    1.429    3.429    0.000    7.143 
#    0.000    1.429    0.000    1.714    0.000    0.000 
#    0.000    0.000    0.000    0.000    0.000    0.000 
#
# Total GULP energy -156518.709178 kJ/mol
# GULP energy per Si atom -5589.953899 kJ/mol
# Density = 2.116457 g / cm^3
# Si number density = 21.212848 Si / 1000 Ang^3
#
#
#
# Elastic Constant Matrix: (Units=GPa)
#
#
# Indices 1 2 3 4 5 6 
#
# 1 18.4198 4.1205 -6.6213 0.0000 0.0000 0.0000
# 2 4.1205 161.7959 14.5454 0.0000 0.0000 0.0000
# 3 -6.6213 14.5454 29.1961 0.0000 0.0000 0.0000
# 4 0.0000 0.0000 0.0000 20.9558 0.0000 0.0000
# 5 0.0000 0.0000 0.0000 0.0000 16.7847 0.0000
# 6 0.0000 0.0000 0.0000 0.0000 0.0000 19.9209
#
#
#
# Elastic Compliance Matrix: (Units=1/GPa)
#
#
# Indices 1 2 3 4 5 6 
#
# 1 0.060379 -0.002899 0.015137 0.000000 0.000000 0.000000
# 2 -0.002899 0.006610 -0.003950 0.000000 0.000000 0.000000
# 3 0.015137 -0.003950 0.039652 0.000000 0.000000 0.000000
# 4 0.000000 0.000000 0.000000 0.047720 0.000000 0.000000
# 5 0.000000 0.000000 0.000000 0.000000 0.059578 0.000000
# 6 0.000000 0.000000 0.000000 0.000000 0.000000 0.050199
#
#
# Mechanical properties :
#
#
# Convention : Reuss Voigt Hill
#
# Bulk Modulus (GPa) = 8.11571 25.94456 17.03014
# Shear Modulus (GPa) = 17.32307 24.69008 21.00658
#
# Velocity S-wave (km/s) = 2.86078 3.41533 3.15028
# Velocity P-wave (km/s) = 3.84008 5.27350 4.61281
#
# Compressibility (1/GPa) = 0.12321780
#
# Stress axis : x y z
#
# Youngs Moduli (GPa) = 16.56200 151.29577 25.21939
#
# Poissons Ratio (x) = 0.43854 -0.38175
# Poissons Ratio (y) = 0.04801 0.09962
# Poissons Ratio (z) = -0.25070 0.59765
#
# Static dielectric constant tensor:
#      x y z
#    x 1.753100 0.000000 0.000000 
#    y 0.000000 1.786550 0.000000 
#    z 0.000000 0.000000 1.718120 
# 
# From -- ./inp_files/12395.got.cif
#   From: 2010.05.17/outbox.cif.g08.bks.cpg/sg38_7_cif.got.tgz:12395.got - 2010.06.03 18:07:57.
