data_PCOD9359223
_publ_section_title
;
Structure prediction by ZEFSAII (Michael W. Deem and Ramdas Pophale) SiO2 
 PCOD9359223
Probable space group: A M M 2
;
_chemical_formula_sum "Si O2"
_cell_formula_units_Z 56
_cell_length_a 14.784343
_cell_length_b 28.797370
_cell_length_c 5.535600
_cell_angle_alpha 90.000000
_cell_angle_beta 90.000000
_cell_angle_gamma 90.000000
_cell_volume 2356.782783
_symmetry_space_group_name_H-M "A M M 2"
_symmetry_group_IT_number 38
_symmetry_cell_setting 'orthorhombic'
loop_
_space_group_symop_operation_xyz
x,y,z
-x,-y,z
-x,y,z
x,-y,z
x,1/2+y,1/2+z
-x,1/2-y,1/2+z
-x,1/2+y,1/2+z
x,1/2-y,1/2+z
loop_
_atom_site_type_symbol
_atom_site_label
_atom_site_fract_x
_atom_site_fract_y
_atom_site_fract_z
Si Si1 0.390612 0.776205 0.820390
Si Si2 0.107516 0.726967 0.587491
Si Si3 0.258920 0.049845 0.978339
Si Si4 0.285302 0.134380 0.664813
Si Si5 0.897536 0.347752 0.940473
Si Si6 0.606167 0.554093 0.874415
Si Si7 0.096195 0.048544 0.346635
O O1 0.500000 0.778763 0.819217
O O2 0.364216 0.746242 0.580058
O O3 0.349538 0.827343 0.784425
O O4 0.141478 0.754949 0.827796
O O5 0.114863 0.673225 0.669694
O O6 0.000000 0.734040 0.570479
O O7 0.357213 0.053130 0.100912
O O8 0.184168 0.048077 0.185517
O O9 0.251896 0.000000 0.849822
O O10 0.243491 0.097316 0.846097
O O11 0.200458 0.161907 0.553086
O O12 0.341039 0.097576 0.495935
O O13 0.000000 0.331352 0.017898
O O14 0.902757 0.402727 0.974820
O O15 0.500000 0.562383 0.893497
O O16 0.622357 0.500000 0.958787
O O17 0.000000 0.048978 0.206713
O O18 0.096201 0.000000 0.489255
#
# Coordination Sequence:
#
# PCOD9359223 Si02
#       7
#     8   8   8   8   8   8   8
#     4  10  25  48  73 103 139 180 232 293 352 419
#     4   9  19  37  59  85 120 164 213 269 331 388
#     4  10  22  39  62  95 132 170 220 278 337 409
#     4  12  24  39  67  97 131 175 227 276 345 409
#     4  10  22  38  60  93 129 172 223 274 329 399
#     4  10  22  41  64  93 130 167 210 272 343 413
#     4   9  18  36  61  88 128 179 224 272 332 400
#
# _framework density 23.761206999999999
#
# number of rings (size 3 to 8) (size 9 to 14) (size 15 to 20)
#    0.000    2.000    1.429    0.857    2.000    4.571 
#    0.000    4.286    0.000    0.000    0.000    0.000 
#    0.000    0.000    0.000    0.000    0.000    0.000 
#
# Total GULP energy -155928.896716 kJ/mol
# GULP energy per Si atom -5568.889168 kJ/mol
# Density = 2.370713 g / cm^3
# Si number density = 23.761207 Si / 1000 Ang^3
#
#
#
# Elastic Constant Matrix: (Units=GPa)
#
#
# Indices 1 2 3 4 5 6 
#
# 1 103.5122 21.2536 35.4554 0.0000 0.0000 0.0000
# 2 21.2536 157.2707 30.6805 0.0000 0.0000 0.0000
# 3 35.4554 30.6805 69.0151 0.0000 0.0000 0.0000
# 4 0.0000 0.0000 0.0000 46.6576 0.0000 0.0000
# 5 0.0000 0.0000 0.0000 0.0000 3.9794 0.0000
# 6 0.0000 0.0000 0.0000 0.0000 0.0000 33.0016
#
#
#
# Elastic Compliance Matrix: (Units=1/GPa)
#
#
# Indices 1 2 3 4 5 6 
#
# 1 0.011753 -0.000449 -0.005838 0.000000 0.000000 0.000000
# 2 -0.000449 0.006979 -0.002872 0.000000 0.000000 0.000000
# 3 -0.005838 -0.002872 0.018765 0.000000 0.000000 0.000000
# 4 0.000000 0.000000 0.000000 0.021433 0.000000 0.000000
# 5 0.000000 0.000000 0.000000 0.000000 0.251297 0.000000
# 6 0.000000 0.000000 0.000000 0.000000 0.000000 0.030302
#
#
# Mechanical properties :
#
#
# Convention : Reuss Voigt Hill
#
# Bulk Modulus (GPa) = 52.13997 56.06408 54.10202
# Shear Modulus (GPa) = 13.68962 32.88827 23.28895
#
# Velocity S-wave (km/s) = 2.40288 3.72441 3.13409
# Velocity P-wave (km/s) = 5.44880 6.49161 5.99293
#
# Compressibility (1/GPa) = 0.01917914
#
# Stress axis : x y z
#
# Youngs Moduli (GPa) = 85.08758 143.27818 53.28957
#
# Poissons Ratio (x) = 0.06439 0.31110
# Poissons Ratio (y) = 0.03824 0.15304
# Poissons Ratio (z) = 0.49674 0.41147
#
# Static dielectric constant tensor:
#      x y z
#    x 1.902380 0.000000 0.000000 
#    y 0.000000 1.941660 0.000000 
#    z 0.000000 0.000000 1.983100 
# 
# From -- ./inp_files/1401.got.cif
#   From: 2010.05.17/outbox.cif.g08.bks.cpg/sg38_1_cif.got.tgz:1401.got - 2010.06.03 18:07:57.
