data_PCOD9359555
_publ_section_title
;
Structure prediction by ZEFSAII (Michael W. Deem and Ramdas Pophale) SiO2 
 PCOD9359555
Probable space group: A M M 2
;
_chemical_formula_sum "Si O2"
_cell_formula_units_Z 24
_cell_length_a 9.000000
_cell_length_b 21.000000
_cell_length_c 15.000000
_cell_angle_alpha 90.000000
_cell_angle_beta 90.000000
_cell_angle_gamma 90.000000
_cell_volume 2835.000000
_symmetry_space_group_name_H-M "A M M 2"
_symmetry_group_IT_number 38
_symmetry_cell_setting 'orthorhombic'
loop_
_space_group_symop_operation_xyz
x,y,z
-x,-y,z
-x,y,z
x,-y,z
x,1/2+y,1/2+z
-x,1/2-y,1/2+z
-x,1/2+y,1/2+z
x,1/2-y,1/2+z
loop_
_atom_site_type_symbol
_atom_site_label
_atom_site_fract_x
_atom_site_fract_y
_atom_site_fract_z
Si Si1 0.832314 0.076261 0.618960
Si Si2 0.669371 0.576069 0.942298
Si Si3 0.321514 0.335682 0.788057
Si Si4 0.179621 0.726715 0.625665
Si Si5 0.179968 0.275119 0.411506
Si Si6 0.322284 0.338492 0.248358
O O1 0.773702 0.099677 0.522506
O O2 0.725246 0.097341 0.698475
O O3 0.000000 0.100123 0.634339
O O4 0.836261 0.000000 0.614830
O O5 0.500000 0.597263 0.962106
O O6 0.672881 0.500000 0.944087
O O7 0.705079 0.599837 0.843193
O O8 0.500000 0.326007 0.777623
O O9 0.242181 0.328659 0.692056
O O10 0.254386 0.284688 0.859405
O O11 0.215375 0.722300 0.518677
O O12 0.255057 0.786533 0.677610
O O13 0.000000 0.730124 0.632544
O O14 0.245378 0.330089 0.345543
O O15 0.000000 0.272681 0.404152
O O16 0.500000 0.331341 0.255692
#
# Coordination Sequence:
#
# PCOD9359555 Si02
#       6
#     8   8   8   8   8   8
#     4  10  20  33  50  72  98 128 160 195 236 282
#     4   9  18  32  49  71  99 129 161 197 237 281
#     4  10  19  30  48  72  97 126 158 195 239 285
#     4  10  20  33  50  71  97 128 160 197 239 283
#     4  10  20  33  49  69  95 126 159 196 238 284
#     4  11  21  32  50  73  98 127 158 196 239 284
#
# _framework density 8.4656079999999996
#
# number of rings (size 3 to 8) (size 9 to 14) (size 15 to 20)
#    0.000    2.000    0.000    6.500    0.000    7.667 
#    0.000    0.000    0.000    1.000    0.000    4.667 
#    0.000    0.000    0.000    0.000    0.000    0.000 
#
# Total GULP energy -133653.503379 kJ/mol
# GULP energy per Si atom -5568.895974 kJ/mol
# Density = 0.844634 g / cm^3
# Si number density = 8.465608 Si / 1000 Ang^3
#
#
#
# Elastic Constant Matrix: (Units=GPa)
#
#
# Indices 1 2 3 4 5 6 
#
# 1 110.3613 14.5386 61.6425 0.0000 0.0000 0.0000
# 2 14.5386 17.7858 17.6724 0.0000 0.0000 0.0000
# 3 61.6425 17.6724 165.0096 0.0000 0.0000 0.0000
# 4 0.0000 0.0000 0.0000 32.6198 0.0000 0.0000
# 5 0.0000 0.0000 0.0000 0.0000 36.4190 0.0000
# 6 0.0000 0.0000 0.0000 0.0000 0.0000 19.8656
#
#
#
# Elastic Compliance Matrix: (Units=1/GPa)
#
#
# Indices 1 2 3 4 5 6 
#
# 1 0.011995 -0.005990 -0.003839 0.000000 0.000000 0.000000
# 2 -0.005990 0.065911 -0.004821 0.000000 0.000000 0.000000
# 3 -0.003839 -0.004821 0.008011 0.000000 0.000000 0.000000
# 4 0.000000 0.000000 0.000000 0.030656 0.000000 0.000000
# 5 0.000000 0.000000 0.000000 0.000000 0.027458 0.000000
# 6 0.000000 0.000000 0.000000 0.000000 0.000000 0.050338
#
#
# Mechanical properties :
#
#
# Convention : Reuss Voigt Hill
#
# Bulk Modulus (GPa) = 17.66295 53.42931 35.54613
# Shear Modulus (GPa) = 20.61488 31.06774 25.84131
#
# Velocity S-wave (km/s) = 3.49315 4.28827 3.91097
# Velocity P-wave (km/s) = 5.16955 7.49294 6.43694
#
# Compressibility (1/GPa) = 0.05661569
#
# Stress axis : x y z
#
# Youngs Moduli (GPa) = 83.37004 15.17186 124.83027
#
# Poissons Ratio (x) = 0.09088 0.47927
# Poissons Ratio (y) = 0.49938 0.60186
# Poissons Ratio (z) = 0.32009 0.07315
#
# Static dielectric constant tensor:
#      x y z
#    x 1.589490 0.000000 0.000000 
#    y 0.000000 1.668690 0.000000 
#    z 0.000000 0.000000 1.567780 
# 
# From -- ./inp_files/12245.got.cif
#   From: 2010.05.17/outbox.ucp.g08.bks.cvg/sg38_7_cif.got.tgz:12245.got - 2010.06.11 10:39:43.
