data_PCOD9359094
_publ_section_title
;
Structure prediction by ZEFSAII (Michael W. Deem and Ramdas Pophale) SiO2 
 PCOD9359094
Probable space group: A M M 2
;
_chemical_formula_sum "Si O2"
_cell_formula_units_Z 64
_cell_length_a 8.414871
_cell_length_b 15.962253
_cell_length_c 24.434888
_cell_angle_alpha 90.000000
_cell_angle_beta 90.000000
_cell_angle_gamma 90.000000
_cell_volume 3282.101483
_symmetry_space_group_name_H-M "A M M 2"
_symmetry_group_IT_number 38
_symmetry_cell_setting 'orthorhombic'
loop_
_space_group_symop_operation_xyz
x,y,z
-x,-y,z
-x,y,z
x,-y,z
x,1/2+y,1/2+z
-x,1/2-y,1/2+z
-x,1/2+y,1/2+z
x,1/2-y,1/2+z
loop_
_atom_site_type_symbol
_atom_site_label
_atom_site_fract_x
_atom_site_fract_y
_atom_site_fract_z
Si Si1 0.187360 0.647733 0.377980
Si Si2 0.808015 0.906422 0.484549
Si Si3 0.691861 0.252593 0.184030
Si Si4 0.692119 0.593478 0.259732
Si Si5 0.693666 0.906321 0.253567
Si Si6 0.189522 0.246842 0.560582
Si Si7 0.310858 0.906573 0.994528
Si Si8 0.310061 0.663524 0.872071
O O1 0.245970 0.609830 0.320819
O O2 0.271787 0.608768 0.430826
O O3 0.227274 0.746408 0.376673
O O4 0.000000 0.635136 0.383921
O O5 0.753233 0.832574 0.524794
O O6 0.736269 0.889875 0.424862
O O7 0.000000 0.901283 0.480213
O O8 0.766769 0.000000 0.503716
O O9 0.500000 0.252550 0.186199
O O10 0.747145 0.332755 0.219333
O O11 0.748044 0.167067 0.213154
O O12 0.743248 0.256096 0.121507
O O13 0.500000 0.596975 0.261691
O O14 0.738943 0.500000 0.241679
O O15 0.500000 0.907248 0.251629
O O16 0.736651 0.881179 0.315541
O O17 0.749087 0.000000 0.240162
O O18 0.235934 0.332105 0.529663
O O19 0.000000 0.241889 0.563393
O O20 0.500000 0.902931 0.001989
O O21 0.255258 0.000000 0.010105
O O22 0.500000 0.676968 0.870723
#
# Coordination Sequence:
#
# PCOD9359094 Si02
#       8
#     8   8   8   8   8   8   8   8
#     4  12  23  36  59  91 126 160 193 239 304 367
#     4  10  22  40  60  86 122 160 195 241 303 361
#     4  10  21  39  60  84 116 156 202 250 294 344
#     4  10  21  39  62  88 119 157 202 250 296 348
#     4   9  18  34  58  87 116 147 188 238 292 345
#     4  11  24  41  61  87 120 160 202 249 300 355
#     4  11  24  42  65  91 119 156 201 249 300 357
#     4  11  20  35  61  90 120 155 196 243 294 352
#
# _framework density 19.499701999999999
#
# number of rings (size 3 to 8) (size 9 to 14) (size 15 to 20)
#    0.000    1.500    2.500    3.000    0.000    5.500 
#    0.000    1.250    0.000    1.500    0.000    0.000 
#    0.000    0.000    0.000    0.000    0.000    0.000 
#
# Total GULP energy -178851.181708 kJ/mol
# GULP energy per Si atom -5589.099428 kJ/mol
# Density = 1.945532 g / cm^3
# Si number density = 19.499702 Si / 1000 Ang^3
#
#
#
# Elastic Constant Matrix: (Units=GPa)
#
#
# Indices 1 2 3 4 5 6 
#
# 1 8.1805 10.7260 5.9521 0.0000 0.0000 0.0000
# 2 10.7260 146.3074 51.4058 0.0000 0.0000 0.0000
# 3 5.9521 51.4058 123.9020 0.0000 0.0000 0.0000
# 4 0.0000 0.0000 0.0000 0.5027 0.0000 0.0000
# 5 0.0000 0.0000 0.0000 0.0000 107.8002 0.0000
# 6 0.0000 0.0000 0.0000 0.0000 0.0000 18.6588
#
#
#
# Elastic Compliance Matrix: (Units=1/GPa)
#
#
# Indices 1 2 3 4 5 6 
#
# 1 0.136071 -0.008989 -0.002807 0.000000 0.000000 0.000000
# 2 -0.008989 0.008595 -0.003134 0.000000 0.000000 0.000000
# 3 -0.002807 -0.003134 0.009506 0.000000 0.000000 0.000000
# 4 0.000000 0.000000 0.000000 1.989380 0.000000 0.000000
# 5 0.000000 0.000000 0.000000 0.000000 0.009276 0.000000
# 6 0.000000 0.000000 0.000000 0.000000 0.000000 0.053594
#
#
# Mechanical properties :
#
#
# Convention : Reuss Voigt Hill
#
# Bulk Modulus (GPa) = 8.04431 46.06196 27.05314
# Shear Modulus (GPa) = 2.19518 39.41273 20.80395
#
# Velocity S-wave (km/s) = 1.06216 4.50065 3.26987
# Velocity P-wave (km/s) = 2.37457 7.11906 5.30658
#
# Compressibility (1/GPa) = 0.12431142
#
# Stress axis : x y z
#
# Youngs Moduli (GPa) = 7.34908 116.34459 105.19562
#
# Poissons Ratio (x) = 1.04585 0.29530
# Poissons Ratio (y) = 0.06606 0.32971
# Poissons Ratio (z) = 0.02063 0.36465
#
# Static dielectric constant tensor:
#      x y z
#    x 1.662730 0.000000 0.000000 
#    y 0.000000 1.698520 0.000000 
#    z 0.000000 0.000000 1.638030 
# 
# From -- ./inp_files/22121.got.cif
#   From: 2010.05.17/outbox.cif.g08.bks.cpg/sg38_12_cif.got.tgz:22121.got - 2010.06.03 18:07:57.
