data_PCOD9359932
_publ_section_title
;
Structure prediction by ZEFSAII (Michael W. Deem and Ramdas Pophale) SiO2 
 PCOD9359932
Probable space group: A B M 2
;
_chemical_formula_sum "Si O2"
_cell_formula_units_Z 64
_cell_length_a 14.996388
_cell_length_b 8.496765
_cell_length_c 25.672993
_cell_angle_alpha 90.000000
_cell_angle_beta 90.000000
_cell_angle_gamma 90.000000
_cell_volume 3271.272913
_symmetry_space_group_name_H-M "A B M 2"
_symmetry_group_IT_number 39
_symmetry_cell_setting 'orthorhombic'
loop_
_space_group_symop_operation_xyz
x,y,z
-x,-y,z
-x,1/2+y,z
x,1/2-y,z
x,1/2+y,1/2+z
-x,1/2-y,1/2+z
-x,y,1/2+z
x,-y,1/2+z
loop_
_atom_site_type_symbol
_atom_site_label
_atom_site_fract_x
_atom_site_fract_y
_atom_site_fract_z
Si Si1 0.244505 0.440844 0.855480
Si Si2 0.601190 0.560980 0.550409
Si Si3 0.751174 0.560059 0.975047
Si Si4 0.601731 0.439980 0.164353
Si Si5 0.399039 0.559799 0.278394
Si Si6 0.898987 0.062826 0.775909
Si Si7 0.100994 0.061353 0.056781
Si Si8 0.101856 0.562549 0.166494
O O1 0.241494 0.250000 0.854676
O O2 0.245148 0.493570 0.915333
O O3 0.332833 0.491683 0.823952
O O4 0.160679 0.504107 0.823382
O O5 0.500000 0.500000 0.545207
O O6 0.600128 0.750000 0.549161
O O7 0.663989 0.497703 0.505221
O O8 0.637187 0.508882 0.607847
O O9 0.750398 0.750000 0.974721
O O10 0.836414 0.509737 0.009298
O O11 0.500000 0.500000 0.164418
O O12 0.603982 0.250000 0.164216
O O13 0.636646 0.491192 0.220995
O O14 0.500000 0.500000 0.284835
O O15 0.401623 0.750000 0.278657
O O16 0.901528 0.250000 0.773476
O O17 0.860229 0.998265 0.721050
O O18 0.000000 0.000000 0.781090
O O19 0.098226 0.250000 0.059037
O O20 0.139129 0.999208 0.111887
O O21 0.000000 0.000000 0.050760
O O22 0.103050 0.750000 0.166433
O O23 0.000000 0.500000 0.166488
#
# Coordination Sequence:
#
# PCOD9359932 Si02
#       8
#     8   8   8   8   8   8   8   8
#     4  10  22  40  57  79 112 151 193 237 280 329
#     4  10  20  35  57  82 111 144 183 229 283 342
#     4  10  23  40  56  78 112 150 192 237 282 332
#     4   8  15  29  50  79 107 135 171 216 270 330
#     4   9  18  34  57  81 110 143 179 224 277 331
#     4  11  22  38  60  86 115 148 185 229 280 335
#     4  10  20  36  57  82 112 146 184 231 283 337
#     4  10  18  32  56  85 115 145 179 223 276 338
#
# _framework density 19.564247999999999
#
# number of rings (size 3 to 8) (size 9 to 14) (size 15 to 20)
#    0.000    2.250    0.000    4.500    0.000    4.500 
#    0.000    3.750    0.000    0.000    0.000    0.000 
#    0.000    0.000    0.000    0.000    0.000    0.000 
#
# Total GULP energy -178577.408963 kJ/mol
# GULP energy per Si atom -5580.544030 kJ/mol
# Density = 1.951972 g / cm^3
# Si number density = 19.564248 Si / 1000 Ang^3
#
#
#
# Elastic Constant Matrix: (Units=GPa)
#
#
# Indices 1 2 3 4 5 6 
#
# 1 108.7848 20.2518 91.2878 0.0000 0.0000 0.0000
# 2 20.2518 43.6147 44.9618 0.0000 0.0000 0.0000
# 3 91.2878 44.9618 236.5122 0.0000 0.0000 0.0000
# 4 0.0000 0.0000 0.0000 20.2700 0.0000 0.0000
# 5 0.0000 0.0000 0.0000 0.0000 35.8854 0.0000
# 6 0.0000 0.0000 0.0000 0.0000 0.0000 18.7035
#
#
#
# Elastic Compliance Matrix: (Units=1/GPa)
#
#
# Indices 1 2 3 4 5 6 
#
# 1 0.013641 -0.001127 -0.005051 0.000000 0.000000 0.000000
# 2 -0.001127 0.028610 -0.005004 0.000000 0.000000 0.000000
# 3 -0.005051 -0.005004 0.007129 0.000000 0.000000 0.000000
# 4 0.000000 0.000000 0.000000 0.049334 0.000000 0.000000
# 5 0.000000 0.000000 0.000000 0.000000 0.027866 0.000000
# 6 0.000000 0.000000 0.000000 0.000000 0.000000 0.053466
#
#
# Mechanical properties :
#
#
# Convention : Reuss Voigt Hill
#
# Bulk Modulus (GPa) = 37.01511 77.99049 57.50280
# Shear Modulus (GPa) = 23.65029 30.46580 27.05804
#
# Velocity S-wave (km/s) = 3.48063 3.95044 3.72295
# Velocity P-wave (km/s) = 5.92570 7.79476 6.92359
#
# Compressibility (1/GPa) = 0.02701600
#
# Stress axis : x y z
#
# Youngs Moduli (GPa) = 73.31051 34.95312 140.27650
#
# Poissons Ratio (x) = 0.03940 0.70849
# Poissons Ratio (y) = 0.08263 0.70191
# Poissons Ratio (z) = 0.37027 0.17490
#
# Static dielectric constant tensor:
#      x y z
#    x 1.670380 0.000000 0.000000 
#    y 0.000000 1.669840 0.000000 
#    z 0.000000 0.000000 1.711710 
# 
# From -- ./inp_files/16164.got.cif
#   From: 2010.05.17/outbox.cif.g08.bks.cpg/sg39_9_cif.got.tgz:16164.got - 2010.06.03 18:22:40.
