data_PCOD9359559
_publ_section_title
;
Structure prediction by ZEFSAII (Michael W. Deem and Ramdas Pophale) SiO2 
 PCOD9359559
Probable space group: A M M 2
;
_chemical_formula_sum "Si O2"
_cell_formula_units_Z 32
_cell_length_a 9.000000
_cell_length_b 24.000000
_cell_length_c 15.000000
_cell_angle_alpha 90.000000
_cell_angle_beta 90.000000
_cell_angle_gamma 90.000000
_cell_volume 3240.000000
_symmetry_space_group_name_H-M "A M M 2"
_symmetry_group_IT_number 38
_symmetry_cell_setting 'orthorhombic'
loop_
_space_group_symop_operation_xyz
x,y,z
-x,-y,z
-x,y,z
x,-y,z
x,1/2+y,1/2+z
-x,1/2-y,1/2+z
-x,1/2+y,1/2+z
x,1/2-y,1/2+z
loop_
_atom_site_type_symbol
_atom_site_label
_atom_site_fract_x
_atom_site_fract_y
_atom_site_fract_z
Si Si1 0.172728 0.130803 0.518680
Si Si2 0.822702 0.937318 0.211013
Si Si3 0.826735 0.149154 0.870253
Si Si4 0.663793 0.278819 0.688204
Si Si5 0.178636 0.352251 0.564417
Si Si6 0.171060 0.283356 0.866447
Si Si7 0.335168 0.854167 0.695691
Si Si8 0.338359 0.434105 0.884576
O O1 0.210094 0.184692 0.457264
O O2 0.214962 0.135330 0.620426
O O3 0.274035 0.083256 0.477956
O O4 0.000000 0.119378 0.506825
O O5 0.766606 0.896609 0.135864
O O6 0.775994 0.917923 0.308233
O O7 0.000000 0.938010 0.205983
O O8 0.767430 0.000000 0.197131
O O9 0.820289 0.216685 0.876220
O O10 0.725697 0.127835 0.790988
O O11 0.000000 0.134578 0.855947
O O12 0.772728 0.130855 0.966757
O O13 0.500000 0.301795 0.673646
O O14 0.764053 0.294569 0.604196
O O15 0.731096 0.298770 0.781493
O O16 0.655158 0.212735 0.697674
O O17 0.000000 0.350142 0.562330
O O18 0.000000 0.297002 0.844689
O O19 0.500000 0.875907 0.675218
O O20 0.500000 0.409141 0.868364
O O21 0.349125 0.500000 0.880820
#
# Coordination Sequence:
#
# PCOD9359559 Si02
#       8
#     8   8   8   8   8   8   8   8
#     4  11  21  33  53  77  99 129 169 208 247 294
#     4   9  18  33  52  75 103 132 163 202 248 298
#     4   9  18  33  50  68  94 130 170 207 244 289
#     4  10  20  31  46  71 102 133 164 201 244 293
#     4  10  19  31  50  73  97 129 168 207 249 297
#     4   9  18  31  47  69  98 130 163 201 244 292
#     4  10  21  35  49  69  99 133 167 204 247 292
#     4  10  21  36  53  75 104 134 162 198 247 299
#
# _framework density 9.8765429999999999
#
# number of rings (size 3 to 8) (size 9 to 14) (size 15 to 20)
#    0.000    2.250    0.000    3.000    0.000    8.250 
#    0.000    2.500    0.000    0.750    0.000    1.750 
#    0.000    0.000    0.000    0.000    0.000    0.000 
#
# Total GULP energy -178258.663817 kJ/mol
# GULP energy per Si atom -5570.583244 kJ/mol
# Density = 0.985406 g / cm^3
# Si number density = 9.876543 Si / 1000 Ang^3
#
#
#
# Elastic Constant Matrix: (Units=GPa)
#
#
# Indices 1 2 3 4 5 6 
#
# 1 4.3613 9.9434 0.5911 0.0000 0.0000 0.0000
# 2 9.9434 17.3640 1.9780 0.0000 0.0000 0.0000
# 3 0.5911 1.9780 66.0039 0.0000 0.0000 0.0000
# 4 0.0000 0.0000 0.0000 7.9854 0.0000 0.0000
# 5 0.0000 0.0000 0.0000 0.0000 110.6186 0.0000
# 6 0.0000 0.0000 0.0000 0.0000 0.0000 11.1517
#
#
#
# Elastic Compliance Matrix: (Units=1/GPa)
#
#
# Indices 1 2 3 4 5 6 
#
# 1 -0.747806 0.428929 -0.006157 0.000000 0.000000 0.000000
# 2 0.428929 -0.188239 0.001800 0.000000 0.000000 0.000000
# 3 -0.006157 0.001800 0.015152 0.000000 0.000000 0.000000
# 4 0.000000 0.000000 0.000000 0.125228 0.000000 0.000000
# 5 0.000000 0.000000 0.000000 0.000000 0.009040 0.000000
# 6 0.000000 0.000000 0.000000 0.000000 0.000000 0.089672
#
#
# Mechanical properties :
#
#
# Convention : Reuss Voigt Hill
#
# Bulk Modulus (GPa) = -13.93746 12.52824 -0.70461
# Shear Modulus (GPa) = -3.18469 30.96559 13.89045
#
# Velocity S-wave (km/s) = -1.27112 3.96363 2.65468
# Velocity P-wave (km/s) = 3.03735 5.22526 3.00648
#
# Compressibility (1/GPa) = -0.07174909
#
# Stress axis : x y z
#
# Youngs Moduli (GPa) = -1.33724 -5.31241 65.99865
#
# Poissons Ratio (x) = 2.27864 0.40632
# Poissons Ratio (y) = 0.57358 -0.11877
# Poissons Ratio (z) = -0.00823 0.00956
#
# Static dielectric constant tensor:
#      x y z
#    x 1.663520 0.000000 0.000000 
#    y 0.000000 1.783360 0.000000 
#    z 0.000000 0.000000 1.684540 
# 
# From -- ./inp_files/8546.got.cif
#   From: 2010.05.17/outbox.ucp.g08.bks.cvg/sg38_5_cif.got.tgz:8546.got - 2010.06.11 10:39:43.
