data_PCOD9359439
_publ_section_title
;
Structure prediction by ZEFSAII (Michael W. Deem and Ramdas Pophale) SiO2 
 PCOD9359439
Probable space group: A M M 2
;
_chemical_formula_sum "Si O2"
_cell_formula_units_Z 64
_cell_length_a 13.133155
_cell_length_b 7.698845
_cell_length_c 26.015118
_cell_angle_alpha 90.000000
_cell_angle_beta 90.000000
_cell_angle_gamma 90.000000
_cell_volume 2630.391825
_symmetry_space_group_name_H-M "A M M 2"
_symmetry_group_IT_number 38
_symmetry_cell_setting 'orthorhombic'
loop_
_space_group_symop_operation_xyz
x,y,z
-x,-y,z
-x,y,z
x,-y,z
x,1/2+y,1/2+z
-x,1/2-y,1/2+z
-x,1/2+y,1/2+z
x,1/2-y,1/2+z
loop_
_atom_site_type_symbol
_atom_site_label
_atom_site_fract_x
_atom_site_fract_y
_atom_site_fract_z
Si Si1 0.664279 0.697547 0.018430
Si Si2 0.168835 0.287675 0.380129
Si Si3 0.609385 0.200201 0.742269
Si Si4 0.168835 0.712325 0.269468
Si Si5 0.109971 0.210731 0.656180
Si Si6 0.390615 0.200201 0.907327
Si Si7 0.664279 0.697547 0.631166
Si Si8 0.109971 0.710731 0.493416
O O1 0.636210 0.500000 0.008754
O O2 0.627990 0.750000 0.074798
O O3 0.623495 0.799936 0.969215
O O4 0.787281 0.716255 0.017701
O O5 0.168900 0.500000 0.380541
O O6 0.127263 0.233028 0.324798
O O7 0.285942 0.225498 0.385397
O O8 0.115160 0.238992 0.433033
O O9 0.500000 0.279854 0.755183
O O10 0.714058 0.274502 0.764199
O O11 0.623495 0.200065 0.680381
O O12 0.607077 0.000000 0.759429
O O13 0.168900 0.500000 0.269055
O O14 0.115160 0.761008 0.216564
O O15 0.212719 0.283745 0.631896
O O16 0.000000 0.266612 0.635476
O O17 0.116027 0.000000 0.652866
O O18 0.500000 0.279854 0.894413
O O19 0.392923 0.000000 0.890167
O O20 0.636210 0.500000 0.640842
O O21 0.116027 0.500000 0.496730
O O22 0.000000 0.766612 0.514121
#
# Coordination Sequence:
#
# PCOD9359439 Si02
#       8
#     8   8   8   8   8   8   8   8
#     4  11  22  36  54  74  99 130 166 208 253 302
#     4   8  14  26  47  77 108 134 164 204 248 291
#     4   9  18  33  52  75 104 135 168 207 249 294
#     4   8  14  26  47  77 108 134 164 204 248 291
#     4   9  18  33  52  75 104 135 168 207 249 294
#     4   9  18  33  52  75 104 135 168 207 249 294
#     4  11  22  36  54  74  99 130 166 208 253 302
#     4   9  18  33  52  75 104 135 168 207 249 294
#
# _framework density 24.330974999999999
#
# number of rings (size 3 to 8) (size 9 to 14) (size 15 to 20)
#    0.000    2.750    0.000    3.750    0.000    3.000 
#    0.000    5.000    0.000   12.000    0.000   14.000 
#    0.000    0.000    0.000    0.000    0.000    0.000 
#
# Total GULP energy -178723.463694 kJ/mol
# GULP energy per Si atom -5585.108240 kJ/mol
# Density = 2.427560 g / cm^3
# Si number density = 24.330975 Si / 1000 Ang^3
#
#
#
# Elastic Constant Matrix: (Units=GPa)
#
#
# Indices 1 2 3 4 5 6 
#
# 1 119.1459 -1.9402 -6.8130 0.0000 0.0000 0.0000
# 2 -1.9402 59.3406 -5.7240 0.0000 0.0000 0.0000
# 3 -6.8130 -5.7240 127.2045 0.0000 0.0000 0.0000
# 4 0.0000 0.0000 0.0000 5.0307 0.0000 0.0000
# 5 0.0000 0.0000 0.0000 0.0000 17.9796 0.0000
# 6 0.0000 0.0000 0.0000 0.0000 0.0000 -2.2006
#
#
#
# Elastic Compliance Matrix: (Units=1/GPa)
#
#
# Indices 1 2 3 4 5 6 
#
# 1 0.008425 0.000320 0.000466 0.000000 0.000000 0.000000
# 2 0.000320 0.016938 0.000779 0.000000 0.000000 0.000000
# 3 0.000466 0.000779 0.007921 0.000000 0.000000 0.000000
# 4 0.000000 0.000000 0.000000 0.198781 0.000000 0.000000
# 5 0.000000 0.000000 0.000000 0.000000 0.055619 0.000000
# 6 0.000000 0.000000 0.000000 0.000000 0.000000 -0.454427
#
#
# Mechanical properties :
#
#
# Convention : Reuss Voigt Hill
#
# Bulk Modulus (GPa) = 27.46160 30.74851 29.10506
# Shear Modulus (GPa) = -31.69864 25.50648 -3.09608
#
# Velocity S-wave (km/s) = -3.61336 3.24128 -1.12927
# Velocity P-wave (km/s) = 2.46928 5.16458 3.20746
#
# Compressibility (1/GPa) = 0.03641448
#
# Stress axis : x y z
#
# Youngs Moduli (GPa) = 118.69556 59.04057 126.24082
#
# Poissons Ratio (x) = -0.01891 -0.05878
# Poissons Ratio (y) = -0.03803 -0.09838
# Poissons Ratio (z) = -0.05527 -0.04601
#
# Static dielectric constant tensor:
#      x y z
#    x 1.953380 0.000000 0.000000 
#    y 0.000000 1.921820 0.000000 
#    z 0.000000 0.000000 1.921470 
# 
# From -- ./inp_files/25123.got.cif
#   From: 2010.05.17/outbox.cif.g08.bks.cpg/sg38_13_cif.got.tgz:25123.got - 2010.06.03 18:07:57.
