data_PCOD9359730
_publ_section_title
;
Structure prediction by ZEFSAII (Michael W. Deem and Ramdas Pophale) SiO2 
 PCOD9359730
Probable space group: A B M 2
;
_chemical_formula_sum "Si O2"
_cell_formula_units_Z 56
_cell_length_a 20.467498
_cell_length_b 8.798895
_cell_length_c 15.601089
_cell_angle_alpha 90.000000
_cell_angle_beta 90.000000
_cell_angle_gamma 90.000000
_cell_volume 2809.621426
_symmetry_space_group_name_H-M "A B M 2"
_symmetry_group_IT_number 39
_symmetry_cell_setting 'orthorhombic'
loop_
_space_group_symop_operation_xyz
x,y,z
-x,-y,z
-x,1/2+y,z
x,1/2-y,z
x,1/2+y,1/2+z
-x,1/2-y,1/2+z
-x,y,1/2+z
x,-y,1/2+z
loop_
_atom_site_type_symbol
_atom_site_label
_atom_site_fract_x
_atom_site_fract_y
_atom_site_fract_z
Si Si1 0.934456 0.432887 0.884530
Si Si2 0.798999 0.929076 0.586297
Si Si3 0.572097 0.566814 0.984608
Si Si4 0.656738 0.930573 0.819719
Si Si5 0.663236 0.431390 0.642196
Si Si6 0.209943 0.071051 0.379499
Si Si7 0.933824 0.931193 0.077811
O O1 0.939429 0.250000 0.891672
O O2 0.862991 0.468027 0.846607
O O3 0.000000 0.500000 0.842649
O O4 0.932663 0.504822 0.980054
O O5 0.804944 0.750000 0.602560
O O6 0.791223 0.948957 0.482948
O O7 0.734396 0.996126 0.628525
O O8 0.865211 0.012250 0.615310
O O9 0.500000 0.500000 0.986531
O O10 0.568207 0.750000 0.985987
O O11 0.611504 0.522530 0.899257
O O12 0.615275 0.518519 0.066067
O O13 0.651890 0.750000 0.808338
O O14 0.637002 0.015217 0.733421
O O15 0.731325 0.974726 0.841594
O O16 0.669549 0.250000 0.638818
O O17 0.221566 0.250000 0.362225
O O18 0.937336 0.750000 0.077323
O O19 0.000000 0.000000 0.117375
#
# Coordination Sequence:
#
# PCOD9359730 Si02
#       7
#     8   8   8   8   8   8   8
#     4   9  16  26  42  71 108 148 199 249 304 360
#     4  10  19  33  55  83 115 155 202 251 306 362
#     4  10  24  44  67  94 126 160 199 242 295 358
#     4  11  23  40  62  92 124 159 204 248 296 357
#     4  11  23  41  63  92 125 161 203 248 300 360
#     4   9  18  32  53  81 114 155 200 248 301 359
#     4  10  17  26  43  71 109 152 199 252 305 359
#
# _framework density 19.931509999999999
#
# number of rings (size 3 to 8) (size 9 to 14) (size 15 to 20)
#    0.000    2.000    1.429    4.714    0.000    5.714 
#    0.000    2.857    0.000    0.857    0.000    4.000 
#    0.000    0.000    0.000    0.000    0.000    0.000 
#
# Total GULP energy -156399.066935 kJ/mol
# GULP energy per Si atom -5585.680962 kJ/mol
# Density = 1.988615 g / cm^3
# Si number density = 19.931510 Si / 1000 Ang^3
#
#
#
# Elastic Constant Matrix: (Units=GPa)
#
#
# Indices 1 2 3 4 5 6 
#
# 1 161.0650 44.5961 59.5396 0.0000 0.0000 0.0000
# 2 44.5961 66.6368 34.6880 0.0000 0.0000 0.0000
# 3 59.5396 34.6880 84.9538 0.0000 0.0000 0.0000
# 4 0.0000 0.0000 0.0000 21.9954 0.0000 0.0000
# 5 0.0000 0.0000 0.0000 0.0000 -10.6537 0.0000
# 6 0.0000 0.0000 0.0000 0.0000 0.0000 39.7733
#
#
#
# Elastic Compliance Matrix: (Units=1/GPa)
#
#
# Indices 1 2 3 4 5 6 
#
# 1 0.008969 -0.003467 -0.004870 0.000000 0.000000 0.000000
# 2 -0.003467 0.020398 -0.005899 0.000000 0.000000 0.000000
# 3 -0.004870 -0.005899 0.017593 0.000000 0.000000 0.000000
# 4 0.000000 0.000000 0.000000 0.045464 0.000000 0.000000
# 5 0.000000 0.000000 0.000000 0.000000 -0.093864 0.000000
# 6 0.000000 0.000000 0.000000 0.000000 0.000000 0.025142
#
#
# Mechanical properties :
#
#
# Convention : Reuss Voigt Hill
#
# Bulk Modulus (GPa) = 54.09096 65.58922 59.84009
# Shear Modulus (GPa) = 85.70920 21.81181 53.76050
#
# Velocity S-wave (km/s) = 6.56469 3.31167 5.19915
# Velocity P-wave (km/s) = 9.20096 6.89939 8.13201
#
# Compressibility (1/GPa) = 0.01848738
#
# Stress axis : x y z
#
# Youngs Moduli (GPa) = 111.49503 49.02504 56.84123
#
# Poissons Ratio (x) = 0.16998 0.27683
# Poissons Ratio (y) = 0.38658 0.33529
# Poissons Ratio (z) = 0.54300 0.28918
#
# Static dielectric constant tensor:
#      x y z
#    x 1.706530 0.000000 0.000000 
#    y 0.000000 1.660120 0.000000 
#    z 0.000000 0.000000 1.741170 
# 
# From -- ./inp_files/10370.got.cif
#   From: 2010.05.17/outbox.cif.g08.bks.cpg/sg39_6_cif.got.tgz:10370.got - 2010.06.03 18:22:40.
