data_PCOD9359847
_publ_section_title
;
Structure prediction by ZEFSAII (Michael W. Deem and Ramdas Pophale) SiO2 
 PCOD9359847
Probable space group: A B M 2
;
_chemical_formula_sum "Si O2"
_cell_formula_units_Z 52
_cell_length_a 9.132152
_cell_length_b 19.222318
_cell_length_c 16.353326
_cell_angle_alpha 90.000000
_cell_angle_beta 90.000000
_cell_angle_gamma 90.000000
_cell_volume 2870.681322
_symmetry_space_group_name_H-M "A B M 2"
_symmetry_group_IT_number 39
_symmetry_cell_setting 'orthorhombic'
loop_
_space_group_symop_operation_xyz
x,y,z
-x,-y,z
-x,1/2+y,z
x,1/2-y,z
x,1/2+y,1/2+z
-x,1/2-y,1/2+z
-x,y,1/2+z
x,-y,1/2+z
loop_
_atom_site_type_symbol
_atom_site_label
_atom_site_fract_x
_atom_site_fract_y
_atom_site_fract_z
Si Si1 0.090138 0.831055 0.243840
Si Si2 0.303365 0.417900 0.169382
Si Si3 0.242030 0.171246 0.314349
Si Si4 0.500000 0.000000 0.058760
Si Si5 0.233511 0.559540 0.952433
Si Si6 0.001675 0.581766 0.590178
Si Si7 0.167374 0.973996 0.297567
O O1 0.135634 0.750000 0.243301
O O2 0.073333 0.864907 0.153565
O O3 0.182840 0.891316 0.288070
O O4 0.929686 0.834033 0.287284
O O5 0.323753 0.356209 0.233670
O O6 0.440250 0.439770 0.117147
O O7 0.257180 0.482409 0.229508
O O8 0.173053 0.401692 0.104434
O O9 0.277044 0.250000 0.332834
O O10 0.270214 0.123031 0.392069
O O11 0.633645 0.032764 0.007880
O O12 0.202904 0.497494 0.888974
O O13 0.091552 0.580740 0.006592
O O14 0.000000 0.500000 0.613605
O O15 0.000000 0.000000 0.286146
#
# Coordination Sequence:
#
# PCOD9359847 Si02
#       7
#     8   8   8   4   8   8   8
#     4  10  18  30  54  87 113 137 185 235 272 326
#     4  10  20  35  60  80 112 146 189 233 265 332
#     4   9  20  37  55  78 109 151 188 224 277 331
#     4  12  24  34  52  94 110 136 194 236 276 324
#     4  11  23  33  60  84 116 145 179 236 281 333
#     4  11  17  34  57  83 109 147 179 229 286 321
#     4  11  17  35  58  82 106 149 187 224 278 324
#
# _framework density 18.114166000000001
#
# number of rings (size 3 to 8) (size 9 to 14) (size 15 to 20)
#    0.000    1.538    7.692    0.462    0.000    3.077 
#    0.000    0.769    0.000    6.462    0.000    0.000 
#    0.000    0.000    0.000    0.000    0.000    0.000 
#
# Total GULP energy -144766.492624 kJ/mol
# GULP energy per Si atom -5567.942024 kJ/mol
# Density = 1.807294 g / cm^3
# Si number density = 18.114166 Si / 1000 Ang^3
#
#
#
# Elastic Constant Matrix: (Units=GPa)
#
#
# Indices 1 2 3 4 5 6 
#
# 1 26.9773 2.8475 38.8769 0.0000 0.0000 0.0000
# 2 2.8475 135.7868 32.8277 0.0000 0.0000 0.0000
# 3 38.8769 32.8277 105.4128 0.0000 0.0000 0.0000
# 4 0.0000 0.0000 0.0000 14.7140 0.0000 0.0000
# 5 0.0000 0.0000 0.0000 0.0000 32.8952 0.0000
# 6 0.0000 0.0000 0.0000 0.0000 0.0000 10.9999
#
#
#
# Elastic Compliance Matrix: (Units=1/GPa)
#
#
# Indices 1 2 3 4 5 6 
#
# 1 0.083638 0.006168 -0.032767 0.000000 0.000000 0.000000
# 2 0.006168 0.008419 -0.004897 0.000000 0.000000 0.000000
# 3 -0.032767 -0.004897 0.023096 0.000000 0.000000 0.000000
# 4 0.000000 0.000000 0.000000 0.067962 0.000000 0.000000
# 5 0.000000 0.000000 0.000000 0.000000 0.030400 0.000000
# 6 0.000000 0.000000 0.000000 0.000000 0.000000 0.090910
#
#
# Mechanical properties :
#
#
# Convention : Reuss Voigt Hill
#
# Bulk Modulus (GPa) = 19.17130 46.36457 32.76794
# Shear Modulus (GPa) = 12.99366 24.63014 18.81190
#
# Velocity S-wave (km/s) = 2.68119 3.69143 3.22610
# Velocity P-wave (km/s) = 4.49351 6.61969 5.65738
#
# Compressibility (1/GPa) = 0.05216130
#
# Stress axis : x y z
#
# Youngs Moduli (GPa) = 11.95636 118.77985 43.29752
#
# Poissons Ratio (x) = -0.73261 1.41872
# Poissons Ratio (y) = -0.07374 0.21201
# Poissons Ratio (z) = 0.39177 0.58161
#
# Static dielectric constant tensor:
#      x y z
#    x 1.650770 0.000000 0.000000 
#    y 0.000000 1.632190 0.000000 
#    z 0.000000 0.000000 1.646900 
# 
# From -- ./inp_files/8568.got.cif
#   From: 2010.05.17/outbox.cif.g08.bks.cpg/sg39_5_cif.got.tgz:8568.got - 2010.06.03 18:22:40.
