data_PCOD9359669
_publ_section_title
;
Structure prediction by ZEFSAII (Michael W. Deem and Ramdas Pophale) SiO2 
 PCOD9359669
Probable space group: A B M 2
;
_chemical_formula_sum "Si O2"
_cell_formula_units_Z 64
_cell_length_a 21.687744
_cell_length_b 9.161136
_cell_length_c 14.497442
_cell_angle_alpha 90.000000
_cell_angle_beta 90.000000
_cell_angle_gamma 90.000000
_cell_volume 2880.415164
_symmetry_space_group_name_H-M "A B M 2"
_symmetry_group_IT_number 39
_symmetry_cell_setting 'orthorhombic'
loop_
_space_group_symop_operation_xyz
x,y,z
-x,-y,z
-x,1/2+y,z
x,1/2-y,z
x,1/2+y,1/2+z
-x,1/2-y,1/2+z
-x,y,1/2+z
x,-y,1/2+z
loop_
_atom_site_type_symbol
_atom_site_label
_atom_site_fract_x
_atom_site_fract_y
_atom_site_fract_z
Si Si1 0.060131 0.927435 0.004420
Si Si2 0.559193 0.413604 0.236913
Si Si3 0.196490 0.084308 0.509351
Si Si4 0.440667 0.912403 0.016491
Si Si5 0.305595 0.084348 0.772653
Si Si6 0.061364 0.425550 0.801216
Si Si7 0.315195 0.088099 0.992605
Si Si8 0.184446 0.582283 0.783956
O O1 0.053423 0.750000 0.993991
O O2 0.128175 0.953819 0.045347
O O3 0.000000 0.000000 0.050322
O O4 0.062831 0.010686 0.905834
O O5 0.500000 0.500000 0.271737
O O6 0.561067 0.250000 0.277549
O O7 0.551759 0.401131 0.126965
O O8 0.626979 0.480293 0.251464
O O9 0.210644 0.250000 0.536607
O O10 0.190472 0.083517 0.396700
O O11 0.253610 0.982739 0.533658
O O12 0.438609 0.750000 0.976850
O O13 0.500000 0.000000 0.981892
O O14 0.376228 0.992856 0.002563
O O15 0.302693 0.250000 0.733718
O O16 0.247104 0.988204 0.746360
O O17 0.303238 0.097351 0.883196
O O18 0.057621 0.250000 0.799628
O O19 0.125306 0.484209 0.760502
O O20 0.000000 0.500000 0.760621
O O21 0.326040 0.250000 0.029758
O O22 0.175908 0.750000 0.755468
#
# Coordination Sequence:
#
# PCOD9359669 Si02
#       8
#     8   8   8   8   8   8   8   8
#     4   9  15  22  33  51  77 111 150 188 225 269
#     4   9  19  35  53  71  92 120 153 188 227 271
#     4   8  15  26  38  55  83 117 151 186 224 268
#     4  10  20  35  53  70  92 121 152 188 227 271
#     4   9  18  32  48  69  95 122 153 188 229 274
#     4  10  16  22  33  50  76 112 151 189 227 269
#     4  10  19  30  47  70  95 122 152 189 230 274
#     4   9  16  26  39  58  84 115 150 186 227 272
#
# _framework density 22.219018999999999
#
# number of rings (size 3 to 8) (size 9 to 14) (size 15 to 20)
#    0.000    2.750    0.000    4.125    0.000    5.500 
#    0.000    1.250    0.000    0.000    0.000    0.000 
#    0.000    1.000    0.000    6.500    0.000   13.625 
#
# Total GULP energy -178581.983164 kJ/mol
# GULP energy per Si atom -5580.686974 kJ/mol
# Density = 2.216845 g / cm^3
# Si number density = 22.219019 Si / 1000 Ang^3
#
#
#
# Elastic Constant Matrix: (Units=GPa)
#
#
# Indices 1 2 3 4 5 6 
#
# 1 243.4580 136.0467 4.2276 0.0000 0.0000 0.0000
# 2 136.0467 178.1323 7.2853 0.0000 0.0000 0.0000
# 3 4.2276 7.2853 58.4846 0.0000 0.0000 0.0000
# 4 0.0000 0.0000 0.0000 -0.3439 0.0000 0.0000
# 5 0.0000 0.0000 0.0000 0.0000 40.3760 0.0000
# 6 0.0000 0.0000 0.0000 0.0000 0.0000 42.8767
#
#
#
# Elastic Compliance Matrix: (Units=1/GPa)
#
#
# Indices 1 2 3 4 5 6 
#
# 1 0.007167 -0.005481 0.000165 0.000000 0.000000 0.000000
# 2 -0.005481 0.009834 -0.000829 0.000000 0.000000 0.000000
# 3 0.000165 -0.000829 0.017190 0.000000 0.000000 0.000000
# 4 0.000000 0.000000 0.000000 -2.907692 0.000000 0.000000
# 5 0.000000 0.000000 0.000000 0.000000 0.024767 0.000000
# 6 0.000000 0.000000 0.000000 0.000000 0.000000 0.023323
#
#
# Mechanical properties :
#
#
# Convention : Reuss Voigt Hill
#
# Bulk Modulus (GPa) = 45.65995 86.13268 65.89631
# Shear Modulus (GPa) = -1.78201 38.74943 18.48371
#
# Velocity S-wave (km/s) = -0.89653 4.18062 2.88737
# Velocity P-wave (km/s) = 4.41847 7.88371 6.39045
#
# Compressibility (1/GPa) = 0.02190103
#
# Stress axis : x y z
#
# Youngs Moduli (GPa) = 139.52297 101.69314 58.17381
#
# Poissons Ratio (x) = 0.55735 -0.00958
# Poissons Ratio (y) = 0.76468 0.04821
# Poissons Ratio (z) = -0.02297 0.08428
#
# Static dielectric constant tensor:
#      x y z
#    x 1.818600 0.000000 0.000000 
#    y 0.000000 1.791970 0.000000 
#    z 0.000000 0.000000 1.875880 
# 
# From -- ./inp_files/15058.got.cif
#   From: 2010.05.17/outbox.cif.g08.bks.cpg/sg39_8_cif.got.tgz:15058.got - 2010.06.03 18:22:40.
