data_PCOD9359494
_publ_section_title
;
Structure prediction by ZEFSAII (Michael W. Deem and Ramdas Pophale) SiO2 
 PCOD9359494
Probable space group: A M M 2
;
_chemical_formula_sum "Si O2"
_cell_formula_units_Z 56
_cell_length_a 22.596488
_cell_length_b 8.586590
_cell_length_c 14.380457
_cell_angle_alpha 90.000000
_cell_angle_beta 90.000000
_cell_angle_gamma 90.000000
_cell_volume 2790.193736
_symmetry_space_group_name_H-M "A M M 2"
_symmetry_group_IT_number 38
_symmetry_cell_setting 'orthorhombic'
loop_
_space_group_symop_operation_xyz
x,y,z
-x,-y,z
-x,y,z
x,-y,z
x,1/2+y,1/2+z
-x,1/2-y,1/2+z
-x,1/2+y,1/2+z
x,1/2-y,1/2+z
loop_
_atom_site_type_symbol
_atom_site_label
_atom_site_fract_x
_atom_site_fract_y
_atom_site_fract_z
Si Si1 0.569948 0.000000 0.609081
Si Si2 0.392050 0.326335 0.625354
Si Si3 0.157445 0.188390 0.280486
Si Si4 0.932270 0.311579 0.136366
Si Si5 0.165709 0.186602 0.489554
Si Si6 0.572554 0.000000 0.828304
Si Si7 0.569755 0.832542 0.339509
Si Si8 0.747702 0.182096 0.130346
O O1 0.589070 0.169446 0.571821
O O2 0.500000 0.000000 0.605991
O O3 0.589056 0.000000 0.718387
O O4 0.402804 0.500000 0.584441
O O5 0.424120 0.328532 0.726387
O O6 0.322111 0.306681 0.642888
O O7 0.099337 0.249961 0.228880
O O8 0.162518 0.246768 0.385197
O O9 0.214267 0.236737 0.219075
O O10 0.155727 0.000000 0.281660
O O11 0.931623 0.500000 0.137610
O O12 0.000000 0.260289 0.126855
O O13 0.889358 0.258195 0.052625
O O14 0.225914 0.230613 0.541789
O O15 0.162023 0.000000 0.486151
O O16 0.593964 0.835893 0.869904
O O17 0.500000 0.000000 0.831598
O O18 0.500000 0.835252 0.362189
O O19 0.595862 0.000000 0.369292
O O20 0.761510 0.000000 0.117339
#
# Coordination Sequence:
#
# PCOD9359494 Si02
#       8
#     4   8   8   8   8   4   8   8
#     4   9  16  24  38  62  94 128 163 205 257 321
#     4   9  16  25  39  61  92 130 160 208 262 309
#     4   9  18  33  51  72  98 133 173 212 258 306
#     4   9  18  32  49  73 103 132 168 210 256 309
#     4   9  18  32  51  71  96 134 171 210 258 305
#     4   7  10  16  24  38  62  94 128 163 205 257
#     4   8  12  18  29  46  72 105 137 174 226 282
#     4   9  18  31  47  69  99 132 166 213 261 309
#
# _framework density 20.070291000000001
#
# number of rings (size 3 to 8) (size 9 to 14) (size 15 to 20)
#    0.000    3.286    0.000    1.286    1.000    2.286 
#    0.000    1.429    0.000    0.000    0.000    0.000 
#    0.000    4.571    2.857    0.000    0.000    0.000 
#
# Total GULP energy -155988.710874 kJ/mol
# GULP energy per Si atom -5571.025388 kJ/mol
# Density = 2.002461 g / cm^3
# Si number density = 20.070291 Si / 1000 Ang^3
#
#
#
# Elastic Constant Matrix: (Units=GPa)
#
#
# Indices 1 2 3 4 5 6 
#
# 1 46.3063 17.6733 8.3303 0.0000 0.0000 0.0000
# 2 17.6733 117.8762 24.7184 0.0000 0.0000 0.0000
# 3 8.3303 24.7184 78.1976 0.0000 0.0000 0.0000
# 4 0.0000 0.0000 0.0000 136.6185 0.0000 0.0000
# 5 0.0000 0.0000 0.0000 0.0000 19.7635 0.0000
# 6 0.0000 0.0000 0.0000 0.0000 0.0000 28.4057
#
#
#
# Elastic Compliance Matrix: (Units=1/GPa)
#
#
# Indices 1 2 3 4 5 6 
#
# 1 0.023061 -0.003151 -0.001461 0.000000 0.000000 0.000000
# 2 -0.003151 0.009516 -0.002672 0.000000 0.000000 0.000000
# 3 -0.001461 -0.002672 0.013788 0.000000 0.000000 0.000000
# 4 0.000000 0.000000 0.000000 0.007320 0.000000 0.000000
# 5 0.000000 0.000000 0.000000 0.000000 0.050598 0.000000
# 6 0.000000 0.000000 0.000000 0.000000 0.000000 0.035204
#
#
# Mechanical properties :
#
#
# Convention : Reuss Voigt Hill
#
# Bulk Modulus (GPa) = 31.44933 38.20267 34.82600
# Shear Modulus (GPa) = 30.36645 49.73473 40.05059
#
# Velocity S-wave (km/s) = 3.89396 4.98338 4.47197
# Velocity P-wave (km/s) = 5.99340 7.22412 6.63734
#
# Compressibility (1/GPa) = 0.03179718
#
# Stress axis : x y z
#
# Youngs Moduli (GPa) = 43.36364 105.08233 72.52437
#
# Poissons Ratio (x) = 0.33114 0.10592
# Poissons Ratio (y) = 0.13665 0.19382
# Poissons Ratio (z) = 0.06333 0.28083
#
# Static dielectric constant tensor:
#      x y z
#    x 1.659180 0.000000 0.000000 
#    y 0.000000 1.767570 0.000000 
#    z 0.000000 0.000000 1.717590 
# 
# From -- ./inp_files/15529.got.cif
#   From: 2010.05.17/outbox.cif.g08.bks.cpg/sg38_8_cif.got.tgz:15529.got - 2010.06.03 18:07:57.
