data_PCOD9359988
_publ_section_title
;
Structure prediction by ZEFSAII (Michael W. Deem and Ramdas Pophale) SiO2 
 PCOD9359988
Probable space group: A B M 2
;
_chemical_formula_sum "Si O2"
_cell_formula_units_Z 48
_cell_length_a 9.373435
_cell_length_b 17.318699
_cell_length_c 16.001554
_cell_angle_alpha 90.000000
_cell_angle_beta 90.000000
_cell_angle_gamma 90.000000
_cell_volume 2597.623459
_symmetry_space_group_name_H-M "A B M 2"
_symmetry_group_IT_number 39
_symmetry_cell_setting 'orthorhombic'
loop_
_space_group_symop_operation_xyz
x,y,z
-x,-y,z
-x,1/2+y,z
x,1/2-y,z
x,1/2+y,1/2+z
-x,1/2-y,1/2+z
-x,y,1/2+z
x,-y,1/2+z
loop_
_atom_site_type_symbol
_atom_site_label
_atom_site_fract_x
_atom_site_fract_y
_atom_site_fract_z
Si Si1 0.788631 0.160086 0.405270
Si Si2 0.348956 0.902559 0.242757
Si Si3 0.360396 0.422527 0.304783
Si Si4 0.284564 0.660452 0.069305
Si Si5 0.881248 0.657044 0.402157
Si Si6 0.527603 0.416140 0.482419
O O1 0.781573 0.250000 0.430926
O O2 0.721214 0.150680 0.313353
O O3 0.689555 0.107331 0.464472
O O4 0.953025 0.135571 0.400516
O O5 0.520641 0.887544 0.242231
O O6 0.277667 0.887282 0.154141
O O7 0.331333 0.990951 0.273345
O O8 0.215034 0.379496 0.328816
O O9 0.447342 0.421634 0.392682
O O10 0.256471 0.750000 0.086872
O O11 0.183794 0.634865 0.992684
O O12 0.443946 0.648185 0.033761
O O13 0.869585 0.750000 0.395755
O O14 0.500000 0.500000 0.522665
#
# Coordination Sequence:
#
# PCOD9359988 Si02
#       6
#     8   8   8   8   8   8
#     4  10  19  35  60  83 109 151 191 227 273 340
#     4  10  19  34  56  83 109 145 184 234 282 327
#     4   9  18  35  54  81 110 144 187 227 271 326
#     4  10  21  35  55  82 112 146 183 235 287 329
#     4   9  20  37  58  82 113 150 189 230 275 334
#     4  10  18  35  56  81 108 142 186 228 271 331
#
# _framework density 18.478429999999999
#
# number of rings (size 3 to 8) (size 9 to 14) (size 15 to 20)
#    0.000    2.333    3.333    1.000    2.333    5.333 
#    0.000    1.667    3.667    2.000    0.000    0.000 
#    0.000    0.000    0.000    0.000    0.000    0.000 
#
# Total GULP energy -133702.260613 kJ/mol
# GULP energy per Si atom -5570.927526 kJ/mol
# Density = 1.843637 g / cm^3
# Si number density = 18.478430 Si / 1000 Ang^3
#
#
#
# Elastic Constant Matrix: (Units=GPa)
#
#
# Indices 1 2 3 4 5 6 
#
# 1 141.2346 45.8434 18.0042 0.0000 0.0000 0.0000
# 2 45.8434 52.8091 24.4306 0.0000 0.0000 0.0000
# 3 18.0042 24.4306 53.5239 0.0000 0.0000 0.0000
# 4 0.0000 0.0000 0.0000 20.6576 0.0000 0.0000
# 5 0.0000 0.0000 0.0000 0.0000 12.6893 0.0000
# 6 0.0000 0.0000 0.0000 0.0000 0.0000 22.2052
#
#
#
# Elastic Compliance Matrix: (Units=1/GPa)
#
#
# Indices 1 2 3 4 5 6 
#
# 1 0.009882 -0.008925 0.000750 0.000000 0.000000 0.000000
# 2 -0.008925 0.032066 -0.011634 0.000000 0.000000 0.000000
# 3 0.000750 -0.011634 0.023741 0.000000 0.000000 0.000000
# 4 0.000000 0.000000 0.000000 0.048408 0.000000 0.000000
# 5 0.000000 0.000000 0.000000 0.000000 0.078806 0.000000
# 6 0.000000 0.000000 0.000000 0.000000 0.000000 0.045035
#
#
# Mechanical properties :
#
#
# Convention : Reuss Voigt Hill
#
# Bulk Modulus (GPa) = 38.35782 47.12490 42.74136
# Shear Modulus (GPa) = 17.46732 21.72970 19.59851
#
# Velocity S-wave (km/s) = 3.07788 3.43293 3.26024
# Velocity P-wave (km/s) = 5.78224 6.42428 6.11170
#
# Compressibility (1/GPa) = 0.02607030
#
# Stress axis : x y z
#
# Youngs Moduli (GPa) = 101.19498 31.18522 42.12053
#
# Poissons Ratio (x) = 0.27834 -0.03159
# Poissons Ratio (y) = 0.90320 0.49004
# Poissons Ratio (z) = -0.07588 0.36282
#
# Static dielectric constant tensor:
#      x y z
#    x 1.645570 0.000000 0.000000 
#    y 0.000000 1.667250 0.000000 
#    z 0.000000 0.000000 1.653730 
# 
# From -- ./inp_files/8371.got.cif
#   From: 2010.05.17/outbox.cif.g08.bks.cpg/sg39_5_cif.got.tgz:8371.got - 2010.06.03 18:22:40.
