data_PCOD9359899
_publ_section_title
;
Structure prediction by ZEFSAII (Michael W. Deem and Ramdas Pophale) SiO2 
 PCOD9359899
Probable space group: A B M 2
;
_chemical_formula_sum "Si O2"
_cell_formula_units_Z 56
_cell_length_a 16.115915
_cell_length_b 26.587802
_cell_length_c 5.472091
_cell_angle_alpha 90.000000
_cell_angle_beta 90.000000
_cell_angle_gamma 90.000000
_cell_volume 2344.718527
_symmetry_space_group_name_H-M "A B M 2"
_symmetry_group_IT_number 39
_symmetry_cell_setting 'orthorhombic'
loop_
_space_group_symop_operation_xyz
x,y,z
-x,-y,z
-x,1/2+y,z
x,1/2-y,z
x,1/2+y,1/2+z
-x,1/2-y,1/2+z
-x,y,1/2+z
x,-y,1/2+z
loop_
_atom_site_type_symbol
_atom_site_label
_atom_site_fract_x
_atom_site_fract_y
_atom_site_fract_z
Si Si1 0.172055 0.628757 0.453920
Si Si2 0.948364 0.750000 0.313349
Si Si3 0.809917 0.981623 0.748735
Si Si4 0.446306 0.750000 0.171560
Si Si5 0.993141 0.084095 0.990218
Si Si6 0.161831 0.656963 0.951924
Si Si7 0.445343 0.363676 0.640318
Si Si8 0.618691 0.524105 0.681064
O O1 0.193628 0.573657 0.361019
O O2 0.071296 0.623887 0.491959
O O3 0.213784 0.639387 0.716084
O O4 0.194782 0.664475 0.226309
O O5 0.887845 0.796237 0.351841
O O6 0.011389 0.750000 0.544337
O O7 0.846963 0.986821 0.475556
O O8 0.714442 0.993751 0.693633
O O9 0.509088 0.750000 0.937787
O O10 0.405856 0.806577 0.151042
O O11 0.002078 0.055546 0.740696
O O12 0.909144 0.115248 0.990904
O O13 0.504688 0.366227 0.881893
O O14 0.391107 0.415250 0.654604
O O15 0.585129 0.504201 0.940584
#
# Coordination Sequence:
#
# PCOD9359899 Si02
#       8
#     8   4   8   4   8   8   8   8
#     4  10  18  32  51  68  92 128 163 199 250 299
#     4  12  20  30  48  76 106 132 166 200 252 322
#     4  10  21  37  55  74  95 128 175 216 251 307
#     4   8  16  30  48  74 106 140 180 212 238 296
#     4   8  14  25  41  62  85 112 143 181 233 286
#     4  10  19  30  48  72  98 127 157 201 252 307
#     4  10  19  32  53  80 111 146 179 216 265 315
#     4  10  21  35  52  79 111 139 176 224 269 319
#
# _framework density 23.883462000000002
#
# number of rings (size 3 to 8) (size 9 to 14) (size 15 to 20)
#    0.000    2.286    0.000    5.143    0.000    1.714 
#    0.000    0.000    0.000   24.857    0.000    2.000 
#    0.000    0.000    0.000    0.000    0.000    0.000 
#
# Total GULP energy -155954.638868 kJ/mol
# GULP energy per Si atom -5569.808531 kJ/mol
# Density = 2.382910 g / cm^3
# Si number density = 23.883462 Si / 1000 Ang^3
#
#
#
# Elastic Constant Matrix: (Units=GPa)
#
#
# Indices 1 2 3 4 5 6 
#
# 1 20.2711 -4.3848 15.2515 0.0000 0.0000 0.0000
# 2 -4.3848 105.6474 8.7882 0.0000 0.0000 0.0000
# 3 15.2515 8.7882 195.8083 0.0000 0.0000 0.0000
# 4 0.0000 0.0000 0.0000 39.5438 0.0000 0.0000
# 5 0.0000 0.0000 0.0000 0.0000 -25.2726 0.0000
# 6 0.0000 0.0000 0.0000 0.0000 0.0000 -9.2441
#
#
#
# Elastic Compliance Matrix: (Units=1/GPa)
#
#
# Indices 1 2 3 4 5 6 
#
# 1 0.053081 0.002557 -0.004249 0.000000 0.000000 0.000000
# 2 0.002557 0.009624 -0.000631 0.000000 0.000000 0.000000
# 3 -0.004249 -0.000631 0.005466 0.000000 0.000000 0.000000
# 4 0.000000 0.000000 0.000000 0.025288 0.000000 0.000000
# 5 0.000000 0.000000 0.000000 0.000000 -0.039568 0.000000
# 6 0.000000 0.000000 0.000000 0.000000 0.000000 -0.108177
#
#
# Mechanical properties :
#
#
# Convention : Reuss Voigt Hill
#
# Bulk Modulus (GPa) = 15.74201 40.11519 27.92860
# Shear Modulus (GPa) = -175.66918 21.14353 -77.26283
#
# Velocity S-wave (km/s) = -8.58559 2.97859 -5.69387
# Velocity P-wave (km/s) = 9.57484 5.35369 5.61318
#
# Compressibility (1/GPa) = 0.06352428
#
# Stress axis : x y z
#
# Youngs Moduli (GPa) = 18.83898 103.90640 182.93796
#
# Poissons Ratio (x) = -0.26564 0.77735
# Poissons Ratio (y) = -0.04816 0.11545
# Poissons Ratio (z) = 0.08005 0.06557
#
# Static dielectric constant tensor:
#      x y z
#    x 1.899430 0.000000 0.000000 
#    y 0.000000 1.899520 0.000000 
#    z 0.000000 0.000000 2.093240 
# 
# From -- ./inp_files/1109.got.cif
#   From: 2010.05.17/outbox.cif.g08.bks.cpg/sg39_1_cif.got.tgz:1109.got - 2010.06.03 18:22:40.
