data_PCOD9359526
_publ_section_title
;
Structure prediction by ZEFSAII (Michael W. Deem and Ramdas Pophale) SiO2 
 PCOD9359526
Probable space group: A M M 2
;
_chemical_formula_sum "Si O2"
_cell_formula_units_Z 64
_cell_length_a 9.198321
_cell_length_b 9.746358
_cell_length_c 42.921469
_cell_angle_alpha 90.000000
_cell_angle_beta 90.000000
_cell_angle_gamma 90.000000
_cell_volume 3847.915253
_symmetry_space_group_name_H-M "A M M 2"
_symmetry_group_IT_number 38
_symmetry_cell_setting 'orthorhombic'
loop_
_space_group_symop_operation_xyz
x,y,z
-x,-y,z
-x,y,z
x,-y,z
x,1/2+y,1/2+z
-x,1/2-y,1/2+z
-x,1/2+y,1/2+z
x,1/2-y,1/2+z
loop_
_atom_site_type_symbol
_atom_site_label
_atom_site_fract_x
_atom_site_fract_y
_atom_site_fract_z
Si Si1 0.167416 0.167189 0.426340
Si Si2 0.823126 0.840893 0.110781
Si Si3 0.332492 0.167229 0.488638
Si Si4 0.674237 0.161117 0.803031
Si Si5 0.823107 0.340853 0.680353
Si Si6 0.325984 0.661899 0.862892
Si Si7 0.825518 0.661454 0.238809
Si Si8 0.174249 0.662304 0.052076
O O1 0.250537 0.213489 0.457414
O O2 0.246678 0.207797 0.394444
O O3 0.000000 0.210566 0.426749
O O4 0.169838 0.000000 0.426785
O O5 0.775968 0.797306 0.145568
O O6 0.775463 0.746213 0.082315
O O7 0.000000 0.836843 0.110868
O O8 0.781519 0.000000 0.106291
O O9 0.500000 0.210340 0.488489
O O10 0.251917 0.208419 0.520354
O O11 0.329891 0.000000 0.488247
O O12 0.500000 0.173677 0.799453
O O13 0.718239 0.250962 0.832768
O O14 0.751084 0.204771 0.771056
O O15 0.707732 0.000000 0.808213
O O16 0.781992 0.500000 0.684757
O O17 0.774336 0.247396 0.708936
O O18 0.000000 0.336188 0.680293
O O19 0.500000 0.676187 0.867044
O O20 0.295712 0.500000 0.857983
O O21 0.794805 0.500000 0.234131
O O22 0.000000 0.676998 0.241647
O O23 0.201780 0.500000 0.056492
O O24 0.000000 0.679270 0.048571
#
# Coordination Sequence:
#
# PCOD9359526 Si02
#       8
#     8   8   8   8   8   8   8   8
#     4   9  16  26  42  65  91 115 140 175 217 255
#     4   8  14  25  41  61  86 115 143 172 212 260
#     4   9  16  26  41  61  87 118 146 173 211 257
#     4   9  18  32  47  62  85 118 148 172 207 257
#     4   8  14  25  41  62  87 113 141 174 214 258
#     4   9  17  29  45  65  87 111 142 178 213 251
#     4   9  17  28  43  64  87 110 140 179 217 251
#     4   9  16  25  40  64  88 108 138 181 219 249
#
# _framework density 16.632383000000001
#
# number of rings (size 3 to 8) (size 9 to 14) (size 15 to 20)
#    0.000    3.250    0.000    1.500    0.000    4.500 
#    0.000    2.500    0.000    1.875    0.000    5.250 
#    0.000    0.000    0.000    0.000    0.000    0.000 
#
# Total GULP energy -178181.713819 kJ/mol
# GULP energy per Si atom -5568.178557 kJ/mol
# Density = 1.659453 g / cm^3
# Si number density = 16.632383 Si / 1000 Ang^3
#
#
#
# Elastic Constant Matrix: (Units=GPa)
#
#
# Indices 1 2 3 4 5 6 
#
# 1 35.4940 28.5654 63.9276 0.0000 0.0000 0.0000
# 2 28.5654 37.1520 76.8191 0.0000 0.0000 0.0000
# 3 63.9276 76.8191 221.9596 0.0000 0.0000 0.0000
# 4 0.0000 0.0000 0.0000 26.9491 0.0000 0.0000
# 5 0.0000 0.0000 0.0000 0.0000 -20.9931 0.0000
# 6 0.0000 0.0000 0.0000 0.0000 0.0000 9.0755
#
#
#
# Elastic Compliance Matrix: (Units=1/GPa)
#
#
# Indices 1 2 3 4 5 6 
#
# 1 0.076011 -0.046335 -0.005856 0.000000 0.000000 0.000000
# 2 -0.046335 0.122895 -0.029188 0.000000 0.000000 0.000000
# 3 -0.005856 -0.029188 0.016294 0.000000 0.000000 0.000000
# 4 0.000000 0.000000 0.000000 0.037107 0.000000 0.000000
# 5 0.000000 0.000000 0.000000 0.000000 -0.047635 0.000000
# 6 0.000000 0.000000 0.000000 0.000000 0.000000 0.110187
#
#
# Mechanical properties :
#
#
# Convention : Reuss Voigt Hill
#
# Bulk Modulus (GPa) = 19.06880 70.35887 44.71384
# Shear Modulus (GPa) = 10.09904 11.35919 10.72911
#
# Velocity S-wave (km/s) = 2.46680 2.61618 2.54259
# Velocity P-wave (km/s) = 4.42755 7.17775 5.96336
#
# Compressibility (1/GPa) = 0.05244168
#
# Stress axis : x y z
#
# Youngs Moduli (GPa) = 13.15603 8.13705 61.37282
#
# Poissons Ratio (x) = 0.37703 0.35940
# Poissons Ratio (y) = 0.60958 1.79136
# Poissons Ratio (z) = 0.07704 0.23751
#
# Static dielectric constant tensor:
#      x y z
#    x 1.556040 0.000000 0.000000 
#    y 0.000000 1.551010 0.000000 
#    z 0.000000 0.000000 1.553530 
# 
# From -- ./inp_files/24615.got.cif
#   From: 2010.05.17/outbox.cif.g08.bks.cpg/sg38_13_cif.got.tgz:24615.got - 2010.06.03 18:07:57.
