data_PCOD9359746
_publ_section_title
;
Structure prediction by ZEFSAII (Michael W. Deem and Ramdas Pophale) SiO2 
 PCOD9359746
Probable space group: A B M 2
;
_chemical_formula_sum "Si O2"
_cell_formula_units_Z 48
_cell_length_a 9.520504
_cell_length_b 8.616415
_cell_length_c 32.365636
_cell_angle_alpha 90.000000
_cell_angle_beta 90.000000
_cell_angle_gamma 90.000000
_cell_volume 2655.037708
_symmetry_space_group_name_H-M "A B M 2"
_symmetry_group_IT_number 39
_symmetry_cell_setting 'orthorhombic'
loop_
_space_group_symop_operation_xyz
x,y,z
-x,-y,z
-x,1/2+y,z
x,1/2-y,z
x,1/2+y,1/2+z
-x,1/2-y,1/2+z
-x,y,1/2+z
x,-y,1/2+z
loop_
_atom_site_type_symbol
_atom_site_label
_atom_site_fract_x
_atom_site_fract_y
_atom_site_fract_z
Si Si1 0.841214 0.436387 0.430190
Si Si2 0.840640 0.064384 0.521798
Si Si3 0.341659 0.564164 0.267589
Si Si4 0.160095 0.064856 0.606297
Si Si5 0.657386 0.064669 0.855725
Si Si6 0.841101 0.935639 0.192494
O O1 0.843720 0.250000 0.426084
O O2 0.782058 0.472834 0.476274
O O3 0.750956 0.510769 0.393960
O O4 0.000000 0.500000 0.427917
O O5 0.845128 0.250000 0.526596
O O6 0.774128 0.991204 0.562972
O O7 0.000000 0.000000 0.520204
O O8 0.500000 0.500000 0.263222
O O9 0.343326 0.750000 0.266897
O O10 0.289268 0.505143 0.312277
O O11 0.247990 0.498341 0.230702
O O12 0.156661 0.250000 0.607972
O O13 0.220352 0.996778 0.648790
O O14 0.000000 0.000000 0.605623
O O15 0.653302 0.250000 0.852712
O O16 0.500000 0.000000 0.861360
O O17 0.844747 0.750000 0.192096
O O18 0.000000 0.000000 0.195888
#
# Coordination Sequence:
#
# PCOD9359746 Si02
#       6
#     8   8   8   8   8   8
#     4  10  20  34  53  80 110 140 176 219 265 310
#     4   9  16  27  45  70 102 137 172 211 256 306
#     4  11  22  39  59  80 105 137 176 215 260 315
#     4  10  17  27  45  71 103 138 174 212 257 308
#     4  11  22  38  58  79 104 138 177 216 261 314
#     4  11  21  35  54  80 110 140 176 219 265 309
#
# _framework density 18.078841000000001
#
# number of rings (size 3 to 8) (size 9 to 14) (size 15 to 20)
#    0.000    1.667    0.000   10.000    0.000    2.667 
#    0.000    3.333    0.000    1.000    0.000    2.333 
#    0.000    0.000    0.000    0.000    0.000    0.000 
#
# Total GULP energy -133945.212319 kJ/mol
# GULP energy per Si atom -5581.050513 kJ/mol
# Density = 1.803769 g / cm^3
# Si number density = 18.078841 Si / 1000 Ang^3
#
#
#
# Elastic Constant Matrix: (Units=GPa)
#
#
# Indices 1 2 3 4 5 6 
#
# 1 30.3802 29.6235 59.3309 0.0000 0.0000 0.0000
# 2 29.6235 187.1554 95.1900 0.0000 0.0000 0.0000
# 3 59.3309 95.1900 219.7762 0.0000 0.0000 0.0000
# 4 0.0000 0.0000 0.0000 36.5753 0.0000 0.0000
# 5 0.0000 0.0000 0.0000 0.0000 -21.0560 0.0000
# 6 0.0000 0.0000 0.0000 0.0000 0.0000 23.5868
#
#
#
# Elastic Compliance Matrix: (Units=1/GPa)
#
#
# Indices 1 2 3 4 5 6 
#
# 1 0.070138 -0.001887 -0.018117 0.000000 0.000000 0.000000
# 2 -0.001887 0.006904 -0.002481 0.000000 0.000000 0.000000
# 3 -0.018117 -0.002481 0.010515 0.000000 0.000000 0.000000
# 4 0.000000 0.000000 0.000000 0.027341 0.000000 0.000000
# 5 0.000000 0.000000 0.000000 0.000000 -0.047492 0.000000
# 6 0.000000 0.000000 0.000000 0.000000 0.000000 0.042397
#
#
# Mechanical properties :
#
#
# Convention : Reuss Voigt Hill
#
# Bulk Modulus (GPa) = 23.48112 89.51118 56.49615
# Shear Modulus (GPa) = 29.59143 24.69904 27.14524
#
# Velocity S-wave (km/s) = 4.05013 3.70020 3.87911
# Velocity P-wave (km/s) = 5.90658 8.23859 7.16806
#
# Compressibility (1/GPa) = 0.04258740
#
# Stress axis : x y z
#
# Youngs Moduli (GPa) = 14.25757 144.85339 95.09805
#
# Poissons Ratio (x) = 0.27333 1.72292
# Poissons Ratio (y) = 0.02690 0.23591
# Poissons Ratio (z) = 0.25831 0.35933
#
# Static dielectric constant tensor:
#      x y z
#    x 1.590540 0.000000 0.000000 
#    y 0.000000 1.599160 0.000000 
#    z 0.000000 0.000000 1.674290 
# 
# From -- ./inp_files/16913.got.cif
#   From: 2010.05.17/outbox.cif.g08.bks.cpg/sg39_9_cif.got.tgz:16913.got - 2010.06.03 18:22:40.
