data_PCOD9359004
_publ_section_title
;
Structure prediction by ZEFSAII (Michael W. Deem and Ramdas Pophale) SiO2 
 PCOD9359004
Probable space group: A M M 2
;
_chemical_formula_sum "Si O2"
_cell_formula_units_Z 56
_cell_length_a 22.908413
_cell_length_b 9.030894
_cell_length_c 15.693168
_cell_angle_alpha 90.000000
_cell_angle_beta 90.000000
_cell_angle_gamma 90.000000
_cell_volume 3246.656730
_symmetry_space_group_name_H-M "A M M 2"
_symmetry_group_IT_number 38
_symmetry_cell_setting 'orthorhombic'
loop_
_space_group_symop_operation_xyz
x,y,z
-x,-y,z
-x,y,z
x,-y,z
x,1/2+y,1/2+z
-x,1/2-y,1/2+z
-x,1/2+y,1/2+z
x,1/2-y,1/2+z
loop_
_atom_site_type_symbol
_atom_site_label
_atom_site_fract_x
_atom_site_fract_y
_atom_site_fract_z
Si Si1 0.070065 0.173818 0.617990
Si Si2 0.930414 0.324028 0.798165
Si Si3 0.266882 0.177815 0.995679
Si Si4 0.567487 0.676898 0.723900
Si Si5 0.325145 0.325861 0.153188
Si Si6 0.867085 0.322458 0.458089
Si Si7 0.653645 0.824481 0.838907
O O1 0.079910 0.500000 0.794140
O O2 0.084883 0.247858 0.708437
O O3 0.100893 0.258042 0.541050
O O4 0.000000 0.185022 0.607342
O O5 0.895169 0.251151 0.874993
O O6 0.000000 0.301417 0.812333
O O7 0.914479 0.000000 0.617728
O O8 0.201438 0.213185 0.966748
O O9 0.312703 0.224880 0.922617
O O10 0.270910 0.000000 0.003605
O O11 0.283863 0.250558 0.084942
O O12 0.500000 0.718312 0.714831
O O13 0.572594 0.500000 0.719775
O O14 0.610498 0.751076 0.654438
O O15 0.595422 0.736702 0.812387
O O16 0.329593 0.500000 0.136687
O O17 0.307175 0.306227 0.252785
O O18 0.873803 0.500000 0.454306
O O19 0.640841 0.000000 0.845566
#
# Coordination Sequence:
#
# PCOD9359004 Si02
#       7
#     8   8   8   8   8   8   8
#     4  10  21  38  59  82 110 145 184 229 281 333
#     4  10  21  38  59  83 111 143 183 231 282 334
#     4  10  21  38  55  77 109 146 185 223 268 324
#     4   9  17  32  56  83 109 139 177 221 269 320
#     4   9  19  34  55  80 106 141 180 222 269 316
#     4  11  23  36  55  83 113 146 186 230 276 332
#     4   8  18  35  54  76 106 141 177 219 267 316
#
# _framework density 17.248512999999999
#
# number of rings (size 3 to 8) (size 9 to 14) (size 15 to 20)
#    0.857    1.571    0.000    2.143    0.000    7.429 
#    0.000    2.143    0.000    0.857    0.000    0.000 
#    0.000    0.000    0.000    0.000    0.000    0.000 
#
# Total GULP energy -155986.679149 kJ/mol
# GULP energy per Si atom -5570.952827 kJ/mol
# Density = 1.720925 g / cm^3
# Si number density = 17.248513 Si / 1000 Ang^3
#
#
#
# Elastic Constant Matrix: (Units=GPa)
#
#
# Indices 1 2 3 4 5 6 
#
# 1 27.4339 19.9274 6.7864 0.0000 0.0000 0.0000
# 2 19.9274 41.8833 9.9889 0.0000 0.0000 0.0000
# 3 6.7864 9.9889 41.4202 0.0000 0.0000 0.0000
# 4 0.0000 0.0000 0.0000 27.5694 0.0000 0.0000
# 5 0.0000 0.0000 0.0000 0.0000 204.8158 0.0000
# 6 0.0000 0.0000 0.0000 0.0000 0.0000 26.1021
#
#
#
# Elastic Compliance Matrix: (Units=1/GPa)
#
#
# Indices 1 2 3 4 5 6 
#
# 1 0.056032 -0.025963 -0.002919 0.000000 0.000000 0.000000
# 2 -0.025963 0.037363 -0.004757 0.000000 0.000000 0.000000
# 3 -0.002919 -0.004757 0.025768 0.000000 0.000000 0.000000
# 4 0.000000 0.000000 0.000000 0.036272 0.000000 0.000000
# 5 0.000000 0.000000 0.000000 0.000000 0.004882 0.000000
# 6 0.000000 0.000000 0.000000 0.000000 0.000000 0.038311
#
#
# Mechanical properties :
#
#
# Convention : Reuss Voigt Hill
#
# Bulk Modulus (GPa) = 19.27311 20.46033 19.86672
# Shear Modulus (GPa) = 17.65521 56.63311 37.14416
#
# Velocity S-wave (km/s) = 3.20281 5.73628 4.64558
# Velocity P-wave (km/s) = 4.98752 7.46733 6.34966
#
# Compressibility (1/GPa) = 0.05188575
#
# Stress axis : x y z
#
# Youngs Moduli (GPa) = 17.84683 26.76438 38.80747
#
# Poissons Ratio (x) = 0.69489 0.11329
# Poissons Ratio (y) = 0.46336 0.18459
# Poissons Ratio (z) = 0.05210 0.12731
#
# Static dielectric constant tensor:
#      x y z
#    x 1.556680 0.000000 0.000000 
#    y 0.000000 1.573880 0.000000 
#    z 0.000000 0.000000 1.570200 
# 
# From -- ./inp_files/18808.got.cif
#   From: 2010.05.17/outbox.cif.g08.bks.cpg/sg38_10_cif.got.tgz:18808.got - 2010.06.03 18:07:57.
