data_PCOD9359442
_publ_section_title
;
Structure prediction by ZEFSAII (Michael W. Deem and Ramdas Pophale) SiO2 
 PCOD9359442
Probable space group: A M M 2
;
_chemical_formula_sum "Si O2"
_cell_formula_units_Z 64
_cell_length_a 24.507025
_cell_length_b 8.310598
_cell_length_c 16.061846
_cell_angle_alpha 90.000000
_cell_angle_beta 90.000000
_cell_angle_gamma 90.000000
_cell_volume 3271.284580
_symmetry_space_group_name_H-M "A M M 2"
_symmetry_group_IT_number 38
_symmetry_cell_setting 'orthorhombic'
loop_
_space_group_symop_operation_xyz
x,y,z
-x,-y,z
-x,y,z
x,-y,z
x,1/2+y,1/2+z
-x,1/2-y,1/2+z
-x,1/2+y,1/2+z
x,1/2-y,1/2+z
loop_
_atom_site_type_symbol
_atom_site_label
_atom_site_fract_x
_atom_site_fract_y
_atom_site_fract_z
Si Si1 0.937073 0.194201 0.033210
Si Si2 0.867219 0.196857 0.874603
Si Si3 0.062927 0.305799 0.215995
Si Si4 0.741384 0.197258 0.874603
Si Si5 0.439564 0.193912 0.276871
Si Si6 0.560436 0.693912 0.972334
Si Si7 0.674516 0.691064 0.535210
Si Si8 0.674516 0.808937 0.713995
O O1 0.918934 0.250000 0.124603
O O2 0.000000 0.247966 0.021284
O O3 0.937173 0.000000 0.032366
O O4 0.899189 0.249583 0.957492
O O5 0.899189 0.249583 0.791713
O O6 0.804315 0.247221 0.874603
O O7 0.867870 0.000000 0.874603
O O8 0.062827 0.500000 0.216839
O O9 0.000000 0.252034 0.227921
O O10 0.709556 0.253119 0.792165
O O11 0.740338 0.000000 0.874603
O O12 0.709556 0.253119 0.957040
O O13 0.500000 0.247746 0.249036
O O14 0.433672 0.238835 0.374603
O O15 0.388357 0.260200 0.227503
O O16 0.438394 0.000000 0.272749
O O17 0.500000 0.747746 0.000169
O O18 0.561606 0.500000 0.976456
O O19 0.611643 0.760201 0.021702
O O20 0.677765 0.500000 0.534018
O O21 0.694239 0.750000 0.624603
O O22 0.677765 0.000000 0.715188
#
# Coordination Sequence:
#
# PCOD9359442 Si02
#       8
#     8   8   8   8   8   8   8   8
#     4   9  17  30  51  79 108 138 173 213 259 310
#     4   9  17  32  54  75 101 140 180 217 256 308
#     4   9  17  30  51  79 108 138 173 213 259 310
#     4   9  20  37  54  75 104 137 178 223 264 306
#     4   9  18  34  57  83 109 136 168 211 264 318
#     4   9  18  34  57  83 109 136 168 211 264 318
#     4  11  22  37  56  79 105 138 178 219 264 316
#     4  11  22  37  56  79 105 138 178 219 264 316
#
# _framework density 19.56418
#
# number of rings (size 3 to 8) (size 9 to 14) (size 15 to 20)
#    0.000    2.500    1.250    1.875    0.000    3.500 
#    0.000    1.875    0.000    7.500    0.000    0.000 
#    0.000    0.000    0.000    0.000    0.000    0.000 
#
# Total GULP energy -178605.702212 kJ/mol
# GULP energy per Si atom -5581.428194 kJ/mol
# Density = 1.951965 g / cm^3
# Si number density = 19.564180 Si / 1000 Ang^3
#
#
#
# Elastic Constant Matrix: (Units=GPa)
#
#
# Indices 1 2 3 4 5 6 
#
# 1 131.3980 11.9270 108.8120 0.0000 0.0000 0.0000
# 2 11.9270 8.3140 18.5746 0.0000 0.0000 0.0000
# 3 108.8120 18.5746 187.1123 0.0000 0.0000 0.0000
# 4 0.0000 0.0000 0.0000 25.5885 0.0000 0.0000
# 5 0.0000 0.0000 0.0000 0.0000 -3.3369 0.0000
# 6 0.0000 0.0000 0.0000 0.0000 0.0000 10.8576
#
#
#
# Elastic Compliance Matrix: (Units=1/GPa)
#
#
# Indices 1 2 3 4 5 6 
#
# 1 0.014722 -0.002560 -0.008307 0.000000 0.000000 0.000000
# 2 -0.002560 0.155002 -0.013898 0.000000 0.000000 0.000000
# 3 -0.008307 -0.013898 0.011555 0.000000 0.000000 0.000000
# 4 0.000000 0.000000 0.000000 0.039080 0.000000 0.000000
# 5 0.000000 0.000000 0.000000 0.000000 -0.299676 0.000000
# 6 0.000000 0.000000 0.000000 0.000000 0.000000 0.092101
#
#
# Mechanical properties :
#
#
# Convention : Reuss Voigt Hill
#
# Bulk Modulus (GPa) = 7.59025 67.27239 37.43132
# Shear Modulus (GPa) = 47.06681 19.12255 33.09468
#
# Velocity S-wave (km/s) = 4.91018 3.12977 4.11736
# Velocity P-wave (km/s) = 6.00288 6.89353 6.46357
#
# Compressibility (1/GPa) = 0.13174796
#
# Stress axis : x y z
#
# Youngs Moduli (GPa) = 67.92450 6.45152 86.54246
#
# Poissons Ratio (x) = 0.01652 0.71893
# Poissons Ratio (y) = 0.17391 1.20278
# Poissons Ratio (z) = 0.56427 0.08966
#
# Static dielectric constant tensor:
#      x y z
#    x 1.670620 0.000000 0.000000 
#    y 0.000000 1.685420 0.000000 
#    z 0.000000 0.000000 1.687790 
# 
# From -- ./inp_files/15891.got.cif
#   From: 2010.05.17/outbox.cif.g08.bks.cpg/sg38_8_cif.got.tgz:15891.got - 2010.06.03 18:07:57.
