data_PCOD9359936
_publ_section_title
;
Structure prediction by ZEFSAII (Michael W. Deem and Ramdas Pophale) SiO2 
 PCOD9359936
Probable space group: A B M 2
;
_chemical_formula_sum "Si O2"
_cell_formula_units_Z 32
_cell_length_a 14.921793
_cell_length_b 23.818947
_cell_length_c 5.283954
_cell_angle_alpha 90.000000
_cell_angle_beta 90.000000
_cell_angle_gamma 90.000000
_cell_volume 1878.030310
_symmetry_space_group_name_H-M "A B M 2"
_symmetry_group_IT_number 39
_symmetry_cell_setting 'orthorhombic'
loop_
_space_group_symop_operation_xyz
x,y,z
-x,-y,z
-x,1/2+y,z
x,1/2-y,z
x,1/2+y,1/2+z
-x,1/2-y,1/2+z
-x,y,1/2+z
x,-y,1/2+z
loop_
_atom_site_type_symbol
_atom_site_label
_atom_site_fract_x
_atom_site_fract_y
_atom_site_fract_z
Si Si1 0.267929 0.815320 0.004210
Si Si2 0.897266 0.023170 0.397949
Si Si3 0.824603 0.355659 0.496447
Si Si4 0.051996 0.250000 0.890076
Si Si5 0.440963 0.250000 0.437813
O O1 0.233041 0.750000 0.020555
O O2 0.243892 0.847534 0.261782
O O3 0.373389 0.803120 0.964080
O O4 0.224327 0.845996 0.763841
O O5 0.881241 0.087041 0.477640
O O6 0.856064 0.986514 0.622882
O O7 0.000000 0.000000 0.371316
O O8 0.892963 0.305031 0.458099
O O9 0.027591 0.250000 0.595238
O O10 0.489744 0.250000 0.168846
#
# Coordination Sequence:
#
# PCOD9359936 Si02
#       5
#     8   8   8   4   4
#     4  10  20  35  55  83 114 150 174 206 287 336
#     4  10  23  38  53  72  99 144 200 253 292 306
#     4  12  21  39  53  72 115 144 193 240 270 346
#     4  12  24  30  50  76  96 142 186 230 290 328
#     4  10  18  32  56  88 130 148 166 206 266 372
#
# _framework density 17.03913
#
# number of rings (size 3 to 8) (size 9 to 14) (size 15 to 20)
#    0.750    0.500    2.500    4.500    7.000    0.000 
#    0.000    0.000    0.000    0.000    0.000    0.000 
#    0.000   70.000    0.000    0.000    0.000    0.000 
#
# Total GULP energy -89106.381646 kJ/mol
# GULP energy per Si atom -5569.148853 kJ/mol
# Density = 1.700035 g / cm^3
# Si number density = 17.039130 Si / 1000 Ang^3
#
#
#
# Elastic Constant Matrix: (Units=GPa)
#
#
# Indices 1 2 3 4 5 6 
#
# 1 40.9190 10.9672 -17.4171 0.0000 0.0000 0.0000
# 2 10.9672 67.6618 -15.6050 0.0000 0.0000 0.0000
# 3 -17.4171 -15.6050 63.4182 0.0000 0.0000 0.0000
# 4 0.0000 0.0000 0.0000 23.5750 0.0000 0.0000
# 5 0.0000 0.0000 0.0000 0.0000 31.8268 0.0000
# 6 0.0000 0.0000 0.0000 0.0000 0.0000 22.6474
#
#
#
# Elastic Compliance Matrix: (Units=1/GPa)
#
#
# Indices 1 2 3 4 5 6 
#
# 1 0.028220 -0.002954 0.007023 0.000000 0.000000 0.000000
# 2 -0.002954 0.015978 0.003120 0.000000 0.000000 0.000000
# 3 0.007023 0.003120 0.018465 0.000000 0.000000 0.000000
# 4 0.000000 0.000000 0.000000 0.042418 0.000000 0.000000
# 5 0.000000 0.000000 0.000000 0.000000 0.031420 0.000000
# 6 0.000000 0.000000 0.000000 0.000000 0.000000 0.044155
#
#
# Mechanical properties :
#
#
# Convention : Reuss Voigt Hill
#
# Bulk Modulus (GPa) = 12.98008 14.20991 13.59499
# Shear Modulus (GPa) = 26.04741 28.54677 27.29709
#
# Velocity S-wave (km/s) = 3.91408 4.09756 4.00687
# Velocity P-wave (km/s) = 5.29727 5.54476 5.42243
#
# Compressibility (1/GPa) = 0.07704114
#
# Stress axis : x y z
#
# Youngs Moduli (GPa) = 35.43611 62.58652 54.15651
#
# Poissons Ratio (x) = 0.18490 -0.38036
# Poissons Ratio (y) = 0.10469 -0.16898
# Poissons Ratio (z) = -0.24888 -0.19528
#
# Static dielectric constant tensor:
#      x y z
#    x 1.559960 0.000000 0.000000 
#    y 0.000000 1.591070 0.000000 
#    z 0.000000 0.000000 1.633020 
# 
# From -- ./inp_files/270.got.cif
#   From: 2010.05.17/outbox.cif.g08.bks.cpg/sg39_1_cif.got.tgz:270.got - 2010.06.03 18:22:40.
