data_PCOD9359262
_publ_section_title
;
Structure prediction by ZEFSAII (Michael W. Deem and Ramdas Pophale) SiO2 
 PCOD9359262
Probable space group: A M M 2
;
_chemical_formula_sum "Si O2"
_cell_formula_units_Z 40
_cell_length_a 7.617798
_cell_length_b 11.745864
_cell_length_c 18.360176
_cell_angle_alpha 90.000000
_cell_angle_beta 90.000000
_cell_angle_gamma 90.000000
_cell_volume 1642.824838
_symmetry_space_group_name_H-M "A M M 2"
_symmetry_group_IT_number 38
_symmetry_cell_setting 'orthorhombic'
loop_
_space_group_symop_operation_xyz
x,y,z
-x,-y,z
-x,y,z
x,-y,z
x,1/2+y,1/2+z
-x,1/2-y,1/2+z
-x,1/2+y,1/2+z
x,1/2-y,1/2+z
loop_
_atom_site_type_symbol
_atom_site_label
_atom_site_fract_x
_atom_site_fract_y
_atom_site_fract_z
Si Si1 0.794752 0.836651 0.442440
Si Si2 0.299420 0.624151 0.260516
Si Si3 0.794752 0.836653 0.602460
Si Si4 0.700580 0.124151 0.284384
Si Si5 0.710713 0.872462 0.022451
O O1 0.733363 0.876462 0.522450
O O2 0.697857 0.878880 0.372188
O O3 0.774265 0.700344 0.453049
O O4 0.000000 0.864307 0.435244
O O5 0.500000 0.629371 0.289117
O O6 0.225454 0.500000 0.284333
O O7 0.302144 0.621120 0.172712
O O8 0.216025 0.750000 0.272450
O O9 0.774269 0.700345 0.591851
O O10 0.000000 0.864311 0.609656
O O11 0.500000 0.129371 0.255783
O O12 0.774545 0.000000 0.260567
O O13 0.500000 0.871443 0.022451
O O14 0.774754 0.000000 0.022451
#
# Coordination Sequence:
#
# PCOD9359262 Si02
#       5
#     8   8   8   8   8
#     4   9  20  36  56  86 120 152 192 244 298 355
#     4  10  22  40  61  86 118 157 202 250 299 355
#     4   9  20  36  56  86 120 152 192 244 298 355
#     4  10  22  40  61  86 118 157 202 250 299 355
#     4   9  17  31  54  83 116 155 196 238 288 347
#
# _framework density 24.348306000000001
#
# number of rings (size 3 to 8) (size 9 to 14) (size 15 to 20)
#    1.200    1.400    0.000    1.200    0.000    5.600 
#    0.000    8.000    0.000    0.000    0.000    0.000 
#    0.000    0.000    0.000    0.000    0.000    0.000 
#
# Total GULP energy -111359.051913 kJ/mol
# GULP energy per Si atom -5567.952596 kJ/mol
# Density = 2.429289 g / cm^3
# Si number density = 24.348306 Si / 1000 Ang^3
#
#
#
# Elastic Constant Matrix: (Units=GPa)
#
#
# Indices 1 2 3 4 5 6 
#
# 1 67.0262 4.3426 -3.5151 0.0000 0.0000 0.0000
# 2 4.3426 280.7828 16.9828 0.0000 0.0000 0.0000
# 3 -3.5151 16.9828 41.7400 0.0000 0.0000 0.0000
# 4 0.0000 0.0000 0.0000 7.6436 0.0000 0.0000
# 5 0.0000 0.0000 0.0000 0.0000 82.8803 0.0000
# 6 0.0000 0.0000 0.0000 0.0000 0.0000 -32.5325
#
#
#
# Elastic Compliance Matrix: (Units=1/GPa)
#
#
# Indices 1 2 3 4 5 6 
#
# 1 0.015013 -0.000316 0.001393 0.000000 0.000000 0.000000
# 2 -0.000316 0.003658 -0.001515 0.000000 0.000000 0.000000
# 3 0.001393 -0.001515 0.024692 0.000000 0.000000 0.000000
# 4 0.000000 0.000000 0.000000 0.130829 0.000000 0.000000
# 5 0.000000 0.000000 0.000000 0.000000 0.012066 0.000000
# 6 0.000000 0.000000 0.000000 0.000000 0.000000 -0.030738
#
#
# Mechanical properties :
#
#
# Convention : Reuss Voigt Hill
#
# Bulk Modulus (GPa) = 23.53721 47.24106 35.38914
# Shear Modulus (GPa) = 29.31569 36.38085 32.84827
#
# Velocity S-wave (km/s) = 3.47365 3.86966 3.67699
# Velocity P-wave (km/s) = 5.07703 6.27774 5.70904
#
# Compressibility (1/GPa) = 0.04248591
#
# Stress axis : x y z
#
# Youngs Moduli (GPa) = 66.60850 273.37362 40.49970
#
# Poissons Ratio (x) = 0.08651 -0.05642
# Poissons Ratio (y) = 0.02108 0.06136
# Poissons Ratio (z) = -0.09279 0.41416
#
# Static dielectric constant tensor:
#      x y z
#    x 1.880290 0.000000 0.000000 
#    y 0.000000 2.102140 0.000000 
#    z 0.000000 0.000000 1.926540 
# 
# From -- ./inp_files/19471.got.cif
#   From: 2010.05.17/outbox.cif.g08.bks.cpg/sg38_10_cif.got.tgz:19471.got - 2010.06.03 18:07:57.
