data_PCOD9359934
_publ_section_title
;
Structure prediction by ZEFSAII (Michael W. Deem and Ramdas Pophale) SiO2 
 PCOD9359934
Probable space group: A B M 2
;
_chemical_formula_sum "Si O2"
_cell_formula_units_Z 52
_cell_length_a 21.368137
_cell_length_b 9.226321
_cell_length_c 14.269703
_cell_angle_alpha 90.000000
_cell_angle_beta 90.000000
_cell_angle_gamma 90.000000
_cell_volume 2813.261831
_symmetry_space_group_name_H-M "A B M 2"
_symmetry_group_IT_number 39
_symmetry_cell_setting 'orthorhombic'
loop_
_space_group_symop_operation_xyz
x,y,z
-x,-y,z
-x,1/2+y,z
x,1/2-y,z
x,1/2+y,1/2+z
-x,1/2-y,1/2+z
-x,y,1/2+z
x,-y,1/2+z
loop_
_atom_site_type_symbol
_atom_site_label
_atom_site_fract_x
_atom_site_fract_y
_atom_site_fract_z
Si Si1 0.500000 0.000000 0.604110
Si Si2 0.606760 0.582978 0.463207
Si Si3 0.937477 0.923627 0.442721
Si Si4 0.699873 0.575585 0.098863
Si Si5 0.604986 0.917978 0.250660
Si Si6 0.831117 0.580231 0.592746
Si Si7 0.062039 0.077039 0.743459
O O1 0.546345 0.919977 0.531606
O O2 0.452667 0.925232 0.677726
O O3 0.628314 0.750000 0.460674
O O4 0.659152 0.484930 0.512379
O O5 0.593031 0.528402 0.356747
O O6 0.947288 0.750000 0.435752
O O7 0.876362 0.948387 0.504835
O O8 0.928398 0.998682 0.342505
O O9 0.000000 0.000000 0.482285
O O10 0.698732 0.750000 0.097809
O O11 0.663865 0.519688 0.192903
O O12 0.769776 0.516505 0.095013
O O13 0.619044 0.750000 0.263982
O O14 0.812910 0.750000 0.590748
O O15 0.876940 0.556655 0.680617
O O16 0.051166 0.250000 0.753103
O O17 0.000000 0.000000 0.702787
#
# Coordination Sequence:
#
# PCOD9359934 Si02
#       7
#     4   8   8   8   8   8   8
#     4  10  18  32  56  88 112 138 178 220 260 312
#     4  10  20  36  58  80 110 147 178 218 268 317
#     4  10  20  35  55  80 109 141 177 222 273 327
#     4  10  22  38  55  77 107 141 183 228 266 318
#     4   9  19  35  53  78 110 142 176 215 264 316
#     4  10  22  38  56  78 107 143 182 223 272 325
#     4  10  20  35  55  81 111 142 179 224 271 325
#
# _framework density 18.483881
#
# number of rings (size 3 to 8) (size 9 to 14) (size 15 to 20)
#    0.000    2.154    0.000    3.692    0.000    4.308 
#    0.000    9.231    0.000    0.000    0.000    0.000 
#    0.000    0.000    0.000    0.000    0.000    0.000 
#
# Total GULP energy -144837.781928 kJ/mol
# GULP energy per Si atom -5570.683920 kJ/mol
# Density = 1.844181 g / cm^3
# Si number density = 18.483881 Si / 1000 Ang^3
#
#
#
# Elastic Constant Matrix: (Units=GPa)
#
#
# Indices 1 2 3 4 5 6 
#
# 1 132.4975 63.8146 62.9413 0.0000 0.0000 0.0000
# 2 63.8146 87.2985 48.0854 0.0000 0.0000 0.0000
# 3 62.9413 48.0854 151.2764 0.0000 0.0000 0.0000
# 4 0.0000 0.0000 0.0000 17.5269 0.0000 0.0000
# 5 0.0000 0.0000 0.0000 0.0000 18.9082 0.0000
# 6 0.0000 0.0000 0.0000 0.0000 0.0000 25.9920
#
#
#
# Elastic Compliance Matrix: (Units=1/GPa)
#
#
# Indices 1 2 3 4 5 6 
#
# 1 0.012553 -0.007636 -0.002796 0.000000 0.000000 0.000000
# 2 -0.007636 0.018532 -0.002713 0.000000 0.000000 0.000000
# 3 -0.002796 -0.002713 0.008636 0.000000 0.000000 0.000000
# 4 0.000000 0.000000 0.000000 0.057055 0.000000 0.000000
# 5 0.000000 0.000000 0.000000 0.000000 0.052887 0.000000
# 6 0.000000 0.000000 0.000000 0.000000 0.000000 0.038473
#
#
# Mechanical properties :
#
#
# Convention : Reuss Voigt Hill
#
# Bulk Modulus (GPa) = 74.45898 80.08387 77.27142
# Shear Modulus (GPa) = 22.84106 25.56751 24.20429
#
# Velocity S-wave (km/s) = 3.51911 3.72322 3.62260
# Velocity P-wave (km/s) = 7.54207 7.86788 7.70670
#
# Compressibility (1/GPa) = 0.01343021
#
# Stress axis : x y z
#
# Youngs Moduli (GPa) = 79.66031 53.96169 115.79363
#
# Poissons Ratio (x) = 0.41208 0.32372
# Poissons Ratio (y) = 0.60832 0.31418
# Poissons Ratio (z) = 0.22270 0.14641
#
# Static dielectric constant tensor:
#      x y z
#    x 1.625380 0.000000 0.000000 
#    y 0.000000 1.630030 0.000000 
#    z 0.000000 0.000000 1.680490 
# 
# From -- ./inp_files/10304.got.cif
#   From: 2010.05.17/outbox.cif.g08.bks.cpg/sg39_6_cif.got.tgz:10304.got - 2010.06.03 18:22:40.
