data_PCOD9359970
_publ_section_title
;
Structure prediction by ZEFSAII (Michael W. Deem and Ramdas Pophale) SiO2 
 PCOD9359970
Probable space group: A B M 2
;
_chemical_formula_sum "Si O2"
_cell_formula_units_Z 64
_cell_length_a 14.866947
_cell_length_b 8.600138
_cell_length_c 25.595307
_cell_angle_alpha 90.000000
_cell_angle_beta 90.000000
_cell_angle_gamma 90.000000
_cell_volume 3272.559537
_symmetry_space_group_name_H-M "A B M 2"
_symmetry_group_IT_number 39
_symmetry_cell_setting 'orthorhombic'
loop_
_space_group_symop_operation_xyz
x,y,z
-x,-y,z
-x,1/2+y,z
x,1/2-y,z
x,1/2+y,1/2+z
-x,1/2-y,1/2+z
-x,y,1/2+z
x,-y,1/2+z
loop_
_atom_site_type_symbol
_atom_site_label
_atom_site_fract_x
_atom_site_fract_y
_atom_site_fract_z
Si Si1 0.788061 0.561873 0.812810
Si Si2 0.595321 0.565789 0.343799
Si Si3 0.897865 0.437122 0.713893
Si Si4 0.844092 0.928569 0.923960
Si Si5 0.090810 0.937635 0.529160
Si Si6 0.770920 0.562763 0.116337
Si Si7 0.364338 0.428045 0.955758
Si Si8 0.404215 0.065585 0.570505
O O1 0.787162 0.750000 0.813608
O O2 0.684374 0.505912 0.816646
O O3 0.845016 0.500714 0.764357
O O4 0.835766 0.503178 0.866411
O O5 0.500000 0.500000 0.324009
O O6 0.597687 0.750000 0.337958
O O7 0.600995 0.521256 0.405437
O O8 0.902304 0.250000 0.715847
O O9 0.834905 0.481127 0.664543
O O10 0.000000 0.500000 0.710417
O O11 0.875299 0.750000 0.917558
O O12 0.743005 0.922958 0.946978
O O13 0.900020 0.003535 0.970554
O O14 0.088847 0.750000 0.527232
O O15 0.175003 0.981986 0.564130
O O16 0.000000 0.000000 0.554017
O O17 0.760419 0.750000 0.117148
O O18 0.673910 0.486988 0.110061
O O19 0.398049 0.250000 0.953215
O O20 0.386085 0.497304 0.012237
O O21 0.406624 0.250000 0.566671
O O22 0.500000 0.000000 0.587862
#
# Coordination Sequence:
#
# PCOD9359970 Si02
#       8
#     8   8   8   8   8   8   8   8
#     4  10  21  39  62  89 121 160 204 255 309 364
#     4  11  21  35  56  88 126 165 210 253 302 363
#     4  11  24  43  68  94 119 156 204 257 311 367
#     4   8  16  32  55  80 115 158 194 236 296 352
#     4  10  19  34  55  83 116 153 191 238 296 360
#     4  10  22  42  64  85 118 157 199 251 307 361
#     4  10  18  34  56  81 120 166 209 250 297 354
#     4  12  24  37  58  88 122 160 204 249 302 363
#
# _framework density 19.556557999999999
#
# number of rings (size 3 to 8) (size 9 to 14) (size 15 to 20)
#    0.000    1.750    1.250    4.875    0.000    2.000 
#    0.000    3.125    0.000    3.000    0.000    0.000 
#    0.000    0.000    0.000    0.000    0.000    0.000 
#
# Total GULP energy -178623.664980 kJ/mol
# GULP energy per Si atom -5581.989531 kJ/mol
# Density = 1.951205 g / cm^3
# Si number density = 19.556558 Si / 1000 Ang^3
#
#
#
# Elastic Constant Matrix: (Units=GPa)
#
#
# Indices 1 2 3 4 5 6 
#
# 1 139.4039 42.7485 70.0218 0.0000 0.0000 0.0000
# 2 42.7485 77.9643 40.7091 0.0000 0.0000 0.0000
# 3 70.0218 40.7091 116.7118 0.0000 0.0000 0.0000
# 4 0.0000 0.0000 0.0000 16.0531 0.0000 0.0000
# 5 0.0000 0.0000 0.0000 0.0000 18.7311 0.0000
# 6 0.0000 0.0000 0.0000 0.0000 0.0000 32.3460
#
#
#
# Elastic Compliance Matrix: (Units=1/GPa)
#
#
# Indices 1 2 3 4 5 6 
#
# 1 0.010854 -0.003119 -0.005424 0.000000 0.000000 0.000000
# 2 -0.003119 0.016579 -0.003911 0.000000 0.000000 0.000000
# 3 -0.005424 -0.003911 0.013187 0.000000 0.000000 0.000000
# 4 0.000000 0.000000 0.000000 0.062293 0.000000 0.000000
# 5 0.000000 0.000000 0.000000 0.000000 0.053387 0.000000
# 6 0.000000 0.000000 0.000000 0.000000 0.000000 0.030916
#
#
# Mechanical properties :
#
#
# Convention : Reuss Voigt Hill
#
# Bulk Modulus (GPa) = 63.65168 71.22652 67.43910
# Shear Modulus (GPa) = 23.00302 25.46608 24.23455
#
# Velocity S-wave (km/s) = 3.43334 3.61248 3.52405
# Velocity P-wave (km/s) = 6.95236 7.34165 7.14966
#
# Compressibility (1/GPa) = 0.01571051
#
# Stress axis : x y z
#
# Youngs Moduli (GPa) = 92.12774 60.31708 75.83440
#
# Poissons Ratio (x) = 0.18815 0.41134
# Poissons Ratio (y) = 0.28738 0.29661
# Poissons Ratio (z) = 0.49972 0.23592
#
# Static dielectric constant tensor:
#      x y z
#    x 1.710090 0.000000 0.000000 
#    y 0.000000 1.675150 0.000000 
#    z 0.000000 0.000000 1.692400 
# 
# From -- ./inp_files/16141.got.cif
#   From: 2010.05.17/outbox.cif.g08.bks.cpg/sg39_9_cif.got.tgz:16141.got - 2010.06.03 18:22:40.
