data_PCOD9359414
_publ_section_title
;
Structure prediction by ZEFSAII (Michael W. Deem and Ramdas Pophale) SiO2 
 PCOD9359414
Probable space group: A M M 2
;
_chemical_formula_sum "Si O2"
_cell_formula_units_Z 40
_cell_length_a 8.706363
_cell_length_b 11.891935
_cell_length_c 20.537217
_cell_angle_alpha 90.000000
_cell_angle_beta 90.000000
_cell_angle_gamma 90.000000
_cell_volume 2126.331090
_symmetry_space_group_name_H-M "A M M 2"
_symmetry_group_IT_number 38
_symmetry_cell_setting 'orthorhombic'
loop_
_space_group_symop_operation_xyz
x,y,z
-x,-y,z
-x,y,z
x,-y,z
x,1/2+y,1/2+z
-x,1/2-y,1/2+z
-x,1/2+y,1/2+z
x,1/2-y,1/2+z
loop_
_atom_site_type_symbol
_atom_site_label
_atom_site_fract_x
_atom_site_fract_y
_atom_site_fract_z
Si Si1 0.183752 0.629926 0.410080
Si Si2 0.684212 0.258439 0.785674
Si Si3 0.686998 0.629217 0.156039
Si Si4 0.820721 0.000000 0.298579
Si Si5 0.315999 0.277177 0.019512
Si Si6 0.180369 0.000000 0.455026
O O1 0.228132 0.500000 0.399961
O O2 0.250802 0.706560 0.352356
O O3 0.243458 0.675643 0.479112
O O4 0.000000 0.638895 0.408553
O O5 0.500000 0.257622 0.789202
O O6 0.734494 0.181881 0.724655
O O7 0.741811 0.385282 0.775779
O O8 0.500000 0.626647 0.155585
O O9 0.739277 0.500000 0.148254
O O10 0.733316 0.704833 0.094355
O O11 0.809673 0.000000 0.377162
O O12 0.000000 0.000000 0.280921
O O13 0.500000 0.268292 0.017199
O O14 0.262487 0.390396 0.983137
O O15 0.000000 0.000000 0.472839
#
# Coordination Sequence:
#
# PCOD9359414 Si02
#       6
#     8   8   8   4   8   4
#     4  11  24  41  59  84 123 159 193 239 293 351
#     4  11  22  38  64  90 116 152 199 246 291 345
#     4   9  19  37  60  89 120 147 186 245 298 341
#     4  11  23  39  59  85 124 157 190 241 294 350
#     4  11  21  37  64  90 116 150 196 245 291 344
#     4  11  21  35  59  89 122 151 186 237 294 350
#
# _framework density 18.811745999999999
#
# number of rings (size 3 to 8) (size 9 to 14) (size 15 to 20)
#    0.000    1.400    3.000    3.000    0.000    3.200 
#    1.800    4.000    0.000    0.000    0.000    0.000 
#    0.000    0.000    0.000    0.000    0.000    0.000 
#
# Total GULP energy -111744.508674 kJ/mol
# GULP energy per Si atom -5587.225434 kJ/mol
# Density = 1.876893 g / cm^3
# Si number density = 18.811746 Si / 1000 Ang^3
#
#
#
# Elastic Constant Matrix: (Units=GPa)
#
#
# Indices 1 2 3 4 5 6 
#
# 1 44.8550 27.1339 21.2022 0.0000 0.0000 0.0000
# 2 27.1339 111.6770 42.3397 0.0000 0.0000 0.0000
# 3 21.2022 42.3397 109.1043 0.0000 0.0000 0.0000
# 4 0.0000 0.0000 0.0000 -7.7777 0.0000 0.0000
# 5 0.0000 0.0000 0.0000 0.0000 -19.2024 0.0000
# 6 0.0000 0.0000 0.0000 0.0000 0.0000 15.7292
#
#
#
# Elastic Compliance Matrix: (Units=1/GPa)
#
#
# Indices 1 2 3 4 5 6 
#
# 1 0.027040 -0.005367 -0.003172 0.000000 0.000000 0.000000
# 2 -0.005367 0.011564 -0.003445 0.000000 0.000000 0.000000
# 3 -0.003172 -0.003445 0.011119 0.000000 0.000000 0.000000
# 4 0.000000 0.000000 0.000000 -0.128573 0.000000 0.000000
# 5 0.000000 0.000000 0.000000 0.000000 -0.052077 0.000000
# 6 0.000000 0.000000 0.000000 0.000000 0.000000 0.063576
#
#
# Mechanical properties :
#
#
# Convention : Reuss Voigt Hill
#
# Bulk Modulus (GPa) = 38.82662 49.66530 44.24596
# Shear Modulus (GPa) = -143.68820 9.41388 -67.13716
#
# Velocity S-wave (km/s) = -8.74917 2.23945 -5.98050
# Velocity P-wave (km/s) = 9.02107 5.75720 4.91092
#
# Compressibility (1/GPa) = 0.02575552
#
# Stress axis : x y z
#
# Youngs Moduli (GPa) = 36.98202 86.47166 89.93857
#
# Poissons Ratio (x) = 0.46413 0.28527
# Poissons Ratio (y) = 0.19850 0.30982
# Poissons Ratio (z) = 0.11730 0.29787
#
# Static dielectric constant tensor:
#      x y z
#    x 1.634090 0.000000 0.000000 
#    y 0.000000 1.634300 0.000000 
#    z 0.000000 0.000000 1.640320 
# 
# From -- ./inp_files/19503.got.cif
#   From: 2010.05.17/outbox.cif.g08.bks.cpg/sg38_10_cif.got.tgz:19503.got - 2010.06.03 18:07:57.
