data_PCOD9359358
_publ_section_title
;
Structure prediction by ZEFSAII (Michael W. Deem and Ramdas Pophale) SiO2 
 PCOD9359358
Probable space group: A M M 2
;
_chemical_formula_sum "Si O2"
_cell_formula_units_Z 32
_cell_length_a 15.668421
_cell_length_b 17.922920
_cell_length_c 5.047918
_cell_angle_alpha 90.000000
_cell_angle_beta 90.000000
_cell_angle_gamma 90.000000
_cell_volume 1417.575798
_symmetry_space_group_name_H-M "A M M 2"
_symmetry_group_IT_number 38
_symmetry_cell_setting 'orthorhombic'
loop_
_space_group_symop_operation_xyz
x,y,z
-x,-y,z
-x,y,z
x,-y,z
x,1/2+y,1/2+z
-x,1/2-y,1/2+z
-x,1/2+y,1/2+z
x,1/2-y,1/2+z
loop_
_atom_site_type_symbol
_atom_site_label
_atom_site_fract_x
_atom_site_fract_y
_atom_site_fract_z
Si Si1 0.734671 0.913180 0.893660
Si Si2 0.189731 0.304388 0.755035
Si Si3 0.906019 0.415694 0.042978
Si Si4 0.401568 0.697452 0.162386
O O1 0.826573 0.907175 0.744113
O O2 0.663174 0.868269 0.732493
O O3 0.714586 0.000000 0.923744
O O4 0.746120 0.870959 0.173293
O O5 0.196915 0.248674 0.508617
O O6 0.105641 0.352583 0.820841
O O7 0.899613 0.500000 0.931671
O O8 0.000000 0.408603 0.166729
O O9 0.500000 0.672130 0.180991
O O10 0.389375 0.762497 0.381302
#
# Coordination Sequence:
#
# PCOD9359358 Si02
#       4
#     8   8   8   8
#     4  11  24  43  72 104 139 183 230 281 345 410
#     4  12  24  43  65  94 129 172 224 281 332 395
#     4  10  24  46  68  96 138 185 231 284 347 409
#     4  10  23  44  70 101 138 181 225 277 345 411
#
# _framework density 22.573747999999998
#
# number of rings (size 3 to 8) (size 9 to 14) (size 15 to 20)
#    0.000    1.250    2.500    2.250    3.500    2.500 
#    0.000    2.500    0.000    4.500    0.000    0.000 
#    0.000    0.000    0.000    0.000    0.000    0.000 
#
# Total GULP energy -89406.531960 kJ/mol
# GULP energy per Si atom -5587.908247 kJ/mol
# Density = 2.252237 g / cm^3
# Si number density = 22.573748 Si / 1000 Ang^3
#
#
#
# Elastic Constant Matrix: (Units=GPa)
#
#
# Indices 1 2 3 4 5 6 
#
# 1 157.1959 72.0119 29.0398 0.0000 0.0000 0.0000
# 2 72.0119 175.3039 49.0923 0.0000 0.0000 0.0000
# 3 29.0398 49.0923 124.7338 0.0000 0.0000 0.0000
# 4 0.0000 0.0000 0.0000 31.1350 0.0000 0.0000
# 5 0.0000 0.0000 0.0000 0.0000 28.8850 0.0000
# 6 0.0000 0.0000 0.0000 0.0000 0.0000 40.1755
#
#
#
# Elastic Compliance Matrix: (Units=1/GPa)
#
#
# Indices 1 2 3 4 5 6 
#
# 1 0.007880 -0.003061 -0.000630 0.000000 0.000000 0.000000
# 2 -0.003061 0.007600 -0.002279 0.000000 0.000000 0.000000
# 3 -0.000630 -0.002279 0.009061 0.000000 0.000000 0.000000
# 4 0.000000 0.000000 0.000000 0.032118 0.000000 0.000000
# 5 0.000000 0.000000 0.000000 0.000000 0.034620 0.000000
# 6 0.000000 0.000000 0.000000 0.000000 0.000000 0.024891
#
#
# Mechanical properties :
#
#
# Convention : Reuss Voigt Hill
#
# Bulk Modulus (GPa) = 79.35236 84.16906 81.76071
# Shear Modulus (GPa) = 37.79065 40.51174 39.15120
#
# Velocity S-wave (km/s) = 4.09601 4.24091 4.16909
# Velocity P-wave (km/s) = 7.58937 7.83248 7.71188
#
# Compressibility (1/GPa) = 0.01260202
#
# Stress axis : x y z
#
# Youngs Moduli (GPa) = 126.90515 131.58482 110.36891
#
# Poissons Ratio (x) = 0.40272 0.06953
# Poissons Ratio (y) = 0.38839 0.25148
# Poissons Ratio (z) = 0.07995 0.29982
#
# Static dielectric constant tensor:
#      x y z
#    x 1.891400 0.000000 0.000000 
#    y 0.000000 1.828570 0.000000 
#    z 0.000000 0.000000 1.903790 
# 
# From -- ./inp_files/1091.got.cif
#   From: 2010.05.17/outbox.cif.g08.bks.cpg/sg38_1_cif.got.tgz:1091.got - 2010.06.03 18:07:57.
