data_PCOD9359273
_publ_section_title
;
Structure prediction by ZEFSAII (Michael W. Deem and Ramdas Pophale) SiO2 
 PCOD9359273
Probable space group: A M M 2
;
_chemical_formula_sum "Si O2"
_cell_formula_units_Z 48
_cell_length_a 17.288186
_cell_length_b 7.894344
_cell_length_c 16.347782
_cell_angle_alpha 90.000000
_cell_angle_beta 90.000000
_cell_angle_gamma 90.000000
_cell_volume 2231.127099
_symmetry_space_group_name_H-M "A M M 2"
_symmetry_group_IT_number 38
_symmetry_cell_setting 'orthorhombic'
loop_
_space_group_symop_operation_xyz
x,y,z
-x,-y,z
-x,y,z
x,-y,z
x,1/2+y,1/2+z
-x,1/2-y,1/2+z
-x,1/2+y,1/2+z
x,1/2-y,1/2+z
loop_
_atom_site_type_symbol
_atom_site_label
_atom_site_fract_x
_atom_site_fract_y
_atom_site_fract_z
Si Si1 0.683572 0.205814 0.333690
Si Si2 0.000000 0.706508 0.150316
Si Si3 0.671273 0.695520 0.654887
Si Si4 0.167522 0.303114 0.095162
Si Si5 0.000000 0.206333 0.839702
Si Si6 0.161938 0.798382 0.913695
Si Si7 0.412826 0.798732 0.490141
O O1 0.653805 0.266042 0.245230
O O2 0.771725 0.261330 0.348271
O O3 0.634964 0.268190 0.412080
O O4 0.682401 0.000000 0.332499
O O5 0.919288 0.763697 0.110661
O O6 0.000000 0.500000 0.144606
O O7 0.000000 0.756154 0.245107
O O8 0.648243 0.500000 0.654232
O O9 0.763595 0.710324 0.641628
O O10 0.630510 0.774650 0.576110
O O11 0.170052 0.500000 0.120450
O O12 0.183499 0.288542 0.998821
O O13 0.078235 0.262434 0.883680
O O14 0.000000 0.000000 0.840707
O O15 0.158350 0.000000 0.927727
O O16 0.500000 0.729606 0.493574
O O17 0.417860 0.000000 0.477124
#
# Coordination Sequence:
#
# PCOD9359273 Si02
#       7
#     8   4   8   8   4   8   8
#     4  10  22  40  62  89 123 160 199 243 298 360
#     4   9  19  34  53  79 112 157 206 248 295 353
#     4  11  23  39  62  93 124 158 202 249 300 355
#     4  11  21  36  58  83 117 160 205 249 299 355
#     4   9  19  34  51  79 116 153 198 250 299 347
#     4  11  21  35  58  85 117 157 202 249 299 352
#     4  10  22  42  66  90 120 160 199 241 299 363
#
# _framework density 21.513788999999999
#
# number of rings (size 3 to 8) (size 9 to 14) (size 15 to 20)
#    0.000    1.667    1.667    3.000    0.000    3.667 
#    0.000    4.167    0.000    6.000    0.000    0.000 
#    0.000    0.000    0.000    0.000    0.000    0.000 
#
# Total GULP energy -134112.299838 kJ/mol
# GULP energy per Si atom -5588.012493 kJ/mol
# Density = 2.146482 g / cm^3
# Si number density = 21.513789 Si / 1000 Ang^3
#
#
#
# Elastic Constant Matrix: (Units=GPa)
#
#
# Indices 1 2 3 4 5 6 
#
# 1 121.0641 1.7002 48.3343 0.0000 0.0000 0.0000
# 2 1.7002 26.8464 -2.0462 0.0000 0.0000 0.0000
# 3 48.3343 -2.0462 139.5664 0.0000 0.0000 0.0000
# 4 0.0000 0.0000 0.0000 17.0110 0.0000 0.0000
# 5 0.0000 0.0000 0.0000 0.0000 7.3395 0.0000
# 6 0.0000 0.0000 0.0000 0.0000 0.0000 6.7478
#
#
#
# Elastic Compliance Matrix: (Units=1/GPa)
#
#
# Indices 1 2 3 4 5 6 
#
# 1 0.009605 -0.000863 -0.003339 0.000000 0.000000 0.000000
# 2 -0.000863 0.037368 0.000847 0.000000 0.000000 0.000000
# 3 -0.003339 0.000847 0.008334 0.000000 0.000000 0.000000
# 4 0.000000 0.000000 0.000000 0.058785 0.000000 0.000000
# 5 0.000000 0.000000 0.000000 0.000000 0.136249 0.000000
# 6 0.000000 0.000000 0.000000 0.000000 0.000000 0.148197
#
#
# Mechanical properties :
#
#
# Convention : Reuss Voigt Hill
#
# Bulk Modulus (GPa) = 20.57751 42.60594 31.59173
# Shear Modulus (GPa) = 11.86385 22.18557 17.02471
#
# Velocity S-wave (km/s) = 2.35085 3.21475 2.81613
# Velocity P-wave (km/s) = 4.11755 5.79884 5.02895
#
# Compressibility (1/GPa) = 0.04859675
#
# Stress axis : x y z
#
# Youngs Moduli (GPa) = 104.10873 26.76078 119.99227
#
# Poissons Ratio (x) = 0.02309 0.40067
# Poissons Ratio (y) = 0.08983 -0.10159
# Poissons Ratio (z) = 0.34763 -0.02266
#
# Static dielectric constant tensor:
#      x y z
#    x 1.776920 0.000000 0.000000 
#    y 0.000000 1.775020 0.000000 
#    z 0.000000 0.000000 1.771670 
# 
# From -- ./inp_files/15012.got.cif
#   From: 2010.05.17/outbox.cif.g08.bks.cpg/sg38_8_cif.got.tgz:15012.got - 2010.06.03 18:07:57.
