data_PCOD9359639
_publ_section_title
;
Structure prediction by ZEFSAII (Michael W. Deem and Ramdas Pophale) SiO2 
 PCOD9359639
Probable space group: A M M 2
;
_chemical_formula_sum "Si O2"
_cell_formula_units_Z 24
_cell_length_a 9.000000
_cell_length_b 18.000000
_cell_length_c 15.000000
_cell_angle_alpha 90.000000
_cell_angle_beta 90.000000
_cell_angle_gamma 90.000000
_cell_volume 2430.000000
_symmetry_space_group_name_H-M "A M M 2"
_symmetry_group_IT_number 38
_symmetry_cell_setting 'orthorhombic'
loop_
_space_group_symop_operation_xyz
x,y,z
-x,-y,z
-x,y,z
x,-y,z
x,1/2+y,1/2+z
-x,1/2-y,1/2+z
-x,1/2+y,1/2+z
x,1/2-y,1/2+z
loop_
_atom_site_type_symbol
_atom_site_label
_atom_site_fract_x
_atom_site_fract_y
_atom_site_fract_z
Si Si1 0.830220 0.584030 0.242350
Si Si2 0.324505 0.151180 0.408032
Si Si3 0.169514 0.301648 0.084132
Si Si4 0.677101 0.308536 0.375786
Si Si5 0.325057 0.000000 0.163659
Si Si6 0.323798 0.160034 0.079633
Si Si7 0.173695 0.500000 0.849988
O O1 0.779955 0.500000 0.228371
O O2 0.830476 0.631290 0.152753
O O3 0.732748 0.629228 0.310678
O O4 0.000000 0.582628 0.275599
O O5 0.500000 0.141239 0.394469
O O6 0.285450 0.175689 0.508021
O O7 0.270962 0.224509 0.354420
O O8 0.243588 0.075018 0.388404
O O9 0.227693 0.224425 0.125834
O O10 0.000000 0.292334 0.050223
O O11 0.500000 0.304985 0.373751
O O12 0.718844 0.331673 0.475992
O O13 0.300080 0.923828 0.110672
O O14 0.217161 0.000000 0.246905
O O15 0.500000 0.000000 0.192082
O O16 0.500000 0.175904 0.090327
O O17 0.000000 0.500000 0.866145
#
# Coordination Sequence:
#
# PCOD9359639 Si02
#       7
#     8   8   8   8   4   8   4
#     4  10  23  39  56  84 122 157 191 237 294 351
#     4  10  22  42  64  88 117 154 200 245 296 355
#     4  10  21  38  61  87 118 156 197 243 300 356
#     4   9  20  38  62  88 114 149 196 246 290 343
#     4  10  22  40  62  87 120 159 200 249 296 351
#     4   9  20  39  62  86 116 155 199 246 298 349
#     4  12  26  40  60  91 124 155 194 245 302 359
#
# _framework density 9.8765429999999999
#
# number of rings (size 3 to 8) (size 9 to 14) (size 15 to 20)
#    0.000    2.167    0.000    2.750    4.667    5.667 
#    0.000    0.000    0.000    0.000    0.000    0.000 
#    0.000    0.000    0.000    0.000    0.000    0.000 
#
# Total GULP energy -133794.410634 kJ/mol
# GULP energy per Si atom -5574.767110 kJ/mol
# Density = 0.985406 g / cm^3
# Si number density = 9.876543 Si / 1000 Ang^3
#
#
#
# Elastic Constant Matrix: (Units=GPa)
#
#
# Indices 1 2 3 4 5 6 
#
# 1 23.9451 52.1837 8.8278 0.0000 0.0000 0.0000
# 2 52.1837 182.0327 29.9075 0.0000 0.0000 0.0000
# 3 8.8278 29.9075 27.4659 0.0000 0.0000 0.0000
# 4 0.0000 0.0000 0.0000 27.5357 0.0000 0.0000
# 5 0.0000 0.0000 0.0000 0.0000 27.9842 0.0000
# 6 0.0000 0.0000 0.0000 0.0000 0.0000 38.9282
#
#
#
# Elastic Compliance Matrix: (Units=1/GPa)
#
#
# Indices 1 2 3 4 5 6 
#
# 1 0.111326 -0.031708 -0.001255 0.000000 0.000000 0.000000
# 2 -0.031708 0.015722 -0.006928 0.000000 0.000000 0.000000
# 3 -0.001255 -0.006928 0.044356 0.000000 0.000000 0.000000
# 4 0.000000 0.000000 0.000000 0.036317 0.000000 0.000000
# 5 0.000000 0.000000 0.000000 0.000000 0.035734 0.000000
# 6 0.000000 0.000000 0.000000 0.000000 0.000000 0.025688
#
#
# Mechanical properties :
#
#
# Convention : Reuss Voigt Hill
#
# Bulk Modulus (GPa) = 10.91436 46.14240 28.52838
# Shear Modulus (GPa) = 13.17647 28.39128 20.78387
#
# Velocity S-wave (km/s) = 2.58555 3.79530 3.24726
# Velocity P-wave (km/s) = 3.80142 6.52809 5.34167
#
# Compressibility (1/GPa) = 0.09162242
#
# Stress axis : x y z
#
# Youngs Moduli (GPa) = 8.98263 63.60710 22.54496
#
# Poissons Ratio (x) = 2.01685 0.02829
# Poissons Ratio (y) = 0.28482 0.15619
# Poissons Ratio (z) = 0.01127 0.44066
#
# Static dielectric constant tensor:
#      x y z
#    x 1.688800 0.000000 0.000000 
#    y 0.000000 1.691090 0.000000 
#    z 0.000000 0.000000 1.719920 
# 
# From -- ./inp_files/12054.got.cif
#   From: 2010.05.17/outbox.ucp.g08.bks.cvg/sg38_7_cif.got.tgz:12054.got - 2010.06.11 10:39:43.
