data_PCOD9359711
_publ_section_title
;
Structure prediction by ZEFSAII (Michael W. Deem and Ramdas Pophale) SiO2 
 PCOD9359711
Probable space group: A B M 2
;
_chemical_formula_sum "Si O2"
_cell_formula_units_Z 64
_cell_length_a 22.193706
_cell_length_b 8.708553
_cell_length_c 15.333820
_cell_angle_alpha 90.000000
_cell_angle_beta 90.000000
_cell_angle_gamma 90.000000
_cell_volume 2963.645057
_symmetry_space_group_name_H-M "A B M 2"
_symmetry_group_IT_number 39
_symmetry_cell_setting 'orthorhombic'
loop_
_space_group_symop_operation_xyz
x,y,z
-x,-y,z
-x,1/2+y,z
x,1/2-y,z
x,1/2+y,1/2+z
-x,1/2-y,1/2+z
-x,y,1/2+z
x,-y,1/2+z
loop_
_atom_site_type_symbol
_atom_site_label
_atom_site_fract_x
_atom_site_fract_y
_atom_site_fract_z
Si Si1 0.688260 0.427836 0.782230
Si Si2 0.063449 0.929553 0.078860
Si Si3 0.561642 0.928569 0.833439
Si Si4 0.061824 0.428064 0.792062
Si Si5 0.691837 0.570458 0.596115
Si Si6 0.810089 0.564989 0.777323
Si Si7 0.557387 0.068889 0.021418
Si Si8 0.189350 0.566836 0.579394
O O1 0.692526 0.250000 0.804228
O O2 0.623595 0.492308 0.807480
O O3 0.690593 0.459323 0.679117
O O4 0.747009 0.514841 0.818907
O O5 0.066750 0.750000 0.058011
O O6 0.062578 0.941878 0.185636
O O7 0.123837 0.013536 0.046059
O O8 0.000000 0.000000 0.048711
O O9 0.564027 0.750000 0.812365
O O10 0.500000 0.000000 0.796087
O O11 0.558492 0.961932 0.936326
O O12 0.059383 0.250000 0.814012
O O13 0.127370 0.487928 0.821246
O O14 0.000000 0.500000 0.824091
O O15 0.701533 0.750000 0.620963
O O16 0.624899 0.560532 0.557926
O O17 0.750324 0.514570 0.542036
O O18 0.811960 0.750000 0.769459
O O19 0.811177 0.490851 0.680562
O O20 0.547017 0.250000 0.002024
O O21 0.500000 0.000000 0.074093
O O22 0.194533 0.750000 0.573983
#
# Coordination Sequence:
#
# PCOD9359711 Si02
#       8
#     8   8   8   8   8   8   8   8
#     4  11  21  33  51  75 102 132 168 206 247 296
#     4   9  15  23  34  51  78 114 155 196 238 286
#     4  11  22  38  58  77 101 130 162 201 245 294
#     4   8  14  21  32  50  76 112 152 192 232 280
#     4  10  20  34  51  73 102 134 167 205 249 294
#     4   9  16  27  40  58  87 122 159 199 244 288
#     4  10  21  37  57  78 101 129 162 201 245 294
#     4  10  17  25  39  60  87 121 159 198 242 290
#
# _framework density 21.595027000000002
#
# number of rings (size 3 to 8) (size 9 to 14) (size 15 to 20)
#    0.000    2.250    0.000    7.875    0.000    6.000 
#    0.000    1.250    0.000    0.000    0.000    0.000 
#    0.000    1.000    0.000    7.000    0.000   13.375 
#
# Total GULP energy -178404.383629 kJ/mol
# GULP energy per Si atom -5575.136988 kJ/mol
# Density = 2.154588 g / cm^3
# Si number density = 21.595027 Si / 1000 Ang^3
#
#
#
# Elastic Constant Matrix: (Units=GPa)
#
#
# Indices 1 2 3 4 5 6 
#
# 1 254.2498 75.9894 7.0845 0.0000 0.0000 0.0000
# 2 75.9894 117.6128 -7.3618 0.0000 0.0000 0.0000
# 3 7.0845 -7.3618 14.6497 0.0000 0.0000 0.0000
# 4 0.0000 0.0000 0.0000 9.9028 0.0000 0.0000
# 5 0.0000 0.0000 0.0000 0.0000 36.5699 0.0000
# 6 0.0000 0.0000 0.0000 0.0000 0.0000 46.7716
#
#
#
# Elastic Compliance Matrix: (Units=1/GPa)
#
#
# Indices 1 2 3 4 5 6 
#
# 1 0.005121 -0.003576 -0.004274 0.000000 0.000000 0.000000
# 2 -0.003576 0.011276 0.007396 0.000000 0.000000 0.000000
# 3 -0.004274 0.007396 0.074044 0.000000 0.000000 0.000000
# 4 0.000000 0.000000 0.000000 0.100981 0.000000 0.000000
# 5 0.000000 0.000000 0.000000 0.000000 0.027345 0.000000
# 6 0.000000 0.000000 0.000000 0.000000 0.000000 0.021380
#
#
# Mechanical properties :
#
#
# Convention : Reuss Voigt Hill
#
# Bulk Modulus (GPa) = 11.16903 59.77073 35.46988
# Shear Modulus (GPa) = 18.45696 39.36888 28.91292
#
# Velocity S-wave (km/s) = 2.92667 4.27435 3.66303
# Velocity P-wave (km/s) = 4.07478 7.21791 5.86097
#
# Compressibility (1/GPa) = 0.08953333
#
# Stress axis : x y z
#
# Youngs Moduli (GPa) = 195.27165 88.68396 13.50545
#
# Poissons Ratio (x) = 0.31715 0.05772
# Poissons Ratio (y) = 0.69833 -0.09989
# Poissons Ratio (z) = 0.83453 -0.65590
#
# Static dielectric constant tensor:
#      x y z
#    x 1.911140 0.000000 0.000000 
#    y 0.000000 1.715290 0.000000 
#    z 0.000000 0.000000 1.861020 
# 
# From -- ./inp_files/15065.got.cif
#   From: 2010.05.17/outbox.cif.g08.bks.cpg/sg39_8_cif.got.tgz:15065.got - 2010.06.03 18:22:40.
