data_PCOD9359206
_publ_section_title
;
Structure prediction by ZEFSAII (Michael W. Deem and Ramdas Pophale) SiO2 
 PCOD9359206
Probable space group: A M M 2
;
_chemical_formula_sum "Si O2"
_cell_formula_units_Z 56
_cell_length_a 15.400002
_cell_length_b 22.430856
_cell_length_c 7.891511
_cell_angle_alpha 90.000000
_cell_angle_beta 90.000000
_cell_angle_gamma 90.000000
_cell_volume 2726.005896
_symmetry_space_group_name_H-M "A M M 2"
_symmetry_group_IT_number 38
_symmetry_cell_setting 'orthorhombic'
loop_
_space_group_symop_operation_xyz
x,y,z
-x,-y,z
-x,y,z
x,-y,z
x,1/2+y,1/2+z
-x,1/2-y,1/2+z
-x,1/2+y,1/2+z
x,1/2-y,1/2+z
loop_
_atom_site_type_symbol
_atom_site_label
_atom_site_fract_x
_atom_site_fract_y
_atom_site_fract_z
Si Si1 0.664631 0.189314 0.356080
Si Si2 0.396415 0.934789 0.864375
Si Si3 0.097608 0.314038 0.306281
Si Si4 0.704927 0.936541 0.515074
Si Si5 0.099559 0.899425 0.480718
Si Si6 0.596150 0.193293 0.012633
Si Si7 0.850653 0.185279 0.182412
O O1 0.667429 0.125564 0.445929
O O2 0.592574 0.190907 0.213594
O O3 0.652845 0.248940 0.465017
O O4 0.754520 0.191607 0.255085
O O5 0.500000 0.931329 0.817535
O O6 0.331837 0.936941 0.705397
O O7 0.386693 0.000000 0.952977
O O8 0.374678 0.872882 0.957226
O O9 0.111339 0.355392 0.142637
O O10 0.105532 0.247737 0.232127
O O11 0.150926 0.323650 0.479637
O O12 0.000000 0.324153 0.367358
O O13 0.809785 0.935205 0.494772
O O14 0.674950 0.000000 0.436968
O O15 0.105479 0.865204 0.300049
O O16 0.000000 0.924127 0.494283
O O17 0.500000 0.202373 0.939328
#
# Coordination Sequence:
#
# PCOD9359206 Si02
#       7
#     8   8   8   8   8   8   8
#     4  11  24  37  58  88 121 159 205 254 316 376
#     4   9  20  39  63  90 122 162 203 246 304 372
#     4  11  20  31  52  81 118 158 199 249 308 377
#     4  10  23  42  63  87 119 163 213 260 313 380
#     4  10  22  37  57  86 120 164 211 260 317 377
#     4  11  23  39  61  91 127 162 200 254 315 378
#     4  11  21  33  52  83 123 159 202 254 318 373
#
# _framework density 20.542874999999999
#
# number of rings (size 3 to 8) (size 9 to 14) (size 15 to 20)
#    0.000    1.571    1.429    3.429    6.000    3.143 
#    0.000    0.000    0.000    0.000    0.000    2.000 
#    0.000    0.000    0.000    0.000    0.000    0.000 
#
# Total GULP energy -155910.193854 kJ/mol
# GULP energy per Si atom -5568.221209 kJ/mol
# Density = 2.049612 g / cm^3
# Si number density = 20.542875 Si / 1000 Ang^3
#
#
#
# Elastic Constant Matrix: (Units=GPa)
#
#
# Indices 1 2 3 4 5 6 
#
# 1 57.0017 25.4016 4.2249 0.0000 0.0000 0.0000
# 2 25.4016 163.3968 42.1886 0.0000 0.0000 0.0000
# 3 4.2249 42.1886 70.8159 0.0000 0.0000 0.0000
# 4 0.0000 0.0000 0.0000 20.0580 0.0000 0.0000
# 5 0.0000 0.0000 0.0000 0.0000 27.7682 0.0000
# 6 0.0000 0.0000 0.0000 0.0000 0.0000 17.4409
#
#
#
# Elastic Compliance Matrix: (Units=1/GPa)
#
#
# Indices 1 2 3 4 5 6 
#
# 1 0.018882 -0.003125 0.000735 0.000000 0.000000 0.000000
# 2 -0.003125 0.007750 -0.004431 0.000000 0.000000 0.000000
# 3 0.000735 -0.004431 0.016717 0.000000 0.000000 0.000000
# 4 0.000000 0.000000 0.000000 0.049856 0.000000 0.000000
# 5 0.000000 0.000000 0.000000 0.000000 0.036012 0.000000
# 6 0.000000 0.000000 0.000000 0.000000 0.000000 0.057336
#
#
# Mechanical properties :
#
#
# Convention : Reuss Voigt Hill
#
# Bulk Modulus (GPa) = 33.66169 48.31607 40.98888
# Shear Modulus (GPa) = 23.79869 27.68004 25.73937
#
# Velocity S-wave (km/s) = 3.40735 3.67472 3.54356
# Velocity P-wave (km/s) = 5.64816 6.44790 6.06123
#
# Compressibility (1/GPa) = 0.02970736
#
# Stress axis : x y z
#
# Youngs Moduli (GPa) = 52.96189 129.03460 59.82032
#
# Poissons Ratio (x) = 0.40326 -0.04399
# Poissons Ratio (y) = 0.16552 0.26504
# Poissons Ratio (z) = -0.03894 0.57169
#
# Static dielectric constant tensor:
#      x y z
#    x 1.837070 0.000000 0.000000 
#    y 0.000000 1.816090 0.000000 
#    z 0.000000 0.000000 1.726790 
# 
# From -- ./inp_files/5737.got.cif
#   From: 2010.05.17/outbox.cif.g08.bks.cpg/sg38_3_cif.got.tgz:5737.got - 2010.06.03 18:07:57.
