data_PCOD9359416
_publ_section_title
;
Structure prediction by ZEFSAII (Michael W. Deem and Ramdas Pophale) SiO2 
 PCOD9359416
Probable space group: A M M 2
;
_chemical_formula_sum "Si O2"
_cell_formula_units_Z 58
_cell_length_a 16.238936
_cell_length_b 16.747464
_cell_length_c 10.149557
_cell_angle_alpha 90.000000
_cell_angle_beta 90.000000
_cell_angle_gamma 90.000000
_cell_volume 2760.283631
_symmetry_space_group_name_H-M "A M M 2"
_symmetry_group_IT_number 38
_symmetry_cell_setting 'orthorhombic'
loop_
_space_group_symop_operation_xyz
x,y,z
-x,-y,z
-x,y,z
x,-y,z
x,1/2+y,1/2+z
-x,1/2-y,1/2+z
-x,1/2+y,1/2+z
x,1/2-y,1/2+z
loop_
_atom_site_type_symbol
_atom_site_label
_atom_site_fract_x
_atom_site_fract_y
_atom_site_fract_z
Si Si1 0.780057 0.909031 0.305060
Si Si2 0.000000 0.000000 0.798792
Si Si3 0.719278 0.194041 0.515252
Si Si4 0.138537 0.705981 0.618909
Si Si5 0.409145 0.091310 0.208419
Si Si6 0.591580 0.814412 0.941634
Si Si7 0.294404 0.093407 0.760622
Si Si8 0.115398 0.657363 0.326218
O O1 0.787424 0.849427 0.426964
O O2 0.841786 0.876545 0.194086
O O3 0.681384 0.904521 0.274644
O O4 0.798943 0.000000 0.337606
O O5 0.070054 0.073149 0.801204
O O6 0.769318 0.261232 0.592597
O O7 0.648682 0.237098 0.433729
O O8 0.685942 0.130238 0.618222
O O9 0.099567 0.688857 0.475550
O O10 0.099257 0.773036 0.716323
O O11 0.500000 0.099720 0.277940
O O12 0.410276 0.000000 0.154816
O O13 0.409234 0.155187 0.091541
O O14 0.500000 0.797047 0.896754
O O15 0.632171 0.883846 0.856844
O O16 0.212535 0.137166 0.814141
O O17 0.280340 0.000000 0.752825
#
# Coordination Sequence:
#
# PCOD9359416 Si02
#       8
#     8   2   8   8   8   8   8   8
#     4  11  21  35  60  93 126 165 227 274 326 395
#     4  12  28  48  76 114 136 180 228 282 340 416
#     4  11  21  38  56  93 128 173 218 276 340 405
#     4  11  21  42  69 100 136 180 214 273 332 408
#     4   9  18  32  50  76 115 163 214 274 333 380
#     4  11  22  35  57  86 124 170 228 285 332 393
#     4  11  22  40  65  93 128 174 226 281 344 405
#     4  11  24  44  73 104 142 176 226 276 344 411
#
# _framework density 21.012333000000002
#
# number of rings (size 3 to 8) (size 9 to 14) (size 15 to 20)
#    0.000    1.241    4.828    1.655    0.966    3.586 
#    0.000    0.000    0.000    3.310    0.000    0.000 
#    0.000    0.000    0.000    0.000    0.000    0.000 
#
# Total GULP energy -161469.678258 kJ/mol
# GULP energy per Si atom -5567.919940 kJ/mol
# Density = 2.096451 g / cm^3
# Si number density = 21.012333 Si / 1000 Ang^3
#
#
#
# Elastic Constant Matrix: (Units=GPa)
#
#
# Indices 1 2 3 4 5 6 
#
# 1 19.8046 -54.1382 -165.9057 0.0000 0.0000 0.0000
# 2 -54.1382 10.7822 -220.6527 0.0000 0.0000 0.0000
# 3 -165.9057 -220.6527 -494.3443 0.0000 0.0000 0.0000
# 4 0.0000 0.0000 0.0000 -163.1381 0.0000 0.0000
# 5 0.0000 0.0000 0.0000 0.0000 -195.3669 0.0000
# 6 0.0000 0.0000 0.0000 0.0000 0.0000 30.1280
#
#
#
# Elastic Compliance Matrix: (Units=1/GPa)
#
#
# Indices 1 2 3 4 5 6 
#
# 1 0.013917 -0.002536 -0.003539 0.000000 0.000000 0.000000
# 2 -0.002536 0.009614 -0.003440 0.000000 0.000000 0.000000
# 3 -0.003539 -0.003440 0.000700 0.000000 0.000000 0.000000
# 4 0.000000 0.000000 0.000000 -0.006130 0.000000 0.000000
# 5 0.000000 0.000000 0.000000 0.000000 -0.005119 0.000000
# 6 0.000000 0.000000 0.000000 0.000000 0.000000 0.033192
#
#
# Mechanical properties :
#
#
# Convention : Reuss Voigt Hill
#
# Bulk Modulus (GPa) = 192.26146 -149.46119 21.40013
# Shear Modulus (GPa) = 74.69641 -67.21280 3.74180
#
# Velocity S-wave (km/s) = 5.96875 -5.66187 1.33590
# Velocity P-wave (km/s) = 11.79828 10.67834 3.54770
#
# Compressibility (1/GPa) = 0.00520125
#
# Stress axis : x y z
#
# Youngs Moduli (GPa) = 71.85445 104.01758 1428.35035
#
# Poissons Ratio (x) = 0.26382 5.05429
# Poissons Ratio (y) = 0.18225 4.91342
# Poissons Ratio (z) = 0.25426 0.35781
#
# Static dielectric constant tensor:
#      x y z
#    x 1.791730 0.000000 0.000000 
#    y 0.000000 1.726440 0.000000 
#    z 0.000000 0.000000 1.940650 
# 
# From -- ./inp_files/10564.got.cif
#   From: 2010.05.17/outbox.cif.g08.bks.cpg/sg38_6_cif.got.tgz:10564.got - 2010.06.03 18:07:57.
