data_PCOD9359796
_publ_section_title
;
Structure prediction by ZEFSAII (Michael W. Deem and Ramdas Pophale) SiO2 
 PCOD9359796
Probable space group: A B M 2
;
_chemical_formula_sum "Si O2"
_cell_formula_units_Z 64
_cell_length_a 15.371065
_cell_length_b 18.930036
_cell_length_c 11.286124
_cell_angle_alpha 90.000000
_cell_angle_beta 90.000000
_cell_angle_gamma 90.000000
_cell_volume 3283.977830
_symmetry_space_group_name_H-M "A B M 2"
_symmetry_group_IT_number 39
_symmetry_cell_setting 'orthorhombic'
loop_
_space_group_symop_operation_xyz
x,y,z
-x,-y,z
-x,1/2+y,z
x,1/2-y,z
x,1/2+y,1/2+z
-x,1/2-y,1/2+z
-x,y,1/2+z
x,-y,1/2+z
loop_
_atom_site_type_symbol
_atom_site_label
_atom_site_fract_x
_atom_site_fract_y
_atom_site_fract_z
Si Si1 0.851863 0.087481 0.896390
Si Si2 0.286761 0.394546 0.799926
Si Si3 0.020596 0.165598 0.843171
Si Si4 0.481356 0.414932 0.889110
Si Si5 0.160071 0.170031 0.638845
Si Si6 0.452101 0.423065 0.144710
Si Si7 0.861482 0.930730 0.978659
Si Si8 0.741649 0.452954 0.692390
O O1 0.765454 0.084536 0.816129
O O2 0.925278 0.133250 0.831223
O O3 0.881361 0.006364 0.918185
O O4 0.836726 0.121217 0.024495
O O5 0.383781 0.396985 0.847629
O O6 0.249637 0.334854 0.713381
O O7 0.221009 0.398614 0.909368
O O8 0.272772 0.465767 0.724841
O O9 0.020061 0.250000 0.858989
O O10 0.083362 0.149207 0.731232
O O11 0.061620 0.124325 0.955929
O O12 0.500000 0.500000 0.898121
O O13 0.535694 0.389609 0.775052
O O14 0.491159 0.388981 0.024823
O O15 0.143118 0.250000 0.600765
O O16 0.500000 0.500000 0.153039
O O17 0.348258 0.430318 0.131319
O O18 0.825590 0.943943 0.109403
#
# Coordination Sequence:
#
# PCOD9359796 Si02
#       8
#     8   8   8   8   8   8   8   8
#     4  11  23  36  60  87 121 154 204 263 308 371
#     4  10  18  34  55  82 119 158 193 247 299 372
#     4  10  23  43  61  83 115 161 212 254 310 380
#     4  10  18  28  50  83 125 159 195 238 308 377
#     4  10  22  40  60  83 117 163 209 254 306 378
#     4  10  19  30  51  85 130 162 193 242 316 389
#     4  10  21  37  58  86 123 154 197 250 316 363
#     4  11  20  34  55  91 128 155 192 255 322 361
#
# _framework density 19.488558999999999
#
# number of rings (size 3 to 8) (size 9 to 14) (size 15 to 20)
#    0.000    1.750    5.000    0.750    1.750    1.000 
#    0.000    0.625    0.000    0.000    0.000    5.250 
#    0.000    0.000    0.000    0.000    0.000    0.000 
#
# Total GULP energy -178271.372521 kJ/mol
# GULP energy per Si atom -5570.980391 kJ/mol
# Density = 1.944420 g / cm^3
# Si number density = 19.488559 Si / 1000 Ang^3
#
#
#
# Elastic Constant Matrix: (Units=GPa)
#
#
# Indices 1 2 3 4 5 6 
#
# 1 57.5059 13.1929 5.3886 0.0000 0.0000 0.0000
# 2 13.1929 41.0155 16.9821 0.0000 0.0000 0.0000
# 3 5.3886 16.9821 106.0050 0.0000 0.0000 0.0000
# 4 0.0000 0.0000 0.0000 14.9332 0.0000 0.0000
# 5 0.0000 0.0000 0.0000 0.0000 170.9451 0.0000
# 6 0.0000 0.0000 0.0000 0.0000 0.0000 11.9685
#
#
#
# Elastic Compliance Matrix: (Units=1/GPa)
#
#
# Indices 1 2 3 4 5 6 
#
# 1 0.018775 -0.006045 0.000014 0.000000 0.000000 0.000000
# 2 -0.006045 0.028059 -0.004188 0.000000 0.000000 0.000000
# 3 0.000014 -0.004188 0.010104 0.000000 0.000000 0.000000
# 4 0.000000 0.000000 0.000000 0.066965 0.000000 0.000000
# 5 0.000000 0.000000 0.000000 0.000000 0.005850 0.000000
# 6 0.000000 0.000000 0.000000 0.000000 0.000000 0.083552
#
#
# Mechanical properties :
#
#
# Convention : Reuss Voigt Hill
#
# Bulk Modulus (GPa) = 27.39685 30.62819 29.01252
# Shear Modulus (GPa) = 20.33266 50.83354 35.58310
#
# Velocity S-wave (km/s) = 3.23354 5.11277 4.27763
# Velocity P-wave (km/s) = 5.29429 7.11365 6.27031
#
# Compressibility (1/GPa) = 0.03650055
#
# Stress axis : x y z
#
# Youngs Moduli (GPa) = 53.26228 35.63874 98.97356
#
# Poissons Ratio (x) = 0.21543 -0.00139
# Poissons Ratio (y) = 0.32197 0.41449
# Poissons Ratio (z) = -0.00075 0.14925
#
# Static dielectric constant tensor:
#      x y z
#    x 0.539170 0.000000 0.000000 
#    y 0.000000 1.669450 0.000000 
#    z 0.000000 0.000000 1.738670 
# 
# From -- ./inp_files/6652.got.cif
#   From: 2010.05.17/outbox.cif.g08.bks.cpg/sg39_4_cif.got.tgz:6652.got - 2010.06.03 18:22:40.
