data_PCOD9359872
_publ_section_title
;
Structure prediction by ZEFSAII (Michael W. Deem and Ramdas Pophale) SiO2 
 PCOD9359872
Probable space group: A B M 2
;
_chemical_formula_sum "Si O2"
_cell_formula_units_Z 56
_cell_length_a 14.469562
_cell_length_b 8.672096
_cell_length_c 21.977201
_cell_angle_alpha 90.000000
_cell_angle_beta 90.000000
_cell_angle_gamma 90.000000
_cell_volume 2757.730625
_symmetry_space_group_name_H-M "A B M 2"
_symmetry_group_IT_number 39
_symmetry_cell_setting 'orthorhombic'
loop_
_space_group_symop_operation_xyz
x,y,z
-x,-y,z
-x,1/2+y,z
x,1/2-y,z
x,1/2+y,1/2+z
-x,1/2-y,1/2+z
-x,y,1/2+z
x,-y,1/2+z
loop_
_atom_site_type_symbol
_atom_site_label
_atom_site_fract_x
_atom_site_fract_y
_atom_site_fract_z
Si Si1 0.396790 0.066477 0.260500
Si Si2 0.789728 0.933536 0.949841
Si Si3 0.777851 0.436858 0.316693
Si Si4 0.896342 0.565580 0.565044
Si Si5 0.601517 0.567247 0.006712
Si Si6 0.604457 0.565758 0.633258
Si Si7 0.103859 0.436447 0.699938
O O1 0.402261 0.250000 0.258424
O O2 0.500000 0.000000 0.269283
O O3 0.323997 0.006751 0.309332
O O4 0.358324 0.002584 0.195844
O O5 0.804400 0.750000 0.955152
O O6 0.819032 0.982679 0.882187
O O7 0.679641 0.960571 0.956756
O O8 0.840659 0.009654 0.006509
O O9 0.770933 0.250000 0.315683
O O10 0.837963 0.487497 0.258562
O O11 0.899165 0.750000 0.564310
O O12 0.859365 0.518560 0.632473
O O13 0.000000 0.500000 0.561165
O O14 0.500000 0.500000 0.993416
O O15 0.591258 0.750000 0.016589
O O16 0.641087 0.492216 0.068850
O O17 0.500000 0.500000 0.632026
O O18 0.606026 0.750000 0.636026
O O19 0.101729 0.250000 0.701350
O O20 0.000000 0.500000 0.704389
#
# Coordination Sequence:
#
# PCOD9359872 Si02
#       7
#     8   8   8   8   8   8   8
#     4  11  22  37  57  84 117 158 203 249 299 352
#     4  10  23  40  59  86 123 162 199 247 299 354
#     4  10  22  41  60  86 123 161 202 245 298 354
#     4  10  21  39  64  92 119 152 195 244 301 362
#     4  10  20  35  54  81 115 156 201 246 298 349
#     4  10  18  31  52  78 108 144 189 243 296 346
#     4   9  20  39  64  91 118 151 192 242 297 355
#
# _framework density 20.306553000000001
#
# number of rings (size 3 to 8) (size 9 to 14) (size 15 to 20)
#    0.000    2.000    0.000    5.143    2.000    4.000 
#    0.000    2.857    0.000    0.000    0.000    0.000 
#    0.000    0.000    0.000    0.000    0.000    0.000 
#
# Total GULP energy -156313.751669 kJ/mol
# GULP energy per Si atom -5582.633988 kJ/mol
# Density = 2.026033 g / cm^3
# Si number density = 20.306553 Si / 1000 Ang^3
#
#
#
# Elastic Constant Matrix: (Units=GPa)
#
#
# Indices 1 2 3 4 5 6 
#
# 1 77.2492 28.9611 70.4655 0.0000 0.0000 0.0000
# 2 28.9611 65.1888 57.1437 0.0000 0.0000 0.0000
# 3 70.4655 57.1437 178.3141 0.0000 0.0000 0.0000
# 4 0.0000 0.0000 0.0000 16.9856 0.0000 0.0000
# 5 0.0000 0.0000 0.0000 0.0000 22.0607 0.0000
# 6 0.0000 0.0000 0.0000 0.0000 0.0000 25.1039
#
#
#
# Elastic Compliance Matrix: (Units=1/GPa)
#
#
# Indices 1 2 3 4 5 6 
#
# 1 0.020604 -0.002804 -0.007244 0.000000 0.000000 0.000000
# 2 -0.002804 0.021714 -0.005851 0.000000 0.000000 0.000000
# 3 -0.007244 -0.005851 0.010346 0.000000 0.000000 0.000000
# 4 0.000000 0.000000 0.000000 0.058873 0.000000 0.000000
# 5 0.000000 0.000000 0.000000 0.000000 0.045330 0.000000
# 6 0.000000 0.000000 0.000000 0.000000 0.000000 0.039834
#
#
# Mechanical properties :
#
#
# Convention : Reuss Voigt Hill
#
# Bulk Modulus (GPa) = 47.92180 70.43254 59.17717
# Shear Modulus (GPa) = 21.23564 23.77548 22.50556
#
# Velocity S-wave (km/s) = 3.23732 3.42545 3.33271
# Velocity P-wave (km/s) = 6.13385 7.09964 6.63434
#
# Compressibility (1/GPa) = 0.02086733
#
# Stress axis : x y z
#
# Youngs Moduli (GPa) = 48.53477 46.05238 96.66023
#
# Poissons Ratio (x) = 0.12913 0.70016
# Poissons Ratio (y) = 0.13609 0.56553
# Poissons Ratio (z) = 0.35156 0.26944
#
# Static dielectric constant tensor:
#      x y z
#    x 1.696930 0.000000 0.000000 
#    y 0.000000 1.686680 0.000000 
#    z 0.000000 0.000000 1.774950 
# 
# From -- ./inp_files/14747.got.cif
#   From: 2010.05.17/outbox.cif.g08.bks.cpg/sg39_8_cif.got.tgz:14747.got - 2010.06.03 18:22:40.
