data_PCOD9359781
_publ_section_title
;
Structure prediction by ZEFSAII (Michael W. Deem and Ramdas Pophale) SiO2 
 PCOD9359781
Probable space group: A B M 2
;
_chemical_formula_sum "Si O2"
_cell_formula_units_Z 44
_cell_length_a 9.035478
_cell_length_b 14.871847
_cell_length_c 17.378723
_cell_angle_alpha 90.000000
_cell_angle_beta 90.000000
_cell_angle_gamma 90.000000
_cell_volume 2335.252806
_symmetry_space_group_name_H-M "A B M 2"
_symmetry_group_IT_number 39
_symmetry_cell_setting 'orthorhombic'
loop_
_space_group_symop_operation_xyz
x,y,z
-x,-y,z
-x,1/2+y,z
x,1/2-y,z
x,1/2+y,1/2+z
-x,1/2-y,1/2+z
-x,y,1/2+z
x,-y,1/2+z
loop_
_atom_site_type_symbol
_atom_site_label
_atom_site_fract_x
_atom_site_fract_y
_atom_site_fract_z
Si Si1 0.744812 0.750000 0.345031
Si Si2 0.377166 0.750000 0.091945
Si Si3 0.478977 0.396566 0.304169
Si Si4 0.924540 0.750000 0.494602
Si Si5 0.709945 0.250000 0.272527
Si Si6 0.069001 0.099816 0.090943
Si Si7 0.416070 0.591318 0.621460
Si Si8 0.976813 0.750000 0.217111
O O1 0.641530 0.661844 0.350016
O O2 0.872225 0.750000 0.407671
O O3 0.823195 0.750000 0.262191
O O4 0.230378 0.750000 0.041781
O O5 0.326183 0.750000 0.181103
O O6 0.484786 0.833706 0.081306
O O7 0.500000 0.500000 0.327638
O O8 0.629832 0.338287 0.306018
O O9 0.426728 0.396437 0.214382
O O10 0.014807 0.661190 0.519772
O O11 0.885534 0.250000 0.274999
O O12 0.246254 0.093129 0.096160
O O13 0.017416 0.161254 0.163559
O O14 0.000000 0.000000 0.091533
O O15 0.500000 0.500000 0.604055
#
# Coordination Sequence:
#
# PCOD9359781 Si02
#       8
#     4   4   8   4   4   8   8   4
#     4  11  22  42  57  88 127 167 195 243 314 375
#     4  10  17  34  54  82 112 150 192 241 297 368
#     4   9  19  35  60  88 119 155 204 257 302 362
#     4  11  24  40  61  85 133 168 193 248 317 384
#     4   9  18  31  56  88 116 141 204 259 303 356
#     4  11  22  38  60  91 121 156 207 265 305 368
#     4  10  19  32  61  91 113 145 202 262 306 345
#     4  11  21  35  60  87 118 158 200 255 317 357
#
# _framework density 18.841643000000001
#
# number of rings (size 3 to 8) (size 9 to 14) (size 15 to 20)
#    0.000    1.818    3.636    2.727    5.091    0.000 
#    0.000    9.091    0.000    0.000    0.000    0.000 
#    0.000    0.000    0.000    0.000    0.000    0.000 
#
# Total GULP energy -122750.720606 kJ/mol
# GULP energy per Si atom -5579.578209 kJ/mol
# Density = 1.879876 g / cm^3
# Si number density = 18.841643 Si / 1000 Ang^3
#
#
#
# Elastic Constant Matrix: (Units=GPa)
#
#
# Indices 1 2 3 4 5 6 
#
# 1 140.8315 70.3013 7.0335 0.0000 0.0000 0.0000
# 2 70.3013 183.3884 26.8518 0.0000 0.0000 0.0000
# 3 7.0335 26.8518 28.8690 0.0000 0.0000 0.0000
# 4 0.0000 0.0000 0.0000 8.9566 0.0000 0.0000
# 5 0.0000 0.0000 0.0000 0.0000 27.1709 0.0000
# 6 0.0000 0.0000 0.0000 0.0000 0.0000 29.9733
#
#
#
# Elastic Compliance Matrix: (Units=1/GPa)
#
#
# Indices 1 2 3 4 5 6 
#
# 1 0.008814 -0.003548 0.001152 0.000000 0.000000 0.000000
# 2 -0.003548 0.007740 -0.006335 0.000000 0.000000 0.000000
# 3 0.001152 -0.006335 0.040251 0.000000 0.000000 0.000000
# 4 0.000000 0.000000 0.000000 0.111649 0.000000 0.000000
# 5 0.000000 0.000000 0.000000 0.000000 0.036804 0.000000
# 6 0.000000 0.000000 0.000000 0.000000 0.000000 0.033363
#
#
# Mechanical properties :
#
#
# Convention : Reuss Voigt Hill
#
# Bulk Modulus (GPa) = 25.41659 62.38468 43.90063
# Shear Modulus (GPa) = 18.57369 29.81365 24.19367
#
# Velocity S-wave (km/s) = 3.14312 3.98216 3.58726
# Velocity P-wave (km/s) = 5.16634 7.37058 6.36461
#
# Compressibility (1/GPa) = 0.03934439
#
# Stress axis : x y z
#
# Youngs Moduli (GPa) = 113.45558 129.19137 24.84407
#
# Poissons Ratio (x) = 0.45831 -0.02863
# Poissons Ratio (y) = 0.40249 0.15739
# Poissons Ratio (z) = -0.13073 0.81846
#
# Static dielectric constant tensor:
#      x y z
#    x 1.632810 0.000000 0.000000 
#    y 0.000000 1.617600 0.000000 
#    z 0.000000 0.000000 1.657160 
# 
# From -- ./inp_files/11566.got.cif
#   From: 2010.05.17/outbox.cif.g08.bks.cpg/sg39_6_cif.got.tgz:11566.got - 2010.06.03 18:22:40.
