data_PCOD9359664
_publ_section_title
;
Structure prediction by ZEFSAII (Michael W. Deem and Ramdas Pophale) SiO2 
 PCOD9359664
Probable space group: A B M 2
;
_chemical_formula_sum "Si O2"
_cell_formula_units_Z 56
_cell_length_a 33.935890
_cell_length_b 14.280059
_cell_length_c 5.253555
_cell_angle_alpha 90.000000
_cell_angle_beta 90.000000
_cell_angle_gamma 90.000000
_cell_volume 2545.906961
_symmetry_space_group_name_H-M "A B M 2"
_symmetry_group_IT_number 39
_symmetry_cell_setting 'orthorhombic'
loop_
_space_group_symop_operation_xyz
x,y,z
-x,-y,z
-x,1/2+y,z
x,1/2-y,z
x,1/2+y,1/2+z
-x,1/2-y,1/2+z
-x,y,1/2+z
x,-y,1/2+z
loop_
_atom_site_type_symbol
_atom_site_label
_atom_site_fract_x
_atom_site_fract_y
_atom_site_fract_z
Si Si1 0.857629 0.886661 0.768550
Si Si2 0.479060 0.361850 0.944255
Si Si3 0.024193 0.862666 0.915656
Si Si4 0.394801 0.560566 0.309179
Si Si5 0.772667 0.435620 0.328067
Si Si6 0.889944 0.097547 0.767895
Si Si7 0.311507 0.562915 0.420835
O O1 0.812322 0.875905 0.844564
O O2 0.867502 0.849732 0.492038
O O3 0.868255 0.997508 0.736199
O O4 0.885873 0.854953 0.994631
O O5 0.482852 0.250000 0.954390
O O6 0.508501 0.396808 0.723060
O O7 0.434736 0.385200 0.865782
O O8 0.031387 0.750000 0.905169
O O9 0.065260 0.912439 0.855257
O O10 0.993352 0.884868 0.691502
O O11 0.394742 0.476942 0.520109
O O12 0.353259 0.611969 0.366762
O O13 0.774161 0.513112 0.553748
O O14 0.730167 0.387497 0.367928
O O15 0.311435 0.520835 0.706915
#
# Coordination Sequence:
#
# PCOD9359664 Si02
#       7
#     8   8   8   8   8   8   8
#     4  10  17  28  43  70  99 115 138 172 224 278
#     4  10  21  35  50  70  97 132 170 206 253 310
#     4  10  21  37  52  64  82 115 158 193 220 258
#     4  10  19  32  48  73 101 125 167 213 251 293
#     4  10  14  25  41  63  96 123 147 172 219 272
#     4  10  18  30  46  68  92 115 144 181 217 271
#     4   8  16  25  41  64  94 121 150 190 226 269
#
# _framework density 21.996089999999999
#
# number of rings (size 3 to 8) (size 9 to 14) (size 15 to 20)
#    0.000    2.286    2.857    1.714    0.000    1.714 
#    0.000    8.571    0.000    0.000    0.000    2.000 
#    0.000    0.000    0.000    0.000    0.000    0.000 
#
# Total GULP energy -156193.008980 kJ/mol
# GULP energy per Si atom -5578.321749 kJ/mol
# Density = 2.194603 g / cm^3
# Si number density = 21.996090 Si / 1000 Ang^3
#
#
#
# Elastic Constant Matrix: (Units=GPa)
#
#
# Indices 1 2 3 4 5 6 
#
# 1 108.9025 -4.1896 -22.2519 0.0000 0.0000 0.0000
# 2 -4.1896 55.3703 -0.9073 0.0000 0.0000 0.0000
# 3 -22.2519 -0.9073 109.6233 0.0000 0.0000 0.0000
# 4 0.0000 0.0000 0.0000 45.7038 0.0000 0.0000
# 5 0.0000 0.0000 0.0000 0.0000 38.1204 0.0000
# 6 0.0000 0.0000 0.0000 0.0000 0.0000 -45.9625
#
#
#
# Elastic Compliance Matrix: (Units=1/GPa)
#
#
# Indices 1 2 3 4 5 6 
#
# 1 0.009612 0.000759 0.001957 0.000000 0.000000 0.000000
# 2 0.000759 0.018123 0.000304 0.000000 0.000000 0.000000
# 3 0.001957 0.000304 0.009522 0.000000 0.000000 0.000000
# 4 0.000000 0.000000 0.000000 0.021880 0.000000 0.000000
# 5 0.000000 0.000000 0.000000 0.000000 0.026233 0.000000
# 6 0.000000 0.000000 0.000000 0.000000 0.000000 -0.021757
#
#
# Mechanical properties :
#
#
# Convention : Reuss Voigt Hill
#
# Bulk Modulus (GPa) = 23.09580 24.35537 23.72559
# Shear Modulus (GPa) = 69.44136 27.65533 48.54835
#
# Velocity S-wave (km/s) = 5.62480 3.54967 4.70311
# Velocity P-wave (km/s) = 7.25998 5.28174 6.34839
#
# Compressibility (1/GPa) = 0.04329791
#
# Stress axis : x y z
#
# Youngs Moduli (GPa) = 104.04014 55.17948 105.02029
#
# Poissons Ratio (x) = -0.04190 -0.20556
# Poissons Ratio (y) = -0.07900 -0.03194
# Poissons Ratio (z) = -0.20364 -0.01678
#
# Static dielectric constant tensor:
#      x y z
#    x 1.837620 0.000000 0.000000 
#    y 0.000000 1.247640 0.000000 
#    z 0.000000 0.000000 1.838380 
# 
# From -- ./inp_files/1488.got.cif
#   From: 2010.05.17/outbox.cif.g08.bks.cpg/sg39_1_cif.got.tgz:1488.got - 2010.06.03 18:22:40.
