data_PCOD9359361
_publ_section_title
;
Structure prediction by ZEFSAII (Michael W. Deem and Ramdas Pophale) SiO2 
 PCOD9359361
Probable space group: A M M 2
;
_chemical_formula_sum "Si O2"
_cell_formula_units_Z 40
_cell_length_a 8.601117
_cell_length_b 28.995493
_cell_length_c 7.988613
_cell_angle_alpha 90.000000
_cell_angle_beta 90.000000
_cell_angle_gamma 90.000000
_cell_volume 1992.309177
_symmetry_space_group_name_H-M "A M M 2"
_symmetry_group_IT_number 38
_symmetry_cell_setting 'orthorhombic'
loop_
_space_group_symop_operation_xyz
x,y,z
-x,-y,z
-x,y,z
x,-y,z
x,1/2+y,1/2+z
-x,1/2-y,1/2+z
-x,1/2+y,1/2+z
x,1/2-y,1/2+z
loop_
_atom_site_type_symbol
_atom_site_label
_atom_site_fract_x
_atom_site_fract_y
_atom_site_fract_z
Si Si1 0.815537 0.390365 0.130830
Si Si2 0.313575 0.609013 0.479947
Si Si3 0.815687 0.299694 0.630804
Si Si4 0.316078 0.704027 0.999365
Si Si5 0.686585 0.945838 0.316823
O O1 0.750774 0.409922 0.305232
O O2 0.000000 0.385300 0.139017
O O3 0.738501 0.340294 0.102802
O O4 0.768592 0.421214 0.972212
O O5 0.500000 0.612384 0.471984
O O6 0.241014 0.659408 0.511036
O O7 0.271278 0.578327 0.641373
O O8 0.727590 0.305372 0.806791
O O9 0.771327 0.250085 0.556835
O O10 0.000000 0.302845 0.657439
O O11 0.500000 0.710737 0.017638
O O12 0.500000 0.940219 0.337847
O O13 0.721843 0.000000 0.311975
#
# Coordination Sequence:
#
# PCOD9359361 Si02
#       5
#     8   8   8   8   8
#     4  12  25  42  66  98 136 175 218 277 337 393
#     4  11  23  42  68  97 133 177 223 272 328 398
#     4  12  24  40  62  94 133 172 217 275 333 390
#     4  12  24  41  63  91 129 176 224 270 323 396
#     4  10  23  45  72  99 130 173 226 280 334 397
#
# _framework density 20.077206
#
# number of rings (size 3 to 8) (size 9 to 14) (size 15 to 20)
#    0.000    0.600    2.000    7.200    0.000    2.000 
#    0.000    2.000    0.000    0.000    0.000    0.000 
#    0.000    0.000    0.000    0.000    0.000    0.000 
#
# Total GULP energy -111989.977964 kJ/mol
# GULP energy per Si atom -5599.498898 kJ/mol
# Density = 2.003151 g / cm^3
# Si number density = 20.077206 Si / 1000 Ang^3
#
#
#
# Elastic Constant Matrix: (Units=GPa)
#
#
# Indices 1 2 3 4 5 6 
#
# 1 58.5841 20.7628 12.9101 0.0000 0.0000 0.0000
# 2 20.7628 71.1752 25.5722 0.0000 0.0000 0.0000
# 3 12.9101 25.5722 126.8378 0.0000 0.0000 0.0000
# 4 0.0000 0.0000 0.0000 22.4314 0.0000 0.0000
# 5 0.0000 0.0000 0.0000 0.0000 74.9788 0.0000
# 6 0.0000 0.0000 0.0000 0.0000 0.0000 -33.8683
#
#
#
# Elastic Compliance Matrix: (Units=1/GPa)
#
#
# Indices 1 2 3 4 5 6 
#
# 1 0.019130 -0.005262 -0.000886 0.000000 0.000000 0.000000
# 2 -0.005262 0.016594 -0.002810 0.000000 0.000000 0.000000
# 3 -0.000886 -0.002810 0.008541 0.000000 0.000000 0.000000
# 4 0.000000 0.000000 0.000000 0.044580 0.000000 0.000000
# 5 0.000000 0.000000 0.000000 0.000000 0.013337 0.000000
# 6 0.000000 0.000000 0.000000 0.000000 0.000000 -0.029526
#
#
# Mechanical properties :
#
#
# Convention : Reuss Voigt Hill
#
# Bulk Modulus (GPa) = 37.95298 41.67638 39.81468
# Shear Modulus (GPa) = 50.32428 25.86519 38.09473
#
# Velocity S-wave (km/s) = 5.01196 3.59316 4.36065
# Velocity P-wave (km/s) = 7.24138 6.16584 6.72515
#
# Compressibility (1/GPa) = 0.02634839
#
# Stress axis : x y z
#
# Youngs Moduli (GPa) = 52.27480 60.26112 117.08453
#
# Poissons Ratio (x) = 0.31709 0.10376
# Poissons Ratio (y) = 0.27507 0.32902
# Poissons Ratio (z) = 0.04633 0.16934
#
# Static dielectric constant tensor:
#      x y z
#    x 1.662040 0.000000 0.000000 
#    y 0.000000 1.693330 0.000000 
#    z 0.000000 0.000000 1.721830 
# 
# From -- ./inp_files/3465.got.cif
#   From: 2010.05.17/outbox.cif.g08.bks.cpg/sg38_2_cif.got.tgz:3465.got - 2010.06.03 18:07:57.
