data_PCOD9359682
_publ_section_title
;
Structure prediction by ZEFSAII (Michael W. Deem and Ramdas Pophale) SiO2 
 PCOD9359682
Probable space group: A B M 2
;
_chemical_formula_sum "Si O2"
_cell_formula_units_Z 60
_cell_length_a 24.045940
_cell_length_b 24.920547
_cell_length_c 5.383893
_cell_angle_alpha 90.000000
_cell_angle_beta 90.000000
_cell_angle_gamma 90.000000
_cell_volume 3226.233155
_symmetry_space_group_name_H-M "A B M 2"
_symmetry_group_IT_number 39
_symmetry_cell_setting 'orthorhombic'
loop_
_space_group_symop_operation_xyz
x,y,z
-x,-y,z
-x,1/2+y,z
x,1/2-y,z
x,1/2+y,1/2+z
-x,1/2-y,1/2+z
-x,y,1/2+z
x,-y,1/2+z
loop_
_atom_site_type_symbol
_atom_site_label
_atom_site_fract_x
_atom_site_fract_y
_atom_site_fract_z
Si Si1 0.928660 0.966955 0.989980
Si Si2 0.247537 0.562144 0.959134
Si Si3 0.537027 0.632188 0.473768
Si Si4 0.200895 0.939787 0.459249
Si Si5 0.624089 0.464386 0.000131
Si Si6 0.945086 0.647804 0.099407
Si Si7 0.535556 0.250000 0.041783
Si Si8 0.930910 0.311401 0.099054
O O1 0.937807 0.994718 0.725561
O O2 0.864397 0.948047 0.995422
O O3 0.962093 0.912343 0.029164
O O4 0.217107 0.586341 0.198385
O O5 0.226458 0.500123 0.941976
O O6 0.228650 0.586905 0.698657
O O7 0.313324 0.558958 0.993962
O O8 0.494773 0.628429 0.708897
O O9 0.580525 0.584074 0.493403
O O10 0.563550 0.692093 0.497504
O O11 0.617486 0.501151 0.753297
O O12 0.915307 0.652122 0.364362
O O13 0.001923 0.681609 0.126110
O O14 0.910288 0.670266 0.868241
O O15 0.488046 0.250000 0.824048
O O16 0.917555 0.250000 0.046998
#
# Coordination Sequence:
#
# PCOD9359682 Si02
#       8
#     8   8   8   8   8   8   4   8
#     4  12  21  32  47  72 106 138 158 200 235 289
#     4  10  16  30  46  67  88 128 170 196 227 283
#     4  10  21  35  49  70  98 135 165 202 249 288
#     4  10  16  30  48  62  91 132 165 194 235 268
#     4  12  21  30  48  72 106 130 163 204 239 307
#     4  10  20  32  51  78  96 124 175 195 236 308
#     4   8  16  34  54  64  86 122 170 206 226 276
#     4  10  19  38  57  70  96 128 161 220 258 282
#
# _framework density 18.597539999999999
#
# number of rings (size 3 to 8) (size 9 to 14) (size 15 to 20)
#    0.000    1.600    5.333    3.600    0.000    1.600 
#    0.000    8.000    0.000    0.000    0.000    0.000 
#   16.000    0.000    0.000    0.000    0.000    0.000 
#
# Total GULP energy -167280.149838 kJ/mol
# GULP energy per Si atom -5576.004995 kJ/mol
# Density = 1.855521 g / cm^3
# Si number density = 18.597540 Si / 1000 Ang^3
#
#
#
# Elastic Constant Matrix: (Units=GPa)
#
#
# Indices 1 2 3 4 5 6 
#
# 1 48.5821 22.0523 2.1072 0.0000 0.0000 0.0000
# 2 22.0523 53.5328 1.9011 0.0000 0.0000 0.0000
# 3 2.1072 1.9011 131.4142 0.0000 0.0000 0.0000
# 4 0.0000 0.0000 0.0000 21.3962 0.0000 0.0000
# 5 0.0000 0.0000 0.0000 0.0000 59.4779 0.0000
# 6 0.0000 0.0000 0.0000 0.0000 0.0000 7.2370
#
#
#
# Elastic Compliance Matrix: (Units=1/GPa)
#
#
# Indices 1 2 3 4 5 6 
#
# 1 0.025326 -0.010424 -0.000255 0.000000 0.000000 0.000000
# 2 -0.010424 0.022980 -0.000165 0.000000 0.000000 0.000000
# 3 -0.000255 -0.000165 0.007616 0.000000 0.000000 0.000000
# 4 0.000000 0.000000 0.000000 0.046737 0.000000 0.000000
# 5 0.000000 0.000000 0.000000 0.000000 0.016813 0.000000
# 6 0.000000 0.000000 0.000000 0.000000 0.000000 0.138178
#
#
# Mechanical properties :
#
#
# Convention : Reuss Voigt Hill
#
# Bulk Modulus (GPa) = 29.21120 31.73892 30.47506
# Shear Modulus (GPa) = 17.19685 31.45346 24.32516
#
# Velocity S-wave (km/s) = 3.04416 4.11697 3.62052
# Velocity P-wave (km/s) = 5.30066 6.30099 5.82235
#
# Compressibility (1/GPa) = 0.03423345
#
# Stress axis : x y z
#
# Youngs Moduli (GPa) = 39.48447 43.51602 131.30229
#
# Poissons Ratio (x) = 0.45361 0.03352
# Poissons Ratio (y) = 0.41158 0.02170
# Poissons Ratio (z) = 0.01008 0.00719
#
# Static dielectric constant tensor:
#      x y z
#    x 1.625690 0.000000 0.000000 
#    y 0.000000 1.642780 0.000000 
#    z 0.000000 0.000000 1.777980 
# 
# From -- ./inp_files/1296.got.cif
#   From: 2010.05.17/outbox.cif.g08.bks.cpg/sg39_1_cif.got.tgz:1296.got - 2010.06.03 18:22:40.
