data_PCOD9359507
_publ_section_title
;
Structure prediction by ZEFSAII (Michael W. Deem and Ramdas Pophale) SiO2 
 PCOD9359507
Probable space group: A M M 2
;
_chemical_formula_sum "Si O2"
_cell_formula_units_Z 64
_cell_length_a 25.535347
_cell_length_b 14.408765
_cell_length_c 7.759212
_cell_angle_alpha 90.000000
_cell_angle_beta 90.000000
_cell_angle_gamma 90.000000
_cell_volume 2854.868706
_symmetry_space_group_name_H-M "A M M 2"
_symmetry_group_IT_number 38
_symmetry_cell_setting 'orthorhombic'
loop_
_space_group_symop_operation_xyz
x,y,z
-x,-y,z
-x,y,z
x,-y,z
x,1/2+y,1/2+z
-x,1/2-y,1/2+z
-x,1/2+y,1/2+z
x,1/2-y,1/2+z
loop_
_atom_site_type_symbol
_atom_site_label
_atom_site_fract_x
_atom_site_fract_y
_atom_site_fract_z
Si Si1 0.056194 0.641473 0.308490
Si Si2 0.440721 0.386925 0.711682
Si Si3 0.827179 0.392061 0.321295
Si Si4 0.440721 0.886925 0.818687
Si Si5 0.634957 0.613689 0.015184
Si Si6 0.943806 0.141473 0.221879
Si Si7 0.244854 0.114379 0.515185
Si Si8 0.827179 0.607939 0.709074
O O1 0.113233 0.609424 0.250018
O O2 0.055576 0.750000 0.265184
O O3 0.056090 0.626306 0.515185
O O4 0.000000 0.604442 0.243082
O O5 0.500000 0.360388 0.762540
O O6 0.439978 0.500000 0.711232
O O7 0.431183 0.357117 0.515185
O O8 0.397589 0.356440 0.847560
O O9 0.813524 0.500000 0.339377
O O10 0.786806 0.353277 0.183460
O O11 0.826619 0.351036 0.515184
O O12 0.500000 0.860388 0.767828
O O13 0.397589 0.856440 0.682809
O O14 0.439978 0.000000 0.819138
O O15 0.635489 0.500000 0.015184
O O16 0.694979 0.644232 0.015184
O O17 0.886767 0.109424 0.280351
O O18 0.000000 0.104442 0.287287
O O19 0.213194 0.146723 0.346909
O O20 0.244070 0.000000 0.515185
O O21 0.813525 0.500000 0.690992
#
# Coordination Sequence:
#
# PCOD9359507 Si02
#       8
#     8   8   8   8   8   8   8   8
#     4   9  18  31  48  70  91 112 140 179 226 270
#     4   8  13  20  30  46  69  98 134 176 218 254
#     4   9  18  32  47  63  87 117 147 182 221 264
#     4   8  13  20  30  46  69  98 134 176 218 254
#     4   9  15  22  33  49  70  99 139 182 215 247
#     4   9  18  31  48  70  91 112 140 179 226 270
#     4   9  18  29  41  59  81 112 152 185 217 257
#     4   9  18  32  47  63  87 117 147 182 221 264
#
# _framework density 22.417843000000001
#
# number of rings (size 3 to 8) (size 9 to 14) (size 15 to 20)
#    0.000    3.250    0.000    1.125    1.750    3.000 
#    0.000    7.500    0.000    2.250    0.000    0.000 
#    0.000    0.000    0.000    0.000    0.000    5.000 
#
# Total GULP energy -178513.761269 kJ/mol
# GULP energy per Si atom -5578.555040 kJ/mol
# Density = 2.236682 g / cm^3
# Si number density = 22.417843 Si / 1000 Ang^3
#
#
#
# Elastic Constant Matrix: (Units=GPa)
#
#
# Indices 1 2 3 4 5 6 
#
# 1 247.7154 1.1782 134.4903 0.0000 0.0000 0.0000
# 2 1.1782 58.7930 6.6876 0.0000 0.0000 0.0000
# 3 134.4903 6.6876 114.6327 0.0000 0.0000 0.0000
# 4 0.0000 0.0000 0.0000 9.5242 0.0000 0.0000
# 5 0.0000 0.0000 0.0000 0.0000 -44.2493 0.0000
# 6 0.0000 0.0000 0.0000 0.0000 0.0000 43.8657
#
#
#
# Elastic Compliance Matrix: (Units=1/GPa)
#
#
# Indices 1 2 3 4 5 6 
#
# 1 0.011215 0.001280 -0.013232 0.000000 0.000000 0.000000
# 2 0.001280 0.017269 -0.002510 0.000000 0.000000 0.000000
# 3 -0.013232 -0.002510 0.024395 0.000000 0.000000 0.000000
# 4 0.000000 0.000000 0.000000 0.104996 0.000000 0.000000
# 5 0.000000 0.000000 0.000000 0.000000 -0.022599 0.000000
# 6 0.000000 0.000000 0.000000 0.000000 0.000000 0.022797
#
#
# Mechanical properties :
#
#
# Convention : Reuss Voigt Hill
#
# Bulk Modulus (GPa) = 41.74521 78.42815 60.08668
# Shear Modulus (GPa) = 25.64363 20.41378 23.02871
#
# Velocity S-wave (km/s) = 3.38582 3.02090 3.20855
# Velocity P-wave (km/s) = 5.82639 6.87229 6.37084
#
# Compressibility (1/GPa) = 0.02395485
#
# Stress axis : x y z
#
# Youngs Moduli (GPa) = 89.16624 57.90848 40.99261
#
# Poissons Ratio (x) = -0.07415 0.54243
# Poissons Ratio (y) = -0.11417 0.10288
# Poissons Ratio (z) = 1.17989 0.14533
#
# Static dielectric constant tensor:
#      x y z
#    x 1.798690 0.000000 0.000000 
#    y 0.000000 1.873330 0.000000 
#    z 0.000000 0.000000 1.839050 
# 
# From -- ./inp_files/6865.got.cif
#   From: 2010.05.17/outbox.cif.g08.bks.cpg/sg38_4_cif.got.tgz:6865.got - 2010.06.03 18:07:57.
