data_PCOD9359584
_publ_section_title
;
Structure prediction by ZEFSAII (Michael W. Deem and Ramdas Pophale) SiO2 
 PCOD9359584
Probable space group: A M M 2
;
_chemical_formula_sum "Si O2"
_cell_formula_units_Z 32
_cell_length_a 9.000000
_cell_length_b 30.000000
_cell_length_c 12.000000
_cell_angle_alpha 90.000000
_cell_angle_beta 90.000000
_cell_angle_gamma 90.000000
_cell_volume 3240.000000
_symmetry_space_group_name_H-M "A M M 2"
_symmetry_group_IT_number 38
_symmetry_cell_setting 'orthorhombic'
loop_
_space_group_symop_operation_xyz
x,y,z
-x,-y,z
-x,y,z
x,-y,z
x,1/2+y,1/2+z
-x,1/2-y,1/2+z
-x,1/2+y,1/2+z
x,1/2-y,1/2+z
loop_
_atom_site_type_symbol
_atom_site_label
_atom_site_fract_x
_atom_site_fract_y
_atom_site_fract_z
Si Si1 0.325184 0.049013 0.264890
Si Si2 0.336252 0.707414 0.244400
Si Si3 0.326665 0.372107 0.416502
Si Si4 0.176465 0.868787 0.152080
Si Si5 0.681315 0.450390 0.254587
Si Si6 0.680567 0.575041 0.007202
Si Si7 0.172737 0.710496 0.806346
Si Si8 0.669246 0.326655 0.997519
O O1 0.500000 0.061158 0.256998
O O2 0.227985 0.084917 0.203486
O O3 0.287263 0.048079 0.396153
O O4 0.306354 0.000000 0.216560
O O5 0.500000 0.729046 0.254900
O O6 0.320229 0.671826 0.341502
O O7 0.210351 0.743792 0.247546
O O8 0.332883 0.682270 0.127808
O O9 0.500000 0.381092 0.442750
O O10 0.239667 0.365198 0.529067
O O11 0.269192 0.412699 0.340245
O O12 0.235677 0.829704 0.232249
O O13 0.000000 0.865490 0.148844
O O14 0.500000 0.448304 0.252434
O O15 0.724317 0.500000 0.289135
O O16 0.731834 0.441812 0.127362
O O17 0.500000 0.577316 0.016336
O O18 0.737534 0.624643 0.982576
O O19 0.000000 0.703811 0.819803
O O20 0.246346 0.709783 0.927116
O O21 0.500000 0.327535 0.956952
#
# Coordination Sequence:
#
# PCOD9359584 Si02
#       8
#     8   8   8   8   8   8   8   8
#     4  10  20  35  60  91 117 147 191 239 286 340
#     4  10  22  39  61  89 116 148 191 240 296 347
#     4  10  21  38  59  85 115 149 192 240 284 339
#     4  11  25  42  57  79 115 159 197 237 288 341
#     4   9  16  29  54  88 120 145 175 224 283 337
#     4   9  15  29  55  88 121 145 174 224 285 340
#     4  11  25  41  58  83 116 153 196 240 288 346
#     4  10  19  36  63  90 117 148 186 236 291 345
#
# _framework density 9.8765429999999999
#
# number of rings (size 3 to 8) (size 9 to 14) (size 15 to 20)
#    0.000    2.000    2.500    1.125    1.750    4.750 
#    0.000    1.250    0.000    0.750    0.000    0.000 
#    0.000    0.000    0.000    0.000    0.000    0.000 
#
# Total GULP energy -178404.938031 kJ/mol
# GULP energy per Si atom -5575.154313 kJ/mol
# Density = 0.985406 g / cm^3
# Si number density = 9.876543 Si / 1000 Ang^3
#
#
#
# Elastic Constant Matrix: (Units=GPa)
#
#
# Indices 1 2 3 4 5 6 
#
# 1 21.8053 20.2778 32.1462 0.0000 0.0000 0.0000
# 2 20.2778 36.2881 11.8612 0.0000 0.0000 0.0000
# 3 32.1462 11.8612 72.6842 0.0000 0.0000 0.0000
# 4 0.0000 0.0000 0.0000 8.9630 0.0000 0.0000
# 5 0.0000 0.0000 0.0000 0.0000 -902.7881 0.0000
# 6 0.0000 0.0000 0.0000 0.0000 0.0000 8.2920
#
#
#
# Elastic Compliance Matrix: (Units=1/GPa)
#
#
# Indices 1 2 3 4 5 6 
#
# 1 0.989918 -0.433169 -0.367126 0.000000 0.000000 0.000000
# 2 -0.433169 0.218657 0.155897 0.000000 0.000000 0.000000
# 3 -0.367126 0.155897 0.150687 0.000000 0.000000 0.000000
# 4 0.000000 0.000000 0.000000 0.111569 0.000000 0.000000
# 5 0.000000 0.000000 0.000000 0.000000 -0.001108 0.000000
# 6 0.000000 0.000000 0.000000 0.000000 0.000000 0.120598
#
#
# Mechanical properties :
#
#
# Convention : Reuss Voigt Hill
#
# Bulk Modulus (GPa) = 14.19128 28.81644 21.50386
# Shear Modulus (GPa) = 1.72259 -172.67379 -85.47560
#
# Velocity S-wave (km/s) = 0.93486 -9.35980 -6.58528
# Velocity P-wave (km/s) = 2.89227 10.10880 6.84918
#
# Compressibility (1/GPa) = 0.07046582
#
# Stress axis : x y z
#
# Youngs Moduli (GPa) = 1.01018 4.57338 6.63626
#
# Poissons Ratio (x) = 1.98105 2.43634
# Poissons Ratio (y) = 0.43758 -1.03457
# Poissons Ratio (z) = 0.37086 -0.71298
#
# Static dielectric constant tensor:
#      x y z
#    x 1.688990 0.000000 0.000000 
#    y 0.000000 1.698060 0.000000 
#    z 0.000000 0.000000 1.680560 
# 
# From -- ./inp_files/8596.got.cif
#   From: 2010.05.17/outbox.ucp.g08.bks.cvg/sg38_5_cif.got.tgz:8596.got - 2010.06.11 10:39:43.
