data_PCOD9359683
_publ_section_title
;
Structure prediction by ZEFSAII (Michael W. Deem and Ramdas Pophale) SiO2 
 PCOD9359683
Probable space group: A B M 2
;
_chemical_formula_sum "Si O2"
_cell_formula_units_Z 44
_cell_length_a 20.250422
_cell_length_b 18.839689
_cell_length_c 5.554803
_cell_angle_alpha 90.000000
_cell_angle_beta 90.000000
_cell_angle_gamma 90.000000
_cell_volume 2119.222072
_symmetry_space_group_name_H-M "A B M 2"
_symmetry_group_IT_number 39
_symmetry_cell_setting 'orthorhombic'
loop_
_space_group_symop_operation_xyz
x,y,z
-x,-y,z
-x,1/2+y,z
x,1/2-y,z
x,1/2+y,1/2+z
-x,1/2-y,1/2+z
-x,y,1/2+z
x,-y,1/2+z
loop_
_atom_site_type_symbol
_atom_site_label
_atom_site_fract_x
_atom_site_fract_y
_atom_site_fract_z
Si Si1 0.540393 0.250000 0.139040
Si Si2 0.753346 0.250000 0.578469
Si Si3 0.648336 0.128465 0.095491
Si Si4 0.833725 0.961262 0.165652
Si Si5 0.688101 0.099363 0.595129
Si Si6 0.974469 0.583570 0.059263
Si Si7 0.240255 0.750000 0.078997
O O1 0.503847 0.250000 0.396921
O O2 0.586861 0.180758 0.125201
O O3 0.703716 0.183572 0.578638
O O4 0.794868 0.250000 0.334498
O O5 0.794640 0.250000 0.823161
O O6 0.657364 0.081782 0.335534
O O7 0.712919 0.180246 0.080018
O O8 0.647145 0.088910 0.839425
O O9 0.760354 0.933202 0.126731
O O10 0.896404 0.912993 0.106006
O O11 0.840273 0.981455 0.447417
O O12 0.000000 0.500000 0.048418
O O13 0.008864 0.613649 0.297618
#
# Coordination Sequence:
#
# PCOD9359683 Si02
#       7
#     4   4   8   8   8   8   4
#     4  11  20  31  54  84 110 139 170 215 258 307
#     4   8  14  27  42  61  84 118 170 182 228 304
#     4   9  17  31  44  67 104 134 162 192 252 307
#     4  12  21  31  48  76 106 128 178 220 257 324
#     4  10  19  31  49  69  99 145 166 205 258 314
#     4  10  16  30  47  65  95 131 162 212 275 311
#     4   7  12  22  42  57  80 121 150 181 208 275
#
# _framework density 20.762335
#
# number of rings (size 3 to 8) (size 9 to 14) (size 15 to 20)
#    0.000    2.182    3.636    3.273    0.000    1.455 
#    0.000    0.000    0.000    0.000    0.000    1.273 
#    0.000   50.909    0.000    0.000    0.000    0.000 
#
# Total GULP energy -122493.564798 kJ/mol
# GULP energy per Si atom -5567.889309 kJ/mol
# Density = 2.071508 g / cm^3
# Si number density = 20.762335 Si / 1000 Ang^3
#
#
#
# Elastic Constant Matrix: (Units=GPa)
#
#
# Indices 1 2 3 4 5 6 
#
# 1 54.3239 -5.9694 -3.6799 0.0000 0.0000 0.0000
# 2 -5.9694 22.5909 -3.2378 0.0000 0.0000 0.0000
# 3 -3.6799 -3.2378 165.0581 0.0000 0.0000 0.0000
# 4 0.0000 0.0000 0.0000 -5.9140 0.0000 0.0000
# 5 0.0000 0.0000 0.0000 0.0000 33.5472 0.0000
# 6 0.0000 0.0000 0.0000 0.0000 0.0000 -43.5077
#
#
#
# Elastic Compliance Matrix: (Units=1/GPa)
#
#
# Indices 1 2 3 4 5 6 
#
# 1 0.019004 0.005097 0.000524 0.000000 0.000000 0.000000
# 2 0.005097 0.045757 0.001011 0.000000 0.000000 0.000000
# 3 0.000524 0.001011 0.006090 0.000000 0.000000 0.000000
# 4 0.000000 0.000000 0.000000 -0.169089 0.000000 0.000000
# 5 0.000000 0.000000 0.000000 0.000000 0.029809 0.000000
# 6 0.000000 0.000000 0.000000 0.000000 0.000000 -0.022984
#
#
# Mechanical properties :
#
#
# Convention : Reuss Voigt Hill
#
# Bulk Modulus (GPa) = 11.88869 24.02208 17.95538
# Shear Modulus (GPa) = -65.24109 13.81576 -25.71267
#
# Velocity S-wave (km/s) = -5.61169 2.58238 -3.52295
# Velocity P-wave (km/s) = 6.02076 4.52623 2.80738
#
# Compressibility (1/GPa) = 0.08411359
#
# Stress axis : x y z
#
# Youngs Moduli (GPa) = 52.62159 21.85446 164.20409
#
# Poissons Ratio (x) = -0.11138 -0.08599
# Poissons Ratio (y) = -0.26819 -0.16604
# Poissons Ratio (z) = -0.02756 -0.02210
#
# Static dielectric constant tensor:
#      x y z
#    x 1.693650 0.000000 0.000000 
#    y 0.000000 1.775230 0.000000 
#    z 0.000000 0.000000 1.912620 
# 
# From -- ./inp_files/579.got.cif
#   From: 2010.05.17/outbox.cif.g08.bks.cpg/sg39_1_cif.got.tgz:579.got - 2010.06.03 18:22:40.
