data_PCOD9359857
_publ_section_title
;
Structure prediction by ZEFSAII (Michael W. Deem and Ramdas Pophale) SiO2 
 PCOD9359857
Probable space group: A B M 2
;
_chemical_formula_sum "Si O2"
_cell_formula_units_Z 64
_cell_length_a 14.581756
_cell_length_b 8.637453
_cell_length_c 31.988760
_cell_angle_alpha 90.000000
_cell_angle_beta 90.000000
_cell_angle_gamma 90.000000
_cell_volume 4028.959758
_symmetry_space_group_name_H-M "A B M 2"
_symmetry_group_IT_number 39
_symmetry_cell_setting 'orthorhombic'
loop_
_space_group_symop_operation_xyz
x,y,z
-x,-y,z
-x,1/2+y,z
x,1/2-y,z
x,1/2+y,1/2+z
-x,1/2-y,1/2+z
-x,y,1/2+z
x,-y,1/2+z
loop_
_atom_site_type_symbol
_atom_site_label
_atom_site_fract_x
_atom_site_fract_y
_atom_site_fract_z
Si Si1 0.896032 0.564902 0.755480
Si Si2 0.785311 0.063931 0.089676
Si Si3 0.103540 0.063774 0.342735
Si Si4 0.215877 0.063230 0.425115
Si Si5 0.102456 0.563389 0.006664
Si Si6 0.896261 0.565030 0.167984
Si Si7 0.599828 0.435898 0.555818
Si Si8 0.400891 0.065120 0.958236
O O1 0.896977 0.750000 0.754955
O O2 0.857087 0.502801 0.799220
O O3 0.857661 0.499883 0.711994
O O4 0.000000 0.500000 0.755824
O O5 0.787106 0.250000 0.092805
O O6 0.842200 0.017115 0.048151
O O7 0.834406 0.991103 0.129719
O O8 0.682075 0.005773 0.082727
O O9 0.098685 0.250000 0.340031
O O10 0.165066 0.018861 0.382390
O O11 0.000000 0.000000 0.348351
O O12 0.220380 0.250000 0.426252
O O13 0.155770 0.011146 0.465052
O O14 0.317400 0.997892 0.430988
O O15 0.098996 0.750000 0.005898
O O16 0.000000 0.500000 0.007546
O O17 0.901251 0.750000 0.169741
O O18 0.000000 0.500000 0.162556
O O19 0.500000 0.500000 0.567839
O O20 0.600468 0.250000 0.558225
O O21 0.614752 0.481696 0.506956
O O22 0.402971 0.250000 0.956752
O O23 0.500000 0.000000 0.945779
#
# Coordination Sequence:
#
# PCOD9359857 Si02
#       8
#     8   8   8   8   8   8   8   8
#     4  10  18  31  50  71  97 128 166 208 252 296
#     4  11  21  34  51  72 100 134 170 208 250 296
#     4  10  19  31  49  72 101 134 168 207 249 294
#     4  10  20  34  49  70  99 133 169 206 248 294
#     4  10  21  33  46  65  96 135 170 203 238 284
#     4  11  21  34  51  73 102 133 170 209 251 300
#     4  10  20  34  52  74  97 128 166 211 257 300
#     4  10  20  33  52  73  96 127 165 210 255 298
#
# _framework density 15.884994000000001
#
# number of rings (size 3 to 8) (size 9 to 14) (size 15 to 20)
#    0.000    1.750    1.250    6.000    0.000    4.500 
#    0.000    0.000    0.000    0.000    0.000    0.875 
#    0.000    4.000    0.000    0.000    0.000    0.000 
#
# Total GULP energy -178635.025600 kJ/mol
# GULP energy per Si atom -5582.344550 kJ/mol
# Density = 1.584884 g / cm^3
# Si number density = 15.884994 Si / 1000 Ang^3
#
#
#
# Elastic Constant Matrix: (Units=GPa)
#
#
# Indices 1 2 3 4 5 6 
#
# 1 115.2143 37.7302 73.8590 0.0000 0.0000 0.0000
# 2 37.7302 76.3697 54.5316 0.0000 0.0000 0.0000
# 3 73.8590 54.5316 152.8699 0.0000 0.0000 0.0000
# 4 0.0000 0.0000 0.0000 20.0822 0.0000 0.0000
# 5 0.0000 0.0000 0.0000 0.0000 7.5348 0.0000
# 6 0.0000 0.0000 0.0000 0.0000 0.0000 28.4306
#
#
#
# Elastic Compliance Matrix: (Units=1/GPa)
#
#
# Indices 1 2 3 4 5 6 
#
# 1 0.012945 -0.002589 -0.005331 0.000000 0.000000 0.000000
# 2 -0.002589 0.018087 -0.005201 0.000000 0.000000 0.000000
# 3 -0.005331 -0.005201 0.010972 0.000000 0.000000 0.000000
# 4 0.000000 0.000000 0.000000 0.049795 0.000000 0.000000
# 5 0.000000 0.000000 0.000000 0.000000 0.132717 0.000000
# 6 0.000000 0.000000 0.000000 0.000000 0.000000 0.035173
#
#
# Mechanical properties :
#
#
# Convention : Reuss Voigt Hill
#
# Bulk Modulus (GPa) = 63.44132 75.18838 69.31485
# Shear Modulus (GPa) = 17.17117 23.09839 20.13478
#
# Velocity S-wave (km/s) = 3.29137 3.81741 3.56411
# Velocity P-wave (km/s) = 7.38030 8.17715 7.78892
#
# Compressibility (1/GPa) = 0.01576260
#
# Stress axis : x y z
#
# Youngs Moduli (GPa) = 77.25274 55.28790 91.13786
#
# Poissons Ratio (x) = 0.14313 0.48582
# Poissons Ratio (y) = 0.20000 0.47403
# Poissons Ratio (z) = 0.41181 0.28756
#
# Static dielectric constant tensor:
#      x y z
#    x 1.510510 0.000000 0.000000 
#    y 0.000000 1.533320 0.000000 
#    z 0.000000 0.000000 1.548610 
# 
# From -- ./inp_files/17977.got.cif
#   From: 2010.05.17/outbox.cif.g08.bks.cpg/sg39_9_cif.got.tgz:17977.got - 2010.06.03 18:22:40.
