data_PCOD9359725
_publ_section_title
;
Structure prediction by ZEFSAII (Michael W. Deem and Ramdas Pophale) SiO2 
 PCOD9359725
Probable space group: A B M 2
;
_chemical_formula_sum "Si O2"
_cell_formula_units_Z 64
_cell_length_a 18.059134
_cell_length_b 8.603021
_cell_length_c 23.924410
_cell_angle_alpha 90.000000
_cell_angle_beta 90.000000
_cell_angle_gamma 90.000000
_cell_volume 3716.970720
_symmetry_space_group_name_H-M "A B M 2"
_symmetry_group_IT_number 39
_symmetry_cell_setting 'orthorhombic'
loop_
_space_group_symop_operation_xyz
x,y,z
-x,-y,z
-x,1/2+y,z
x,1/2-y,z
x,1/2+y,1/2+z
-x,1/2-y,1/2+z
-x,y,1/2+z
x,-y,1/2+z
loop_
_atom_site_type_symbol
_atom_site_label
_atom_site_fract_x
_atom_site_fract_y
_atom_site_fract_z
Si Si1 0.851243 0.936513 0.546270
Si Si2 0.921904 0.434748 0.159591
Si Si3 0.268670 0.936812 0.835503
Si Si4 0.230594 0.562582 0.709481
Si Si5 0.791584 0.064575 0.443336
Si Si6 0.362515 0.433691 0.492520
Si Si7 0.577789 0.934169 0.883677
Si Si8 0.301563 0.435568 0.098285
O O1 0.841513 0.750000 0.542888
O O2 0.912144 0.971206 0.593275
O O3 0.856863 0.006659 0.484167
O O4 0.777813 0.014433 0.572770
O O5 0.920963 0.250000 0.165255
O O6 0.849642 0.500426 0.190855
O O7 0.000000 0.500000 0.179858
O O8 0.264930 0.750000 0.840189
O O9 0.251556 0.984088 0.772054
O O10 0.210620 0.012032 0.879144
O O11 0.350777 0.991416 0.853611
O O12 0.227195 0.750000 0.707574
O O13 0.292041 0.515932 0.662915
O O14 0.216830 0.750000 0.447513
O O15 0.718514 0.980048 0.468317
O O16 0.373236 0.250000 0.488272
O O17 0.415401 0.521241 0.449341
O O18 0.361133 0.486916 0.557009
O O19 0.581121 0.750000 0.877722
O O20 0.500000 0.000000 0.862284
O O21 0.309842 0.250000 0.094652
#
# Coordination Sequence:
#
# PCOD9359725 Si02
#       8
#     8   8   8   8   8   8   8   8
#     4   9  16  27  43  66  92 121 152 189 236 288
#     4  10  20  32  50  73 100 130 164 205 254 305
#     4  10  19  33  51  73 100 133 170 210 249 293
#     4   9  19  33  51  73 100 133 172 212 251 293
#     4  10  17  26  43  68  94 122 153 193 237 281
#     4  10  17  27  44  68  95 123 152 188 234 286
#     4  11  21  34  51  73  99 129 163 205 253 303
#     4   9  15  26  44  68  94 121 152 192 236 281
#
# _framework density 17.218323000000002
#
# number of rings (size 3 to 8) (size 9 to 14) (size 15 to 20)
#    0.000    2.250    0.000    7.875    0.000    3.000 
#    0.000    0.000    0.000    1.500    0.000    7.000 
#    0.000    0.000    0.000    0.000    0.000    0.000 
#
# Total GULP energy -178227.282434 kJ/mol
# GULP energy per Si atom -5569.602576 kJ/mol
# Density = 1.717913 g / cm^3
# Si number density = 17.218323 Si / 1000 Ang^3
#
#
#
# Elastic Constant Matrix: (Units=GPa)
#
#
# Indices 1 2 3 4 5 6 
#
# 1 48.5582 4.3863 28.6504 0.0000 0.0000 0.0000
# 2 4.3863 45.2529 21.5594 0.0000 0.0000 0.0000
# 3 28.6504 21.5594 133.9914 0.0000 0.0000 0.0000
# 4 0.0000 0.0000 0.0000 23.8789 0.0000 0.0000
# 5 0.0000 0.0000 0.0000 0.0000 13.3789 0.0000
# 6 0.0000 0.0000 0.0000 0.0000 0.0000 14.5047
#
#
#
# Elastic Compliance Matrix: (Units=1/GPa)
#
#
# Indices 1 2 3 4 5 6 
#
# 1 0.023568 0.000126 -0.005060 0.000000 0.000000 0.000000
# 2 0.000126 0.023933 -0.003878 0.000000 0.000000 0.000000
# 3 -0.005060 -0.003878 0.009169 0.000000 0.000000 0.000000
# 4 0.000000 0.000000 0.000000 0.041878 0.000000 0.000000
# 5 0.000000 0.000000 0.000000 0.000000 0.074745 0.000000
# 6 0.000000 0.000000 0.000000 0.000000 0.000000 0.068943
#
#
# Mechanical properties :
#
#
# Convention : Reuss Voigt Hill
#
# Bulk Modulus (GPa) = 25.61000 37.44387 31.52694
# Shear Modulus (GPa) = 18.32345 21.89958 20.11151
#
# Velocity S-wave (km/s) = 3.26572 3.57021 3.42135
# Velocity P-wave (km/s) = 5.39684 6.22807 5.82730
#
# Compressibility (1/GPa) = 0.03904725
#
# Stress axis : x y z
#
# Youngs Moduli (GPa) = 42.43091 41.78278 109.06340
#
# Poissons Ratio (x) = -0.00527 0.55182
# Poissons Ratio (y) = -0.00535 0.42293
# Poissons Ratio (z) = 0.21468 0.16203
#
# Static dielectric constant tensor:
#      x y z
#    x 1.597160 0.000000 0.000000 
#    y 0.000000 1.576040 0.000000 
#    z 0.000000 0.000000 1.651640 
# 
# From -- ./inp_files/16362.got.cif
#   From: 2010.05.17/outbox.cif.g08.bks.cpg/sg39_9_cif.got.tgz:16362.got - 2010.06.03 18:22:40.
