data_PCOD9359991
_publ_section_title
;
Structure prediction by ZEFSAII (Michael W. Deem and Ramdas Pophale) SiO2 
 PCOD9359991
Probable space group: A B M 2
;
_chemical_formula_sum "Si O2"
_cell_formula_units_Z 64
_cell_length_a 12.497327
_cell_length_b 14.492811
_cell_length_c 15.305002
_cell_angle_alpha 90.000000
_cell_angle_beta 90.000000
_cell_angle_gamma 90.000000
_cell_volume 2772.063362
_symmetry_space_group_name_H-M "A B M 2"
_symmetry_group_IT_number 39
_symmetry_cell_setting 'orthorhombic'
loop_
_space_group_symop_operation_xyz
x,y,z
-x,-y,z
-x,1/2+y,z
x,1/2-y,z
x,1/2+y,1/2+z
-x,1/2-y,1/2+z
-x,y,1/2+z
x,-y,1/2+z
loop_
_atom_site_type_symbol
_atom_site_label
_atom_site_fract_x
_atom_site_fract_y
_atom_site_fract_z
Si Si1 0.022833 0.855380 0.837950
Si Si2 0.033680 0.601049 0.153208
Si Si3 0.247756 0.142703 0.562129
Si Si4 0.635827 0.363258 0.507563
Si Si5 0.505980 0.637080 0.340486
Si Si6 0.121767 0.358278 0.994067
Si Si7 0.253533 0.356719 0.354059
Si Si8 0.466098 0.862338 0.146454
O O1 0.046302 0.750000 0.868525
O O2 0.141068 0.897517 0.821260
O O3 0.963395 0.849005 0.745832
O O4 0.949780 0.897478 0.914447
O O5 0.146316 0.596295 0.104995
O O6 0.000000 0.500000 0.178392
O O7 0.946620 0.636358 0.083005
O O8 0.239873 0.250000 0.589699
O O9 0.242050 0.141888 0.458370
O O10 0.361907 0.107420 0.593604
O O11 0.638241 0.250000 0.508001
O O12 0.564439 0.391552 0.423739
O O13 0.758169 0.397551 0.502231
O O14 0.572661 0.391658 0.595070
O O15 0.510271 0.750000 0.346470
O O16 0.628914 0.603294 0.337689
O O17 0.457749 0.611007 0.247166
O O18 0.137383 0.250000 0.973594
O O19 0.259483 0.250000 0.321156
O O20 0.467958 0.750000 0.144530
#
# Coordination Sequence:
#
# PCOD9359991 Si02
#       8
#     8   8   8   8   8   8   8   8
#     4  10  21  37  59  86 112 148 193 238 284 336
#     4  12  26  40  56  81 115 155 193 237 289 341
#     4  10  18  35  59  82 110 147 192 237 276 331
#     4   9  17  29  47  81 120 142 169 223 285 337
#     4   9  16  26  44  79 117 144 169 215 284 338
#     4  10  21  38  61  87 116 148 187 238 288 336
#     4   9  16  30  53  81 114 143 179 230 280 332
#     4   9  17  27  48  81 116 146 174 221 283 336
#
# _framework density 23.087496000000002
#
# number of rings (size 3 to 8) (size 9 to 14) (size 15 to 20)
#    0.000    2.250    2.500    1.125    3.500    0.500 
#    0.000    0.000    0.000    0.750    0.000    1.750 
#    0.000    0.000    0.000    0.000    0.000    0.000 
#
# Total GULP energy -178727.627944 kJ/mol
# GULP energy per Si atom -5585.238373 kJ/mol
# Density = 2.303495 g / cm^3
# Si number density = 23.087496 Si / 1000 Ang^3
#
#
#
# Elastic Constant Matrix: (Units=GPa)
#
#
# Indices 1 2 3 4 5 6 
#
# 1 110.8378 -3.2376 16.8946 0.0000 0.0000 0.0000
# 2 -3.2376 51.4954 -15.5601 0.0000 0.0000 0.0000
# 3 16.8946 -15.5601 88.1965 0.0000 0.0000 0.0000
# 4 0.0000 0.0000 0.0000 16.5540 0.0000 0.0000
# 5 0.0000 0.0000 0.0000 0.0000 26.3961 0.0000
# 6 0.0000 0.0000 0.0000 0.0000 0.0000 -19.1930
#
#
#
# Elastic Compliance Matrix: (Units=1/GPa)
#
#
# Indices 1 2 3 4 5 6 
#
# 1 0.009294 0.000049 -0.001772 0.000000 0.000000 0.000000
# 2 0.000049 0.020513 0.003610 0.000000 0.000000 0.000000
# 3 -0.001772 0.003610 0.012315 0.000000 0.000000 0.000000
# 4 0.000000 0.000000 0.000000 0.060408 0.000000 0.000000
# 5 0.000000 0.000000 0.000000 0.000000 0.037884 0.000000
# 6 0.000000 0.000000 0.000000 0.000000 0.000000 -0.052102
#
#
# Mechanical properties :
#
#
# Convention : Reuss Voigt Hill
#
# Bulk Modulus (GPa) = 21.78880 27.41373 24.60126
# Shear Modulus (GPa) = 50.08218 21.58028 35.83123
#
# Velocity S-wave (km/s) = 4.66256 3.06063 3.94379
# Velocity P-wave (km/s) = 6.20031 4.93858 5.60506
#
# Compressibility (1/GPa) = 0.04589514
#
# Stress axis : x y z
#
# Youngs Moduli (GPa) = 107.60023 48.74962 81.20505
#
# Poissons Ratio (x) = -0.00239 0.14386
# Poissons Ratio (y) = -0.00527 -0.29312
# Poissons Ratio (z) = 0.19063 -0.17597
#
# Static dielectric constant tensor:
#      x y z
#    x 1.925720 0.000000 0.000000 
#    y 0.000000 1.918180 0.000000 
#    z 0.000000 0.000000 1.793200 
# 
# From -- ./inp_files/9458.got.cif
#   From: 2010.05.17/outbox.cif.g08.bks.cpg/sg39_5_cif.got.tgz:9458.got - 2010.06.03 18:22:40.
