data_PCOD9359411
_publ_section_title
;
Structure prediction by ZEFSAII (Michael W. Deem and Ramdas Pophale) SiO2 
 PCOD9359411
Probable space group: A M M 2
;
_chemical_formula_sum "Si O2"
_cell_formula_units_Z 48
_cell_length_a 10.566045
_cell_length_b 8.621018
_cell_length_c 28.947571
_cell_angle_alpha 90.000000
_cell_angle_beta 90.000000
_cell_angle_gamma 90.000000
_cell_volume 2636.836099
_symmetry_space_group_name_H-M "A M M 2"
_symmetry_group_IT_number 38
_symmetry_cell_setting 'orthorhombic'
loop_
_space_group_symop_operation_xyz
x,y,z
-x,-y,z
-x,y,z
x,-y,z
x,1/2+y,1/2+z
-x,1/2-y,1/2+z
-x,1/2+y,1/2+z
x,1/2-y,1/2+z
loop_
_atom_site_type_symbol
_atom_site_label
_atom_site_fract_x
_atom_site_fract_y
_atom_site_fract_z
Si Si1 0.500000 0.811428 0.017780
Si Si2 0.246589 0.685879 0.464871
Si Si3 0.253306 0.814280 0.675722
Si Si4 0.352297 0.313088 0.767782
Si Si5 0.500000 0.186255 0.124431
Si Si6 0.000000 0.189049 0.622892
Si Si7 0.000000 0.686085 0.015865
Si Si8 0.647449 0.812987 0.373269
O O1 0.500000 0.763333 0.071028
O O2 0.500000 0.000000 0.016844
O O3 0.626906 0.760021 0.991872
O O4 0.240865 0.500000 0.466852
O O5 0.265298 0.739312 0.412202
O O6 0.123966 0.754228 0.489533
O O7 0.265645 0.759847 0.728560
O O8 0.375156 0.747712 0.649455
O O9 0.125905 0.760905 0.649993
O O10 0.257403 0.000000 0.674080
O O11 0.500000 0.269195 0.759570
O O12 0.346483 0.500000 0.764559
O O13 0.320552 0.269306 0.820502
O O14 0.500000 0.000000 0.126533
O O15 0.000000 0.239511 0.569439
O O16 0.000000 0.000000 0.622641
O O17 0.000000 0.500000 0.015770
O O18 0.500000 0.767891 0.381323
O O19 0.653519 0.000000 0.376348
#
# Coordination Sequence:
#
# PCOD9359411 Si02
#       8
#     4   8   8   8   4   4   4   8
#     4   9  20  35  54  81 112 143 180 231 288 341
#     4  11  21  37  58  85 116 148 187 237 289 340
#     4  11  21  36  57  83 111 146 190 236 285 335
#     4   9  18  34  56  83 117 150 184 228 277 334
#     4  11  21  35  54  79 112 145 182 233 284 337
#     4   9  22  41  58  79 114 151 190 237 284 335
#     4  11  23  41  60  79 110 157 198 235 282 341
#     4   9  18  34  57  85 115 151 190 228 277 338
#
# _framework density 18.203633
#
# number of rings (size 3 to 8) (size 9 to 14) (size 15 to 20)
#    0.000    2.000    1.667    3.500    0.000    0.667 
#    0.000    9.167    0.000    4.000    0.000    0.000 
#    0.000    0.000    0.000    0.000    0.000    0.000 
#
# Total GULP energy -134016.650623 kJ/mol
# GULP energy per Si atom -5584.027109 kJ/mol
# Density = 1.816220 g / cm^3
# Si number density = 18.203633 Si / 1000 Ang^3
#
#
#
# Elastic Constant Matrix: (Units=GPa)
#
#
# Indices 1 2 3 4 5 6 
#
# 1 155.9981 36.8257 101.7581 0.0000 0.0000 0.0000
# 2 36.8257 39.7484 44.1271 0.0000 0.0000 0.0000
# 3 101.7581 44.1271 183.9997 0.0000 0.0000 0.0000
# 4 0.0000 0.0000 0.0000 28.1633 0.0000 0.0000
# 5 0.0000 0.0000 0.0000 0.0000 32.1974 0.0000
# 6 0.0000 0.0000 0.0000 0.0000 0.0000 12.6677
#
#
#
# Elastic Compliance Matrix: (Units=1/GPa)
#
#
# Indices 1 2 3 4 5 6 
#
# 1 0.010590 -0.004510 -0.004775 0.000000 0.000000 0.000000
# 2 -0.004510 0.036208 -0.006189 0.000000 0.000000 0.000000
# 3 -0.004775 -0.006189 0.009560 0.000000 0.000000 0.000000
# 4 0.000000 0.000000 0.000000 0.035507 0.000000 0.000000
# 5 0.000000 0.000000 0.000000 0.000000 0.031058 0.000000
# 6 0.000000 0.000000 0.000000 0.000000 0.000000 0.078941
#
#
# Mechanical properties :
#
#
# Convention : Reuss Voigt Hill
#
# Bulk Modulus (GPa) = 39.35632 82.79645 61.07639
# Shear Modulus (GPa) = 20.72270 27.74138 24.23204
#
# Velocity S-wave (km/s) = 3.37765 3.90801 3.65247
# Velocity P-wave (km/s) = 6.07276 8.12069 7.17022
#
# Compressibility (1/GPa) = 0.02540888
#
# Stress axis : x y z
#
# Youngs Moduli (GPa) = 94.43185 27.61840 104.60589
#
# Poissons Ratio (x) = 0.12456 0.49947
# Poissons Ratio (y) = 0.42591 0.64742
# Poissons Ratio (z) = 0.45089 0.17093
#
# Static dielectric constant tensor:
#      x y z
#    x 1.596330 0.000000 0.000000 
#    y 0.000000 1.616570 0.000000 
#    z 0.000000 0.000000 1.627980 
# 
# From -- ./inp_files/24491.got.cif
#   From: 2010.05.17/outbox.cif.g08.bks.cpg/sg38_13_cif.got.tgz:24491.got - 2010.06.03 18:07:57.
