data_PCOD9359839
_publ_section_title
;
Structure prediction by ZEFSAII (Michael W. Deem and Ramdas Pophale) SiO2 
 PCOD9359839
Probable space group: A B M 2
;
_chemical_formula_sum "Si O2"
_cell_formula_units_Z 64
_cell_length_a 8.953272
_cell_length_b 18.524619
_cell_length_c 20.914646
_cell_angle_alpha 90.000000
_cell_angle_beta 90.000000
_cell_angle_gamma 90.000000
_cell_volume 3468.818536
_symmetry_space_group_name_H-M "A B M 2"
_symmetry_group_IT_number 39
_symmetry_cell_setting 'orthorhombic'
loop_
_space_group_symop_operation_xyz
x,y,z
-x,-y,z
-x,1/2+y,z
x,1/2-y,z
x,1/2+y,1/2+z
-x,1/2-y,1/2+z
-x,y,1/2+z
x,-y,1/2+z
loop_
_atom_site_type_symbol
_atom_site_label
_atom_site_fract_x
_atom_site_fract_y
_atom_site_fract_z
Si Si1 0.375669 0.596751 0.171390
Si Si2 0.155186 0.336115 0.918697
Si Si3 0.899507 0.561762 0.477491
Si Si4 0.219453 0.826923 0.066829
Si Si5 0.821868 0.165358 0.267585
Si Si6 0.060141 0.831867 0.659764
Si Si7 0.304715 0.551854 0.621798
Si Si8 0.655374 0.040477 0.467656
O O1 0.338224 0.660871 0.122372
O O2 0.317107 0.619926 0.240374
O O3 0.545453 0.576307 0.158918
O O4 0.276720 0.528708 0.147651
O O5 0.153764 0.250000 0.934852
O O6 0.149267 0.343559 0.842163
O O7 0.302639 0.379367 0.942781
O O8 0.013012 0.379858 0.947752
O O9 0.784606 0.607299 0.519099
O O10 0.788493 0.509872 0.438096
O O11 0.000000 0.500000 0.512483
O O12 0.240292 0.750000 0.034534
O O13 0.060962 0.828422 0.102917
O O14 0.790441 0.250000 0.255833
O O15 0.965822 0.148550 0.223313
O O16 0.121052 0.750000 0.667607
O O17 0.179196 0.891073 0.639930
O O18 0.331611 0.546775 0.545364
O O19 0.500000 0.000000 0.453340
#
# Coordination Sequence:
#
# PCOD9359839 Si02
#       8
#     8   8   8   8   8   8   8   8
#     4  10  20  35  54  80 115 156 184 230 289 355
#     4  10  22  41  63  85 115 159 209 249 293 349
#     4  10  19  33  56  81 112 150 191 242 294 336
#     4  10  18  30  51  80 108 143 187 228 286 345
#     4   9  20  41  59  79 114 152 192 244 291 337
#     4   9  19  32  52  82 110 140 183 241 289 336
#     4  11  20  35  56  83 119 148 190 231 298 352
#     4  11  21  40  59  84 128 160 192 244 301 355
#
# _framework density 18.450087
#
# number of rings (size 3 to 8) (size 9 to 14) (size 15 to 20)
#    0.000    2.000    2.500    3.000    0.000    4.000 
#    9.000    2.500    0.000    3.000    0.000    0.000 
#    0.000    0.000    0.000    0.000    0.000    0.000 
#
# Total GULP energy -178160.131850 kJ/mol
# GULP energy per Si atom -5567.504120 kJ/mol
# Density = 1.840809 g / cm^3
# Si number density = 18.450087 Si / 1000 Ang^3
#
#
#
# Elastic Constant Matrix: (Units=GPa)
#
#
# Indices 1 2 3 4 5 6 
#
# 1 57.2449 34.3035 -1.3498 0.0000 0.0000 0.0000
# 2 34.3035 119.5742 27.7224 0.0000 0.0000 0.0000
# 3 -1.3498 27.7224 47.8440 0.0000 0.0000 0.0000
# 4 0.0000 0.0000 0.0000 26.0151 0.0000 0.0000
# 5 0.0000 0.0000 0.0000 0.0000 9.5344 0.0000
# 6 0.0000 0.0000 0.0000 0.0000 0.0000 -23.0503
#
#
#
# Elastic Compliance Matrix: (Units=1/GPa)
#
#
# Indices 1 2 3 4 5 6 
#
# 1 0.022068 -0.007480 0.004957 0.000000 0.000000 0.000000
# 2 -0.007480 0.012196 -0.007278 0.000000 0.000000 0.000000
# 3 0.004957 -0.007278 0.025258 0.000000 0.000000 0.000000
# 4 0.000000 0.000000 0.000000 0.038439 0.000000 0.000000
# 5 0.000000 0.000000 0.000000 0.000000 0.104884 0.000000
# 6 0.000000 0.000000 0.000000 0.000000 0.000000 -0.043383
#
#
# Mechanical properties :
#
#
# Convention : Reuss Voigt Hill
#
# Bulk Modulus (GPa) = 25.05009 38.44615 31.74812
# Shear Modulus (GPa) = 25.99145 13.43231 19.71188
#
# Velocity S-wave (km/s) = 3.75740 2.70114 3.27217
# Velocity P-wave (km/s) = 5.69480 5.53275 5.61436
#
# Compressibility (1/GPa) = 0.03992002
#
# Stress axis : x y z
#
# Youngs Moduli (GPa) = 45.31436 81.99249 39.59116
#
# Poissons Ratio (x) = 0.61331 -0.19625
# Poissons Ratio (y) = 0.33896 0.28814
# Poissons Ratio (z) = -0.22461 0.59674
#
# Static dielectric constant tensor:
#      x y z
#    x 1.667450 0.000000 0.000000 
#    y 0.000000 1.697520 0.000000 
#    z 0.000000 0.000000 1.630330 
# 
# From -- ./inp_files/14170.got.cif
#   From: 2010.05.17/outbox.cif.g08.bks.cpg/sg39_8_cif.got.tgz:14170.got - 2010.06.03 18:22:40.
