data_PCOD9359448
_publ_section_title
;
Structure prediction by ZEFSAII (Michael W. Deem and Ramdas Pophale) SiO2 
 PCOD9359448
Probable space group: A M M 2
;
_chemical_formula_sum "Si O2"
_cell_formula_units_Z 40
_cell_length_a 8.076799
_cell_length_b 27.129263
_cell_length_c 9.127352
_cell_angle_alpha 90.000000
_cell_angle_beta 90.000000
_cell_angle_gamma 90.000000
_cell_volume 1999.963504
_symmetry_space_group_name_H-M "A M M 2"
_symmetry_group_IT_number 38
_symmetry_cell_setting 'orthorhombic'
loop_
_space_group_symop_operation_xyz
x,y,z
-x,-y,z
-x,y,z
x,-y,z
x,1/2+y,1/2+z
-x,1/2-y,1/2+z
-x,1/2+y,1/2+z
x,1/2-y,1/2+z
loop_
_atom_site_type_symbol
_atom_site_label
_atom_site_fract_x
_atom_site_fract_y
_atom_site_fract_z
Si Si1 0.202580 0.392752 0.745780
Si Si2 0.192411 0.500000 0.756573
Si Si3 0.192073 0.293297 0.899988
Si Si4 0.192433 0.000000 0.899692
Si Si5 0.310484 0.298686 0.220853
Si Si6 0.201152 0.607473 0.405080
O O1 0.263909 0.446648 0.798206
O O2 0.254586 0.345940 0.840203
O O3 0.249161 0.385385 0.575490
O O4 0.000000 0.395097 0.749338
O O5 0.192263 0.500000 0.578082
O O6 0.000000 0.500000 0.804382
O O7 0.284792 0.247684 0.827224
O O8 0.000000 0.288794 0.855706
O O9 0.205104 0.292055 0.074351
O O10 0.262592 0.946868 0.855995
O O11 0.000000 0.000000 0.853002
O O12 0.500000 0.301289 0.173866
O O13 0.262699 0.348145 0.306614
O O14 0.000000 0.606802 0.401407
#
# Coordination Sequence:
#
# PCOD9359448 Si02
#       6
#     8   4   8   4   8   8
#     4   8  15  28  53  83 108 133 170 218 266 312
#     4   7  10  22  45  79 112 132 158 211 270 311
#     4  11  22  38  58  80 105 141 185 227 270 327
#     4   7  12  24  50  83 110 136 176 225 268 311
#     4  12  25  39  54  78 110 144 179 225 282 336
#     4   9  16  32  57  84 110 141 181 226 271 322
#
# _framework density 20.000364999999999
#
# number of rings (size 3 to 8) (size 9 to 14) (size 15 to 20)
#    0.000    2.600    0.000    6.000    0.000    1.600 
#    0.000    2.500    0.000    3.600    0.000    4.900 
#    0.000    0.000    0.000    0.000    0.000    0.000 
#
# Total GULP energy -111537.888594 kJ/mol
# GULP energy per Si atom -5576.894430 kJ/mol
# Density = 1.995484 g / cm^3
# Si number density = 20.000365 Si / 1000 Ang^3
#
#
#
# Elastic Constant Matrix: (Units=GPa)
#
#
# Indices 1 2 3 4 5 6 
#
# 1 26.1865 4.7717 -8.1474 0.0000 0.0000 0.0000
# 2 4.7717 186.7718 55.8928 0.0000 0.0000 0.0000
# 3 -8.1474 55.8928 58.3071 0.0000 0.0000 0.0000
# 4 0.0000 0.0000 0.0000 34.4268 0.0000 0.0000
# 5 0.0000 0.0000 0.0000 0.0000 3.4884 0.0000
# 6 0.0000 0.0000 0.0000 0.0000 0.0000 -15.1018
#
#
#
# Elastic Compliance Matrix: (Units=1/GPa)
#
#
# Indices 1 2 3 4 5 6 
#
# 1 0.041912 -0.003959 0.009652 0.000000 0.000000 0.000000
# 2 -0.003959 0.007882 -0.008109 0.000000 0.000000 0.000000
# 3 0.009652 -0.008109 0.026272 0.000000 0.000000 0.000000
# 4 0.000000 0.000000 0.000000 0.029047 0.000000 0.000000
# 5 0.000000 0.000000 0.000000 0.000000 0.286664 0.000000
# 6 0.000000 0.000000 0.000000 0.000000 0.000000 -0.066217
#
#
# Mechanical properties :
#
#
# Convention : Reuss Voigt Hill
#
# Bulk Modulus (GPa) = 14.03829 41.81106 27.92468
# Shear Modulus (GPa) = 14.11884 19.14589 16.63236
#
# Velocity S-wave (km/s) = 2.65981 3.09735 2.88688
# Velocity P-wave (km/s) = 4.05796 5.80878 5.01044
#
# Compressibility (1/GPa) = 0.07123374
#
# Stress axis : x y z
#
# Youngs Moduli (GPa) = 23.85952 126.87326 38.06299
#
# Poissons Ratio (x) = 0.50231 -0.36737
# Poissons Ratio (y) = 0.09446 0.30864
# Poissons Ratio (z) = -0.23028 1.02878
#
# Static dielectric constant tensor:
#      x y z
#    x 1.693470 0.000000 0.000000 
#    y 0.000000 1.734760 0.000000 
#    z 0.000000 0.000000 1.659600 
# 
# From -- ./inp_files/3526.got.cif
#   From: 2010.05.17/outbox.cif.g08.bks.cpg/sg38_2_cif.got.tgz:3526.got - 2010.06.03 18:07:57.
