data_PCOD9359887
_publ_section_title
;
Structure prediction by ZEFSAII (Michael W. Deem and Ramdas Pophale) SiO2 
 PCOD9359887
Probable space group: A B M 2
;
_chemical_formula_sum "Si O2"
_cell_formula_units_Z 64
_cell_length_a 10.118973
_cell_length_b 18.674394
_cell_length_c 19.683670
_cell_angle_alpha 90.000000
_cell_angle_beta 90.000000
_cell_angle_gamma 90.000000
_cell_volume 3719.538257
_symmetry_space_group_name_H-M "A B M 2"
_symmetry_group_IT_number 39
_symmetry_cell_setting 'orthorhombic'
loop_
_space_group_symop_operation_xyz
x,y,z
-x,-y,z
-x,1/2+y,z
x,1/2-y,z
x,1/2+y,1/2+z
-x,1/2-y,1/2+z
-x,y,1/2+z
x,-y,1/2+z
loop_
_atom_site_type_symbol
_atom_site_label
_atom_site_fract_x
_atom_site_fract_y
_atom_site_fract_z
Si Si1 0.038144 0.583761 0.065480
Si Si2 0.568680 0.074761 0.243656
Si Si3 0.153777 0.165707 0.966068
Si Si4 0.796755 0.165851 0.308335
Si Si5 0.659419 0.064173 0.085868
Si Si6 0.966328 0.834996 0.202834
Si Si7 0.324394 0.834350 0.702611
Si Si8 0.621942 0.897013 0.055051
O O1 0.082437 0.653392 0.256534
O O2 0.196580 0.591918 0.066196
O O3 0.000000 0.500000 0.064961
O O4 0.989930 0.619470 0.135441
O O5 0.680566 0.110577 0.289865
O O6 0.630366 0.066002 0.167253
O O7 0.445929 0.128376 0.238663
O O8 0.500000 0.000000 0.263916
O O9 0.142145 0.250000 0.981830
O O10 0.154392 0.156598 0.885221
O O11 0.292911 0.136470 0.995146
O O12 0.038133 0.122893 0.004440
O O13 0.755073 0.250000 0.300250
O O14 0.537118 0.106621 0.052131
O O15 0.652252 0.981295 0.063572
O O16 0.964671 0.750000 0.185733
O O17 0.820568 0.853797 0.230120
O O18 0.340095 0.750000 0.706196
O O19 0.331294 0.858950 0.624216
#
# Coordination Sequence:
#
# PCOD9359887 Si02
#       8
#     8   8   8   8   8   8   8   8
#     4  12  21  35  61  88 116 151 191 246 298 347
#     4  11  20  37  57  86 117 152 188 241 293 348
#     4  11  23  41  59  81 119 163 199 234 294 361
#     4  10  23  41  58  81 119 159 191 236 294 350
#     4  10  19  34  58  88 121 140 188 250 301 331
#     4  10  20  35  58  87 112 145 192 239 290 347
#     4  10  18  31  56  87 111 140 188 239 283 335
#     4  10  18  35  57  83 116 150 184 237 290 346
#
# _framework density 17.206437000000001
#
# number of rings (size 3 to 8) (size 9 to 14) (size 15 to 20)
#    0.000    1.500    6.250    1.125    0.000    0.000 
#    2.250    5.000    0.000    3.000    0.000    0.000 
#    0.000    0.000    0.000    0.000    0.000    0.000 
#
# Total GULP energy -178523.753831 kJ/mol
# GULP energy per Si atom -5578.867307 kJ/mol
# Density = 1.716727 g / cm^3
# Si number density = 17.206437 Si / 1000 Ang^3
#
#
#
# Elastic Constant Matrix: (Units=GPa)
#
#
# Indices 1 2 3 4 5 6 
#
# 1 154.4950 71.7228 48.2345 0.0000 0.0000 0.0000
# 2 71.7228 92.3747 53.5729 0.0000 0.0000 0.0000
# 3 48.2345 53.5729 72.3004 0.0000 0.0000 0.0000
# 4 0.0000 0.0000 0.0000 25.0997 0.0000 0.0000
# 5 0.0000 0.0000 0.0000 0.0000 20.8621 0.0000
# 6 0.0000 0.0000 0.0000 0.0000 0.0000 26.6200
#
#
#
# Elastic Compliance Matrix: (Units=1/GPa)
#
#
# Indices 1 2 3 4 5 6 
#
# 1 0.010231 -0.006989 -0.001647 0.000000 0.000000 0.000000
# 2 -0.006989 0.023757 -0.012941 0.000000 0.000000 0.000000
# 3 -0.001647 -0.012941 0.024519 0.000000 0.000000 0.000000
# 4 0.000000 0.000000 0.000000 0.039841 0.000000 0.000000
# 5 0.000000 0.000000 0.000000 0.000000 0.047934 0.000000
# 6 0.000000 0.000000 0.000000 0.000000 0.000000 0.037566
#
#
# Mechanical properties :
#
#
# Convention : Reuss Voigt Hill
#
# Bulk Modulus (GPa) = 65.13133 74.02561 69.57847
# Shear Modulus (GPa) = 21.54064 24.22568 22.88316
#
# Velocity S-wave (km/s) = 3.54205 3.75633 3.65076
# Velocity P-wave (km/s) = 7.39346 7.86948 7.63518
#
# Compressibility (1/GPa) = 0.01535359
#
# Stress axis : x y z
#
# Youngs Moduli (GPa) = 97.73816 42.09335 40.78462
#
# Poissons Ratio (x) = 0.29417 0.06719
# Poissons Ratio (y) = 0.68305 0.52779
# Poissons Ratio (z) = 0.16101 0.54472
#
# Static dielectric constant tensor:
#      x y z
#    x 1.603570 0.000000 0.000000 
#    y 0.000000 1.580160 0.000000 
#    z 0.000000 0.000000 1.557750 
# 
# From -- ./inp_files/9420.got.cif
#   From: 2010.05.17/outbox.cif.g08.bks.cpg/sg39_5_cif.got.tgz:9420.got - 2010.06.03 18:22:40.
