data_PCOD9359724
_publ_section_title
;
Structure prediction by ZEFSAII (Michael W. Deem and Ramdas Pophale) SiO2 
 PCOD9359724
Probable space group: A B M 2
;
_chemical_formula_sum "Si O2"
_cell_formula_units_Z 64
_cell_length_a 21.649731
_cell_length_b 9.209397
_cell_length_c 14.492722
_cell_angle_alpha 90.000000
_cell_angle_beta 90.000000
_cell_angle_gamma 90.000000
_cell_volume 2889.572937
_symmetry_space_group_name_H-M "A B M 2"
_symmetry_group_IT_number 39
_symmetry_cell_setting 'orthorhombic'
loop_
_space_group_symop_operation_xyz
x,y,z
-x,-y,z
-x,1/2+y,z
x,1/2-y,z
x,1/2+y,1/2+z
-x,1/2-y,1/2+z
-x,y,1/2+z
x,-y,1/2+z
loop_
_atom_site_type_symbol
_atom_site_label
_atom_site_fract_x
_atom_site_fract_y
_atom_site_fract_z
Si Si1 0.440243 0.926588 0.723440
Si Si2 0.304597 0.911594 0.727209
Si Si3 0.938708 0.914277 0.473306
Si Si4 0.180557 0.913113 0.469653
Si Si5 0.438537 0.424567 0.520803
Si Si6 0.818956 0.410945 0.250647
Si Si7 0.061533 0.585534 0.747429
Si Si8 0.683048 0.915910 0.006191
O O1 0.447629 0.750000 0.711389
O O2 0.372350 0.948906 0.766658
O O3 0.500000 0.000000 0.770083
O O4 0.437220 0.013651 0.626079
O O5 0.286858 0.750000 0.759780
O O6 0.315469 0.904431 0.617157
O O7 0.248405 0.019671 0.740861
O O8 0.941243 0.750000 0.506252
O O9 0.938225 0.911366 0.360373
O O10 0.875978 0.991964 0.504157
O O11 0.000000 0.000000 0.500426
O O12 0.180734 0.750000 0.510628
O O13 0.170712 0.899000 0.360374
O O14 0.249384 0.974959 0.481013
O O15 0.500000 0.500000 0.480971
O O16 0.442371 0.250000 0.518059
O O17 0.374683 0.484982 0.479752
O O18 0.820816 0.250000 0.209731
O O19 0.875241 0.509390 0.216859
O O20 0.059046 0.750000 0.714408
O O21 0.000000 0.500000 0.720430
O O22 0.676808 0.750000 0.969600
#
# Coordination Sequence:
#
# PCOD9359724 Si02
#       8
#     8   8   8   8   8   8   8   8
#     4   9  16  27  44  66  91 119 153 192 232 271
#     4   9  18  31  47  68  94 124 154 188 231 274
#     4   9  16  26  43  67  93 120 152 190 229 270
#     4   9  18  32  49  69  94 123 154 190 231 273
#     4  10  17  26  43  67  93 119 151 191 232 273
#     4  10  19  30  47  71  96 123 154 188 229 276
#     4   9  16  27  44  66  92 120 152 191 230 269
#     4   9  18  33  50  68  93 124 157 192 230 272
#
# _framework density 22.148602
#
# number of rings (size 3 to 8) (size 9 to 14) (size 15 to 20)
#    0.000    2.750    0.000    4.125    0.000    6.500 
#    0.000    0.000    0.000    1.500    0.000    5.250 
#    0.000    0.000    0.000    0.000    0.000    0.000 
#
# Total GULP energy -178570.227409 kJ/mol
# GULP energy per Si atom -5580.319607 kJ/mol
# Density = 2.209819 g / cm^3
# Si number density = 22.148602 Si / 1000 Ang^3
#
#
#
# Elastic Constant Matrix: (Units=GPa)
#
#
# Indices 1 2 3 4 5 6 
#
# 1 244.3491 149.5719 0.2037 0.0000 0.0000 0.0000
# 2 149.5719 191.5476 7.8440 0.0000 0.0000 0.0000
# 3 0.2037 7.8440 53.1527 0.0000 0.0000 0.0000
# 4 0.0000 0.0000 0.0000 -16.5112 0.0000 0.0000
# 5 0.0000 0.0000 0.0000 0.0000 16.0330 0.0000
# 6 0.0000 0.0000 0.0000 0.0000 0.0000 41.2319
#
#
#
# Elastic Compliance Matrix: (Units=1/GPa)
#
#
# Indices 1 2 3 4 5 6 
#
# 1 0.007881 -0.006190 0.000883 0.000000 0.000000 0.000000
# 2 -0.006190 0.010114 -0.001469 0.000000 0.000000 0.000000
# 3 0.000883 -0.001469 0.019027 0.000000 0.000000 0.000000
# 4 0.000000 0.000000 0.000000 -0.060565 0.000000 0.000000
# 5 0.000000 0.000000 0.000000 0.000000 0.062371 0.000000
# 6 0.000000 0.000000 0.000000 0.000000 0.000000 0.024253
#
#
# Mechanical properties :
#
#
# Convention : Reuss Voigt Hill
#
# Bulk Modulus (GPa) = 42.60569 89.36539 65.98554
# Shear Modulus (GPa) = 59.20213 30.24607 44.72410
#
# Velocity S-wave (km/s) = 5.17567 3.69941 4.49851
# Velocity P-wave (km/s) = 7.41585 7.66049 7.53916
#
# Compressibility (1/GPa) = 0.02347104
#
# Stress axis : x y z
#
# Youngs Moduli (GPa) = 126.89070 98.86998 52.55657
#
# Poissons Ratio (x) = 0.61200 -0.04642
# Poissons Ratio (y) = 0.78545 0.07720
# Poissons Ratio (z) = -0.11208 0.14523
#
# Static dielectric constant tensor:
#      x y z
#    x 1.824180 0.000000 0.000000 
#    y 0.000000 1.793030 0.000000 
#    z 0.000000 0.000000 1.902010 
# 
# From -- ./inp_files/15031.got.cif
#   From: 2010.05.17/outbox.cif.g08.bks.cpg/sg39_8_cif.got.tgz:15031.got - 2010.06.03 18:22:40.
