data_PCOD9359251
_publ_section_title
;
Structure prediction by ZEFSAII (Michael W. Deem and Ramdas Pophale) SiO2 
 PCOD9359251
Probable space group: A M M 2
;
_chemical_formula_sum "Si O2"
_cell_formula_units_Z 64
_cell_length_a 8.758168
_cell_length_b 25.738330
_cell_length_c 15.352820
_cell_angle_alpha 90.000000
_cell_angle_beta 90.000000
_cell_angle_gamma 90.000000
_cell_volume 3460.842175
_symmetry_space_group_name_H-M "A M M 2"
_symmetry_group_IT_number 38
_symmetry_cell_setting 'orthorhombic'
loop_
_space_group_symop_operation_xyz
x,y,z
-x,-y,z
-x,y,z
x,-y,z
x,1/2+y,1/2+z
-x,1/2-y,1/2+z
-x,1/2+y,1/2+z
x,1/2-y,1/2+z
loop_
_atom_site_type_symbol
_atom_site_label
_atom_site_fract_x
_atom_site_fract_y
_atom_site_fract_z
Si Si1 0.681668 0.362947 0.820060
Si Si2 0.683964 0.060868 0.475060
Si Si3 0.184265 0.648943 0.446093
Si Si4 0.317333 0.941374 0.827911
Si Si5 0.184210 0.834343 0.146301
Si Si6 0.182721 0.734109 0.917071
Si Si7 0.816308 0.219062 0.621884
Si Si8 0.183747 0.604743 0.154369
O O1 0.500000 0.364907 0.814179
O O2 0.731648 0.405913 0.890680
O O3 0.751584 0.368414 0.724300
O O4 0.734407 0.307287 0.857294
O O5 0.500000 0.066265 0.484774
O O6 0.762654 0.083120 0.561426
O O7 0.718649 0.000000 0.465033
O O8 0.254687 0.601744 0.393634
O O9 0.226732 0.648938 0.548397
O O10 0.227649 0.705556 0.407478
O O11 0.000000 0.646348 0.441275
O O12 0.500000 0.938853 0.825218
O O13 0.252442 0.928290 0.732623
O O14 0.271796 0.000000 0.852896
O O15 0.239059 0.774372 0.157456
O O16 0.000000 0.834130 0.150247
O O17 0.000000 0.730481 0.902418
O O18 0.212443 0.719435 0.018091
O O19 0.762297 0.164919 0.661669
O O20 0.000000 0.219640 0.632334
O O21 0.000000 0.603791 0.158854
#
# Coordination Sequence:
#
# PCOD9359251 Si02
#       8
#     8   8   8   8   8   8   8   8
#     4  11  22  34  53  85 117 150 193 234 277 335
#     4  10  22  40  57  76 113 159 195 233 284 337
#     4   9  20  39  63  86 108 144 193 240 285 333
#     4  11  25  42  58  80 115 155 190 231 288 343
#     4   9  19  37  59  82 114 151 185 230 286 341
#     4   9  17  34  57  81 112 147 181 225 284 340
#     4   8  16  32  54  81 111 145 181 217 272 336
#     4  11  21  35  59  88 114 146 191 238 279 332
#
# _framework density 18.492608000000001
#
# number of rings (size 3 to 8) (size 9 to 14) (size 15 to 20)
#    0.000    2.250    1.250    3.000    1.750    4.250 
#    0.000    3.125    0.000    2.250    0.000    0.000 
#    0.000    0.000    0.000    0.000    0.000    0.000 
#
# Total GULP energy -178625.007066 kJ/mol
# GULP energy per Si atom -5582.031471 kJ/mol
# Density = 1.845052 g / cm^3
# Si number density = 18.492608 Si / 1000 Ang^3
#
#
#
# Elastic Constant Matrix: (Units=GPa)
#
#
# Indices 1 2 3 4 5 6 
#
# 1 19.6911 30.4408 25.0563 0.0000 0.0000 0.0000
# 2 30.4408 114.8155 56.9865 0.0000 0.0000 0.0000
# 3 25.0563 56.9865 85.9205 0.0000 0.0000 0.0000
# 4 0.0000 0.0000 0.0000 28.3567 0.0000 0.0000
# 5 0.0000 0.0000 0.0000 0.0000 20.7030 0.0000
# 6 0.0000 0.0000 0.0000 0.0000 0.0000 21.0490
#
#
#
# Elastic Compliance Matrix: (Units=1/GPa)
#
#
# Indices 1 2 3 4 5 6 
#
# 1 0.100975 -0.018121 -0.017428 0.000000 0.000000 0.000000
# 2 -0.018121 0.016236 -0.005484 0.000000 0.000000 0.000000
# 3 -0.017428 -0.005484 0.020358 0.000000 0.000000 0.000000
# 4 0.000000 0.000000 0.000000 0.035265 0.000000 0.000000
# 5 0.000000 0.000000 0.000000 0.000000 0.048302 0.000000
# 6 0.000000 0.000000 0.000000 0.000000 0.000000 0.047508
#
#
# Mechanical properties :
#
#
# Convention : Reuss Voigt Hill
#
# Bulk Modulus (GPa) = 18.01697 49.48825 33.75261
# Shear Modulus (GPa) = 13.54240 21.21797 17.38019
#
# Velocity S-wave (km/s) = 2.70907 3.39097 3.06902
# Velocity P-wave (km/s) = 4.42146 6.49236 5.55428
#
# Compressibility (1/GPa) = 0.05550323
#
# Stress axis : x y z
#
# Youngs Moduli (GPa) = 9.90346 61.59188 49.12066
#
# Poissons Ratio (x) = 1.11613 0.85605
# Poissons Ratio (y) = 0.17946 0.26937
# Poissons Ratio (z) = 0.17259 0.33776
#
# Static dielectric constant tensor:
#      x y z
#    x 1.632020 0.000000 0.000000 
#    y 0.000000 1.638950 0.000000 
#    z 0.000000 0.000000 1.633550 
# 
# From -- ./inp_files/12797.got.cif
#   From: 2010.05.17/outbox.cif.g08.bks.cpg/sg38_7_cif.got.tgz:12797.got - 2010.06.03 18:07:57.
