data_PCOD9359879
_publ_section_title
;
Structure prediction by ZEFSAII (Michael W. Deem and Ramdas Pophale) SiO2 
 PCOD9359879
Probable space group: A B M 2
;
_chemical_formula_sum "Si O2"
_cell_formula_units_Z 48
_cell_length_a 18.865669
_cell_length_b 8.757289
_cell_length_c 15.984393
_cell_angle_alpha 90.000000
_cell_angle_beta 90.000000
_cell_angle_gamma 90.000000
_cell_volume 2640.815384
_symmetry_space_group_name_H-M "A B M 2"
_symmetry_group_IT_number 39
_symmetry_cell_setting 'orthorhombic'
loop_
_space_group_symop_operation_xyz
x,y,z
-x,-y,z
-x,1/2+y,z
x,1/2-y,z
x,1/2+y,1/2+z
-x,1/2-y,1/2+z
-x,y,1/2+z
x,-y,1/2+z
loop_
_atom_site_type_symbol
_atom_site_label
_atom_site_fract_x
_atom_site_fract_y
_atom_site_fract_z
Si Si1 0.923257 0.428651 0.075920
Si Si2 0.795244 0.927415 0.160106
Si Si3 0.341142 0.569732 0.222163
Si Si4 0.652327 0.430851 0.896668
Si Si5 0.421046 0.066870 0.062192
Si Si6 0.213050 0.072415 0.492077
O O1 0.929965 0.250000 0.093608
O O2 0.874666 0.507263 0.147780
O O3 0.000000 0.500000 0.066741
O O4 0.872159 0.445048 0.993670
O O5 0.794950 0.750000 0.181513
O O6 0.741644 0.021422 0.216910
O O7 0.765297 0.957387 0.065946
O O8 0.348492 0.750000 0.212168
O O9 0.369036 0.514407 0.311890
O O10 0.380641 0.486208 0.146075
O O11 0.638807 0.250000 0.889644
O O12 0.614823 0.496681 0.979005
O O13 0.736984 0.451798 0.913712
O O14 0.421444 0.250000 0.057197
O O15 0.500000 0.000000 0.066695
O O16 0.225879 0.250000 0.519415
#
# Coordination Sequence:
#
# PCOD9359879 Si02
#       6
#     8   8   8   8   8   8
#     4   9  16  28  48  79 113 152 193 239 293 349
#     4  10  18  31  54  81 110 148 194 238 287 343
#     4  12  24  40  61  89 121 155 197 246 292 347
#     4  11  22  40  64  90 118 154 197 243 292 350
#     4  12  25  43  65  90 120 156 193 238 294 352
#     4   8  17  32  53  78 112 147 187 236 287 338
#
# _framework density 18.176205
#
# number of rings (size 3 to 8) (size 9 to 14) (size 15 to 20)
#    1.000    0.667    1.667    5.000    0.000    1.333 
#    0.000    3.333    0.000    1.000    0.000    4.667 
#    0.000    0.000    0.000    0.000    0.000    0.000 
#
# Total GULP energy -133635.452730 kJ/mol
# GULP energy per Si atom -5568.143864 kJ/mol
# Density = 1.813483 g / cm^3
# Si number density = 18.176205 Si / 1000 Ang^3
#
#
#
# Elastic Constant Matrix: (Units=GPa)
#
#
# Indices 1 2 3 4 5 6 
#
# 1 109.0971 32.1375 33.8804 0.0000 0.0000 0.0000
# 2 32.1375 105.4969 27.3599 0.0000 0.0000 0.0000
# 3 33.8804 27.3599 88.3925 0.0000 0.0000 0.0000
# 4 0.0000 0.0000 0.0000 25.2878 0.0000 0.0000
# 5 0.0000 0.0000 0.0000 0.0000 8.4085 0.0000
# 6 0.0000 0.0000 0.0000 0.0000 0.0000 32.0693
#
#
#
# Elastic Compliance Matrix: (Units=1/GPa)
#
#
# Indices 1 2 3 4 5 6 
#
# 1 0.010955 -0.002445 -0.003442 0.000000 0.000000 0.000000
# 2 -0.002445 0.010852 -0.002422 0.000000 0.000000 0.000000
# 3 -0.003442 -0.002422 0.013382 0.000000 0.000000 0.000000
# 4 0.000000 0.000000 0.000000 0.039545 0.000000 0.000000
# 5 0.000000 0.000000 0.000000 0.000000 0.118927 0.000000
# 6 0.000000 0.000000 0.000000 0.000000 0.000000 0.031182
#
#
# Mechanical properties :
#
#
# Convention : Reuss Voigt Hill
#
# Bulk Modulus (GPa) = 53.84595 54.41580 54.13088
# Shear Modulus (GPa) = 20.18963 27.12703 23.65833
#
# Velocity S-wave (km/s) = 3.33644 3.86741 3.61170
# Velocity P-wave (km/s) = 6.67317 7.06721 6.87301
#
# Compressibility (1/GPa) = 0.01857150
#
# Stress axis : x y z
#
# Youngs Moduli (GPa) = 91.27990 92.15111 74.72548
#
# Poissons Ratio (x) = 0.22527 0.25724
# Poissons Ratio (y) = 0.22314 0.18098
# Poissons Ratio (z) = 0.31423 0.22318
#
# Static dielectric constant tensor:
#      x y z
#    x 1.664750 0.000000 0.000000 
#    y 0.000000 1.604950 0.000000 
#    z 0.000000 0.000000 1.620820 
# 
# From -- ./inp_files/10052.got.cif
#   From: 2010.05.17/outbox.cif.g08.bks.cpg/sg39_6_cif.got.tgz:10052.got - 2010.06.03 18:22:40.
