data_PCOD9359773
_publ_section_title
;
Structure prediction by ZEFSAII (Michael W. Deem and Ramdas Pophale) SiO2 
 PCOD9359773
Probable space group: A B M 2
;
_chemical_formula_sum "Si O2"
_cell_formula_units_Z 36
_cell_length_a 14.637453
_cell_length_b 18.900434
_cell_length_c 5.543592
_cell_angle_alpha 90.000000
_cell_angle_beta 90.000000
_cell_angle_gamma 90.000000
_cell_volume 1533.658089
_symmetry_space_group_name_H-M "A B M 2"
_symmetry_group_IT_number 39
_symmetry_cell_setting 'orthorhombic'
loop_
_space_group_symop_operation_xyz
x,y,z
-x,-y,z
-x,1/2+y,z
x,1/2-y,z
x,1/2+y,1/2+z
-x,1/2-y,1/2+z
-x,y,1/2+z
x,-y,1/2+z
loop_
_atom_site_type_symbol
_atom_site_label
_atom_site_fract_x
_atom_site_fract_y
_atom_site_fract_z
Si Si1 0.745051 0.401581 0.014820
Si Si2 0.463841 0.920397 0.888077
Si Si3 0.944541 0.750000 0.943994
Si Si4 0.336565 0.750000 0.055720
Si Si5 0.798414 0.372466 0.514748
Si Si6 0.354186 0.250000 0.053637
O O1 0.642582 0.426428 0.954209
O O2 0.729921 0.317020 0.049301
O O3 0.780065 0.421728 0.281374
O O4 0.804787 0.410709 0.774276
O O5 0.514291 0.888032 0.123769
O O6 0.500000 0.000000 0.860606
O O7 0.991012 0.750000 0.680755
O O8 0.882353 0.820182 0.967041
O O9 0.396984 0.750000 0.292631
O O10 0.395795 0.750000 0.816124
O O11 0.711400 0.319562 0.546747
#
# Coordination Sequence:
#
# PCOD9359773 Si02
#       6
#     8   8   4   4   8   4
#     4  10  17  31  50  68  96 136 180 222 254 315
#     4  10  21  36  52  72  99 134 171 225 290 324
#     4  11  20  31  48  75 112 151 182 217 262 313
#     4   8  14  23  40  61  82 112 156 202 236 275
#     4   9  17  28  45  69  95 135 181 209 248 308
#     4   7  12  22  36  56  82 111 152 197 224 264
#
# _framework density 23.473286999999999
#
# number of rings (size 3 to 8) (size 9 to 14) (size 15 to 20)
#    0.000    2.667    0.000    4.000    0.000    1.778 
#    0.000    1.111    0.000    0.000    0.000    0.000 
#    0.000    0.000    0.000  280.000    0.000    0.000 
#
# Total GULP energy -100429.992218 kJ/mol
# GULP energy per Si atom -5579.444012 kJ/mol
# Density = 2.341986 g / cm^3
# Si number density = 23.473287 Si / 1000 Ang^3
#
#
#
# Elastic Constant Matrix: (Units=GPa)
#
#
# Indices 1 2 3 4 5 6 
#
# 1 65.8298 -0.7868 19.0383 0.0000 0.0000 0.0000
# 2 -0.7868 58.4245 -13.3359 0.0000 0.0000 0.0000
# 3 19.0383 -13.3359 280.0056 0.0000 0.0000 0.0000
# 4 0.0000 0.0000 0.0000 -2.4668 0.0000 0.0000
# 5 0.0000 0.0000 0.0000 0.0000 31.6919 0.0000
# 6 0.0000 0.0000 0.0000 0.0000 0.0000 3.3101
#
#
#
# Elastic Compliance Matrix: (Units=1/GPa)
#
#
# Indices 1 2 3 4 5 6 
#
# 1 0.015495 -0.000032 -0.001055 0.000000 0.000000 0.000000
# 2 -0.000032 0.017304 0.000826 0.000000 0.000000 0.000000
# 3 -0.001055 0.000826 0.003682 0.000000 0.000000 0.000000
# 4 0.000000 0.000000 0.000000 -0.405381 0.000000 0.000000
# 5 0.000000 0.000000 0.000000 0.000000 0.031554 0.000000
# 6 0.000000 0.000000 0.000000 0.000000 0.000000 0.302110
#
#
# Mechanical properties :
#
#
# Convention : Reuss Voigt Hill
#
# Bulk Modulus (GPa) = 27.80842 46.01014 36.90928
# Shear Modulus (GPa) = -220.00997 33.12997 -93.44000
#
# Velocity S-wave (km/s) = -9.69182 3.76092 -6.31612
# Velocity P-wave (km/s) = 10.64749 6.20508 6.11826
#
# Compressibility (1/GPa) = 0.03596033
#
# Stress axis : x y z
#
# Youngs Moduli (GPa) = 64.53508 57.78909 271.55812
#
# Poissons Ratio (x) = 0.00186 0.28652
# Poissons Ratio (y) = 0.00208 -0.22440
# Poissons Ratio (z) = 0.06809 -0.04775
#
# Static dielectric constant tensor:
#      x y z
#    x 1.826820 0.000000 0.000000 
#    y 0.000000 1.886040 0.000000 
#    z 0.000000 0.000000 2.085820 
# 
# From -- ./inp_files/521.got.cif
#   From: 2010.05.17/outbox.cif.g08.bks.cpg/sg39_1_cif.got.tgz:521.got - 2010.06.03 18:22:40.
