data_PCOD9359553
_publ_section_title
;
Structure prediction by ZEFSAII (Michael W. Deem and Ramdas Pophale) SiO2 
 PCOD9359553
Probable space group: A M M 2
;
_chemical_formula_sum "Si O2"
_cell_formula_units_Z 32
_cell_length_a 24.000000
_cell_length_b 9.000000
_cell_length_c 15.000000
_cell_angle_alpha 90.000000
_cell_angle_beta 90.000000
_cell_angle_gamma 90.000000
_cell_volume 3240.000000
_symmetry_space_group_name_H-M "A M M 2"
_symmetry_group_IT_number 38
_symmetry_cell_setting 'orthorhombic'
loop_
_space_group_symop_operation_xyz
x,y,z
-x,-y,z
-x,y,z
x,-y,z
x,1/2+y,1/2+z
-x,1/2-y,1/2+z
-x,1/2+y,1/2+z
x,1/2-y,1/2+z
loop_
_atom_site_type_symbol
_atom_site_label
_atom_site_fract_x
_atom_site_fract_y
_atom_site_fract_z
Si Si1 0.613585 0.825209 0.917950
Si Si2 0.879326 0.821049 0.092519
Si Si3 0.854241 0.819952 0.899500
Si Si4 0.645839 0.676116 0.088454
Si Si5 0.439047 0.319277 0.236288
Si Si6 0.753707 0.176349 0.145283
Si Si7 0.937984 0.321338 0.249667
Si Si8 0.264431 0.324531 0.333524
O O1 0.572777 0.781131 0.838382
O O2 0.676346 0.808352 0.880071
O O3 0.605583 0.000000 0.939171
O O4 0.609969 0.724533 0.004050
O O5 0.816921 0.778957 0.124091
O O6 0.924686 0.746787 0.154406
O O7 0.883818 0.000000 0.097795
O O8 0.882212 0.771423 0.990662
O O9 0.889796 0.766512 0.815929
O O10 0.789135 0.782567 0.892636
O O11 0.856263 0.000000 0.899539
O O12 0.652686 0.500000 0.093640
O O13 0.611667 0.730620 0.174653
O O14 0.706284 0.750416 0.084875
O O15 0.500000 0.268182 0.206893
O O16 0.438322 0.500000 0.232126
O O17 0.739641 0.229091 0.244561
O O18 0.750232 0.000000 0.135074
O O19 0.934573 0.500000 0.245145
O O20 0.000000 0.282255 0.280713
O O21 0.258982 0.500000 0.309596
#
# Coordination Sequence:
#
# PCOD9359553 Si02
#       8
#     8   8   8   8   8   8   8   8
#     4  10  20  36  58  84 113 146 186 234 284 334
#     4  10  21  37  58  84 111 145 184 227 278 333
#     4   9  18  34  57  80 108 144 183 222 268 332
#     4  11  22  37  58  85 115 152 191 228 281 341
#     4   9  19  37  59  81 110 151 195 235 278 332
#     4  11  21  34  56  86 118 146 183 234 284 336
#     4  10  21  37  57  81 109 144 188 234 274 321
#     4  10  18  34  59  83 110 148 186 225 283 345
#
# _framework density 9.8765429999999999
#
# number of rings (size 3 to 8) (size 9 to 14) (size 15 to 20)
#    0.000    2.000    2.500    1.500    0.000    4.250 
#    0.000    2.500    0.000    2.625    0.000    0.000 
#    0.000    0.000    0.000    0.000    0.000    0.000 
#
# Total GULP energy -178520.834724 kJ/mol
# GULP energy per Si atom -5578.776085 kJ/mol
# Density = 0.985406 g / cm^3
# Si number density = 9.876543 Si / 1000 Ang^3
#
#
#
# Elastic Constant Matrix: (Units=GPa)
#
#
# Indices 1 2 3 4 5 6 
#
# 1 64.9582 12.9734 3.5319 0.0000 0.0000 0.0000
# 2 12.9734 4.3581 7.8481 0.0000 0.0000 0.0000
# 3 3.5319 7.8481 58.6484 0.0000 0.0000 0.0000
# 4 0.0000 0.0000 0.0000 27.3402 0.0000 0.0000
# 5 0.0000 0.0000 0.0000 0.0000 11.3517 0.0000
# 6 0.0000 0.0000 0.0000 0.0000 0.0000 13.3919
#
#
#
# Elastic Compliance Matrix: (Units=1/GPa)
#
#
# Indices 1 2 3 4 5 6 
#
# 1 0.057128 -0.215889 0.025449 0.000000 0.000000 0.000000
# 2 -0.215889 1.118156 -0.136626 0.000000 0.000000 0.000000
# 3 0.025449 -0.136626 0.033801 0.000000 0.000000 0.000000
# 4 0.000000 0.000000 0.000000 0.036576 0.000000 0.000000
# 5 0.000000 0.000000 0.000000 0.000000 0.088093 0.000000
# 6 0.000000 0.000000 0.000000 0.000000 0.000000 0.074672
#
#
# Mechanical properties :
#
#
# Convention : Reuss Voigt Hill
#
# Bulk Modulus (GPa) = 1.80196 19.63019 10.71607
# Shear Modulus (GPa) = 2.22465 17.32417 9.77441
#
# Velocity S-wave (km/s) = 1.06239 2.96469 2.22689
# Velocity P-wave (km/s) = 1.55535 4.65602 3.47114
#
# Compressibility (1/GPa) = 0.55495230
#
# Stress axis : x y z
#
# Youngs Moduli (GPa) = 17.50451 0.89433 29.58494
#
# Poissons Ratio (x) = 0.19308 -0.75291
# Poissons Ratio (y) = 3.77903 4.04208
# Poissons Ratio (z) = -0.44547 0.12219
#
# Static dielectric constant tensor:
#      x y z
#    x 1.703850 0.000000 0.000000 
#    y 0.000000 1.658110 0.000000 
#    z 0.000000 0.000000 1.730010 
# 
# From -- ./inp_files/15749.got.cif
#   From: 2010.05.17/outbox.ucp.g08.bks.cvg/sg38_8_cif.got.tgz:15749.got - 2010.06.11 10:39:43.
