data_PCOD9359075
_publ_section_title
;
Structure prediction by ZEFSAII (Michael W. Deem and Ramdas Pophale) SiO2 
 PCOD9359075
Probable space group: A M M 2
;
_chemical_formula_sum "Si O2"
_cell_formula_units_Z 56
_cell_length_a 14.400050
_cell_length_b 28.967844
_cell_length_c 5.565307
_cell_angle_alpha 90.000000
_cell_angle_beta 90.000000
_cell_angle_gamma 90.000000
_cell_volume 2321.503269
_symmetry_space_group_name_H-M "A M M 2"
_symmetry_group_IT_number 38
_symmetry_cell_setting 'orthorhombic'
loop_
_space_group_symop_operation_xyz
x,y,z
-x,-y,z
-x,y,z
x,-y,z
x,1/2+y,1/2+z
-x,1/2-y,1/2+z
-x,1/2+y,1/2+z
x,1/2-y,1/2+z
loop_
_atom_site_type_symbol
_atom_site_label
_atom_site_fract_x
_atom_site_fract_y
_atom_site_fract_z
Si Si1 0.650907 0.448538 0.274510
Si Si2 0.101855 0.139790 0.771702
Si Si3 0.398145 0.860210 0.040624
Si Si4 0.388827 0.771017 0.758460
Si Si5 0.888827 0.771017 0.053862
Si Si6 0.849093 0.051462 0.037817
Si Si7 0.750000 0.387445 0.906163
O O1 0.612612 0.500000 0.242851
O O2 0.598010 0.411868 0.437764
O O3 0.750000 0.452894 0.406164
O O4 0.675760 0.421777 0.031249
O O5 0.121119 0.175128 0.989048
O O6 0.187616 0.141473 0.590071
O O7 0.000000 0.152011 0.667731
O O8 0.098010 0.088132 0.874561
O O9 0.500000 0.847989 0.144594
O O10 0.312384 0.858527 0.222255
O O11 0.378880 0.824872 0.823277
O O12 0.500000 0.762314 0.747168
O O13 0.352996 0.754950 0.499170
O O14 0.852996 0.745051 0.813152
O O15 0.000000 0.762313 0.065154
O O16 0.824241 0.078223 0.281077
O O17 0.887388 0.000000 0.069476
#
# Coordination Sequence:
#
# PCOD9359075 Si02
#       7
#     8   8   8   8   8   8   8
#     4   9  19  37  59  83 118 159 201 254 316 379
#     4  10  22  38  61  90 125 165 213 269 321 385
#     4  10  22  38  61  90 125 165 213 269 321 385
#     4   9  19  36  60  89 124 170 219 270 332 391
#     4   9  19  36  60  89 124 170 219 270 332 391
#     4   9  19  37  59  83 118 159 201 254 316 379
#     4  10  21  38  62  90 126 164 214 256 327 390
#
# _framework density 24.122302000000001
#
# number of rings (size 3 to 8) (size 9 to 14) (size 15 to 20)
#    0.000    2.571    0.000    0.429    4.000    2.857 
#    0.000    1.429    0.000    0.000    0.000    0.000 
#    0.000    0.000    0.000    0.000    0.000    0.000 
#
# Total GULP energy -156430.467116 kJ/mol
# GULP energy per Si atom -5586.802397 kJ/mol
# Density = 2.406740 g / cm^3
# Si number density = 24.122302 Si / 1000 Ang^3
#
#
#
# Elastic Constant Matrix: (Units=GPa)
#
#
# Indices 1 2 3 4 5 6 
#
# 1 119.3663 37.1237 41.0215 0.0000 0.0000 0.0000
# 2 37.1237 135.5947 24.5752 0.0000 0.0000 0.0000
# 3 41.0215 24.5752 90.5816 0.0000 0.0000 0.0000
# 4 0.0000 0.0000 0.0000 16.0480 0.0000 0.0000
# 5 0.0000 0.0000 0.0000 0.0000 21.5597 0.0000
# 6 0.0000 0.0000 0.0000 0.0000 0.0000 26.6716
#
#
#
# Elastic Compliance Matrix: (Units=1/GPa)
#
#
# Indices 1 2 3 4 5 6 
#
# 1 0.010466 -0.002110 -0.004167 0.000000 0.000000 0.000000
# 2 -0.002110 0.008182 -0.001264 0.000000 0.000000 0.000000
# 3 -0.004167 -0.001264 0.013270 0.000000 0.000000 0.000000
# 4 0.000000 0.000000 0.000000 0.062313 0.000000 0.000000
# 5 0.000000 0.000000 0.000000 0.000000 0.046383 0.000000
# 6 0.000000 0.000000 0.000000 0.000000 0.000000 0.037493
#
#
# Mechanical properties :
#
#
# Convention : Reuss Voigt Hill
#
# Bulk Modulus (GPa) = 59.40120 61.22037 60.31079
# Shear Modulus (GPa) = 25.15075 29.04401 27.09738
#
# Velocity S-wave (km/s) = 3.23249 3.47368 3.35525
# Velocity P-wave (km/s) = 6.21373 6.44382 6.32982
#
# Compressibility (1/GPa) = 0.01683468
#
# Stress axis : x y z
#
# Youngs Moduli (GPa) = 95.54796 122.22316 75.35840
#
# Poissons Ratio (x) = 0.25791 0.31403
# Poissons Ratio (y) = 0.20162 0.09526
# Poissons Ratio (z) = 0.39817 0.15451
#
# Static dielectric constant tensor:
#      x y z
#    x 1.912990 0.000000 0.000000 
#    y 0.000000 1.931050 0.000000 
#    z 0.000000 0.000000 1.949470 
# 
# From -- ./inp_files/1410.got.cif
#   From: 2010.05.17/outbox.cif.g08.bks.cpg/sg38_1_cif.got.tgz:1410.got - 2010.06.03 18:07:57.
