data_PCOD9359983
_publ_section_title
;
Structure prediction by ZEFSAII (Michael W. Deem and Ramdas Pophale) SiO2 
 PCOD9359983
Probable space group: A B M 2
;
_chemical_formula_sum "Si O2"
_cell_formula_units_Z 48
_cell_length_a 9.963879
_cell_length_b 14.922800
_cell_length_c 14.610280
_cell_angle_alpha 90.000000
_cell_angle_beta 90.000000
_cell_angle_gamma 90.000000
_cell_volume 2172.387536
_symmetry_space_group_name_H-M "A B M 2"
_symmetry_group_IT_number 39
_symmetry_cell_setting 'orthorhombic'
loop_
_space_group_symop_operation_xyz
x,y,z
-x,-y,z
-x,1/2+y,z
x,1/2-y,z
x,1/2+y,1/2+z
-x,1/2-y,1/2+z
-x,y,1/2+z
x,-y,1/2+z
loop_
_atom_site_type_symbol
_atom_site_label
_atom_site_fract_x
_atom_site_fract_y
_atom_site_fract_z
Si Si1 0.207764 0.358430 0.562130
Si Si2 0.609318 0.141329 0.391882
Si Si3 0.915606 0.590264 0.367892
Si Si4 0.840211 0.851164 0.761913
Si Si5 0.478734 0.640639 0.582424
Si Si6 0.351086 0.141401 0.273590
O O1 0.201502 0.250000 0.553238
O O2 0.134806 0.392341 0.470846
O O3 0.143175 0.388462 0.659327
O O4 0.365284 0.383896 0.569547
O O5 0.623495 0.250000 0.396395
O O6 0.724536 0.106232 0.325012
O O7 0.607400 0.108630 0.495697
O O8 0.464945 0.122871 0.348626
O O9 0.786434 0.596782 0.303267
O O10 0.000000 0.500000 0.365206
O O11 0.026167 0.654277 0.321637
O O12 0.789691 0.750000 0.743658
O O13 0.477726 0.750000 0.583775
O O14 0.412364 0.611703 0.676991
O O15 0.331342 0.250000 0.271765
#
# Coordination Sequence:
#
# PCOD9359983 Si02
#       6
#     8   8   8   8   8   8
#     4  10  19  37  66  93 119 159 216 276 327 369
#     4   9  16  30  58  93 123 149 201 273 329 374
#     4  12  26  40  57  87 136 182 208 245 312 404
#     4  10  21  38  62  92 123 160 210 273 327 376
#     4   9  16  29  60  98 122 150 203 277 336 371
#     4  10  18  34  62  93 122 162 218 272 321 374
#
# _framework density 22.095506
#
# number of rings (size 3 to 8) (size 9 to 14) (size 15 to 20)
#    0.000    2.000    3.333    1.500    0.000    2.000 
#    0.000    4.167    0.000    2.000    0.000    0.000 
#    0.000    0.000    0.000    0.000    0.000    0.000 
#
# Total GULP energy -134023.144180 kJ/mol
# GULP energy per Si atom -5584.297674 kJ/mol
# Density = 2.204522 g / cm^3
# Si number density = 22.095506 Si / 1000 Ang^3
#
#
#
# Elastic Constant Matrix: (Units=GPa)
#
#
# Indices 1 2 3 4 5 6 
#
# 1 137.8066 26.5852 69.5200 0.0000 0.0000 0.0000
# 2 26.5852 53.5001 22.1604 0.0000 0.0000 0.0000
# 3 69.5200 22.1604 187.8370 0.0000 0.0000 0.0000
# 4 0.0000 0.0000 0.0000 73.0877 0.0000 0.0000
# 5 0.0000 0.0000 0.0000 0.0000 44.1272 0.0000
# 6 0.0000 0.0000 0.0000 0.0000 0.0000 -0.6019
#
#
#
# Elastic Compliance Matrix: (Units=1/GPa)
#
#
# Indices 1 2 3 4 5 6 
#
# 1 0.009484 -0.003426 -0.003106 0.000000 0.000000 0.000000
# 2 -0.003426 0.020890 -0.001196 0.000000 0.000000 0.000000
# 3 -0.003106 -0.001196 0.006614 0.000000 0.000000 0.000000
# 4 0.000000 0.000000 0.000000 0.013682 0.000000 0.000000
# 5 0.000000 0.000000 0.000000 0.000000 0.022662 0.000000
# 6 0.000000 0.000000 0.000000 0.000000 0.000000 -1.661331
#
#
# Mechanical properties :
#
#
# Convention : Reuss Voigt Hill
#
# Bulk Modulus (GPa) = 46.44459 68.40832 57.42645
# Shear Modulus (GPa) = -3.19415 40.71447 18.76016
#
# Velocity S-wave (km/s) = -1.20364 4.29728 2.91701
# Velocity P-wave (km/s) = 4.37423 7.45987 6.11488
#
# Compressibility (1/GPa) = 0.02153103
#
# Stress axis : x y z
#
# Youngs Moduli (GPa) = 105.43530 47.87036 151.18346
#
# Poissons Ratio (x) = 0.16403 0.46958
# Poissons Ratio (y) = 0.36127 0.18087
# Poissons Ratio (z) = 0.32749 0.05727
#
# Static dielectric constant tensor:
#      x y z
#    x 1.765370 0.000000 0.000000 
#    y 0.000000 1.909100 0.000000 
#    z 0.000000 0.000000 1.812480 
# 
# From -- ./inp_files/8355.got.cif
#   From: 2010.05.17/outbox.cif.g08.bks.cpg/sg39_5_cif.got.tgz:8355.got - 2010.06.03 18:22:40.
