data_PCOD9359793
_publ_section_title
;
Structure prediction by ZEFSAII (Michael W. Deem and Ramdas Pophale) SiO2 
 PCOD9359793
Probable space group: A B M 2
;
_chemical_formula_sum "Si O2"
_cell_formula_units_Z 52
_cell_length_a 11.376102
_cell_length_b 26.504705
_cell_length_c 8.689833
_cell_angle_alpha 90.000000
_cell_angle_beta 90.000000
_cell_angle_gamma 90.000000
_cell_volume 2620.160424
_symmetry_space_group_name_H-M "A B M 2"
_symmetry_group_IT_number 39
_symmetry_cell_setting 'orthorhombic'
loop_
_space_group_symop_operation_xyz
x,y,z
-x,-y,z
-x,1/2+y,z
x,1/2-y,z
x,1/2+y,1/2+z
-x,1/2-y,1/2+z
-x,y,1/2+z
x,-y,1/2+z
loop_
_atom_site_type_symbol
_atom_site_label
_atom_site_fract_x
_atom_site_fract_y
_atom_site_fract_z
Si Si1 0.100969 0.928274 0.597520
Si Si2 0.264763 0.142913 0.246983
Si Si3 0.468441 0.809897 0.915396
Si Si4 0.883875 0.146854 0.050593
Si Si5 0.679496 0.691033 0.726350
Si Si6 0.000000 0.000000 0.847591
Si Si7 0.990109 0.250000 0.921337
Si Si8 0.166186 0.750000 0.643081
O O1 0.220790 0.897245 0.621797
O O2 0.081418 0.963625 0.450355
O O3 0.992286 0.888510 0.594249
O O4 0.079805 0.965282 0.740263
O O5 0.395871 0.151908 0.307164
O O6 0.189528 0.129132 0.401053
O O7 0.229071 0.198861 0.190113
O O8 0.448449 0.750000 0.875607
O O9 0.606094 0.818098 0.882069
O O10 0.413805 0.816328 0.084776
O O11 0.934194 0.200013 0.992635
O O12 0.792712 0.157369 0.188864
O O13 0.710800 0.750000 0.713959
O O14 0.953425 0.250000 0.744790
O O15 0.125668 0.250000 0.967653
#
# Coordination Sequence:
#
# PCOD9359793 Si02
#       8
#     8   8   8   8   8   4   4   4
#     4  11  20  37  56  76 102 131 172 213 274 310
#     4  10  18  31  52  76 103 144 170 202 247 313
#     4   9  17  31  48  71 107 145 176 204 238 288
#     4  10  18  31  52  76 103 144 170 202 247 313
#     4   9  17  31  48  71 107 145 176 204 238 288
#     4  10  24  38  52  76 102 126 172 230 264 318
#     4  10  18  28  43  72 110 136 167 195 240 299
#     4  10  18  28  43  72 110 136 167 195 240 299
#
# _framework density 19.846114
#
# number of rings (size 3 to 8) (size 9 to 14) (size 15 to 20)
#    0.000    2.154    4.615    0.000    0.000    0.000 
#    2.769    0.000    0.000    0.000    0.000    6.462 
#    0.000    0.000    0.000    0.000    0.000    0.000 
#
# Total GULP energy -145091.202863 kJ/mol
# GULP energy per Si atom -5580.430879 kJ/mol
# Density = 1.980094 g / cm^3
# Si number density = 19.846114 Si / 1000 Ang^3
#
#
#
# Elastic Constant Matrix: (Units=GPa)
#
#
# Indices 1 2 3 4 5 6 
#
# 1 51.0695 16.2623 22.2302 0.0000 0.0000 0.0000
# 2 16.2623 77.4466 20.9814 0.0000 0.0000 0.0000
# 3 22.2302 20.9814 57.4591 0.0000 0.0000 0.0000
# 4 0.0000 0.0000 0.0000 19.0605 0.0000 0.0000
# 5 0.0000 0.0000 0.0000 0.0000 33.4409 0.0000
# 6 0.0000 0.0000 0.0000 0.0000 0.0000 19.1531
#
#
#
# Elastic Compliance Matrix: (Units=1/GPa)
#
#
# Indices 1 2 3 4 5 6 
#
# 1 0.024086 -0.002811 -0.008292 0.000000 0.000000 0.000000
# 2 -0.002811 0.014658 -0.004265 0.000000 0.000000 0.000000
# 3 -0.008292 -0.004265 0.022169 0.000000 0.000000 0.000000
# 4 0.000000 0.000000 0.000000 0.052464 0.000000 0.000000
# 5 0.000000 0.000000 0.000000 0.000000 0.029904 0.000000
# 6 0.000000 0.000000 0.000000 0.000000 0.000000 0.052211
#
#
# Mechanical properties :
#
#
# Convention : Reuss Voigt Hill
#
# Bulk Modulus (GPa) = 33.13798 33.88033 33.50915
# Shear Modulus (GPa) = 21.16078 22.76432 21.96255
#
# Velocity S-wave (km/s) = 3.26888 3.39047 3.33023
# Velocity P-wave (km/s) = 5.56607 5.69523 5.63102
#
# Compressibility (1/GPa) = 0.03017686
#
# Stress axis : x y z
#
# Youngs Moduli (GPa) = 41.51826 68.22312 45.10794
#
# Poissons Ratio (x) = 0.19178 0.37404
# Poissons Ratio (y) = 0.11671 0.19237
# Poissons Ratio (z) = 0.34427 0.29095
#
# Static dielectric constant tensor:
#      x y z
#    x 1.720060 0.000000 0.000000 
#    y 0.000000 1.714070 0.000000 
#    z 0.000000 0.000000 1.796630 
# 
# From -- ./inp_files/2808.got.cif
#   From: 2010.05.17/outbox.cif.g08.bks.cpg/sg39_2_cif.got.tgz:2808.got - 2010.06.03 18:22:40.
