data_PCOD9359783
_publ_section_title
;
Structure prediction by ZEFSAII (Michael W. Deem and Ramdas Pophale) SiO2 
 PCOD9359783
Probable space group: A B M 2
;
_chemical_formula_sum "Si O2"
_cell_formula_units_Z 48
_cell_length_a 7.569605
_cell_length_b 21.471861
_cell_length_c 12.033884
_cell_angle_alpha 90.000000
_cell_angle_beta 90.000000
_cell_angle_gamma 90.000000
_cell_volume 1955.909362
_symmetry_space_group_name_H-M "A B M 2"
_symmetry_group_IT_number 39
_symmetry_cell_setting 'orthorhombic'
loop_
_space_group_symop_operation_xyz
x,y,z
-x,-y,z
-x,1/2+y,z
x,1/2-y,z
x,1/2+y,1/2+z
-x,1/2-y,1/2+z
-x,y,1/2+z
x,-y,1/2+z
loop_
_atom_site_type_symbol
_atom_site_label
_atom_site_fract_x
_atom_site_fract_y
_atom_site_fract_z
Si Si1 0.496163 0.381158 0.646300
Si Si2 0.824951 0.120716 0.757953
Si Si3 0.207753 0.608937 0.321450
Si Si4 0.349183 0.250000 0.626772
Si Si5 0.206054 0.250000 0.380874
Si Si6 0.000000 0.500000 0.462831
Si Si7 0.336853 0.046775 0.458524
Si Si8 0.190503 0.250000 0.851958
O O1 0.702860 0.394083 0.654065
O O2 0.376153 0.410339 0.746233
O O3 0.462278 0.309051 0.657643
O O4 0.423828 0.398667 0.527362
O O5 0.768918 0.187064 0.810947
O O6 0.757779 0.069846 0.847217
O O7 0.034271 0.121566 0.744839
O O8 0.255515 0.677707 0.375313
O O9 0.120337 0.554032 0.398009
O O10 0.303955 0.250000 0.497768
O O11 0.189821 0.250000 0.716344
O O12 0.998492 0.250000 0.408678
O O13 0.837369 0.528618 0.529990
O O14 0.500000 0.000000 0.444748
#
# Coordination Sequence:
#
# PCOD9359783 Si02
#       8
#     8   8   8   4   4   4   8   4
#     4  11  22  38  63  88 122 157 200 251 301 367
#     4  10  21  39  63  87 121 159 194 248 306 360
#     4   9  20  38  62  87 117 158 201 247 307 362
#     4  10  19  37  63  93 120 156 206 249 308 369
#     4  10  17  37  67  87 124 158 194 253 312 359
#     4  10  22  40  60  86 124 160 204 250 304 368
#     4  11  24  39  58  88 120 159 204 247 297 361
#     4   8  18  34  62  94 120 158 198 250 308 366
#
# _framework density 24.541014000000001
#
# number of rings (size 3 to 8) (size 9 to 14) (size 15 to 20)
#    0.000    2.000    1.667    1.500    0.000    5.333 
#    0.000    0.000   11.000    2.000    0.000    0.000 
#    0.000    0.000    0.000    0.000    0.000    0.000 
#
# Total GULP energy -133631.085241 kJ/mol
# GULP energy per Si atom -5567.961885 kJ/mol
# Density = 2.448516 g / cm^3
# Si number density = 24.541014 Si / 1000 Ang^3
#
#
#
# Elastic Constant Matrix: (Units=GPa)
#
#
# Indices 1 2 3 4 5 6 
#
# 1 98.5935 5.1291 -6.1372 0.0000 0.0000 0.0000
# 2 5.1291 120.1389 4.8556 0.0000 0.0000 0.0000
# 3 -6.1372 4.8556 12.1235 0.0000 0.0000 0.0000
# 4 0.0000 0.0000 0.0000 18.3793 0.0000 0.0000
# 5 0.0000 0.0000 0.0000 0.0000 18.5072 0.0000
# 6 0.0000 0.0000 0.0000 0.0000 0.0000 31.0042
#
#
#
# Elastic Compliance Matrix: (Units=1/GPa)
#
#
# Indices 1 2 3 4 5 6 
#
# 1 0.010526 -0.000676 0.005599 0.000000 0.000000 0.000000
# 2 -0.000676 0.008504 -0.003748 0.000000 0.000000 0.000000
# 3 0.005599 -0.003748 0.086820 0.000000 0.000000 0.000000
# 4 0.000000 0.000000 0.000000 0.054409 0.000000 0.000000
# 5 0.000000 0.000000 0.000000 0.000000 0.054033 0.000000
# 6 0.000000 0.000000 0.000000 0.000000 0.000000 0.032254
#
#
# Mechanical properties :
#
#
# Convention : Reuss Voigt Hill
#
# Bulk Modulus (GPa) = 9.24199 26.50565 17.87382
# Shear Modulus (GPa) = 17.84042 28.71203 23.27622
#
# Velocity S-wave (km/s) = 2.69915 3.42418 3.08305
# Velocity P-wave (km/s) = 3.67260 5.14367 4.46908
#
# Compressibility (1/GPa) = 0.10820180
#
# Stress axis : x y z
#
# Youngs Moduli (GPa) = 94.99967 117.59128 11.51805
#
# Poissons Ratio (x) = 0.07946 -0.06449
# Poissons Ratio (y) = 0.06419 0.04317
# Poissons Ratio (z) = -0.53194 0.44074
#
# Static dielectric constant tensor:
#      x y z
#    x 2.045840 0.000000 0.000000 
#    y 0.000000 2.191970 0.000000 
#    z 0.000000 0.000000 1.964010 
# 
# From -- ./inp_files/5234.got.cif
#   From: 2010.05.17/outbox.cif.g08.bks.cpg/sg39_3_cif.got.tgz:5234.got - 2010.06.03 18:22:40.
