data_PCOD9359408
_publ_section_title
;
Structure prediction by ZEFSAII (Michael W. Deem and Ramdas Pophale) SiO2 
 PCOD9359408
Probable space group: A M M 2
;
_chemical_formula_sum "Si O2"
_cell_formula_units_Z 34
_cell_length_a 12.036945
_cell_length_b 15.112170
_cell_length_c 7.010053
_cell_angle_alpha 90.000000
_cell_angle_beta 90.000000
_cell_angle_gamma 90.000000
_cell_volume 1275.159198
_symmetry_space_group_name_H-M "A M M 2"
_symmetry_group_IT_number 38
_symmetry_cell_setting 'orthorhombic'
loop_
_space_group_symop_operation_xyz
x,y,z
-x,-y,z
-x,y,z
x,-y,z
x,1/2+y,1/2+z
-x,1/2-y,1/2+z
-x,1/2+y,1/2+z
x,1/2-y,1/2+z
loop_
_atom_site_type_symbol
_atom_site_label
_atom_site_fract_x
_atom_site_fract_y
_atom_site_fract_z
Si Si1 0.122708 0.644795 0.027920
Si Si2 0.848251 0.848258 0.976378
Si Si3 0.000000 0.000000 0.134139
Si Si4 0.381463 0.604261 0.421800
Si Si5 0.624244 0.603867 0.965546
O O1 0.133888 0.623837 0.254447
O O2 0.243704 0.626584 0.931792
O O3 0.000000 0.604335 0.970352
O O4 0.110536 0.749868 0.008077
O O5 0.717532 0.843328 0.012275
O O6 0.904921 0.922133 0.102347
O O7 0.500000 0.632897 0.493415
O O8 0.366477 0.500000 0.458543
O O9 0.379727 0.614435 0.194851
O O10 0.500000 0.640787 0.904299
O O11 0.618738 0.500000 0.917168
#
# Coordination Sequence:
#
# PCOD9359408 Si02
#       5
#     8   8   2   8   8
#     4  11  21  34  54  83 112 138 179 229 270 313
#     4  11  22  35  57  79 111 140 181 220 276 315
#     4  12  20  36  58  78 102 148 188 212 260 328
#     4   8  14  27  49  77 100 131 180 223 252 305
#     4   8  16  30  51  77 108 142 180 220 264 315
#
# _framework density 26.663339000000001
#
# number of rings (size 3 to 8) (size 9 to 14) (size 15 to 20)
#    0.000    2.353    3.529    1.412    1.647    1.412 
#    0.000    0.000    2.588    1.412    0.000    3.294 
#    0.000    0.000    0.000    0.000    0.000    0.000 
#
# Total GULP energy -94652.403369 kJ/mol
# GULP energy per Si atom -5567.788433 kJ/mol
# Density = 2.660265 g / cm^3
# Si number density = 26.663339 Si / 1000 Ang^3
#
#
#
# Elastic Constant Matrix: (Units=GPa)
#
#
# Indices 1 2 3 4 5 6 
#
# 1 338.7002 49.7798 24.6601 0.0000 0.0000 0.0000
# 2 49.7798 72.0078 -26.8610 0.0000 0.0000 0.0000
# 3 24.6601 -26.8610 141.3109 0.0000 0.0000 0.0000
# 4 0.0000 0.0000 0.0000 -15.8972 0.0000 0.0000
# 5 0.0000 0.0000 0.0000 0.0000 4.1939 0.0000
# 6 0.0000 0.0000 0.0000 0.0000 0.0000 32.5467
#
#
#
# Elastic Compliance Matrix: (Units=1/GPa)
#
#
# Indices 1 2 3 4 5 6 
#
# 1 0.003448 -0.002807 -0.001135 0.000000 0.000000 0.000000
# 2 -0.002807 0.017232 0.003765 0.000000 0.000000 0.000000
# 3 -0.001135 0.003765 0.007990 0.000000 0.000000 0.000000
# 4 0.000000 0.000000 0.000000 -0.062904 0.000000 0.000000
# 5 0.000000 0.000000 0.000000 0.000000 0.238441 0.000000
# 6 0.000000 0.000000 0.000000 0.000000 0.000000 0.030725
#
#
# Mechanical properties :
#
#
# Convention : Reuss Voigt Hill
#
# Bulk Modulus (GPa) = 35.31414 71.90854 53.61134
# Shear Modulus (GPa) = 20.43112 37.79803 29.11457
#
# Velocity S-wave (km/s) = 2.77115 3.76919 3.30803
# Velocity P-wave (km/s) = 4.84894 6.78012 5.89416
#
# Compressibility (1/GPa) = 0.02831727
#
# Stress axis : x y z
#
# Youngs Moduli (GPa) = 290.05307 58.03023 125.14950
#
# Poissons Ratio (x) = 0.16288 0.14207
# Poissons Ratio (y) = 0.81414 -0.47124
# Poissons Ratio (z) = 0.32926 -0.21851
#
# Static dielectric constant tensor:
#      x y z
#    x 2.156640 0.000000 0.000000 
#    y 0.000000 1.978240 0.000000 
#    z 0.000000 0.000000 2.161900 
# 
# From -- ./inp_files/8942.got.cif
#   From: 2010.05.17/outbox.cif.g08.bks.cpg/sg38_5_cif.got.tgz:8942.got - 2010.06.03 18:07:57.
