data_PCOD9359029
_publ_section_title
;
Structure prediction by ZEFSAII (Michael W. Deem and Ramdas Pophale) SiO2 
 PCOD9359029
Probable space group: A M M 2
;
_chemical_formula_sum "Si O2"
_cell_formula_units_Z 56
_cell_length_a 21.736775
_cell_length_b 8.647771
_cell_length_c 15.740403
_cell_angle_alpha 90.000000
_cell_angle_beta 90.000000
_cell_angle_gamma 90.000000
_cell_volume 2958.796784
_symmetry_space_group_name_H-M "A M M 2"
_symmetry_group_IT_number 38
_symmetry_cell_setting 'orthorhombic'
loop_
_space_group_symop_operation_xyz
x,y,z
-x,-y,z
-x,y,z
x,-y,z
x,1/2+y,1/2+z
-x,1/2-y,1/2+z
-x,1/2+y,1/2+z
x,1/2-y,1/2+z
loop_
_atom_site_type_symbol
_atom_site_label
_atom_site_fract_x
_atom_site_fract_y
_atom_site_fract_z
Si Si1 0.792738 0.184337 0.941860
Si Si2 0.570732 0.313618 0.102483
Si Si3 0.000000 0.685029 0.855523
Si Si4 0.866748 0.184741 0.281520
Si Si5 0.130485 0.315970 0.099401
Si Si6 0.570728 0.686368 0.786926
Si Si7 0.655381 0.812216 0.444751
Si Si8 0.000000 0.316239 0.544470
O O1 0.826149 0.256762 0.859859
O O2 0.722450 0.239224 0.944375
O O3 0.796938 0.000000 0.937525
O O4 0.827573 0.243419 0.025882
O O5 0.500000 0.264823 0.085001
O O6 0.571075 0.500000 0.105389
O O7 0.588358 0.250138 0.194737
O O8 0.616497 0.265776 0.027859
O O9 0.062006 0.720503 0.804218
O O10 0.000000 0.500000 0.873856
O O11 0.000000 0.774279 0.944581
O O12 0.849336 0.263598 0.193011
O O13 0.861067 0.000000 0.273453
O O14 0.131765 0.500000 0.091625
O O15 0.061343 0.254969 0.084477
O O16 0.500000 0.735066 0.804439
O O17 0.571107 0.500000 0.783844
O O18 0.616428 0.733999 0.861651
O O19 0.660694 0.000000 0.444839
O O20 0.000000 0.500000 0.556713
#
# Coordination Sequence:
#
# PCOD9359029 Si02
#       8
#     8   8   4   8   8   8   8   4
#     4  12  26  43  61  87 122 162 208 254 303 360
#     4   9  18  34  58  87 117 150 192 243 297 352
#     4  10  21  38  65  94 124 158 195 246 305 362
#     4  11  23  42  67  94 124 157 200 251 308 364
#     4  12  25  43  66  92 124 161 204 251 305 362
#     4   9  18  34  58  87 117 150 191 240 295 355
#     4  10  21  38  59  82 115 159 201 241 295 358
#     4  12  23  38  65  96 128 160 199 248 303 360
#
# _framework density 18.926611000000001
#
# number of rings (size 3 to 8) (size 9 to 14) (size 15 to 20)
#    0.000    1.429    1.429    4.500    0.000    5.143 
#    0.000    2.857    0.000    4.286    0.000    0.000 
#    0.000    0.000    0.000    0.000    0.000    0.000 
#
# Total GULP energy -156563.505421 kJ/mol
# GULP energy per Si atom -5591.553765 kJ/mol
# Density = 1.888353 g / cm^3
# Si number density = 18.926611 Si / 1000 Ang^3
#
#
#
# Elastic Constant Matrix: (Units=GPa)
#
#
# Indices 1 2 3 4 5 6 
#
# 1 132.4645 27.7343 84.0242 0.0000 0.0000 0.0000
# 2 27.7343 44.1445 19.4581 0.0000 0.0000 0.0000
# 3 84.0242 19.4581 134.4738 0.0000 0.0000 0.0000
# 4 0.0000 0.0000 0.0000 34.8757 0.0000 0.0000
# 5 0.0000 0.0000 0.0000 0.0000 -10.5919 0.0000
# 6 0.0000 0.0000 0.0000 0.0000 0.0000 22.4608
#
#
#
# Elastic Compliance Matrix: (Units=1/GPa)
#
#
# Indices 1 2 3 4 5 6 
#
# 1 0.013497 -0.005087 -0.007697 0.000000 0.000000 0.000000
# 2 -0.005087 0.026113 -0.000600 0.000000 0.000000 0.000000
# 3 -0.007697 -0.000600 0.012333 0.000000 0.000000 0.000000
# 4 0.000000 0.000000 0.000000 0.028673 0.000000 0.000000
# 5 0.000000 0.000000 0.000000 0.000000 -0.094412 0.000000
# 6 0.000000 0.000000 0.000000 0.000000 0.000000 0.044522
#
#
# Mechanical properties :
#
#
# Convention : Reuss Voigt Hill
#
# Bulk Modulus (GPa) = 39.72273 63.72400 51.72337
# Shear Modulus (GPa) = 75.88970 21.34000 48.61485
#
# Velocity S-wave (km/s) = 6.33907 3.36149 5.07363
# Velocity P-wave (km/s) = 8.63781 6.98629 7.85557
#
# Compressibility (1/GPa) = 0.02517450
#
# Stress axis : x y z
#
# Youngs Moduli (GPa) = 74.09273 38.29482 81.08525
#
# Poissons Ratio (x) = 0.19479 0.62412
# Poissons Ratio (y) = 0.37688 0.04867
# Poissons Ratio (z) = 0.57030 0.02299
#
# Static dielectric constant tensor:
#      x y z
#    x 1.636050 0.000000 0.000000 
#    y 0.000000 1.635610 0.000000 
#    z 0.000000 0.000000 1.633900 
# 
# From -- ./inp_files/15531.got.cif
#   From: 2010.05.17/outbox.cif.g08.bks.cpg/sg38_8_cif.got.tgz:15531.got - 2010.06.03 18:07:57.
