data_PCOD9359646
_publ_section_title
;
Structure prediction by ZEFSAII (Michael W. Deem and Ramdas Pophale) SiO2 
 PCOD9359646
Probable space group: A M M 2
;
_chemical_formula_sum "Si O2"
_cell_formula_units_Z 32
_cell_length_a 9.000000
_cell_length_b 15.000000
_cell_length_c 24.000000
_cell_angle_alpha 90.000000
_cell_angle_beta 90.000000
_cell_angle_gamma 90.000000
_cell_volume 3240.000000
_symmetry_space_group_name_H-M "A M M 2"
_symmetry_group_IT_number 38
_symmetry_cell_setting 'orthorhombic'
loop_
_space_group_symop_operation_xyz
x,y,z
-x,-y,z
-x,y,z
x,-y,z
x,1/2+y,1/2+z
-x,1/2-y,1/2+z
-x,1/2+y,1/2+z
x,1/2-y,1/2+z
loop_
_atom_site_type_symbol
_atom_site_label
_atom_site_fract_x
_atom_site_fract_y
_atom_site_fract_z
Si Si1 0.177103 0.337347 0.702660
Si Si2 0.823168 0.727110 0.017610
Si Si3 0.328063 0.399339 0.103751
Si Si4 0.676474 0.648688 0.228346
Si Si5 0.826125 0.397787 0.344582
Si Si6 0.322741 0.263508 0.902630
Si Si7 0.819360 0.098685 0.079120
Si Si8 0.326668 0.402502 0.807509
O O1 0.264165 0.247325 0.716569
O O2 0.221183 0.374063 0.642166
O O3 0.225805 0.399982 0.753033
O O4 0.000000 0.322529 0.702462
O O5 0.777043 0.663716 0.068396
O O6 0.772465 0.825746 0.036224
O O7 0.000000 0.726442 0.010453
O O8 0.744499 0.702599 0.960302
O O9 0.500000 0.369101 0.098186
O O10 0.317253 0.500000 0.082681
O O11 0.294385 0.399378 0.169600
O O12 0.500000 0.647427 0.238891
O O13 0.758095 0.611971 0.282676
O O14 0.812341 0.500000 0.362313
O O15 0.742770 0.332020 0.386203
O O16 0.000000 0.373881 0.342548
O O17 0.500000 0.260791 0.906118
O O18 0.281592 0.327900 0.851391
O O19 0.000000 0.097493 0.078181
O O20 0.764999 0.000000 0.066168
O O21 0.500000 0.387131 0.791712
O O22 0.318356 0.500000 0.834079
#
# Coordination Sequence:
#
# PCOD9359646 Si02
#       8
#     8   8   8   8   8   8   8   8
#     4  11  20  34  60  91 123 157 194 241 299 359
#     4  11  23  40  62  88 119 157 203 255 302 351
#     4  10  22  40  62  88 121 161 202 246 301 363
#     4  11  21  36  61  91 125 162 199 244 303 365
#     4  11  24  41  63  92 124 159 200 250 305 359
#     4  11  24  42  63  87 119 162 205 250 301 358
#     4   9  19  36  58  86 120 156 192 235 295 357
#     4  10  22  40  61  87 119 156 197 245 302 359
#
# _framework density 9.8765429999999999
#
# number of rings (size 3 to 8) (size 9 to 14) (size 15 to 20)
#    0.000    1.500    2.500    2.625    0.000    4.500 
#    0.000    2.500    0.000    3.375    0.000    0.000 
#    0.000    0.000    0.000    0.000    0.000    0.000 
#
# Total GULP energy -178702.680476 kJ/mol
# GULP energy per Si atom -5584.458765 kJ/mol
# Density = 0.985406 g / cm^3
# Si number density = 9.876543 Si / 1000 Ang^3
#
#
#
# Elastic Constant Matrix: (Units=GPa)
#
#
# Indices 1 2 3 4 5 6 
#
# 1 31.9313 13.9966 20.1137 0.0000 0.0000 0.0000
# 2 13.9966 65.6294 -3.1832 0.0000 0.0000 0.0000
# 3 20.1137 -3.1832 40.3053 0.0000 0.0000 0.0000
# 4 0.0000 0.0000 0.0000 -25.2591 0.0000 0.0000
# 5 0.0000 0.0000 0.0000 0.0000 27.2565 0.0000
# 6 0.0000 0.0000 0.0000 0.0000 0.0000 19.1129
#
#
#
# Elastic Compliance Matrix: (Units=1/GPa)
#
#
# Indices 1 2 3 4 5 6 
#
# 1 0.055010 -0.013113 -0.028487 0.000000 0.000000 0.000000
# 2 -0.013113 0.018422 0.007999 0.000000 0.000000 0.000000
# 3 -0.028487 0.007999 0.039658 0.000000 0.000000 0.000000
# 4 0.000000 0.000000 0.000000 -0.039590 0.000000 0.000000
# 5 0.000000 0.000000 0.000000 0.000000 0.036689 0.000000
# 6 0.000000 0.000000 0.000000 0.000000 0.000000 0.052321
#
#
# Mechanical properties :
#
#
# Convention : Reuss Voigt Hill
#
# Bulk Modulus (GPa) = 21.79305 22.19114 21.99209
# Shear Modulus (GPa) = 20.40748 11.35132 15.87940
#
# Velocity S-wave (km/s) = 3.21772 2.39981 2.83838
# Velocity P-wave (km/s) = 4.98614 4.35172 4.67969
#
# Compressibility (1/GPa) = 0.04588619
#
# Stress axis : x y z
#
# Youngs Moduli (GPa) = 18.17867 54.28378 25.21528
#
# Poissons Ratio (x) = 0.71185 0.71831
# Poissons Ratio (y) = 0.23839 -0.20170
# Poissons Ratio (z) = 0.51786 -0.43421
#
# Static dielectric constant tensor:
#      x y z
#    x 1.667350 0.000000 0.000000 
#    y 0.000000 1.736760 0.000000 
#    z 0.000000 0.000000 1.674890 
# 
# From -- ./inp_files/22148.got.cif
#   From: 2010.05.17/outbox.ucp.g08.bks.cvg/sg38_12_cif.got.tgz:22148.got - 2010.06.11 10:39:43.
