data_PCOD9359942
_publ_section_title
;
Structure prediction by ZEFSAII (Michael W. Deem and Ramdas Pophale) SiO2 
 PCOD9359942
Probable space group: A B M 2
;
_chemical_formula_sum "Si O2"
_cell_formula_units_Z 56
_cell_length_a 18.586710
_cell_length_b 8.081264
_cell_length_c 19.378195
_cell_angle_alpha 90.000000
_cell_angle_beta 90.000000
_cell_angle_gamma 90.000000
_cell_volume 2910.684541
_symmetry_space_group_name_H-M "A B M 2"
_symmetry_group_IT_number 39
_symmetry_cell_setting 'orthorhombic'
loop_
_space_group_symop_operation_xyz
x,y,z
-x,-y,z
-x,1/2+y,z
x,1/2-y,z
x,1/2+y,1/2+z
-x,1/2-y,1/2+z
-x,y,1/2+z
x,-y,1/2+z
loop_
_atom_site_type_symbol
_atom_site_label
_atom_site_fract_x
_atom_site_fract_y
_atom_site_fract_z
Si Si1 0.177574 0.060791 0.061100
Si Si2 0.081964 0.056572 0.435424
Si Si3 0.256898 0.951155 0.694188
Si Si4 0.206321 0.941193 0.344816
Si Si5 0.582687 0.550340 0.222160
Si Si6 0.704011 0.939511 0.467473
Si Si7 0.420186 0.051323 0.380195
O O1 0.153535 0.250000 0.069199
O O2 0.201617 0.989999 0.134838
O O3 0.121751 0.974705 0.009054
O O4 0.252574 0.051170 0.019660
O O5 0.085648 0.250000 0.420369
O O6 0.125866 0.963720 0.374780
O O7 0.000000 0.000000 0.439474
O O8 0.256923 0.750000 0.692181
O O9 0.341701 0.002477 0.685809
O O10 0.225053 0.008558 0.767331
O O11 0.227039 0.750000 0.355302
O O12 0.251849 0.056835 0.395848
O O13 0.500000 0.500000 0.201841
O O14 0.581984 0.750000 0.221036
O O15 0.594261 0.492936 0.301908
O O16 0.700163 0.750000 0.492921
O O17 0.628930 0.009860 0.442190
O O18 0.411376 0.250000 0.378951
O O19 0.500000 0.000000 0.395365
#
# Coordination Sequence:
#
# PCOD9359942 Si02
#       7
#     8   8   8   8   8   8   8
#     4  10  21  36  57  83 111 147 187 223 270 331
#     4  11  22  40  64  87 116 146 179 222 271 328
#     4  10  20  37  56  78 114 152 187 232 282 329
#     4  11  21  33  56  86 111 138 181 225 268 323
#     4   9  17  31  49  73 104 142 187 232 284 332
#     4  10  18  33  52  73 104 141 179 225 276 326
#     4   9  17  28  46  70  99 134 179 229 281 331
#
# _framework density 19.239459
#
# number of rings (size 3 to 8) (size 9 to 14) (size 15 to 20)
#    0.000    2.000    1.429    5.143    0.000    2.857 
#    0.000    1.429    0.000    6.857    0.000    0.000 
#    0.000    0.000    0.000    0.000    0.000    0.000 
#
# Total GULP energy -155960.571015 kJ/mol
# GULP energy per Si atom -5570.020393 kJ/mol
# Density = 1.919567 g / cm^3
# Si number density = 19.239459 Si / 1000 Ang^3
#
#
#
# Elastic Constant Matrix: (Units=GPa)
#
#
# Indices 1 2 3 4 5 6 
#
# 1 95.7705 1.0931 20.7685 0.0000 0.0000 0.0000
# 2 1.0931 41.5234 -2.3717 0.0000 0.0000 0.0000
# 3 20.7685 -2.3717 70.1130 0.0000 0.0000 0.0000
# 4 0.0000 0.0000 0.0000 9.8371 0.0000 0.0000
# 5 0.0000 0.0000 0.0000 0.0000 18.2268 0.0000
# 6 0.0000 0.0000 0.0000 0.0000 0.0000 23.6248
#
#
#
# Elastic Compliance Matrix: (Units=1/GPa)
#
#
# Indices 1 2 3 4 5 6 
#
# 1 0.011168 -0.000484 -0.003325 0.000000 0.000000 0.000000
# 2 -0.000484 0.024150 0.000960 0.000000 0.000000 0.000000
# 3 -0.003325 0.000960 0.015280 0.000000 0.000000 0.000000
# 4 0.000000 0.000000 0.000000 0.101656 0.000000 0.000000
# 5 0.000000 0.000000 0.000000 0.000000 0.054864 0.000000
# 6 0.000000 0.000000 0.000000 0.000000 0.000000 0.042328
#
#
# Mechanical properties :
#
#
# Convention : Reuss Voigt Hill
#
# Bulk Modulus (GPa) = 22.27067 27.37631 24.82349
# Shear Modulus (GPa) = 18.51091 22.86553 20.68822
#
# Velocity S-wave (km/s) = 3.10519 3.45116 3.28274
# Velocity P-wave (km/s) = 4.94539 5.49007 5.22483
#
# Compressibility (1/GPa) = 0.04490211
#
# Stress axis : x y z
#
# Youngs Moduli (GPa) = 89.54075 41.40724 65.44531
#
# Poissons Ratio (x) = 0.02004 0.21757
# Poissons Ratio (y) = 0.04333 -0.06285
# Poissons Ratio (z) = 0.29768 -0.03976
#
# Static dielectric constant tensor:
#      x y z
#    x 1.724470 0.000000 0.000000 
#    y 0.000000 1.753560 0.000000 
#    z 0.000000 0.000000 1.694190 
# 
# From -- ./inp_files/14945.got.cif
#   From: 2010.05.17/outbox.cif.g08.bks.cpg/sg39_8_cif.got.tgz:14945.got - 2010.06.03 18:22:40.
