data_PCOD9359617
_publ_section_title
;
Structure prediction by ZEFSAII (Michael W. Deem and Ramdas Pophale) SiO2 
 PCOD9359617
Probable space group: A M M 2
;
_chemical_formula_sum "Si O2"
_cell_formula_units_Z 32
_cell_length_a 21.000000
_cell_length_b 9.000000
_cell_length_c 18.000000
_cell_angle_alpha 90.000000
_cell_angle_beta 90.000000
_cell_angle_gamma 90.000000
_cell_volume 3402.000000
_symmetry_space_group_name_H-M "A M M 2"
_symmetry_group_IT_number 38
_symmetry_cell_setting 'orthorhombic'
loop_
_space_group_symop_operation_xyz
x,y,z
-x,-y,z
-x,y,z
x,-y,z
x,1/2+y,1/2+z
-x,1/2-y,1/2+z
-x,1/2+y,1/2+z
x,1/2-y,1/2+z
loop_
_atom_site_type_symbol
_atom_site_label
_atom_site_fract_x
_atom_site_fract_y
_atom_site_fract_z
Si Si1 0.204642 0.820274 0.593610
Si Si2 0.424561 0.666588 0.150319
Si Si3 0.795664 0.819919 0.767345
Si Si4 0.652038 0.830499 0.801992
Si Si5 0.928084 0.320775 0.012085
Si Si6 0.927687 0.179806 0.848434
Si Si7 0.663663 0.825203 0.039153
Si Si8 0.426296 0.823574 0.419953
O O1 0.204254 0.778058 0.680586
O O2 0.135698 0.779026 0.558073
O O3 0.267653 0.748653 0.556766
O O4 0.210560 0.000000 0.588567
O O5 0.500000 0.694701 0.165365
O O6 0.422554 0.500000 0.114462
O O7 0.377710 0.656834 0.220291
O O8 0.389512 0.788893 0.101335
O O9 0.726041 0.776589 0.800964
O O10 0.862888 0.772057 0.805030
O O11 0.795353 0.000000 0.770628
O O12 0.600711 0.724596 0.840605
O O13 0.651319 0.000000 0.833456
O O14 0.926454 0.500000 0.004913
O O15 0.923741 0.246313 0.931150
O O16 0.000000 0.283893 0.042189
O O17 0.000000 0.219299 0.819547
O O18 0.926025 0.000000 0.851100
O O19 0.672832 0.000000 0.030117
O O20 0.627873 0.751498 0.970060
O O21 0.500000 0.773429 0.432615
O O22 0.425776 0.000000 0.428935
#
# Coordination Sequence:
#
# PCOD9359617 Si02
#       8
#     8   8   8   8   8   8   8   8
#     4  10  20  38  60  82 115 155 191 234 285 339
#     4  10  20  37  62  86 112 150 190 229 284 348
#     4   9  18  34  57  83 113 149 190 231 275 331
#     4  10  20  37  60  86 116 150 190 236 283 342
#     4   9  19  35  57  86 115 147 189 235 282 333
#     4   9  18  33  55  84 117 152 189 230 277 331
#     4  12  25  39  58  85 116 150 193 242 285 339
#     4  11  25  43  61  83 114 150 190 238 293 350
#
# _framework density 9.4062319999999993
#
# number of rings (size 3 to 8) (size 9 to 14) (size 15 to 20)
#    0.000    2.000    1.250    2.250    1.750    4.750 
#    0.000    3.125    0.000    0.000    0.000    3.500 
#    0.000    0.000    0.000    0.000    0.000    0.000 
#
# Total GULP energy -178216.212050 kJ/mol
# GULP energy per Si atom -5569.256627 kJ/mol
# Density = 0.938482 g / cm^3
# Si number density = 9.406232 Si / 1000 Ang^3
#
#
#
# Elastic Constant Matrix: (Units=GPa)
#
#
# Indices 1 2 3 4 5 6 
#
# 1 165.1365 25.7035 9.4375 0.0000 0.0000 0.0000
# 2 25.7035 40.2390 10.6203 0.0000 0.0000 0.0000
# 3 9.4375 10.6203 26.7317 0.0000 0.0000 0.0000
# 4 0.0000 0.0000 0.0000 21.2599 0.0000 0.0000
# 5 0.0000 0.0000 0.0000 0.0000 37.8425 0.0000
# 6 0.0000 0.0000 0.0000 0.0000 0.0000 27.5617
#
#
#
# Elastic Compliance Matrix: (Units=1/GPa)
#
#
# Indices 1 2 3 4 5 6 
#
# 1 0.006737 -0.004107 -0.000747 0.000000 0.000000 0.000000
# 2 -0.004107 0.030266 -0.010574 0.000000 0.000000 0.000000
# 3 -0.000747 -0.010574 0.041874 0.000000 0.000000 0.000000
# 4 0.000000 0.000000 0.000000 0.047037 0.000000 0.000000
# 5 0.000000 0.000000 0.000000 0.000000 0.026425 0.000000
# 6 0.000000 0.000000 0.000000 0.000000 0.000000 0.036282
#
#
# Mechanical properties :
#
#
# Convention : Reuss Voigt Hill
#
# Bulk Modulus (GPa) = 20.82445 35.95886 28.39166
# Shear Modulus (GPa) = 21.23285 29.75588 25.49436
#
# Velocity S-wave (km/s) = 3.36320 3.98139 3.68528
# Velocity P-wave (km/s) = 5.11615 6.34753 5.76481
#
# Compressibility (1/GPa) = 0.04802047
#
# Stress axis : x y z
#
# Youngs Moduli (GPa) = 148.42356 33.04088 23.88134
#
# Poissons Ratio (x) = 0.13568 0.01784
# Poissons Ratio (y) = 0.60950 0.25253
# Poissons Ratio (z) = 0.11089 0.34939
#
# Static dielectric constant tensor:
#      x y z
#    x 1.643170 0.000000 0.000000 
#    y 0.000000 1.657580 0.000000 
#    z 0.000000 0.000000 1.742990 
# 
# From -- ./inp_files/18991.got.cif
#   From: 2010.05.17/outbox.ucp.g08.bks.cvg/sg38_10_cif.got.tgz:18991.got - 2010.06.11 10:39:43.
