data_PCOD9359345
_publ_section_title
;
Structure prediction by ZEFSAII (Michael W. Deem and Ramdas Pophale) SiO2 
 PCOD9359345
Probable space group: A M M 2
;
_chemical_formula_sum "Si O2"
_cell_formula_units_Z 34
_cell_length_a 14.441564
_cell_length_b 11.997832
_cell_length_c 7.245225
_cell_angle_alpha 90.000000
_cell_angle_beta 90.000000
_cell_angle_gamma 90.000000
_cell_volume 1255.361723
_symmetry_space_group_name_H-M "A M M 2"
_symmetry_group_IT_number 38
_symmetry_cell_setting 'orthorhombic'
loop_
_space_group_symop_operation_xyz
x,y,z
-x,-y,z
-x,y,z
x,-y,z
x,1/2+y,1/2+z
-x,1/2-y,1/2+z
-x,1/2+y,1/2+z
x,1/2-y,1/2+z
loop_
_atom_site_type_symbol
_atom_site_label
_atom_site_fract_x
_atom_site_fract_y
_atom_site_fract_z
Si Si1 0.892981 0.122882 0.757420
Si Si2 0.843176 0.374779 0.859047
Si Si3 0.334010 0.151767 0.103136
Si Si4 0.500000 0.500000 0.728233
Si Si5 0.608671 0.617621 0.203862
O O1 0.884208 0.247236 0.843555
O O2 0.827772 0.119982 0.578526
O O3 0.000000 0.120289 0.691112
O O4 0.880593 0.000000 0.854862
O O5 0.887306 0.500000 0.821175
O O6 0.757488 0.369420 0.719283
O O7 0.419278 0.094819 0.204224
O O8 0.359479 0.280460 0.086340
O O9 0.332558 0.114143 0.891226
O O10 0.500000 0.629140 0.259125
O O11 0.613729 0.500000 0.102659
#
# Coordination Sequence:
#
# PCOD9359345 Si02
#       5
#     8   8   8   2   8
#     4  10  23  43  65  92 128 163 200 257 327 381
#     4  11  23  40  65  96 126 164 209 259 305 376
#     4  12  22  40  63  86 126 168 208 255 310 351
#     4  12  20  40  62  86 126 176 204 256 308 356
#     4  11  21  38  55  81 115 160 210 260 304 354
#
# _framework density 27.083826999999999
#
# number of rings (size 3 to 8) (size 9 to 14) (size 15 to 20)
#    0.000    0.941    4.706    2.118    0.000    3.294 
#    2.118    0.000    0.000    0.000    0.000    0.000 
#    0.000    0.000    0.000    0.000    0.000    0.000 
#
# Total GULP energy -94765.744318 kJ/mol
# GULP energy per Si atom -5574.455548 kJ/mol
# Density = 2.702218 g / cm^3
# Si number density = 27.083827 Si / 1000 Ang^3
#
#
#
# Elastic Constant Matrix: (Units=GPa)
#
#
# Indices 1 2 3 4 5 6 
#
# 1 89.5377 42.1785 0.4083 0.0000 0.0000 0.0000
# 2 42.1785 329.2875 40.6180 0.0000 0.0000 0.0000
# 3 0.4083 40.6180 83.5764 0.0000 0.0000 0.0000
# 4 0.0000 0.0000 0.0000 41.8257 0.0000 0.0000
# 5 0.0000 0.0000 0.0000 0.0000 -30.9683 0.0000
# 6 0.0000 0.0000 0.0000 0.0000 0.0000 24.4010
#
#
#
# Elastic Compliance Matrix: (Units=1/GPa)
#
#
# Indices 1 2 3 4 5 6 
#
# 1 0.011927 -0.001618 0.000728 0.000000 0.000000 0.000000
# 2 -0.001618 0.003450 -0.001669 0.000000 0.000000 0.000000
# 3 0.000728 -0.001669 0.012773 0.000000 0.000000 0.000000
# 4 0.000000 0.000000 0.000000 0.023909 0.000000 0.000000
# 5 0.000000 0.000000 0.000000 0.000000 -0.032291 0.000000
# 6 0.000000 0.000000 0.000000 0.000000 0.000000 0.040982
#
#
# Mechanical properties :
#
#
# Convention : Reuss Voigt Hill
#
# Bulk Modulus (GPa) = 43.41647 74.31234 58.86440
# Shear Modulus (GPa) = 67.98689 34.99814 51.49251
#
# Velocity S-wave (km/s) = 5.01566 3.59864 4.36504
# Velocity P-wave (km/s) = 7.04327 6.69062 6.86921
#
# Compressibility (1/GPa) = 0.02303274
#
# Stress axis : x y z
#
# Youngs Moduli (GPa) = 83.84250 289.86434 78.29289
#
# Poissons Ratio (x) = 0.46886 -0.05699
# Poissons Ratio (y) = 0.13562 0.13065
# Poissons Ratio (z) = -0.06102 0.48371
#
# Static dielectric constant tensor:
#      x y z
#    x 2.156450 0.000000 0.000000 
#    y 0.000000 2.161670 0.000000 
#    z 0.000000 0.000000 2.057710 
# 
# From -- ./inp_files/5082.got.cif
#   From: 2010.05.17/outbox.cif.g08.bks.cpg/sg38_3_cif.got.tgz:5082.got - 2010.06.03 18:07:57.
