data_PCOD9359977
_publ_section_title
;
Structure prediction by ZEFSAII (Michael W. Deem and Ramdas Pophale) SiO2 
 PCOD9359977
Probable space group: A B M 2
;
_chemical_formula_sum "Si O2"
_cell_formula_units_Z 64
_cell_length_a 24.569516
_cell_length_b 7.952987
_cell_length_c 16.004953
_cell_angle_alpha 90.000000
_cell_angle_beta 90.000000
_cell_angle_gamma 90.000000
_cell_volume 3127.384483
_symmetry_space_group_name_H-M "A B M 2"
_symmetry_group_IT_number 39
_symmetry_cell_setting 'orthorhombic'
loop_
_space_group_symop_operation_xyz
x,y,z
-x,-y,z
-x,1/2+y,z
x,1/2-y,z
x,1/2+y,1/2+z
-x,1/2-y,1/2+z
-x,y,1/2+z
x,-y,1/2+z
loop_
_atom_site_type_symbol
_atom_site_label
_atom_site_fract_x
_atom_site_fract_y
_atom_site_fract_z
Si Si1 0.752206 0.453799 0.293020
Si Si2 0.937748 0.553255 0.897730
Si Si3 0.866525 0.043075 0.551785
Si Si4 0.365629 0.547831 0.234938
Si Si5 0.870871 0.552439 0.236574
Si Si6 0.562876 0.547076 0.891179
Si Si7 0.251040 0.454646 0.988580
Si Si8 0.631776 0.047302 0.549819
O O1 0.754989 0.250000 0.289198
O O2 0.696436 0.511463 0.249588
O O3 0.806862 0.523804 0.252630
O O4 0.749929 0.501177 0.390872
O O5 0.938152 0.750000 0.912611
O O6 0.904677 0.522573 0.812828
O O7 0.000000 0.500000 0.891132
O O8 0.905097 0.480216 0.977196
O O9 0.866131 0.250000 0.552141
O O10 0.884086 0.986880 0.643920
O O11 0.804536 0.989982 0.532415
O O12 0.364094 0.750000 0.241023
O O13 0.404010 0.485831 0.309892
O O14 0.385079 0.501605 0.142805
O O15 0.882176 0.750000 0.237554
O O16 0.500000 0.500000 0.888238
O O17 0.566521 0.750000 0.891136
O O18 0.592315 0.486934 0.975899
O O19 0.251591 0.250000 0.990894
O O20 0.306745 0.513899 0.031061
O O21 0.632871 0.250000 0.545662
#
# Coordination Sequence:
#
# PCOD9359977 Si02
#       8
#     8   8   8   8   8   8   8   8
#     4  10  18  34  60  85 115 154 188 225 282 345
#     4  11  23  42  63  83 112 154 196 238 286 336
#     4   9  19  35  59  85 113 149 186 225 278 337
#     4  10  21  37  58  85 116 149 188 235 287 343
#     4  11  22  37  59  91 121 148 188 236 282 338
#     4  10  22  40  59  80 110 152 196 239 288 342
#     4   9  15  31  59  84 109 147 186 222 274 341
#     4  10  20  36  60  85 111 148 190 232 285 345
#
# _framework density 20.464383999999999
#
# number of rings (size 3 to 8) (size 9 to 14) (size 15 to 20)
#    0.000    2.000    2.500    1.500    0.000    3.500 
#    0.000    6.875    0.000    0.000    0.000    0.000 
#    0.000    0.000    0.000    0.000    0.000    0.000 
#
# Total GULP energy -178748.134870 kJ/mol
# GULP energy per Si atom -5585.879215 kJ/mol
# Density = 2.041781 g / cm^3
# Si number density = 20.464384 Si / 1000 Ang^3
#
#
#
# Elastic Constant Matrix: (Units=GPa)
#
#
# Indices 1 2 3 4 5 6 
#
# 1 150.7332 0.9701 78.5090 0.0000 0.0000 0.0000
# 2 0.9701 12.4524 -2.7001 0.0000 0.0000 0.0000
# 3 78.5090 -2.7001 173.5743 0.0000 0.0000 0.0000
# 4 0.0000 0.0000 0.0000 23.2722 0.0000 0.0000
# 5 0.0000 0.0000 0.0000 0.0000 -2.7684 0.0000
# 6 0.0000 0.0000 0.0000 0.0000 0.0000 24.5789
#
#
#
# Elastic Compliance Matrix: (Units=1/GPa)
#
#
# Indices 1 2 3 4 5 6 
#
# 1 0.008708 -0.001538 -0.003963 0.000000 0.000000 0.000000
# 2 -0.001538 0.080849 0.001953 0.000000 0.000000 0.000000
# 3 -0.003963 0.001953 0.007584 0.000000 0.000000 0.000000
# 4 0.000000 0.000000 0.000000 0.042970 0.000000 0.000000
# 5 0.000000 0.000000 0.000000 0.000000 -0.361217 0.000000
# 6 0.000000 0.000000 0.000000 0.000000 0.000000 0.040685
#
#
# Mechanical properties :
#
#
# Convention : Reuss Voigt Hill
#
# Bulk Modulus (GPa) = 11.10530 54.47978 32.79254
# Shear Modulus (GPa) = -34.88934 26.34859 -4.27038
#
# Velocity S-wave (km/s) = -4.13350 3.59211 -1.44612
# Velocity P-wave (km/s) = 4.16445 6.62450 3.64289
#
# Compressibility (1/GPa) = 0.09004711
#
# Stress axis : x y z
#
# Youngs Moduli (GPa) = 114.83598 12.36868 131.85758
#
# Poissons Ratio (x) = 0.01902 0.52251
# Poissons Ratio (y) = 0.17657 -0.25754
# Poissons Ratio (z) = 0.45505 -0.02416
#
# Static dielectric constant tensor:
#      x y z
#    x 1.723570 0.000000 0.000000 
#    y 0.000000 1.744040 0.000000 
#    z 0.000000 0.000000 1.729340 
# 
# From -- ./inp_files/10561.got.cif
#   From: 2010.05.17/outbox.cif.g08.bks.cpg/sg39_6_cif.got.tgz:10561.got - 2010.06.03 18:22:40.
