data_PCOD9359457
_publ_section_title
;
Structure prediction by ZEFSAII (Michael W. Deem and Ramdas Pophale) SiO2 
 PCOD9359457
Probable space group: A M M 2
;
_chemical_formula_sum "Si O2"
_cell_formula_units_Z 34
_cell_length_a 7.579365
_cell_length_b 23.043476
_cell_length_c 8.381514
_cell_angle_alpha 90.000000
_cell_angle_beta 90.000000
_cell_angle_gamma 90.000000
_cell_volume 1463.872619
_symmetry_space_group_name_H-M "A M M 2"
_symmetry_group_IT_number 38
_symmetry_cell_setting 'orthorhombic'
loop_
_space_group_symop_operation_xyz
x,y,z
-x,-y,z
-x,y,z
x,-y,z
x,1/2+y,1/2+z
-x,1/2-y,1/2+z
-x,1/2+y,1/2+z
x,1/2-y,1/2+z
loop_
_atom_site_type_symbol
_atom_site_label
_atom_site_fract_x
_atom_site_fract_y
_atom_site_fract_z
Si Si1 0.500000 0.000000 0.253470
Si Si2 0.699555 0.291733 0.778958
Si Si3 0.214386 0.437051 0.249715
Si Si4 0.796293 0.675705 0.430960
Si Si5 0.204381 0.083477 0.381233
O O1 0.656868 0.949325 0.269032
O O2 0.500000 0.286936 0.837394
O O3 0.703301 0.305837 0.592458
O O4 0.789349 0.230388 0.812930
O O5 0.785089 0.347280 0.862772
O O6 0.274495 0.500000 0.310603
O O7 0.277915 0.381925 0.348360
O O8 0.000000 0.435861 0.255301
O O9 0.258560 0.432014 0.062801
O O10 0.000000 0.664047 0.474135
O O11 0.000000 0.066393 0.355545
#
# Coordination Sequence:
#
# PCOD9359457 Si02
#       5
#     2   8   8   8   8
#     4  12  22  40  64 104 136 172 224 266 332 394
#     4  12  25  44  64  97 131 171 223 279 334 396
#     4   9  19  39  65  94 128 174 223 266 321 395
#     4  11  23  42  68  94 128 174 224 274 335 399
#     4  11  22  42  69  97 135 176 222 272 326 395
#
# _framework density 23.226063
#
# number of rings (size 3 to 8) (size 9 to 14) (size 15 to 20)
#    0.000    1.176    2.353    4.588    0.000    1.882 
#    6.353    0.000    0.000    0.000    0.000    0.000 
#    0.000    0.000    0.000    0.000    0.000    0.000 
#
# Total GULP energy -94870.518349 kJ/mol
# GULP energy per Si atom -5580.618726 kJ/mol
# Density = 2.317320 g / cm^3
# Si number density = 23.226063 Si / 1000 Ang^3
#
#
#
# Elastic Constant Matrix: (Units=GPa)
#
#
# Indices 1 2 3 4 5 6 
#
# 1 111.3971 -3.4133 -8.3188 0.0000 0.0000 0.0000
# 2 -3.4133 203.1856 48.3633 0.0000 0.0000 0.0000
# 3 -8.3188 48.3633 47.8343 0.0000 0.0000 0.0000
# 4 0.0000 0.0000 0.0000 27.4283 0.0000 0.0000
# 5 0.0000 0.0000 0.0000 0.0000 21.4622 0.0000
# 6 0.0000 0.0000 0.0000 0.0000 0.0000 -32.1950
#
#
#
# Elastic Compliance Matrix: (Units=1/GPa)
#
#
# Indices 1 2 3 4 5 6 
#
# 1 0.009108 -0.000295 0.001882 0.000000 0.000000 0.000000
# 2 -0.000295 0.006491 -0.006614 0.000000 0.000000 0.000000
# 3 0.001882 -0.006614 0.027920 0.000000 0.000000 0.000000
# 4 0.000000 0.000000 0.000000 0.036459 0.000000 0.000000
# 5 0.000000 0.000000 0.000000 0.000000 0.046594 0.000000
# 6 0.000000 0.000000 0.000000 0.000000 0.000000 -0.031061
#
#
# Mechanical properties :
#
#
# Convention : Reuss Voigt Hill
#
# Bulk Modulus (GPa) = 29.88116 48.40884 39.14500
# Shear Modulus (GPa) = 42.83760 25.05814 33.94787
#
# Velocity S-wave (km/s) = 4.29928 3.28819 3.82727
# Velocity P-wave (km/s) = 6.12686 5.94172 6.03500
#
# Compressibility (1/GPa) = 0.03346590
#
# Stress axis : x y z
#
# Youngs Moduli (GPa) = 109.78856 154.06024 35.81653
#
# Poissons Ratio (x) = 0.04545 -0.06742
# Poissons Ratio (y) = 0.03239 0.23689
# Poissons Ratio (z) = -0.20666 1.01896
#
# Static dielectric constant tensor:
#      x y z
#    x 1.844140 0.000000 0.000000 
#    y 0.000000 1.874780 0.000000 
#    z 0.000000 0.000000 1.861850 
# 
# From -- ./inp_files/3136.got.cif
#   From: 2010.05.17/outbox.cif.g08.bks.cpg/sg38_2_cif.got.tgz:3136.got - 2010.06.03 18:07:57.
