data_PCOD9359637
_publ_section_title
;
Structure prediction by ZEFSAII (Michael W. Deem and Ramdas Pophale) SiO2 
 PCOD9359637
Probable space group: A M M 2
;
_chemical_formula_sum "Si O2"
_cell_formula_units_Z 24
_cell_length_a 9.000000
_cell_length_b 24.000000
_cell_length_c 12.000000
_cell_angle_alpha 90.000000
_cell_angle_beta 90.000000
_cell_angle_gamma 90.000000
_cell_volume 2592.000000
_symmetry_space_group_name_H-M "A M M 2"
_symmetry_group_IT_number 38
_symmetry_cell_setting 'orthorhombic'
loop_
_space_group_symop_operation_xyz
x,y,z
-x,-y,z
-x,y,z
x,-y,z
x,1/2+y,1/2+z
-x,1/2-y,1/2+z
-x,1/2+y,1/2+z
x,1/2-y,1/2+z
loop_
_atom_site_type_symbol
_atom_site_label
_atom_site_fract_x
_atom_site_fract_y
_atom_site_fract_z
Si Si1 0.171119 0.064363 0.134290
Si Si2 0.323286 0.365371 0.819165
Si Si3 0.826574 0.660685 0.465689
Si Si4 0.178774 0.349642 0.206153
Si Si5 0.319641 0.566220 0.038799
Si Si6 0.678672 0.732392 0.656328
O O1 0.279932 0.090022 0.225148
O O2 0.000000 0.071070 0.174493
O O3 0.199724 0.000000 0.115231
O O4 0.183977 0.100335 0.023051
O O5 0.500000 0.359772 0.829649
O O6 0.271721 0.306399 0.763157
O O7 0.271070 0.393684 0.934817
O O8 0.784366 0.655149 0.337377
O O9 0.729194 0.700636 0.544017
O O10 0.000000 0.678695 0.472264
O O11 0.249448 0.403495 0.146270
O O12 0.246267 0.292709 0.156443
O O13 0.000000 0.351019 0.194224
O O14 0.500000 0.568073 0.044403
O O15 0.279552 0.500000 0.026174
O O16 0.500000 0.737259 0.659540
#
# Coordination Sequence:
#
# PCOD9359637 Si02
#       6
#     8   8   8   8   8   8
#     4   9  17  31  54  82 111 145 184 229 281 334
#     4   9  19  36  58  85 114 148 187 236 290 340
#     4   9  20  38  56  80 113 148 188 235 287 343
#     4  11  24  39  58  84 116 154 195 241 292 353
#     4  10  22  40  60  85 120 160 201 242 290 350
#     4  10  21  37  60  87 115 147 191 242 296 355
#
# _framework density 9.2592590000000001
#
# number of rings (size 3 to 8) (size 9 to 14) (size 15 to 20)
#    0.000    2.333    0.000    1.500    2.333    4.667 
#    0.000    1.667    0.000    0.000    0.000    0.000 
#    0.000    0.000    0.000    0.000    0.000    0.000 
#
# Total GULP energy -133803.214340 kJ/mol
# GULP energy per Si atom -5575.133931 kJ/mol
# Density = 0.923818 g / cm^3
# Si number density = 9.259259 Si / 1000 Ang^3
#
#
#
# Elastic Constant Matrix: (Units=GPa)
#
#
# Indices 1 2 3 4 5 6 
#
# 1 15.4211 14.7777 18.6247 0.0000 0.0000 0.0000
# 2 14.7777 87.3057 26.1541 0.0000 0.0000 0.0000
# 3 18.6247 26.1541 94.8962 0.0000 0.0000 0.0000
# 4 0.0000 0.0000 0.0000 15.4888 0.0000 0.0000
# 5 0.0000 0.0000 0.0000 0.0000 28.9653 0.0000
# 6 0.0000 0.0000 0.0000 0.0000 0.0000 28.7578
#
#
#
# Elastic Compliance Matrix: (Units=1/GPa)
#
#
# Indices 1 2 3 4 5 6 
#
# 1 0.094301 -0.011355 -0.015378 0.000000 0.000000 0.000000
# 2 -0.011355 0.013852 -0.001589 0.000000 0.000000 0.000000
# 3 -0.015378 -0.001589 0.013994 0.000000 0.000000 0.000000
# 4 0.000000 0.000000 0.000000 0.064563 0.000000 0.000000
# 5 0.000000 0.000000 0.000000 0.000000 0.034524 0.000000
# 6 0.000000 0.000000 0.000000 0.000000 0.000000 0.034773
#
#
# Mechanical properties :
#
#
# Convention : Reuss Voigt Hill
#
# Bulk Modulus (GPa) = 15.26672 35.19290 25.22981
# Shear Modulus (GPa) = 14.94833 23.84681 19.39757
#
# Velocity S-wave (km/s) = 2.84423 3.59239 3.23997
# Velocity P-wave (km/s) = 4.36441 6.02100 5.25835
#
# Compressibility (1/GPa) = 0.06550194
#
# Stress axis : x y z
#
# Youngs Moduli (GPa) = 10.60438 72.19157 71.45900
#
# Poissons Ratio (x) = 0.81972 1.09892
# Poissons Ratio (y) = 0.12041 0.11356
# Poissons Ratio (z) = 0.16308 0.11472
#
# Static dielectric constant tensor:
#      x y z
#    x 1.640200 0.000000 0.000000 
#    y 0.000000 1.629500 0.000000 
#    z 0.000000 0.000000 1.649120 
# 
# From -- ./inp_files/8130.got.cif
#   From: 2010.05.17/outbox.ucp.g08.bks.cvg/sg38_5_cif.got.tgz:8130.got - 2010.06.11 10:39:43.
