data_PCOD9359470
_publ_section_title
;
Structure prediction by ZEFSAII (Michael W. Deem and Ramdas Pophale) SiO2 
 PCOD9359470
Probable space group: A M M 2
;
_chemical_formula_sum "Si O2"
_cell_formula_units_Z 32
_cell_length_a 8.703529
_cell_length_b 7.878831
_cell_length_c 24.781667
_cell_angle_alpha 90.000000
_cell_angle_beta 90.000000
_cell_angle_gamma 90.000000
_cell_volume 1699.368965
_symmetry_space_group_name_H-M "A M M 2"
_symmetry_group_IT_number 38
_symmetry_cell_setting 'orthorhombic'
loop_
_space_group_symop_operation_xyz
x,y,z
-x,-y,z
-x,y,z
x,-y,z
x,1/2+y,1/2+z
-x,1/2-y,1/2+z
-x,1/2+y,1/2+z
x,1/2-y,1/2+z
loop_
_atom_site_type_symbol
_atom_site_label
_atom_site_fract_x
_atom_site_fract_y
_atom_site_fract_z
Si Si1 0.812252 0.500000 0.148160
Si Si2 0.682705 0.688816 0.839009
Si Si3 0.812494 0.805454 0.071799
Si Si4 0.816301 0.500000 0.272083
Si Si5 0.179221 0.205039 0.950309
O O1 0.762952 0.667920 0.115597
O O2 0.761928 0.500000 0.210106
O O3 0.000000 0.500000 0.147980
O O4 0.500000 0.701732 0.833542
O O5 0.732499 0.500000 0.822366
O O6 0.759383 0.834752 0.803737
O O7 0.727393 0.716659 0.901424
O O8 0.000000 0.807686 0.071260
O O9 0.763090 0.000000 0.082116
O O10 0.767081 0.753406 0.010913
O O11 0.000000 0.500000 0.272311
O O12 0.000000 0.254834 0.945037
O O13 0.185725 0.000000 0.945836
#
# Coordination Sequence:
#
# PCOD9359470 Si02
#       5
#     4   8   8   4   8
#     4   9  18  31  51  79 111 147 182 225 282 335
#     4  11  24  39  56  80 113 155 194 234 288 344
#     4   8  15  28  47  77 114 144 172 217 278 337
#     4  11  23  39  59  85 115 149 196 245 284 329
#     4   9  17  31  55  86 116 144 180 228 280 339
#
# _framework density 18.830518999999999
#
# number of rings (size 3 to 8) (size 9 to 14) (size 15 to 20)
#    0.000    2.500    1.250    2.625    1.750    3.000 
#    0.000    2.500    0.000    3.000    0.000    0.000 
#    0.000    0.000    0.000    0.000    0.000    0.000 
#
# Total GULP energy -89289.315722 kJ/mol
# GULP energy per Si atom -5580.582233 kJ/mol
# Density = 1.878766 g / cm^3
# Si number density = 18.830519 Si / 1000 Ang^3
#
#
#
# Elastic Constant Matrix: (Units=GPa)
#
#
# Indices 1 2 3 4 5 6 
#
# 1 20.2224 32.3168 25.9088 0.0000 0.0000 0.0000
# 2 32.3168 145.8965 105.9749 0.0000 0.0000 0.0000
# 3 25.9088 105.9749 156.5053 0.0000 0.0000 0.0000
# 4 0.0000 0.0000 0.0000 6.9483 0.0000 0.0000
# 5 0.0000 0.0000 0.0000 0.0000 -13.2891 0.0000
# 6 0.0000 0.0000 0.0000 0.0000 0.0000 0.8583
#
#
#
# Elastic Compliance Matrix: (Units=1/GPa)
#
#
# Indices 1 2 3 4 5 6 
#
# 1 0.076985 -0.015340 -0.002357 0.000000 0.000000 0.000000
# 2 -0.015340 0.016545 -0.008664 0.000000 0.000000 0.000000
# 3 -0.002357 -0.008664 0.012646 0.000000 0.000000 0.000000
# 4 0.000000 0.000000 0.000000 0.143920 0.000000 0.000000
# 5 0.000000 0.000000 0.000000 0.000000 -0.075250 0.000000
# 6 0.000000 0.000000 0.000000 0.000000 0.000000 1.165141
#
#
# Mechanical properties :
#
#
# Convention : Reuss Voigt Hill
#
# Bulk Modulus (GPa) = 18.70767 72.33614 45.52190
# Shear Modulus (GPa) = 3.54477 9.46508 6.50492
#
# Velocity S-wave (km/s) = 1.37352 2.24441 1.86063
# Velocity P-wave (km/s) = 3.53153 6.72415 5.37056
#
# Compressibility (1/GPa) = 0.05345403
#
# Stress axis : x y z
#
# Youngs Moduli (GPa) = 12.98954 60.44022 79.07453
#
# Poissons Ratio (x) = 0.92718 0.18638
# Poissons Ratio (y) = 0.19927 0.68509
# Poissons Ratio (z) = 0.03062 0.52364
#
# Static dielectric constant tensor:
#      x y z
#    x 1.627090 0.000000 0.000000 
#    y 0.000000 1.661360 0.000000 
#    z 0.000000 0.000000 1.637880 
# 
# From -- ./inp_files/21637.got.cif
#   From: 2010.05.17/outbox.cif.g08.bks.cpg/sg38_11_cif.got.tgz:21637.got - 2010.06.03 18:07:57.
