data_PCOD9359769
_publ_section_title
;
Structure prediction by ZEFSAII (Michael W. Deem and Ramdas Pophale) SiO2 
 PCOD9359769
Probable space group: A B M 2
;
_chemical_formula_sum "Si O2"
_cell_formula_units_Z 64
_cell_length_a 12.977929
_cell_length_b 15.369132
_cell_length_c 16.739066
_cell_angle_alpha 90.000000
_cell_angle_beta 90.000000
_cell_angle_gamma 90.000000
_cell_volume 3338.765800
_symmetry_space_group_name_H-M "A B M 2"
_symmetry_group_IT_number 39
_symmetry_cell_setting 'orthorhombic'
loop_
_space_group_symop_operation_xyz
x,y,z
-x,-y,z
-x,1/2+y,z
x,1/2-y,z
x,1/2+y,1/2+z
-x,1/2-y,1/2+z
-x,y,1/2+z
x,-y,1/2+z
loop_
_atom_site_type_symbol
_atom_site_label
_atom_site_fract_x
_atom_site_fract_y
_atom_site_fract_z
Si Si1 0.380365 0.523549 0.162250
Si Si2 0.247338 0.854575 0.054322
Si Si3 0.116423 0.397020 0.260923
Si Si4 0.918144 0.347274 0.188098
Si Si5 0.264383 0.654598 0.627140
Si Si6 0.080204 0.150520 0.437416
Si Si7 0.849251 0.353484 0.459839
Si Si8 0.768534 0.925217 0.802340
O O1 0.500000 0.500000 0.168577
O O2 0.341455 0.591293 0.093162
O O3 0.331789 0.430898 0.138463
O O4 0.332864 0.559743 0.246929
O O5 0.270432 0.750000 0.054149
O O6 0.151339 0.872510 0.113693
O O7 0.190592 0.882538 0.971845
O O8 0.195870 0.345636 0.206613
O O9 0.085694 0.350469 0.342294
O O10 0.166507 0.487448 0.286747
O O11 0.014771 0.405515 0.207907
O O12 0.957819 0.250000 0.176023
O O13 0.837471 0.351161 0.260516
O O14 0.315446 0.750000 0.618799
O O15 0.194895 0.640302 0.548792
O O16 0.076066 0.250000 0.467963
O O17 0.967501 0.111541 0.457529
O O18 0.852666 0.250000 0.439928
O O19 0.774845 0.401230 0.395645
#
# Coordination Sequence:
#
# PCOD9359769 Si02
#       8
#     8   8   8   8   8   8   8   8
#     4  10  23  43  63  86 112 152 208 264 314 353
#     4   9  20  36  57  87 120 156 200 251 304 363
#     4  11  20  31  52  82 120 160 193 229 287 359
#     4  10  17  30  50  75 113 154 188 226 283 356
#     4  10  22  39  60  84 117 158 200 246 301 362
#     4  10  19  31  53  85 123 162 195 232 289 361
#     4  10  20  36  58  87 124 162 198 239 293 365
#     4  10  21  34  53  82 113 148 198 245 293 351
#
# _framework density 19.168759999999999
#
# number of rings (size 3 to 8) (size 9 to 14) (size 15 to 20)
#    0.000    2.000    1.250    2.625    1.750    3.000 
#    0.000    1.875    0.000    0.000    0.000    0.000 
#    0.000    0.000    0.000    0.000    0.000    0.000 
#
# Total GULP energy -178213.978576 kJ/mol
# GULP energy per Si atom -5569.186831 kJ/mol
# Density = 1.912513 g / cm^3
# Si number density = 19.168760 Si / 1000 Ang^3
#
#
#
# Elastic Constant Matrix: (Units=GPa)
#
#
# Indices 1 2 3 4 5 6 
#
# 1 99.2097 42.5132 15.7403 0.0000 0.0000 0.0000
# 2 42.5132 82.3582 25.7904 0.0000 0.0000 0.0000
# 3 15.7403 25.7904 56.4085 0.0000 0.0000 0.0000
# 4 0.0000 0.0000 0.0000 21.2840 0.0000 0.0000
# 5 0.0000 0.0000 0.0000 0.0000 9.9625 0.0000
# 6 0.0000 0.0000 0.0000 0.0000 0.0000 16.2526
#
#
#
# Elastic Compliance Matrix: (Units=1/GPa)
#
#
# Indices 1 2 3 4 5 6 
#
# 1 0.012963 -0.006488 -0.000651 0.000000 0.000000 0.000000
# 2 -0.006488 0.017418 -0.006153 0.000000 0.000000 0.000000
# 3 -0.000651 -0.006153 0.020723 0.000000 0.000000 0.000000
# 4 0.000000 0.000000 0.000000 0.046984 0.000000 0.000000
# 5 0.000000 0.000000 0.000000 0.000000 0.100376 0.000000
# 6 0.000000 0.000000 0.000000 0.000000 0.000000 0.061529
#
#
# Mechanical properties :
#
#
# Convention : Reuss Voigt Hill
#
# Bulk Modulus (GPa) = 40.78325 45.11823 42.95074
# Shear Modulus (GPa) = 16.96356 19.76199 18.36277
#
# Velocity S-wave (km/s) = 2.97805 3.21432 3.09844
# Velocity P-wave (km/s) = 5.75736 6.11263 5.93765
#
# Compressibility (1/GPa) = 0.02451987
#
# Stress axis : x y z
#
# Youngs Moduli (GPa) = 77.14254 57.41233 48.25601
#
# Poissons Ratio (x) = 0.37247 0.03142
# Poissons Ratio (y) = 0.50047 0.29693
# Poissons Ratio (z) = 0.05022 0.35327
#
# Static dielectric constant tensor:
#      x y z
#    x 1.665800 0.000000 0.000000 
#    y 0.000000 1.749520 0.000000 
#    z 0.000000 0.000000 1.746260 
# 
# From -- ./inp_files/12339.got.cif
#   From: 2010.05.17/outbox.cif.g08.bks.cpg/sg39_7_cif.got.tgz:12339.got - 2010.06.03 18:22:40.
