data_PCOD9359737
_publ_section_title
;
Structure prediction by ZEFSAII (Michael W. Deem and Ramdas Pophale) SiO2 
 PCOD9359737
Probable space group: A B M 2
;
_chemical_formula_sum "Si O2"
_cell_formula_units_Z 64
_cell_length_a 15.593140
_cell_length_b 8.704733
_cell_length_c 31.561902
_cell_angle_alpha 90.000000
_cell_angle_beta 90.000000
_cell_angle_gamma 90.000000
_cell_volume 4284.027004
_symmetry_space_group_name_H-M "A B M 2"
_symmetry_group_IT_number 39
_symmetry_cell_setting 'orthorhombic'
loop_
_space_group_symop_operation_xyz
x,y,z
-x,-y,z
-x,1/2+y,z
x,1/2-y,z
x,1/2+y,1/2+z
-x,1/2-y,1/2+z
-x,y,1/2+z
x,-y,1/2+z
loop_
_atom_site_type_symbol
_atom_site_label
_atom_site_fract_x
_atom_site_fract_y
_atom_site_fract_z
Si Si1 0.773575 0.432894 0.891330
Si Si2 0.097329 0.566217 0.147812
Si Si3 0.095492 0.566060 0.560238
Si Si4 0.587660 0.924884 0.992894
Si Si5 0.902780 0.565888 0.234522
Si Si6 0.589782 0.926968 0.889853
Si Si7 0.903575 0.933845 0.823070
Si Si8 0.226221 0.063754 0.985417
O O1 0.781987 0.250000 0.888843
O O2 0.676590 0.482831 0.878943
O O3 0.842200 0.513377 0.860893
O O4 0.787962 0.489131 0.939623
O O5 0.094899 0.750000 0.149660
O O6 0.133880 0.507530 0.103181
O O7 0.137123 0.498325 0.190967
O O8 0.000000 0.500000 0.146816
O O9 0.090566 0.750000 0.565749
O O10 0.152971 0.531467 0.519388
O O11 0.000000 0.500000 0.554200
O O12 0.586724 0.750000 0.007368
O O13 0.586024 0.927216 0.941383
O O14 0.681181 0.991542 0.002962
O O15 0.500000 0.000000 0.007983
O O16 0.095464 0.250000 0.234100
O O17 0.867406 0.502659 0.278846
O O18 0.000000 0.500000 0.234634
O O19 0.596706 0.750000 0.876341
O O20 0.500000 0.000000 0.875057
O O21 0.908554 0.750000 0.820191
O O22 0.000000 0.000000 0.829126
O O23 0.231641 0.250000 0.979583
#
# Coordination Sequence:
#
# PCOD9359737 Si02
#       8
#     8   8   8   8   8   8   8   8
#     4  11  21  32  46  65  89 120 155 188 223 264
#     4  10  17  27  43  63  85 109 139 176 219 262
#     4  10  19  31  45  61  84 115 149 184 219 256
#     4   8  14  25  41  60  80 104 135 173 218 262
#     4  10  17  28  45  65  86 109 140 177 220 265
#     4   9  16  28  45  65  87 112 143 182 226 268
#     4  11  21  34  48  64  88 118 152 188 224 262
#     4   9  19  33  45  59  85 119 151 184 222 261
#
# _framework density 14.939216
#
# number of rings (size 3 to 8) (size 9 to 14) (size 15 to 20)
#    0.000    2.250    0.000    8.250    0.000    4.500 
#    0.000    1.250    0.000    0.000    0.000    0.000 
#    0.000    1.000    0.000    8.500    0.000    5.250 
#
# Total GULP energy -178249.764183 kJ/mol
# GULP energy per Si atom -5570.305131 kJ/mol
# Density = 1.490521 g / cm^3
# Si number density = 14.939216 Si / 1000 Ang^3
#
#
#
# Elastic Constant Matrix: (Units=GPa)
#
#
# Indices 1 2 3 4 5 6 
#
# 1 75.3658 39.3608 50.3273 0.0000 0.0000 0.0000
# 2 39.3608 119.9332 49.0119 0.0000 0.0000 0.0000
# 3 50.3273 49.0119 90.8899 0.0000 0.0000 0.0000
# 4 0.0000 0.0000 0.0000 18.2221 0.0000 0.0000
# 5 0.0000 0.0000 0.0000 0.0000 -0.8778 0.0000
# 6 0.0000 0.0000 0.0000 0.0000 0.0000 20.5859
#
#
#
# Elastic Compliance Matrix: (Units=1/GPa)
#
#
# Indices 1 2 3 4 5 6 
#
# 1 0.021786 -0.002848 -0.010528 0.000000 0.000000 0.000000
# 2 -0.002848 0.011067 -0.004391 0.000000 0.000000 0.000000
# 3 -0.010528 -0.004391 0.019200 0.000000 0.000000 0.000000
# 4 0.000000 0.000000 0.000000 0.054879 0.000000 0.000000
# 5 0.000000 0.000000 0.000000 0.000000 -1.139204 0.000000
# 6 0.000000 0.000000 0.000000 0.000000 0.000000 0.048577
#
#
# Mechanical properties :
#
#
# Convention : Reuss Voigt Hill
#
# Bulk Modulus (GPa) = 60.53364 62.62099 61.57731
# Shear Modulus (GPa) = -5.30416 17.41861 6.05723
#
# Velocity S-wave (km/s) = -1.88632 3.41833 2.01578
# Velocity P-wave (km/s) = 5.98863 7.58868 6.83563
#
# Compressibility (1/GPa) = 0.01651974
#
# Stress axis : x y z
#
# Youngs Moduli (GPa) = 45.90112 90.35881 52.08467
#
# Poissons Ratio (x) = 0.25731 0.54833
# Poissons Ratio (y) = 0.13071 0.22870
# Poissons Ratio (z) = 0.48323 0.39677
#
# Static dielectric constant tensor:
#      x y z
#    x 1.496670 0.000000 0.000000 
#    y 0.000000 1.505880 0.000000 
#    z 0.000000 0.000000 1.516670 
# 
# From -- ./inp_files/17197.got.cif
#   From: 2010.05.17/outbox.cif.g08.bks.cpg/sg39_9_cif.got.tgz:17197.got - 2010.06.03 18:22:40.
