data_PCOD9359785
_publ_section_title
;
Structure prediction by ZEFSAII (Michael W. Deem and Ramdas Pophale) SiO2 
 PCOD9359785
Probable space group: A B M 2
;
_chemical_formula_sum "Si O2"
_cell_formula_units_Z 64
_cell_length_a 10.603530
_cell_length_b 15.486884
_cell_length_c 17.318014
_cell_angle_alpha 90.000000
_cell_angle_beta 90.000000
_cell_angle_gamma 90.000000
_cell_volume 2843.888737
_symmetry_space_group_name_H-M "A B M 2"
_symmetry_group_IT_number 39
_symmetry_cell_setting 'orthorhombic'
loop_
_space_group_symop_operation_xyz
x,y,z
-x,-y,z
-x,1/2+y,z
x,1/2-y,z
x,1/2+y,1/2+z
-x,1/2-y,1/2+z
-x,y,1/2+z
x,-y,1/2+z
loop_
_atom_site_type_symbol
_atom_site_label
_atom_site_fract_x
_atom_site_fract_y
_atom_site_fract_z
Si Si1 0.040234 0.347700 0.817180
Si Si2 0.515755 0.398362 0.193395
Si Si3 0.855773 0.993907 0.049079
Si Si4 0.265586 0.411862 0.903637
Si Si5 0.195654 0.149423 0.660917
Si Si6 0.248825 0.152502 0.158385
Si Si7 0.476025 0.101127 0.376789
Si Si8 0.777486 0.085535 0.832466
O O1 0.992180 0.250000 0.809863
O O2 0.151897 0.351411 0.879203
O O3 0.103443 0.371272 0.734223
O O4 0.924808 0.404753 0.848505
O O5 0.500000 0.500000 0.175843
O O6 0.656064 0.364065 0.179937
O O7 0.400515 0.354456 0.147505
O O8 0.491704 0.387842 0.284831
O O9 0.828166 0.916701 0.109267
O O10 0.828353 0.083216 0.092083
O O11 0.768556 0.968663 0.977539
O O12 0.000000 0.000000 0.024111
O O13 0.396529 0.361026 0.912143
O O14 0.263951 0.485103 0.835160
O O15 0.174630 0.250000 0.642587
O O16 0.206848 0.250000 0.144178
O O17 0.231102 0.125722 0.247524
O O18 0.330498 0.127358 0.387748
O O19 0.500000 0.000000 0.398056
#
# Coordination Sequence:
#
# PCOD9359785 Si02
#       8
#     8   8   8   8   8   8   8   8
#     4  11  22  37  64  98 129 166 216 276 332 393
#     4  10  17  38  68  98 124 168 218 280 341 394
#     4  12  26  42  63  95 137 188 224 267 340 415
#     4  11  22  43  64  91 127 177 221 265 327 402
#     4  11  23  42  67  98 135 172 224 283 340 401
#     4  11  23  40  67  99 133 170 222 283 338 402
#     4   8  17  34  63  92 120 156 210 266 322 384
#     4  10  20  39  65  93 123 160 215 273 329 381
#
# _framework density 22.504396
#
# number of rings (size 3 to 8) (size 9 to 14) (size 15 to 20)
#    0.000    1.500    2.500    4.125    0.000    2.000 
#    6.750    3.125    0.000    0.000    0.000    0.000 
#    0.000    0.000    0.000    0.000    0.000    0.000 
#
# Total GULP energy -178532.529966 kJ/mol
# GULP energy per Si atom -5579.141561 kJ/mol
# Density = 2.245318 g / cm^3
# Si number density = 22.504396 Si / 1000 Ang^3
#
#
#
# Elastic Constant Matrix: (Units=GPa)
#
#
# Indices 1 2 3 4 5 6 
#
# 1 153.2105 28.7864 28.1477 0.0000 0.0000 0.0000
# 2 28.7864 99.2380 34.6424 0.0000 0.0000 0.0000
# 3 28.1477 34.6424 58.8742 0.0000 0.0000 0.0000
# 4 0.0000 0.0000 0.0000 8.5059 0.0000 0.0000
# 5 0.0000 0.0000 0.0000 0.0000 25.3830 0.0000
# 6 0.0000 0.0000 0.0000 0.0000 0.0000 17.7625
#
#
#
# Elastic Compliance Matrix: (Units=1/GPa)
#
#
# Indices 1 2 3 4 5 6 
#
# 1 0.007254 -0.001124 -0.002806 0.000000 0.000000 0.000000
# 2 -0.001124 0.012856 -0.007027 0.000000 0.000000 0.000000
# 3 -0.002806 -0.007027 0.022462 0.000000 0.000000 0.000000
# 4 0.000000 0.000000 0.000000 0.117566 0.000000 0.000000
# 5 0.000000 0.000000 0.000000 0.000000 0.039397 0.000000
# 6 0.000000 0.000000 0.000000 0.000000 0.000000 0.056298
#
#
# Mechanical properties :
#
#
# Convention : Reuss Voigt Hill
#
# Bulk Modulus (GPa) = 48.41225 54.94174 51.67699
# Shear Modulus (GPa) = 17.56643 24.98001 21.27322
#
# Velocity S-wave (km/s) = 2.79691 3.33529 3.07790
# Velocity P-wave (km/s) = 5.65591 6.26889 5.97027
#
# Compressibility (1/GPa) = 0.02065593
#
# Stress axis : x y z
#
# Youngs Moduli (GPa) = 137.85819 77.78473 44.51979
#
# Poissons Ratio (x) = 0.08747 0.12494
# Poissons Ratio (y) = 0.15502 0.31284
# Poissons Ratio (z) = 0.38688 0.54660
#
# Static dielectric constant tensor:
#      x y z
#    x 2.002300 0.000000 0.000000 
#    y 0.000000 1.865600 0.000000 
#    z 0.000000 0.000000 1.842360 
# 
# From -- ./inp_files/12361.got.cif
#   From: 2010.05.17/outbox.cif.g08.bks.cpg/sg39_7_cif.got.tgz:12361.got - 2010.06.03 18:22:40.
