data_PCOD9359831
_publ_section_title
;
Structure prediction by ZEFSAII (Michael W. Deem and Ramdas Pophale) SiO2 
 PCOD9359831
Probable space group: A B M 2
;
_chemical_formula_sum "Si O2"
_cell_formula_units_Z 64
_cell_length_a 18.225349
_cell_length_b 18.706846
_cell_length_c 9.329633
_cell_angle_alpha 90.000000
_cell_angle_beta 90.000000
_cell_angle_gamma 90.000000
_cell_volume 3180.833852
_symmetry_space_group_name_H-M "A B M 2"
_symmetry_group_IT_number 39
_symmetry_cell_setting 'orthorhombic'
loop_
_space_group_symop_operation_xyz
x,y,z
-x,-y,z
-x,1/2+y,z
x,1/2-y,z
x,1/2+y,1/2+z
-x,1/2-y,1/2+z
-x,y,1/2+z
x,-y,1/2+z
loop_
_atom_site_type_symbol
_atom_site_label
_atom_site_fract_x
_atom_site_fract_y
_atom_site_fract_z
Si Si1 0.618896 0.588585 0.832420
Si Si2 0.576596 0.960730 0.543008
Si Si3 0.997519 0.601315 0.480697
Si Si4 0.070369 0.172349 0.239732
Si Si5 0.206486 0.579843 0.713255
Si Si6 0.535308 0.665640 0.328620
Si Si7 0.129733 0.513331 0.440662
Si Si8 0.337639 0.666080 0.604301
O O1 0.631946 0.556751 0.673664
O O2 0.605367 0.519614 0.931816
O O3 0.545846 0.635578 0.803667
O O4 0.664885 0.639647 0.939034
O O5 0.563937 0.887784 0.453103
O O6 0.500000 0.000000 0.596724
O O7 0.967334 0.667860 0.393276
O O8 0.928067 0.548186 0.489247
O O9 0.028945 0.617675 0.635868
O O10 0.068147 0.570780 0.393737
O O11 0.066568 0.250000 0.175078
O O12 0.153052 0.145749 0.251394
O O13 0.177570 0.547549 0.564852
O O14 0.186178 0.519423 0.827921
O O15 0.285676 0.613485 0.694491
O O16 0.535427 0.750000 0.368925
O O17 0.583218 0.659206 0.182588
O O18 0.317268 0.750000 0.612805
#
# Coordination Sequence:
#
# PCOD9359831 Si02
#       8
#     8   8   8   8   8   8   8   8
#     4  11  21  36  58  82 109 139 178 229 277 325
#     4  10  20  35  56  84 110 133 169 221 277 327
#     4   9  17  30  52  82 109 137 185 234 260 307
#     4  10  18  30  50  77 111 147 179 218 272 320
#     4  10  21  36  53  76 110 146 181 224 273 335
#     4  10  21  37  57  81 110 142 178 225 279 330
#     4   9  18  34  56  80 107 143 184 226 272 313
#     4  11  24  40  58  82 111 146 187 228 281 349
#
# _framework density 20.120511
#
# number of rings (size 3 to 8) (size 9 to 14) (size 15 to 20)
#    0.000    2.000    0.000    5.250    0.000    7.000 
#    0.000    0.000    0.000    0.000    0.000    3.500 
#    0.000    0.000    0.000    0.000    0.000    0.000 
#
# Total GULP energy -178297.536603 kJ/mol
# GULP energy per Si atom -5571.798019 kJ/mol
# Density = 2.007472 g / cm^3
# Si number density = 20.120511 Si / 1000 Ang^3
#
#
#
# Elastic Constant Matrix: (Units=GPa)
#
#
# Indices 1 2 3 4 5 6 
#
# 1 27.1295 18.8439 1.3479 0.0000 0.0000 0.0000
# 2 18.8439 111.7954 18.3652 0.0000 0.0000 0.0000
# 3 1.3479 18.3652 44.7445 0.0000 0.0000 0.0000
# 4 0.0000 0.0000 0.0000 25.6226 0.0000 0.0000
# 5 0.0000 0.0000 0.0000 0.0000 19.4273 0.0000
# 6 0.0000 0.0000 0.0000 0.0000 0.0000 -13.0841
#
#
#
# Elastic Compliance Matrix: (Units=1/GPa)
#
#
# Indices 1 2 3 4 5 6 
#
# 1 0.041876 -0.007347 0.001754 0.000000 0.000000 0.000000
# 2 -0.007347 0.010881 -0.004245 0.000000 0.000000 0.000000
# 3 0.001754 -0.004245 0.024038 0.000000 0.000000 0.000000
# 4 0.000000 0.000000 0.000000 0.039028 0.000000 0.000000
# 5 0.000000 0.000000 0.000000 0.000000 0.051474 0.000000
# 6 0.000000 0.000000 0.000000 0.000000 0.000000 -0.076428
#
#
# Mechanical properties :
#
#
# Convention : Reuss Voigt Hill
#
# Bulk Modulus (GPa) = 17.50687 28.97593 23.24140
# Shear Modulus (GPa) = 38.58522 16.06731 27.32627
#
# Velocity S-wave (km/s) = 4.38391 2.82894 3.68928
# Velocity P-wave (km/s) = 5.86045 5.01028 5.45196
#
# Compressibility (1/GPa) = 0.05712044
#
# Stress axis : x y z
#
# Youngs Moduli (GPa) = 23.88000 91.90751 41.60003
#
# Poissons Ratio (x) = 0.67521 -0.07296
# Poissons Ratio (y) = 0.17544 0.17657
# Poissons Ratio (z) = -0.04188 0.39011
#
# Static dielectric constant tensor:
#      x y z
#    x 1.730550 0.000000 0.000000 
#    y 0.000000 1.776330 0.000000 
#    z 0.000000 0.000000 1.738810 
# 
# From -- ./inp_files/4006.got.cif
#   From: 2010.05.17/outbox.cif.g08.bks.cpg/sg39_3_cif.got.tgz:4006.got - 2010.06.03 18:22:40.
