data_PCOD9359129
_publ_section_title
;
Structure prediction by ZEFSAII (Michael W. Deem and Ramdas Pophale) SiO2 
 PCOD9359129
Probable space group: A M M 2
;
_chemical_formula_sum "Si O2"
_cell_formula_units_Z 48
_cell_length_a 15.678171
_cell_length_b 11.103256
_cell_length_c 13.953583
_cell_angle_alpha 90.000000
_cell_angle_beta 90.000000
_cell_angle_gamma 90.000000
_cell_volume 2429.022234
_symmetry_space_group_name_H-M "A M M 2"
_symmetry_group_IT_number 38
_symmetry_cell_setting 'orthorhombic'
loop_
_space_group_symop_operation_xyz
x,y,z
-x,-y,z
-x,y,z
x,-y,z
x,1/2+y,1/2+z
-x,1/2-y,1/2+z
-x,1/2+y,1/2+z
x,1/2-y,1/2+z
loop_
_atom_site_type_symbol
_atom_site_label
_atom_site_fract_x
_atom_site_fract_y
_atom_site_fract_z
Si Si1 0.401710 0.126518 0.045640
Si Si2 0.902543 0.139858 0.191447
Si Si3 0.768331 0.858482 0.361313
Si Si4 0.596004 0.210169 0.834641
Si Si5 0.341882 0.627698 0.136063
Si Si6 0.843969 0.637991 0.071819
O O1 0.500000 0.126657 0.077373
O O2 0.363636 0.250328 0.081639
O O3 0.361269 0.000000 0.078676
O O4 0.401166 0.132297 0.930989
O O5 0.835861 0.165833 0.276720
O O6 0.893918 0.247005 0.113488
O O7 0.000000 0.142195 0.227739
O O8 0.886989 0.000000 0.157846
O O9 0.677318 0.797305 0.343328
O O10 0.809783 0.830831 0.465060
O O11 0.752936 0.000000 0.362538
O O12 0.500000 0.264247 0.830309
O O13 0.613214 0.136894 0.738209
O O14 0.367326 0.500000 0.088651
O O15 0.239818 0.627481 0.138891
O O16 0.881571 0.500000 0.069135
#
# Coordination Sequence:
#
# PCOD9359129 Si02
#       6
#     8   8   8   8   8   8
#     4  10  22  38  55  80 115 157 206 256 306 359
#     4  10  22  42  68  95 124 160 201 250 311 372
#     4  10  21  40  62  91 127 163 206 253 304 366
#     4  11  22  37  58  86 123 168 210 253 304 361
#     4  11  22  38  60  87 118 159 208 256 307 360
#     4  10  21  39  64  93 124 160 203 252 309 368
#
# _framework density 19.761037999999999
#
# number of rings (size 3 to 8) (size 9 to 14) (size 15 to 20)
#    0.000    1.667    3.333    1.000    0.000    4.667 
#    0.000    4.167    0.000    0.000    0.000    0.000 
#    0.000    0.000    0.000    0.000    0.000    0.000 
#
# Total GULP energy -133702.671725 kJ/mol
# GULP energy per Si atom -5570.944655 kJ/mol
# Density = 1.971606 g / cm^3
# Si number density = 19.761038 Si / 1000 Ang^3
#
#
#
# Elastic Constant Matrix: (Units=GPa)
#
#
# Indices 1 2 3 4 5 6 
#
# 1 102.1737 61.3279 24.5181 0.0000 0.0000 0.0000
# 2 61.3279 154.8648 57.4018 0.0000 0.0000 0.0000
# 3 24.5181 57.4018 65.1456 0.0000 0.0000 0.0000
# 4 0.0000 0.0000 0.0000 18.0234 0.0000 0.0000
# 5 0.0000 0.0000 0.0000 0.0000 17.6964 0.0000
# 6 0.0000 0.0000 0.0000 0.0000 0.0000 14.9702
#
#
#
# Elastic Compliance Matrix: (Units=1/GPa)
#
#
# Indices 1 2 3 4 5 6 
#
# 1 0.012851 -0.004895 -0.000523 0.000000 0.000000 0.000000
# 2 -0.004895 0.011454 -0.008250 0.000000 0.000000 0.000000
# 3 -0.000523 -0.008250 0.022816 0.000000 0.000000 0.000000
# 4 0.000000 0.000000 0.000000 0.055483 0.000000 0.000000
# 5 0.000000 0.000000 0.000000 0.000000 0.056509 0.000000
# 6 0.000000 0.000000 0.000000 0.000000 0.000000 0.066799
#
#
# Mechanical properties :
#
#
# Convention : Reuss Voigt Hill
#
# Bulk Modulus (GPa) = 50.54479 67.63111 59.08795
# Shear Modulus (GPa) = 19.24233 22.06709 20.65471
#
# Velocity S-wave (km/s) = 3.12388 3.34533 3.23650
# Velocity P-wave (km/s) = 6.21652 7.01572 6.62818
#
# Compressibility (1/GPa) = 0.01978443
#
# Stress axis : x y z
#
# Youngs Moduli (GPa) = 77.81452 87.30856 43.82825
#
# Poissons Ratio (x) = 0.42739 0.02294
# Poissons Ratio (y) = 0.38092 0.36157
# Poissons Ratio (z) = 0.04072 0.72028
#
# Static dielectric constant tensor:
#      x y z
#    x 1.694730 0.000000 0.000000 
#    y 0.000000 1.766600 0.000000 
#    z 0.000000 0.000000 1.715950 
# 
# From -- ./inp_files/14489.got.cif
#   From: 2010.05.17/outbox.cif.g08.bks.cpg/sg38_8_cif.got.tgz:14489.got - 2010.06.03 18:07:57.
