data_PCOD9359546
_publ_section_title
;
Structure prediction by ZEFSAII (Michael W. Deem and Ramdas Pophale) SiO2 
 PCOD9359546
Probable space group: A M M 2
;
_chemical_formula_sum "Si O2"
_cell_formula_units_Z 28
_cell_length_a 21.000000
_cell_length_b 9.000000
_cell_length_c 15.000000
_cell_angle_alpha 90.000000
_cell_angle_beta 90.000000
_cell_angle_gamma 90.000000
_cell_volume 2835.000000
_symmetry_space_group_name_H-M "A M M 2"
_symmetry_group_IT_number 38
_symmetry_cell_setting 'orthorhombic'
loop_
_space_group_symop_operation_xyz
x,y,z
-x,-y,z
-x,y,z
x,-y,z
x,1/2+y,1/2+z
-x,1/2-y,1/2+z
-x,1/2+y,1/2+z
x,1/2-y,1/2+z
loop_
_atom_site_type_symbol
_atom_site_label
_atom_site_fract_x
_atom_site_fract_y
_atom_site_fract_z
Si Si1 0.426829 0.179854 0.537850
Si Si2 0.663252 0.321628 0.881261
Si Si3 0.667211 0.175516 0.178404
Si Si4 0.199475 0.169843 0.643239
Si Si5 0.802242 0.170312 0.427124
Si Si6 0.929663 0.673569 0.644658
Si Si7 0.069220 0.172969 0.927326
O O1 0.500000 0.230315 0.544228
O O2 0.391202 0.230994 0.447812
O O3 0.380935 0.239080 0.614693
O O4 0.427434 0.000000 0.539716
O O5 0.668861 0.500000 0.896619
O O6 0.646096 0.298920 0.779544
O O7 0.734452 0.261172 0.899122
O O8 0.739316 0.234614 0.169703
O O9 0.666455 0.000000 0.159134
O O10 0.198071 0.169967 0.534986
O O11 0.132074 0.236161 0.674552
O O12 0.207113 0.000000 0.672980
O O13 0.866603 0.248972 0.396045
O O14 0.804747 0.000000 0.395678
O O15 0.923470 0.500000 0.668938
O O16 0.929771 0.679526 0.535969
O O17 0.000000 0.727406 0.673401
O O18 0.000000 0.235687 0.899543
O O19 0.071172 0.000000 0.902800
#
# Coordination Sequence:
#
# PCOD9359546 Si02
#       7
#     8   8   8   8   8   8   8
#     4  10  21  41  66  87 114 150 182 219 274 336
#     4   9  19  37  58  83 113 149 189 224 269 331
#     4  11  22  36  59  87 116 148 187 234 276 324
#     4  10  18  30  51  76 108 147 189 235 282 335
#     4   9  16  29  50  72 100 139 185 229 266 320
#     4   8  14  25  42  68 104 143 185 234 287 338
#     4   8  14  24  39  65 102 138 174 221 278 332
#
# _framework density 9.8765429999999999
#
# number of rings (size 3 to 8) (size 9 to 14) (size 15 to 20)
#    0.000    2.714    1.429    1.714    0.000    2.000 
#    0.000    7.143    0.000    0.857    0.000    2.000 
#    0.000    0.000    0.000    0.000    0.000    0.000 
#
# Total GULP energy -156162.299695 kJ/mol
# GULP energy per Si atom -5577.224989 kJ/mol
# Density = 0.985406 g / cm^3
# Si number density = 9.876543 Si / 1000 Ang^3
#
#
#
# Elastic Constant Matrix: (Units=GPa)
#
#
# Indices 1 2 3 4 5 6 
#
# 1 172.3114 40.7952 42.8066 0.0000 0.0000 0.0000
# 2 40.7952 34.2925 17.5090 0.0000 0.0000 0.0000
# 3 42.8066 17.5090 25.6600 0.0000 0.0000 0.0000
# 4 0.0000 0.0000 0.0000 11.6427 0.0000 0.0000
# 5 0.0000 0.0000 0.0000 0.0000 -22.4842 0.0000
# 6 0.0000 0.0000 0.0000 0.0000 0.0000 27.5098
#
#
#
# Elastic Compliance Matrix: (Units=1/GPa)
#
#
# Indices 1 2 3 4 5 6 
#
# 1 0.010538 -0.005464 -0.013852 0.000000 0.000000 0.000000
# 2 -0.005464 0.047585 -0.023354 0.000000 0.000000 0.000000
# 3 -0.013852 -0.023354 0.078014 0.000000 0.000000 0.000000
# 4 0.000000 0.000000 0.000000 0.085891 0.000000 0.000000
# 5 0.000000 0.000000 0.000000 0.000000 -0.044476 0.000000
# 6 0.000000 0.000000 0.000000 0.000000 0.000000 0.036351
#
#
# Mechanical properties :
#
#
# Convention : Reuss Voigt Hill
#
# Bulk Modulus (GPa) = 19.68586 48.27618 33.98102
# Shear Modulus (GPa) = 15.81399 12.07719 13.94559
#
# Velocity S-wave (km/s) = 2.83253 2.47535 2.65994
# Velocity P-wave (km/s) = 4.54810 5.71513 5.16468
#
# Compressibility (1/GPa) = 0.05079789
#
# Stress axis : x y z
#
# Youngs Moduli (GPa) = 94.89291 21.01489 12.81821
#
# Poissons Ratio (x) = 0.11483 0.17755
# Poissons Ratio (y) = 0.51852 0.29936
# Poissons Ratio (z) = 1.31441 0.49078
#
# Static dielectric constant tensor:
#      x y z
#    x 1.687090 0.000000 0.000000 
#    y 0.000000 1.680450 0.000000 
#    z 0.000000 0.000000 1.720910 
# 
# From -- ./inp_files/15462.got.cif
#   From: 2010.05.17/outbox.ucp.g08.bks.cvg/sg38_8_cif.got.tgz:15462.got - 2010.06.11 10:39:43.
