data_PCOD9359089
_publ_section_title
;
Structure prediction by ZEFSAII (Michael W. Deem and Ramdas Pophale) SiO2 
 PCOD9359089
Probable space group: A M M 2
;
_chemical_formula_sum "Si O2"
_cell_formula_units_Z 64
_cell_length_a 8.340109
_cell_length_b 33.050522
_cell_length_c 12.109797
_cell_angle_alpha 90.000000
_cell_angle_beta 90.000000
_cell_angle_gamma 90.000000
_cell_volume 3338.004461
_symmetry_space_group_name_H-M "A M M 2"
_symmetry_group_IT_number 38
_symmetry_cell_setting 'orthorhombic'
loop_
_space_group_symop_operation_xyz
x,y,z
-x,-y,z
-x,y,z
x,-y,z
x,1/2+y,1/2+z
-x,1/2-y,1/2+z
-x,1/2+y,1/2+z
x,1/2-y,1/2+z
loop_
_atom_site_type_symbol
_atom_site_label
_atom_site_fract_x
_atom_site_fract_y
_atom_site_fract_z
Si Si1 0.683553 0.399241 0.333000
Si Si2 0.189879 0.124117 0.267533
Si Si3 0.309848 0.048052 0.638262
Si Si4 0.315611 0.814771 0.702508
Si Si5 0.308263 0.848925 0.030990
Si Si6 0.192694 0.046312 0.395903
Si Si7 0.687732 0.183318 0.453643
Si Si8 0.185529 0.729899 0.406064
O O1 0.500000 0.413080 0.354575
O O2 0.759128 0.430891 0.247878
O O3 0.678754 0.357718 0.263575
O O4 0.753409 0.384996 0.450049
O O5 0.270937 0.140428 0.156527
O O6 0.249619 0.080084 0.309321
O O7 0.221938 0.155376 0.366669
O O8 0.000000 0.121484 0.247172
O O9 0.500000 0.057898 0.632964
O O10 0.236743 0.059856 0.520351
O O11 0.291920 0.000000 0.648059
O O12 0.500000 0.799526 0.695294
O O13 0.253397 0.820954 0.579383
O O14 0.215723 0.785758 0.781718
O O15 0.500000 0.845743 0.014287
O O16 0.234422 0.806817 0.987606
O O17 0.000000 0.045059 0.388824
O O18 0.252727 0.000000 0.379911
O O19 0.500000 0.172124 0.450667
O O20 0.710204 0.230345 0.424992
O O21 0.000000 0.739943 0.422664
#
# Coordination Sequence:
#
# PCOD9359089 Si02
#       8
#     8   8   8   8   8   8   8   8
#     4   8  15  31  53  76 103 136 176 220 267 323
#     4  11  23  38  57  84 114 148 194 243 289 339
#     4   9  16  28  52  84 113 140 176 227 281 333
#     4   9  19  36  56  76 101 139 184 222 267 328
#     4  10  21  39  59  77 107 152 195 233 283 345
#     4   9  19  36  56  80 115 154 187 228 286 346
#     4  11  23  38  59  83 111 146 185 229 280 341
#     4  11  23  38  57  81 112 144 182 233 283 332
#
# _framework density 19.173131999999999
#
# number of rings (size 3 to 8) (size 9 to 14) (size 15 to 20)
#    0.000    2.250    0.000    3.750    1.750    3.000 
#    0.000    5.000    0.000    0.750    0.000    0.000 
#    0.000    0.000    0.000    0.000    0.000    0.000 
#
# Total GULP energy -178503.297797 kJ/mol
# GULP energy per Si atom -5578.228056 kJ/mol
# Density = 1.912949 g / cm^3
# Si number density = 19.173132 Si / 1000 Ang^3
#
#
#
# Elastic Constant Matrix: (Units=GPa)
#
#
# Indices 1 2 3 4 5 6 
#
# 1 16.0054 -2.6039 -0.3369 0.0000 0.0000 0.0000
# 2 -2.6039 51.1939 33.0832 0.0000 0.0000 0.0000
# 3 -0.3369 33.0832 122.6993 0.0000 0.0000 0.0000
# 4 0.0000 0.0000 0.0000 18.0224 0.0000 0.0000
# 5 0.0000 0.0000 0.0000 0.0000 16.3877 0.0000
# 6 0.0000 0.0000 0.0000 0.0000 0.0000 16.3965
#
#
#
# Elastic Compliance Matrix: (Units=1/GPa)
#
#
# Indices 1 2 3 4 5 6 
#
# 1 0.063071 0.003749 -0.000838 0.000000 0.000000 0.000000
# 2 0.003749 0.023878 -0.006428 0.000000 0.000000 0.000000
# 3 -0.000838 -0.006428 0.009881 0.000000 0.000000 0.000000
# 4 0.000000 0.000000 0.000000 0.055486 0.000000 0.000000
# 5 0.000000 0.000000 0.000000 0.000000 0.061021 0.000000
# 6 0.000000 0.000000 0.000000 0.000000 0.000000 0.060989
#
#
# Mechanical properties :
#
#
# Convention : Reuss Voigt Hill
#
# Bulk Modulus (GPa) = 11.13615 27.79816 19.46716
# Shear Modulus (GPa) = 16.06210 20.81175 18.43692
#
# Velocity S-wave (km/s) = 2.89751 3.29821 3.10434
# Velocity P-wave (km/s) = 4.12492 5.38834 4.79839
#
# Compressibility (1/GPa) = 0.08979761
#
# Stress axis : x y z
#
# Youngs Moduli (GPa) = 15.85510 41.87915 101.20575
#
# Poissons Ratio (x) = -0.15702 0.08479
# Poissons Ratio (y) = -0.05945 0.65055
# Poissons Ratio (z) = 0.01328 0.26920
#
# Static dielectric constant tensor:
#      x y z
#    x 1.675600 0.000000 0.000000 
#    y 0.000000 1.667570 0.000000 
#    z 0.000000 0.000000 1.673630 
# 
# From -- ./inp_files/8676.got.cif
#   From: 2010.05.17/outbox.cif.g08.bks.cpg/sg38_5_cif.got.tgz:8676.got - 2010.06.03 18:07:57.
