data_PCOD9359418
_publ_section_title
;
Structure prediction by ZEFSAII (Michael W. Deem and Ramdas Pophale) SiO2 
 PCOD9359418
Probable space group: A M M 2
;
_chemical_formula_sum "Si O2"
_cell_formula_units_Z 56
_cell_length_a 19.390078
_cell_length_b 19.382538
_cell_length_c 7.848386
_cell_angle_alpha 90.000000
_cell_angle_beta 90.000000
_cell_angle_gamma 90.000000
_cell_volume 2949.650463
_symmetry_space_group_name_H-M "A M M 2"
_symmetry_group_IT_number 38
_symmetry_cell_setting 'orthorhombic'
loop_
_space_group_symop_operation_xyz
x,y,z
-x,-y,z
-x,y,z
x,-y,z
x,1/2+y,1/2+z
-x,1/2-y,1/2+z
-x,1/2+y,1/2+z
x,1/2-y,1/2+z
loop_
_atom_site_type_symbol
_atom_site_label
_atom_site_fract_x
_atom_site_fract_y
_atom_site_fract_z
Si Si1 0.576447 0.419492 0.653590
Si Si2 0.703628 0.173438 0.056244
Si Si3 0.423553 0.919492 0.565244
Si Si4 0.144781 0.330183 0.053493
Si Si5 0.703628 0.326562 0.162589
Si Si6 0.082692 0.419558 0.359417
Si Si7 0.855219 0.330182 0.665340
O O1 0.500000 0.395132 0.599078
O O2 0.582244 0.500000 0.607384
O O3 0.640131 0.377237 0.582551
O O4 0.578729 0.415190 0.859417
O O5 0.681309 0.250000 0.109417
O O6 0.772882 0.155958 0.158598
O O7 0.724819 0.174566 0.859417
O O8 0.500000 0.895132 0.619755
O O9 0.359869 0.877237 0.636282
O O10 0.417756 0.000000 0.611450
O O11 0.227118 0.344042 0.060236
O O12 0.109789 0.379570 0.192114
O O13 0.135642 0.250000 0.109417
O O14 0.120043 0.339227 0.859417
O O15 0.104916 0.500000 0.359417
O O16 0.109789 0.379570 0.526719
O O17 0.000000 0.417688 0.359417
#
# Coordination Sequence:
#
# PCOD9359418 Si02
#       7
#     8   8   8   8   8   8   8
#     4   9  19  36  55  78 112 154 201 250 302 365
#     4  11  21  36  59  86 118 154 199 255 306 359
#     4   9  19  36  55  78 112 154 201 250 302 365
#     4  11  21  42  69  96 128 168 216 263 314 378
#     4  11  21  36  59  86 118 154 199 255 306 359
#     4  11  26  46  66  98 138 168 208 263 314 376
#     4  11  21  42  69  96 128 168 216 263 314 378
#
# _framework density 18.985299999999999
#
# number of rings (size 3 to 8) (size 9 to 14) (size 15 to 20)
#    0.000    1.571    2.857    5.143    0.000    4.571 
#    0.000    2.857    0.000    0.000    0.000    0.000 
#    0.000    0.000    0.000    0.000    0.000    0.000 
#
# Total GULP energy -156387.803340 kJ/mol
# GULP energy per Si atom -5585.278691 kJ/mol
# Density = 1.894209 g / cm^3
# Si number density = 18.985300 Si / 1000 Ang^3
#
#
#
# Elastic Constant Matrix: (Units=GPa)
#
#
# Indices 1 2 3 4 5 6 
#
# 1 72.3921 63.9365 32.0847 0.0000 0.0000 0.0000
# 2 63.9365 96.0269 51.3502 0.0000 0.0000 0.0000
# 3 32.0847 51.3502 139.6123 0.0000 0.0000 0.0000
# 4 0.0000 0.0000 0.0000 23.8933 0.0000 0.0000
# 5 0.0000 0.0000 0.0000 0.0000 18.8388 0.0000
# 6 0.0000 0.0000 0.0000 0.0000 0.0000 30.3089
#
#
#
# Elastic Compliance Matrix: (Units=1/GPa)
#
#
# Indices 1 2 3 4 5 6 
#
# 1 0.033577 -0.022693 0.000630 0.000000 0.000000 0.000000
# 2 -0.022693 0.028301 -0.005194 0.000000 0.000000 0.000000
# 3 0.000630 -0.005194 0.008928 0.000000 0.000000 0.000000
# 4 0.000000 0.000000 0.000000 0.041853 0.000000 0.000000
# 5 0.000000 0.000000 0.000000 0.000000 0.053082 0.000000
# 6 0.000000 0.000000 0.000000 0.000000 0.000000 0.032994
#
#
# Mechanical properties :
#
#
# Convention : Reuss Voigt Hill
#
# Bulk Modulus (GPa) = 61.37943 66.97489 64.17716
# Shear Modulus (GPa) = 19.32901 25.31885 22.32393
#
# Velocity S-wave (km/s) = 3.19424 3.65581 3.43279
# Velocity P-wave (km/s) = 6.78265 7.29204 7.04195
#
# Compressibility (1/GPa) = 0.01629210
#
# Stress axis : x y z
#
# Youngs Moduli (GPa) = 29.78248 35.33479 112.00423
#
# Poissons Ratio (x) = 0.80186 -0.07059
# Poissons Ratio (y) = 0.67586 0.58175
# Poissons Ratio (z) = -0.01877 0.18353
#
# Static dielectric constant tensor:
#      x y z
#    x 1.645700 0.000000 0.000000 
#    y 0.000000 1.632970 0.000000 
#    z 0.000000 0.000000 1.686170 
# 
# From -- ./inp_files/6801.got.cif
#   From: 2010.05.17/outbox.cif.g08.bks.cpg/sg38_4_cif.got.tgz:6801.got - 2010.06.03 18:07:57.
