data_PCOD9359654
_publ_section_title
;
Structure prediction by ZEFSAII (Michael W. Deem and Ramdas Pophale) SiO2 
 PCOD9359654
Probable space group: A B M 2
;
_chemical_formula_sum "Si O2"
_cell_formula_units_Z 40
_cell_length_a 25.317692
_cell_length_b 14.334424
_cell_length_c 5.184788
_cell_angle_alpha 90.000000
_cell_angle_beta 90.000000
_cell_angle_gamma 90.000000
_cell_volume 1881.634910
_symmetry_space_group_name_H-M "A B M 2"
_symmetry_group_IT_number 39
_symmetry_cell_setting 'orthorhombic'
loop_
_space_group_symop_operation_xyz
x,y,z
-x,-y,z
-x,1/2+y,z
x,1/2-y,z
x,1/2+y,1/2+z
-x,1/2-y,1/2+z
-x,y,1/2+z
x,-y,1/2+z
loop_
_atom_site_type_symbol
_atom_site_label
_atom_site_fract_x
_atom_site_fract_y
_atom_site_fract_z
Si Si1 0.136029 0.062290 0.489180
Si Si2 0.247272 0.936321 0.873199
Si Si3 0.641273 0.439168 0.990133
Si Si4 0.021695 0.107253 0.325133
Si Si5 0.471195 0.861627 0.842888
O O1 0.191493 0.113013 0.429894
O O2 0.081063 0.111604 0.428272
O O3 0.135826 0.022917 0.779775
O O4 0.303256 0.887749 0.928840
O O5 0.247111 0.978834 0.585075
O O6 0.641554 0.524650 0.783539
O O7 0.587667 0.386103 0.928206
O O8 0.984211 0.147868 0.543105
O O9 0.000000 0.000000 0.288761
O O10 0.475276 0.750000 0.833443
O O11 0.487787 0.896127 0.560448
#
# Coordination Sequence:
#
# PCOD9359654 Si02
#       5
#     8   8   8   8   8
#     4  10  14  20  29  40  61  88 120 160 194 227
#     4   8  16  25  36  52  72 100 131 167 202 239
#     4  10  19  32  48  68  91 115 149 183 211 259
#     4  10  14  18  24  38  56  81 119 157 183 228
#     4  10  21  35  50  70  94 118 143 176 221 266
#
# _framework density 21.258109999999999
#
# number of rings (size 3 to 8) (size 9 to 14) (size 15 to 20)
#    0.000    2.400    4.000    1.200    0.000    2.400 
#    0.000    0.000    0.000    0.000    0.000    0.000 
#    0.000    0.000    0.000    0.000    0.000    2.000 
#
# Total GULP energy -111406.156497 kJ/mol
# GULP energy per Si atom -5570.307825 kJ/mol
# Density = 2.120973 g / cm^3
# Si number density = 21.258110 Si / 1000 Ang^3
#
#
#
# Elastic Constant Matrix: (Units=GPa)
#
#
# Indices 1 2 3 4 5 6 
#
# 1 126.1576 -7.8898 -11.8528 0.0000 0.0000 0.0000
# 2 -7.8898 35.9540 -2.3106 0.0000 0.0000 0.0000
# 3 -11.8528 -2.3106 105.3178 0.0000 0.0000 0.0000
# 4 0.0000 0.0000 0.0000 23.9494 0.0000 0.0000
# 5 0.0000 0.0000 0.0000 0.0000 37.5464 0.0000
# 6 0.0000 0.0000 0.0000 0.0000 0.0000 -19.3818
#
#
#
# Elastic Compliance Matrix: (Units=1/GPa)
#
#
# Indices 1 2 3 4 5 6 
#
# 1 0.008132 0.001846 0.000956 0.000000 0.000000 0.000000
# 2 0.001846 0.028272 0.000828 0.000000 0.000000 0.000000
# 3 0.000956 0.000828 0.009621 0.000000 0.000000 0.000000
# 4 0.000000 0.000000 0.000000 0.041755 0.000000 0.000000
# 5 0.000000 0.000000 0.000000 0.000000 0.026634 0.000000
# 6 0.000000 0.000000 0.000000 0.000000 0.000000 -0.051595
#
#
# Mechanical properties :
#
#
# Convention : Reuss Voigt Hill
#
# Bulk Modulus (GPa) = 18.76763 24.81368 21.79066
# Shear Modulus (GPa) = 68.19442 27.72164 47.95803
#
# Velocity S-wave (km/s) = 5.67000 3.61508 4.75488
# Velocity P-wave (km/s) = 7.19116 5.39657 6.35751
#
# Compressibility (1/GPa) = 0.05328323
#
# Stress axis : x y z
#
# Youngs Moduli (GPa) = 122.97372 35.37125 103.94151
#
# Poissons Ratio (x) = -0.06529 -0.09933
# Poissons Ratio (y) = -0.22699 -0.08606
# Poissons Ratio (z) = -0.11752 -0.02929
#
# Static dielectric constant tensor:
#      x y z
#    x 1.843910 0.000000 0.000000 
#    y 0.000000 0.782500 0.000000 
#    z 0.000000 0.000000 1.784730 
# 
# From -- ./inp_files/1008.got.cif
#   From: 2010.05.17/outbox.cif.g08.bks.cpg/sg39_1_cif.got.tgz:1008.got - 2010.06.03 18:22:40.
