data_PCOD9359084
_publ_section_title
;
Structure prediction by ZEFSAII (Michael W. Deem and Ramdas Pophale) SiO2 
 PCOD9359084
Probable space group: A M M 2
;
_chemical_formula_sum "Si O2"
_cell_formula_units_Z 64
_cell_length_a 22.455887
_cell_length_b 15.636952
_cell_length_c 9.671427
_cell_angle_alpha 90.000000
_cell_angle_beta 90.000000
_cell_angle_gamma 90.000000
_cell_volume 3396.040614
_symmetry_space_group_name_H-M "A M M 2"
_symmetry_group_IT_number 38
_symmetry_cell_setting 'orthorhombic'
loop_
_space_group_symop_operation_xyz
x,y,z
-x,-y,z
-x,y,z
x,-y,z
x,1/2+y,1/2+z
-x,1/2-y,1/2+z
-x,1/2+y,1/2+z
x,1/2-y,1/2+z
loop_
_atom_site_type_symbol
_atom_site_label
_atom_site_fract_x
_atom_site_fract_y
_atom_site_fract_z
Si Si1 0.174528 0.095930 0.220440
Si Si2 0.650813 0.242853 0.555525
Si Si3 0.739796 0.248732 0.804797
Si Si4 0.068180 0.338506 0.221032
Si Si5 0.429781 0.095287 0.462591
Si Si6 0.173694 0.595845 0.395055
Si Si7 0.931717 0.838783 0.393565
Si Si8 0.429914 0.900061 0.130910
O O1 0.219593 0.169478 0.268672
O O2 0.116482 0.103120 0.317121
O O3 0.199914 0.000000 0.232557
O O4 0.159473 0.109792 0.057943
O O5 0.696155 0.230686 0.679503
O O6 0.694106 0.234860 0.426604
O O7 0.602819 0.168094 0.546378
O O8 0.615227 0.332671 0.563627
O O9 0.781937 0.169584 0.844693
O O10 0.115534 0.397160 0.298854
O O11 0.070960 0.249772 0.307058
O O12 0.000000 0.369844 0.229714
O O13 0.081915 0.326408 0.057304
O O14 0.500000 0.097593 0.490292
O O15 0.422836 0.108628 0.297252
O O16 0.407253 0.000000 0.494836
O O17 0.199037 0.500000 0.382996
O O18 0.000000 0.870254 0.384484
O O19 0.500000 0.882656 0.098864
O O20 0.418271 0.000000 0.096319
#
# Coordination Sequence:
#
# PCOD9359084 Si02
#       8
#     8   8   8   8   8   8   8   8
#     4  11  25  44  65  89 123 166 212 261 315 375
#     4  12  23  40  65  91 124 163 211 254 299 366
#     4  12  26  42  61  89 124 167 212 257 304 359
#     4  10  21  38  64  95 126 160 202 256 317 379
#     4   9  19  38  64  95 128 160 200 250 305 365
#     4  11  25  44  64  89 125 165 209 262 318 373
#     4  10  21  38  64  95 125 159 203 257 317 378
#     4   9  19  38  65  95 126 162 203 247 303 369
#
# _framework density 18.845475
#
# number of rings (size 3 to 8) (size 9 to 14) (size 15 to 20)
#    0.000    1.500    3.750    1.875    1.750    4.500 
#    0.000    2.500    0.000    1.500    0.000    0.000 
#    0.000    0.000    0.000    0.000    0.000    0.000 
#
# Total GULP energy -178590.618034 kJ/mol
# GULP energy per Si atom -5580.956814 kJ/mol
# Density = 1.880258 g / cm^3
# Si number density = 18.845475 Si / 1000 Ang^3
#
#
#
# Elastic Constant Matrix: (Units=GPa)
#
#
# Indices 1 2 3 4 5 6 
#
# 1 78.4221 55.4365 49.1356 0.0000 0.0000 0.0000
# 2 55.4365 117.1976 44.3542 0.0000 0.0000 0.0000
# 3 49.1356 44.3542 129.8095 0.0000 0.0000 0.0000
# 4 0.0000 0.0000 0.0000 44.2345 0.0000 0.0000
# 5 0.0000 0.0000 0.0000 0.0000 28.0615 0.0000
# 6 0.0000 0.0000 0.0000 0.0000 0.0000 -23.4582
#
#
#
# Elastic Compliance Matrix: (Units=1/GPa)
#
#
# Indices 1 2 3 4 5 6 
#
# 1 0.022131 -0.008382 -0.005513 0.000000 0.000000 0.000000
# 2 -0.008382 0.012974 -0.001260 0.000000 0.000000 0.000000
# 3 -0.005513 -0.001260 0.010221 0.000000 0.000000 0.000000
# 4 0.000000 0.000000 0.000000 0.022607 0.000000 0.000000
# 5 0.000000 0.000000 0.000000 0.000000 0.035636 0.000000
# 6 0.000000 0.000000 0.000000 0.000000 0.000000 -0.042629
#
#
# Mechanical properties :
#
#
# Convention : Reuss Voigt Hill
#
# Bulk Modulus (GPa) = 66.59725 69.25352 67.92539
# Shear Modulus (GPa) = 51.94495 21.53444 36.73970
#
# Velocity S-wave (km/s) = 5.25580 3.38403 4.42013
# Velocity P-wave (km/s) = 8.49980 7.21781 7.88490
#
# Compressibility (1/GPa) = 0.01501563
#
# Stress axis : x y z
#
# Youngs Moduli (GPa) = 45.18590 77.07493 97.83710
#
# Poissons Ratio (x) = 0.64603 0.53938
# Poissons Ratio (y) = 0.37874 0.12332
# Poissons Ratio (z) = 0.24911 0.09715
#
# Static dielectric constant tensor:
#      x y z
#    x 1.643140 0.000000 0.000000 
#    y 0.000000 1.642970 0.000000 
#    z 0.000000 0.000000 1.619080 
# 
# From -- ./inp_files/6969.got.cif
#   From: 2010.05.17/outbox.cif.g08.bks.cpg/sg38_4_cif.got.tgz:6969.got - 2010.06.03 18:07:57.
