data_PCOD9359131
_publ_section_title
;
Structure prediction by ZEFSAII (Michael W. Deem and Ramdas Pophale) SiO2 
 PCOD9359131
Probable space group: A M M 2
;
_chemical_formula_sum "Si O2"
_cell_formula_units_Z 64
_cell_length_a 8.792732
_cell_length_b 24.014396
_cell_length_c 15.762681
_cell_angle_alpha 90.000000
_cell_angle_beta 90.000000
_cell_angle_gamma 90.000000
_cell_volume 3328.323954
_symmetry_space_group_name_H-M "A M M 2"
_symmetry_group_IT_number 38
_symmetry_cell_setting 'orthorhombic'
loop_
_space_group_symop_operation_xyz
x,y,z
-x,-y,z
-x,y,z
x,-y,z
x,1/2+y,1/2+z
-x,1/2-y,1/2+z
-x,1/2+y,1/2+z
x,1/2-y,1/2+z
loop_
_atom_site_type_symbol
_atom_site_label
_atom_site_fract_x
_atom_site_fract_y
_atom_site_fract_z
Si Si1 0.817441 0.934825 0.315670
Si Si2 0.819290 0.373609 0.172285
Si Si3 0.678959 0.065985 0.831897
Si Si4 0.318955 0.135121 0.161561
Si Si5 0.817118 0.635820 0.982132
Si Si6 0.180786 0.134985 0.984337
Si Si7 0.181244 0.247618 0.230047
Si Si8 0.318408 0.249697 0.919246
O O1 0.735207 0.902545 0.239970
O O2 0.780284 0.905721 0.405271
O O3 0.000000 0.929451 0.303735
O O4 0.779238 0.000000 0.316475
O O5 0.729780 0.407809 0.242710
O O6 0.793611 0.307763 0.187964
O O7 0.000000 0.383649 0.183980
O O8 0.778007 0.386780 0.075294
O O9 0.500000 0.076726 0.845474
O O10 0.771210 0.095615 0.906832
O O11 0.704913 0.000000 0.831929
O O12 0.500000 0.136106 0.156433
O O13 0.256152 0.197198 0.179062
O O14 0.248446 0.114452 0.073310
O O15 0.735256 0.694165 0.965087
O O16 0.000000 0.645397 0.981411
O O17 0.250862 0.195544 0.964708
O O18 0.000000 0.139364 0.989639
O O19 0.251568 0.248629 0.324035
O O20 0.000000 0.238097 0.235984
O O21 0.500000 0.246340 0.916384
#
# Coordination Sequence:
#
# PCOD9359131 Si02
#       8
#     8   8   8   8   8   8   8   8
#     4  10  22  41  64  89 122 168 217 263 311 367
#     4  10  22  39  64  95 125 164 208 252 309 371
#     4  11  25  44  65  91 125 164 208 262 318 371
#     4  12  25  41  64  95 128 164 206 261 320 375
#     4  10  21  39  64  94 129 165 209 259 308 370
#     4  12  25  43  67  93 124 165 209 257 313 380
#     4  11  21  37  62  93 130 169 207 251 308 377
#     4  12  23  37  62  96 131 165 203 254 316 377
#
# _framework density 19.228895999999999
#
# number of rings (size 3 to 8) (size 9 to 14) (size 15 to 20)
#    0.000    1.000    2.500    4.875    0.000    4.250 
#    0.000    1.250    0.000    0.000    0.000    0.000 
#    0.000    0.000    0.000    0.000    0.000    0.000 
#
# Total GULP energy -179049.758890 kJ/mol
# GULP energy per Si atom -5595.304965 kJ/mol
# Density = 1.918513 g / cm^3
# Si number density = 19.228896 Si / 1000 Ang^3
#
#
#
# Elastic Constant Matrix: (Units=GPa)
#
#
# Indices 1 2 3 4 5 6 
#
# 1 92.0537 52.9799 58.7928 0.0000 0.0000 0.0000
# 2 52.9799 75.3875 35.2085 0.0000 0.0000 0.0000
# 3 58.7928 35.2085 150.5602 0.0000 0.0000 0.0000
# 4 0.0000 0.0000 0.0000 -6.9128 0.0000 0.0000
# 5 0.0000 0.0000 0.0000 0.0000 -691.4514 0.0000
# 6 0.0000 0.0000 0.0000 0.0000 0.0000 22.7469
#
#
#
# Elastic Compliance Matrix: (Units=1/GPa)
#
#
# Indices 1 2 3 4 5 6 
#
# 1 0.021656 -0.012651 -0.005498 0.000000 0.000000 0.000000
# 2 -0.012651 0.022282 -0.000270 0.000000 0.000000 0.000000
# 3 -0.005498 -0.000270 0.008852 0.000000 0.000000 0.000000
# 4 0.000000 0.000000 0.000000 -0.144658 0.000000 0.000000
# 5 0.000000 0.000000 0.000000 0.000000 -0.001446 0.000000
# 6 0.000000 0.000000 0.000000 0.000000 0.000000 0.043962
#
#
# Mechanical properties :
#
#
# Convention : Reuss Voigt Hill
#
# Bulk Modulus (GPa) = 62.69375 67.99599 65.34487
# Shear Modulus (GPa) = -694.80468 -123.72211 -409.26339
#
# Velocity S-wave (km/s) = -19.02940 -8.03003 -14.60478
# Velocity P-wave (km/s) = 21.21672 7.10895 15.82224
#
# Compressibility (1/GPa) = 0.01595055
#
# Stress axis : x y z
#
# Youngs Moduli (GPa) = 46.17673 44.87916 112.96861
#
# Poissons Ratio (x) = 0.56778 0.62110
# Poissons Ratio (y) = 0.58420 0.03055
# Poissons Ratio (z) = 0.25388 0.01214
#
# Static dielectric constant tensor:
#      x y z
#    x 1.646090 0.000000 0.000000 
#    y 0.000000 1.642710 0.000000 
#    z 0.000000 0.000000 1.666690 
# 
# From -- ./inp_files/12713.got.cif
#   From: 2010.05.17/outbox.cif.g08.bks.cpg/sg38_7_cif.got.tgz:12713.got - 2010.06.03 18:07:57.
