data_PCOD9359373
_publ_section_title
;
Structure prediction by ZEFSAII (Michael W. Deem and Ramdas Pophale) SiO2 
 PCOD9359373
Probable space group: A M M 2
;
_chemical_formula_sum "Si O2"
_cell_formula_units_Z 24
_cell_length_a 10.875109
_cell_length_b 13.489880
_cell_length_c 7.028254
_cell_angle_alpha 90.000000
_cell_angle_beta 90.000000
_cell_angle_gamma 90.000000
_cell_volume 1031.072380
_symmetry_space_group_name_H-M "A M M 2"
_symmetry_group_IT_number 38
_symmetry_cell_setting 'orthorhombic'
loop_
_space_group_symop_operation_xyz
x,y,z
-x,-y,z
-x,y,z
x,-y,z
x,1/2+y,1/2+z
-x,1/2-y,1/2+z
-x,1/2+y,1/2+z
x,1/2-y,1/2+z
loop_
_atom_site_type_symbol
_atom_site_label
_atom_site_fract_x
_atom_site_fract_y
_atom_site_fract_z
Si Si1 0.689804 0.388362 0.208230
Si Si2 0.865741 0.384055 0.895816
Si Si3 0.636450 0.827413 0.134937
O O1 0.647706 0.500000 0.156550
O O2 0.625868 0.291707 0.120777
O O3 0.673287 0.374445 0.432892
O O4 0.825874 0.379156 0.117433
O O5 0.872701 0.500000 0.847228
O O6 0.750892 0.344884 0.774739
O O7 0.000000 0.338563 0.862168
O O8 0.500000 0.865026 0.190022
#
# Coordination Sequence:
#
# PCOD9359373 Si02
#       3
#     8   8   8
#     4  11  25  45  69 102 144 186 233 288 347 419
#     4  10  24  47  74 105 142 188 239 292 354 419
#     4  12  25  44  71 106 144 187 236 289 357 422
#
# _framework density 23.276738000000002
#
# number of rings (size 3 to 8) (size 9 to 14) (size 15 to 20)
#    0.000    1.000    3.333    2.000    0.000    8.667 
#    0.000   10.000    0.000    0.000    0.000    0.000 
#    0.000    0.000    0.000    0.000    0.000    0.000 
#
# Total GULP energy -66909.022801 kJ/mol
# GULP energy per Si atom -5575.751900 kJ/mol
# Density = 2.322376 g / cm^3
# Si number density = 23.276738 Si / 1000 Ang^3
#
#
#
# Elastic Constant Matrix: (Units=GPa)
#
#
# Indices 1 2 3 4 5 6 
#
# 1 244.7081 42.3667 89.7011 0.0000 0.0000 0.0000
# 2 42.3667 117.3179 14.8965 0.0000 0.0000 0.0000
# 3 89.7011 14.8965 92.6951 0.0000 0.0000 0.0000
# 4 0.0000 0.0000 0.0000 34.2306 0.0000 0.0000
# 5 0.0000 0.0000 0.0000 0.0000 19.3952 0.0000
# 6 0.0000 0.0000 0.0000 0.0000 0.0000 19.3961
#
#
#
# Elastic Compliance Matrix: (Units=1/GPa)
#
#
# Indices 1 2 3 4 5 6 
#
# 1 0.006618 -0.001610 -0.006145 0.000000 0.000000 0.000000
# 2 -0.001610 0.009093 0.000096 0.000000 0.000000 0.000000
# 3 -0.006145 0.000096 0.016720 0.000000 0.000000 0.000000
# 4 0.000000 0.000000 0.000000 0.029214 0.000000 0.000000
# 5 0.000000 0.000000 0.000000 0.000000 0.051559 0.000000
# 6 0.000000 0.000000 0.000000 0.000000 0.000000 0.051557
#
#
# Mechanical properties :
#
#
# Convention : Reuss Voigt Hill
#
# Bulk Modulus (GPa) = 58.43551 83.18330 70.80941
# Shear Modulus (GPa) = 26.91337 35.12152 31.01744
#
# Velocity S-wave (km/s) = 3.40403 3.88863 3.65437
# Velocity P-wave (km/s) = 6.37253 7.48172 6.94929
#
# Compressibility (1/GPa) = 0.01711288
#
# Stress axis : x y z
#
# Youngs Moduli (GPa) = 151.10604 109.97616 59.81024
#
# Poissons Ratio (x) = 0.17701 0.36756
# Poissons Ratio (y) = 0.24322 -0.00576
# Poissons Ratio (z) = 0.92862 -0.01059
#
# Static dielectric constant tensor:
#      x y z
#    x 1.966210 0.000000 0.000000 
#    y 0.000000 1.902060 0.000000 
#    z 0.000000 0.000000 1.925290 
# 
# From -- ./inp_files/2732.got.cif
#   From: 2010.05.17/outbox.cif.g08.bks.cpg/sg38_2_cif.got.tgz:2732.got - 2010.06.03 18:07:57.
