data_PCOD9359156
_publ_section_title
;
Structure prediction by ZEFSAII (Michael W. Deem and Ramdas Pophale) SiO2 
 PCOD9359156
Probable space group: A M M 2
;
_chemical_formula_sum "Si O2"
_cell_formula_units_Z 32
_cell_length_a 11.405105
_cell_length_b 15.630241
_cell_length_c 8.937694
_cell_angle_alpha 90.000000
_cell_angle_beta 90.000000
_cell_angle_gamma 90.000000
_cell_volume 1593.273908
_symmetry_space_group_name_H-M "A M M 2"
_symmetry_group_IT_number 38
_symmetry_cell_setting 'orthorhombic'
loop_
_space_group_symop_operation_xyz
x,y,z
-x,-y,z
-x,y,z
x,-y,z
x,1/2+y,1/2+z
-x,1/2-y,1/2+z
-x,1/2+y,1/2+z
x,1/2-y,1/2+z
loop_
_atom_site_type_symbol
_atom_site_label
_atom_site_fract_x
_atom_site_fract_y
_atom_site_fract_z
Si Si1 0.245240 0.500000 0.250000
Si Si2 0.862778 0.328807 0.734212
Si Si3 0.500000 0.500000 0.708375
Si Si4 0.500000 0.500000 0.216707
Si Si5 0.500000 0.357044 0.965512
Si Si6 0.243136 0.326743 0.054577
Si Si7 0.236584 0.000000 0.084875
O O1 0.380574 0.500000 0.301971
O O2 0.231209 0.415757 0.147337
O O3 0.188184 0.500000 0.413272
O O4 0.793046 0.249975 0.661970
O O5 0.813569 0.415844 0.664325
O O6 0.000000 0.319558 0.701907
O O7 0.840349 0.330509 0.911259
O O8 0.377332 0.500000 0.619073
O O9 0.500000 0.416485 0.818025
O O10 0.500000 0.419917 0.107214
O O11 0.374707 0.311674 0.987124
#
# Coordination Sequence:
#
# PCOD9359156 Si02
#       7
#     4   8   2   2   4   8   4
#     4  10  21  40  65 100 131 175 221 275 350 412
#     4  12  26  45  65  96 136 186 236 284 341 413
#     4  11  19  40  70 106 138 172 222 290 356 426
#     4   7  15  32  58  90 128 162 196 264 322 416
#     4   9  18  37  67  99 132 166 220 274 355 413
#     4  11  23  43  70  98 138 177 229 292 345 415
#     4  12  24  41  70 100 138 177 227 287 348 415
#
# _framework density 20.084430999999999
#
# number of rings (size 3 to 8) (size 9 to 14) (size 15 to 20)
#    0.000    1.250    2.500    4.500    0.000    2.000 
#    0.000    8.125    0.000    0.000    0.000    0.000 
#    0.000    0.000    0.000    0.000    0.000    0.000 
#
# Total GULP energy -89281.672505 kJ/mol
# GULP energy per Si atom -5580.104532 kJ/mol
# Density = 2.003872 g / cm^3
# Si number density = 20.084431 Si / 1000 Ang^3
#
#
#
# Elastic Constant Matrix: (Units=GPa)
#
#
# Indices 1 2 3 4 5 6 
#
# 1 110.2775 41.7774 18.5318 0.0000 0.0000 0.0000
# 2 41.7774 152.8510 63.4942 0.0000 0.0000 0.0000
# 3 18.5318 63.4942 142.3340 0.0000 0.0000 0.0000
# 4 0.0000 0.0000 0.0000 -7.3686 0.0000 0.0000
# 5 0.0000 0.0000 0.0000 0.0000 13.2005 0.0000
# 6 0.0000 0.0000 0.0000 0.0000 0.0000 7.2045
#
#
#
# Elastic Compliance Matrix: (Units=1/GPa)
#
#
# Indices 1 2 3 4 5 6 
#
# 1 0.010117 -0.002722 -0.000103 0.000000 0.000000 0.000000
# 2 -0.002722 0.008763 -0.003555 0.000000 0.000000 0.000000
# 3 -0.000103 -0.003555 0.008625 0.000000 0.000000 0.000000
# 4 0.000000 0.000000 0.000000 -0.135711 0.000000 0.000000
# 5 0.000000 0.000000 0.000000 0.000000 0.075755 0.000000
# 6 0.000000 0.000000 0.000000 0.000000 0.000000 0.138802
#
#
# Mechanical properties :
#
#
# Convention : Reuss Voigt Hill
#
# Bulk Modulus (GPa) = 67.82025 72.56327 70.19176
# Shear Modulus (GPa) = 40.31465 21.38456 30.84961
#
# Velocity S-wave (km/s) = 4.48510 3.26656 3.92343
# Velocity P-wave (km/s) = 7.78861 7.10175 7.45309
#
# Compressibility (1/GPa) = 0.01474486
#
# Stress axis : x y z
#
# Youngs Moduli (GPa) = 98.84686 114.11592 115.94454
#
# Poissons Ratio (x) = 0.31067 0.01191
# Poissons Ratio (y) = 0.26910 0.41214
# Poissons Ratio (z) = 0.01015 0.40564
#
# Static dielectric constant tensor:
#      x y z
#    x 1.754880 0.000000 0.000000 
#    y 0.000000 1.676290 0.000000 
#    z 0.000000 0.000000 1.664020 
# 
# From -- ./inp_files/4131.got.cif
#   From: 2010.05.17/outbox.cif.g08.bks.cpg/sg38_3_cif.got.tgz:4131.got - 2010.06.03 18:07:57.
