data_PCOD9359852
_publ_section_title
;
Structure prediction by ZEFSAII (Michael W. Deem and Ramdas Pophale) SiO2 
 PCOD9359852
Probable space group: A B M 2
;
_chemical_formula_sum "Si O2"
_cell_formula_units_Z 48
_cell_length_a 7.886602
_cell_length_b 19.886509
_cell_length_c 13.982487
_cell_angle_alpha 90.000000
_cell_angle_beta 90.000000
_cell_angle_gamma 90.000000
_cell_volume 2192.971057
_symmetry_space_group_name_H-M "A B M 2"
_symmetry_group_IT_number 39
_symmetry_cell_setting 'orthorhombic'
loop_
_space_group_symop_operation_xyz
x,y,z
-x,-y,z
-x,1/2+y,z
x,1/2-y,z
x,1/2+y,1/2+z
-x,1/2-y,1/2+z
-x,y,1/2+z
x,-y,1/2+z
loop_
_atom_site_type_symbol
_atom_site_label
_atom_site_fract_x
_atom_site_fract_y
_atom_site_fract_z
Si Si1 0.112494 0.056705 0.890770
Si Si2 0.625017 0.671999 0.206560
Si Si3 0.369084 0.057715 0.730508
Si Si4 0.406841 0.673742 0.935274
Si Si5 0.798612 0.672890 0.011375
Si Si6 0.317109 0.963842 0.030841
O O1 0.248996 0.080243 0.813885
O O2 0.195777 0.007355 0.967250
O O3 0.076554 0.122914 0.954191
O O4 0.000000 0.000000 0.837763
O O5 0.577936 0.750000 0.189666
O O6 0.477685 0.618809 0.188299
O O7 0.643895 0.665698 0.322307
O O8 0.766979 0.657424 0.124933
O O9 0.265695 0.031150 0.640693
O O10 0.500000 0.000000 0.764608
O O11 0.356961 0.750000 0.962766
O O12 0.327226 0.611209 0.990442
O O13 0.609514 0.669137 0.961734
O O14 0.855341 0.750000 0.003864
O O15 0.500000 0.000000 0.024680
#
# Coordination Sequence:
#
# PCOD9359852 Si02
#       6
#     8   8   8   8   8   8
#     4  12  25  39  56  84 123 170 204 241 306 383
#     4  10  18  30  57  94 120 146 195 257 314 362
#     4  11  21  35  59  85 114 150 201 261 309 358
#     4  10  18  31  57  92 122 148 189 252 315 362
#     4  10  19  35  59  90 122 156 204 256 307 363
#     4  11  20  37  59  84 116 151 200 261 309 360
#
# _framework density 21.888114999999999
#
# number of rings (size 3 to 8) (size 9 to 14) (size 15 to 20)
#    0.000    1.333    5.000    2.500    0.000    0.667 
#    0.000    0.833    0.000    1.000    0.000    2.333 
#    0.000    0.000    0.000    0.000    0.000    0.000 
#
# Total GULP energy -133748.723895 kJ/mol
# GULP energy per Si atom -5572.863496 kJ/mol
# Density = 2.183830 g / cm^3
# Si number density = 21.888115 Si / 1000 Ang^3
#
#
#
# Elastic Constant Matrix: (Units=GPa)
#
#
# Indices 1 2 3 4 5 6 
#
# 1 15.2296 17.2727 10.6558 0.0000 0.0000 0.0000
# 2 17.2727 116.6008 29.7361 0.0000 0.0000 0.0000
# 3 10.6558 29.7361 87.1264 0.0000 0.0000 0.0000
# 4 0.0000 0.0000 0.000033903.2536 0.0000 0.0000
# 5 0.0000 0.0000 0.0000 0.0000 12.7530 0.0000
# 6 0.0000 0.0000 0.0000 0.0000 0.0000 15.7488
#
#
#
# Elastic Compliance Matrix: (Units=1/GPa)
#
#
# Indices 1 2 3 4 5 6 
#
# 1 0.082104 -0.010517 -0.006452 0.000000 0.000000 0.000000
# 2 -0.010517 0.010741 -0.002380 0.000000 0.000000 0.000000
# 3 -0.006452 -0.002380 0.013079 0.000000 0.000000 0.000000
# 4 0.000000 0.000000 0.000000 0.000029 0.000000 0.000000
# 5 0.000000 0.000000 0.000000 0.000000 0.078413 0.000000
# 6 0.000000 0.000000 0.000000 0.000000 0.000000 0.063497
#
#
# Mechanical properties :
#
#
# Convention : Reuss Voigt Hill
#
# Bulk Modulus (GPa) = 14.87509 37.14289 26.00899
# Shear Modulus (GPa) = 16.18280 6797.10389 3406.64334
#
# Velocity S-wave (km/s) = 2.72203 55.78644 39.49390
# Velocity P-wave (km/s) = 4.08534 64.54850 45.73401
#
# Compressibility (1/GPa) = 0.06722648
#
# Stress axis : x y z
#
# Youngs Moduli (GPa) = 12.17965 93.10031 76.45932
#
# Poissons Ratio (x) = 0.97915 0.49332
# Poissons Ratio (y) = 0.12809 0.18195
# Poissons Ratio (z) = 0.07858 0.22155
#
# Static dielectric constant tensor:
#      x y z
#    x 0.000000 0.000000 0.000000 
#    y 0.000000 0.000000 0.000000 
#    z 0.000000 0.000000 0.000000 
# 
# From -- ./inp_files/8477.got.cif
#   From: 2010.05.17/outbox.cif.g08.bks.cpg/sg39_5_cif.got.tgz:8477.got - 2010.06.03 18:22:40.
