data_PCOD9359166
_publ_section_title
;
Structure prediction by ZEFSAII (Michael W. Deem and Ramdas Pophale) SiO2 
 PCOD9359166
Probable space group: A M M 2
;
_chemical_formula_sum "Si O2"
_cell_formula_units_Z 48
_cell_length_a 13.719623
_cell_length_b 19.555764
_cell_length_c 9.069904
_cell_angle_alpha 90.000000
_cell_angle_beta 90.000000
_cell_angle_gamma 90.000000
_cell_volume 2433.434469
_symmetry_space_group_name_H-M "A M M 2"
_symmetry_group_IT_number 38
_symmetry_cell_setting 'orthorhombic'
loop_
_space_group_symop_operation_xyz
x,y,z
-x,-y,z
-x,y,z
x,-y,z
x,1/2+y,1/2+z
-x,1/2-y,1/2+z
-x,1/2+y,1/2+z
x,1/2-y,1/2+z
loop_
_atom_site_type_symbol
_atom_site_label
_atom_site_fract_x
_atom_site_fract_y
_atom_site_fract_z
Si Si1 0.704482 0.578127 0.971690
Si Si2 0.500000 0.913984 0.040708
Si Si3 0.183801 0.576340 0.679684
Si Si4 0.000000 0.153148 0.271193
Si Si5 0.700495 0.668572 0.472657
Si Si6 0.000000 0.733005 0.075962
Si Si7 0.500000 0.917548 0.390936
Si Si8 0.221178 0.299037 0.149779
O O1 0.712798 0.500000 0.026176
O O2 0.728858 0.575993 0.798118
O O3 0.595056 0.605616 0.976374
O O4 0.768463 0.631519 0.057892
O O5 0.402731 0.873233 0.982552
O O6 0.500000 0.902048 0.217647
O O7 0.500000 0.000000 0.016858
O O8 0.157806 0.500000 0.637727
O O9 0.096418 0.608801 0.771634
O O10 0.219141 0.617565 0.539898
O O11 0.000000 0.186633 0.108180
O O12 0.000000 0.204947 0.409443
O O13 0.731291 0.689728 0.308831
O O14 0.719220 0.737039 0.571308
O O15 0.895735 0.714117 0.150522
O O16 0.500000 0.000000 0.398155
#
# Coordination Sequence:
#
# PCOD9359166 Si02
#       8
#     8   4   8   4   8   4   4   8
#     4  10  21  40  67  98 132 174 222 274 333 403
#     4  11  24  44  72 101 135 184 227 281 351 410
#     4  11  22  40  65  96 131 174 226 272 332 406
#     4  12  23  40  67  97 128 178 221 284 339 416
#     4  12  26  43  69  99 139 180 229 283 340 407
#     4  12  24  42  69  95 137 174 227 284 352 406
#     4   9  18  36  68  97 126 168 217 267 328 404
#     4  12  26  45  67 101 136 182 228 288 341 413
#
# _framework density 19.725207000000001
#
# number of rings (size 3 to 8) (size 9 to 14) (size 15 to 20)
#    0.000    0.833    5.000    2.750    0.000    3.333 
#    0.000    1.250    0.000    0.000    0.000    0.000 
#    0.000    0.000    0.000    0.000    0.000    0.000 
#
# Total GULP energy -133733.613910 kJ/mol
# GULP energy per Si atom -5572.233913 kJ/mol
# Density = 1.968031 g / cm^3
# Si number density = 19.725207 Si / 1000 Ang^3
#
#
#
# Elastic Constant Matrix: (Units=GPa)
#
#
# Indices 1 2 3 4 5 6 
#
# 1 124.8835 38.1239 14.9632 0.0000 0.0000 0.0000
# 2 38.1239 120.9621 55.4425 0.0000 0.0000 0.0000
# 3 14.9632 55.4425 91.7925 0.0000 0.0000 0.0000
# 4 0.0000 0.0000 0.0000 26.7318 0.0000 0.0000
# 5 0.0000 0.0000 0.0000 0.0000 28.5654 0.0000
# 6 0.0000 0.0000 0.0000 0.0000 0.0000 20.7467
#
#
#
# Elastic Compliance Matrix: (Units=1/GPa)
#
#
# Indices 1 2 3 4 5 6 
#
# 1 0.008867 -0.002948 0.000335 0.000000 0.000000 0.000000
# 2 -0.002948 0.012412 -0.007016 0.000000 0.000000 0.000000
# 3 0.000335 -0.007016 0.015077 0.000000 0.000000 0.000000
# 4 0.000000 0.000000 0.000000 0.037409 0.000000 0.000000
# 5 0.000000 0.000000 0.000000 0.000000 0.035007 0.000000
# 6 0.000000 0.000000 0.000000 0.000000 0.000000 0.048200
#
#
# Mechanical properties :
#
#
# Convention : Reuss Voigt Hill
#
# Bulk Modulus (GPa) = 58.48605 61.63304 60.05955
# Shear Modulus (GPa) = 27.48288 30.48270 28.98279
#
# Velocity S-wave (km/s) = 3.73673 3.93538 3.83734
# Velocity P-wave (km/s) = 6.95214 7.20856 7.08151
#
# Compressibility (1/GPa) = 0.01709809
#
# Stress axis : x y z
#
# Youngs Moduli (GPa) = 112.77291 80.56559 66.32478
#
# Poissons Ratio (x) = 0.23755 -0.02225
# Poissons Ratio (y) = 0.33251 0.46536
# Poissons Ratio (z) = -0.03782 0.56528
#
# Static dielectric constant tensor:
#      x y z
#    x 1.787380 0.000000 0.000000 
#    y 0.000000 1.710000 0.000000 
#    z 0.000000 0.000000 1.662310 
# 
# From -- ./inp_files/5545.got.cif
#   From: 2010.05.17/outbox.cif.g08.bks.cpg/sg38_3_cif.got.tgz:5545.got - 2010.06.03 18:07:57.
