data_PCOD9359802
_publ_section_title
;
Structure prediction by ZEFSAII (Michael W. Deem and Ramdas Pophale) SiO2 
 PCOD9359802
Probable space group: A B M 2
;
_chemical_formula_sum "Si O2"
_cell_formula_units_Z 64
_cell_length_a 19.687272
_cell_length_b 9.306246
_cell_length_c 20.641388
_cell_angle_alpha 90.000000
_cell_angle_beta 90.000000
_cell_angle_gamma 90.000000
_cell_volume 3781.803570
_symmetry_space_group_name_H-M "A B M 2"
_symmetry_group_IT_number 39
_symmetry_cell_setting 'orthorhombic'
loop_
_space_group_symop_operation_xyz
x,y,z
-x,-y,z
-x,1/2+y,z
x,1/2-y,z
x,1/2+y,1/2+z
-x,1/2-y,1/2+z
-x,y,1/2+z
x,-y,1/2+z
loop_
_atom_site_type_symbol
_atom_site_label
_atom_site_fract_x
_atom_site_fract_y
_atom_site_fract_z
Si Si1 0.572214 0.578153 0.247600
Si Si2 0.664483 0.080900 0.625510
Si Si3 0.646716 0.921682 0.382990
Si Si4 0.429459 0.081200 0.998889
Si Si5 0.795037 0.420668 0.077218
Si Si6 0.067320 0.916022 0.577226
Si Si7 0.067180 0.084932 0.919407
Si Si8 0.796618 0.419955 0.922466
O O1 0.500000 0.500000 0.245965
O O2 0.561042 0.750000 0.243488
O O3 0.619887 0.536900 0.187316
O O4 0.611843 0.548532 0.314329
O O5 0.682595 0.250000 0.632524
O O6 0.617720 0.067099 0.561922
O O7 0.731476 0.987832 0.614385
O O8 0.641003 0.750000 0.396058
O O9 0.726790 0.956739 0.386187
O O10 0.608324 0.009169 0.438410
O O11 0.441500 0.250000 0.986860
O O12 0.500000 0.000000 0.009630
O O13 0.800330 0.250000 0.086893
O O14 0.864533 0.500319 0.096195
O O15 0.785191 0.445267 0.999602
O O16 0.067676 0.750000 0.598005
O O17 0.066117 0.916155 0.498320
O O18 0.000000 0.000000 0.598885
O O19 0.065330 0.250000 0.898349
O O20 0.137465 0.008116 0.900972
O O21 0.000000 0.000000 0.897842
O O22 0.810189 0.250000 0.914797
#
# Coordination Sequence:
#
# PCOD9359802 Si02
#       8
#     8   8   8   8   8   8   8   8
#     4  10  22  39  57  75 100 133 171 213 259 310
#     4  10  21  36  52  74 101 133 169 210 258 308
#     4  10  20  36  55  76 102 133 169 210 258 308
#     4  11  22  34  52  75 101 129 164 207 255 309
#     4  10  18  29  48  73 101 134 170 211 256 304
#     4   9  16  26  41  65 100 138 173 209 250 300
#     4   9  16  25  40  64  97 135 170 204 245 293
#     4   9  17  29  46  70 100 131 165 206 251 298
#
# _framework density 16.923141999999999
#
# number of rings (size 3 to 8) (size 9 to 14) (size 15 to 20)
#    0.000    2.250    1.250    2.250    0.000    6.500 
#    0.000    0.000    0.000    0.000    0.000    0.875 
#    0.000    4.000    0.000    0.000    0.000    0.000 
#
# Total GULP energy -178543.558105 kJ/mol
# GULP energy per Si atom -5579.486191 kJ/mol
# Density = 1.688462 g / cm^3
# Si number density = 16.923142 Si / 1000 Ang^3
#
#
#
# Elastic Constant Matrix: (Units=GPa)
#
#
# Indices 1 2 3 4 5 6 
#
# 1 180.0472 101.1399 46.0341 0.0000 0.0000 0.0000
# 2 101.1399 103.0934 44.3367 0.0000 0.0000 0.0000
# 3 46.0341 44.3367 62.4410 0.0000 0.0000 0.0000
# 4 0.0000 0.0000 0.0000 14.9339 0.0000 0.0000
# 5 0.0000 0.0000 0.0000 0.0000 14.5645 0.0000
# 6 0.0000 0.0000 0.0000 0.0000 0.0000 38.8567
#
#
#
# Elastic Compliance Matrix: (Units=1/GPa)
#
#
# Indices 1 2 3 4 5 6 
#
# 1 0.012395 -0.011849 -0.000725 0.000000 0.000000 0.000000
# 2 -0.011849 0.025290 -0.009222 0.000000 0.000000 0.000000
# 3 -0.000725 -0.009222 0.023098 0.000000 0.000000 0.000000
# 4 0.000000 0.000000 0.000000 0.066962 0.000000 0.000000
# 5 0.000000 0.000000 0.000000 0.000000 0.068660 0.000000
# 6 0.000000 0.000000 0.000000 0.000000 0.000000 0.025736
#
#
# Mechanical properties :
#
#
# Convention : Reuss Voigt Hill
#
# Bulk Modulus (GPa) = 58.16788 80.95588 69.56188
# Shear Modulus (GPa) = 18.41869 23.94242 21.18055
#
# Velocity S-wave (km/s) = 3.30263 3.76543 3.54160
# Velocity P-wave (km/s) = 6.99925 8.17593 7.61037
#
# Compressibility (1/GPa) = 0.01719162
#
# Stress axis : x y z
#
# Youngs Moduli (GPa) = 80.67523 39.54102 43.29373
#
# Poissons Ratio (x) = 0.46851 0.03140
# Poissons Ratio (y) = 0.95589 0.39926
# Poissons Ratio (z) = 0.05850 0.36465
#
# Static dielectric constant tensor:
#      x y z
#    x 1.554910 0.000000 0.000000 
#    y 0.000000 1.567300 0.000000 
#    z 0.000000 0.000000 1.553000 
# 
# From -- ./inp_files/13243.got.cif
#   From: 2010.05.17/outbox.cif.g08.bks.cpg/sg39_7_cif.got.tgz:13243.got - 2010.06.03 18:22:40.
