data_PCOD9359827
_publ_section_title
;
Structure prediction by ZEFSAII (Michael W. Deem and Ramdas Pophale) SiO2 
 PCOD9359827
Probable space group: A B M 2
;
_chemical_formula_sum "Si O2"
_cell_formula_units_Z 48
_cell_length_a 9.465224
_cell_length_b 8.644467
_cell_length_c 32.747282
_cell_angle_alpha 90.000000
_cell_angle_beta 90.000000
_cell_angle_gamma 90.000000
_cell_volume 2679.442099
_symmetry_space_group_name_H-M "A B M 2"
_symmetry_group_IT_number 39
_symmetry_cell_setting 'orthorhombic'
loop_
_space_group_symop_operation_xyz
x,y,z
-x,-y,z
-x,1/2+y,z
x,1/2-y,z
x,1/2+y,1/2+z
-x,1/2-y,1/2+z
-x,y,1/2+z
x,-y,1/2+z
loop_
_atom_site_type_symbol
_atom_site_label
_atom_site_fract_x
_atom_site_fract_y
_atom_site_fract_z
Si Si1 0.339836 0.064567 0.983850
Si Si2 0.159084 0.436203 0.151214
Si Si3 0.158924 0.435753 0.320695
Si Si4 0.341410 0.436427 0.073387
Si Si5 0.839393 0.565217 0.735938
Si Si6 0.658832 0.434988 0.899641
O O1 0.342728 0.250000 0.980832
O O2 0.500000 0.000000 0.984462
O O3 0.276629 0.997003 0.942246
O O4 0.281124 0.019931 0.028504
O O5 0.154598 0.250000 0.153362
O O6 0.247619 0.485850 0.111663
O O7 0.222539 0.500945 0.193642
O O8 0.000000 0.500000 0.147520
O O9 0.152944 0.250000 0.317346
O O10 0.221945 0.503784 0.278576
O O11 0.249999 0.478984 0.360217
O O12 0.000000 0.500000 0.325231
O O13 0.500000 0.500000 0.076931
O O14 0.348782 0.250000 0.074046
O O15 0.842066 0.750000 0.735470
O O16 0.000000 0.500000 0.736119
O O17 0.500000 0.500000 0.895724
O O18 0.651203 0.250000 0.901904
#
# Coordination Sequence:
#
# PCOD9359827 Si02
#       6
#     8   8   8   8   8   8
#     4   9  16  29  49  71  96 128 164 199 238 286
#     4  10  19  33  51  73 100 129 163 201 241 286
#     4  10  20  34  52  74  99 128 163 201 242 288
#     4   9  19  33  51  74  99 128 163 202 242 287
#     4  10  18  30  50  73  96 127 164 198 239 289
#     4  10  20  33  51  75 100 128 163 201 242 288
#
# _framework density 17.914176999999999
#
# number of rings (size 3 to 8) (size 9 to 14) (size 15 to 20)
#    0.000    2.333    0.000    6.500    0.000    4.667 
#    0.000    1.667    0.000    4.000    0.000    0.000 
#    0.000    0.000    0.000    0.000    0.000    0.000 
#
# Total GULP energy -133769.045891 kJ/mol
# GULP energy per Si atom -5573.710245 kJ/mol
# Density = 1.787340 g / cm^3
# Si number density = 17.914177 Si / 1000 Ang^3
#
#
#
# Elastic Constant Matrix: (Units=GPa)
#
#
# Indices 1 2 3 4 5 6 
#
# 1 35.5284 16.9779 59.1443 0.0000 0.0000 0.0000
# 2 16.9779 68.5648 61.1704 0.0000 0.0000 0.0000
# 3 59.1443 61.1704 237.5735 0.0000 0.0000 0.0000
# 4 0.0000 0.0000 0.0000 -8.4089 0.0000 0.0000
# 5 0.0000 0.0000 0.0000 0.0000 29.3724 0.0000
# 6 0.0000 0.0000 0.0000 0.0000 0.0000 17.7849
#
#
#
# Elastic Compliance Matrix: (Units=1/GPa)
#
#
# Indices 1 2 3 4 5 6 
#
# 1 0.048201 -0.001597 -0.011589 0.000000 0.000000 0.000000
# 2 -0.001597 0.018987 -0.004491 0.000000 0.000000 0.000000
# 3 -0.011589 -0.004491 0.008251 0.000000 0.000000 0.000000
# 4 0.000000 0.000000 0.000000 -0.118921 0.000000 0.000000
# 5 0.000000 0.000000 0.000000 0.000000 0.034046 0.000000
# 6 0.000000 0.000000 0.000000 0.000000 0.000000 0.056227
#
#
# Mechanical properties :
#
#
# Convention : Reuss Voigt Hill
#
# Bulk Modulus (GPa) = 24.94656 68.47242 46.70949
# Shear Modulus (GPa) = 52.35285 21.37461 36.86373
#
# Velocity S-wave (km/s) = 5.41181 3.45797 4.54122
# Velocity P-wave (km/s) = 7.28053 7.36538 7.32308
#
# Compressibility (1/GPa) = 0.04008569
#
# Stress axis : x y z
#
# Youngs Moduli (GPa) = 20.74642 52.66751 121.20259
#
# Poissons Ratio (x) = 0.08409 1.40457
# Poissons Ratio (y) = 0.03312 0.54436
# Poissons Ratio (z) = 0.24042 0.23655
#
# Static dielectric constant tensor:
#      x y z
#    x 1.600700 0.000000 0.000000 
#    y 0.000000 1.715870 0.000000 
#    z 0.000000 0.000000 1.686430 
# 
# From -- ./inp_files/16899.got.cif
#   From: 2010.05.17/outbox.cif.g08.bks.cpg/sg39_9_cif.got.tgz:16899.got - 2010.06.03 18:22:40.
