data_PCOD9359994
_publ_section_title
;
Structure prediction by ZEFSAII (Michael W. Deem and Ramdas Pophale) SiO2 
 PCOD9359994
Probable space group: A B M 2
;
_chemical_formula_sum "Si O2"
_cell_formula_units_Z 60
_cell_length_a 7.576243
_cell_length_b 25.287513
_cell_length_c 13.789143
_cell_angle_alpha 90.000000
_cell_angle_beta 90.000000
_cell_angle_gamma 90.000000
_cell_volume 2641.783907
_symmetry_space_group_name_H-M "A B M 2"
_symmetry_group_IT_number 39
_symmetry_cell_setting 'orthorhombic'
loop_
_space_group_symop_operation_xyz
x,y,z
-x,-y,z
-x,1/2+y,z
x,1/2-y,z
x,1/2+y,1/2+z
-x,1/2-y,1/2+z
-x,y,1/2+z
x,-y,1/2+z
loop_
_atom_site_type_symbol
_atom_site_label
_atom_site_fract_x
_atom_site_fract_y
_atom_site_fract_z
Si Si1 0.094730 0.143444 0.130170
Si Si2 0.083182 0.250000 0.616986
Si Si3 0.786243 0.502213 0.448305
Si Si4 0.283555 0.308791 0.944466
Si Si5 0.233070 0.094283 0.831088
Si Si6 0.191481 0.398155 0.322690
Si Si7 0.740750 0.074181 0.117920
Si Si8 0.332293 0.668920 0.997466
O O1 0.223151 0.118238 0.211541
O O2 0.025514 0.200761 0.169109
O O3 0.939301 0.100263 0.112241
O O4 0.179612 0.159634 0.027682
O O5 0.196481 0.204694 0.556139
O O6 0.714291 0.445744 0.415944
O O7 0.737262 0.547062 0.368298
O O8 0.733307 0.521741 0.554459
O O9 0.000000 0.500000 0.448024
O O10 0.204280 0.250000 0.933368
O O11 0.287211 0.345579 0.850093
O O12 0.483689 0.304047 0.977171
O O13 0.300888 0.071257 0.730284
O O14 0.020833 0.096077 0.826985
O O15 0.250022 0.353003 0.397801
O O16 0.626826 0.117976 0.063522
#
# Coordination Sequence:
#
# PCOD9359994 Si02
#       8
#     8   4   8   8   8   8   8   8
#     4  10  20  36  61  88 121 152 209 254 301 367
#     4  10  18  36  56  82 110 160 194 250 300 358
#     4   9  17  34  64  93 125 155 193 259 319 369
#     4  12  24  40  56  89 122 169 208 259 304 365
#     4  10  21  38  63  94 121 156 210 257 306 373
#     4   9  20  38  60  91 117 159 202 257 312 371
#     4   9  20  39  61  92 120 161 200 253 314 372
#     4  10  21  39  59  79 127 161 205 246 312 366
#
# _framework density 22.711928
#
# number of rings (size 3 to 8) (size 9 to 14) (size 15 to 20)
#    0.000    2.133    1.333    3.200    0.000    5.333 
#   10.800    4.000    0.000    3.200    0.000    0.000 
#    0.000    0.000    0.000    0.000    0.000    0.000 
#
# Total GULP energy -167003.237638 kJ/mol
# GULP energy per Si atom -5566.774588 kJ/mol
# Density = 2.266023 g / cm^3
# Si number density = 22.711928 Si / 1000 Ang^3
#
#
#
# Elastic Constant Matrix: (Units=GPa)
#
#
# Indices 1 2 3 4 5 6 
#
# 1 27.2709 -2.3081 3.5913 0.0000 0.0000 0.0000
# 2 -2.3081 97.0034 57.0378 0.0000 0.0000 0.0000
# 3 3.5913 57.0378 103.5005 0.0000 0.0000 0.0000
# 4 0.0000 0.0000 0.0000 10.2389 0.0000 0.0000
# 5 0.0000 0.0000 0.0000 0.0000 9.1450 0.0000
# 6 0.0000 0.0000 0.0000 0.0000 0.0000 4.8111
#
#
#
# Elastic Compliance Matrix: (Units=1/GPa)
#
#
# Indices 1 2 3 4 5 6 
#
# 1 0.037222 0.002434 -0.002633 0.000000 0.000000 0.000000
# 2 0.002434 0.015410 -0.008577 0.000000 0.000000 0.000000
# 3 -0.002633 -0.008577 0.014480 0.000000 0.000000 0.000000
# 4 0.000000 0.000000 0.000000 0.097667 0.000000 0.000000
# 5 0.000000 0.000000 0.000000 0.000000 0.109349 0.000000
# 6 0.000000 0.000000 0.000000 0.000000 0.000000 0.207852
#
#
# Mechanical properties :
#
#
# Convention : Reuss Voigt Hill
#
# Bulk Modulus (GPa) = 20.17758 38.26854 29.22306
# Shear Modulus (GPa) = 9.68899 16.13593 12.91246
#
# Velocity S-wave (km/s) = 2.06768 2.66834 2.38698
# Velocity P-wave (km/s) = 3.82149 5.13610 4.52677
#
# Compressibility (1/GPa) = 0.04955997
#
# Stress axis : x y z
#
# Youngs Moduli (GPa) = 26.86595 64.89358 69.06268
#
# Poissons Ratio (x) = -0.15793 0.18182
# Poissons Ratio (y) = -0.06538 0.59232
# Poissons Ratio (z) = 0.07073 0.55657
#
# Static dielectric constant tensor:
#      x y z
#    x 1.878940 0.000000 0.000000 
#    y 0.000000 1.873760 0.000000 
#    z 0.000000 0.000000 1.873270 
# 
# From -- ./inp_files/8728.got.cif
#   From: 2010.05.17/outbox.cif.g08.bks.cpg/sg39_5_cif.got.tgz:8728.got - 2010.06.03 18:22:40.
