data_PCOD9359716
_publ_section_title
;
Structure prediction by ZEFSAII (Michael W. Deem and Ramdas Pophale) SiO2 
 PCOD9359716
Probable space group: A B M 2
;
_chemical_formula_sum "Si O2"
_cell_formula_units_Z 64
_cell_length_a 21.889683
_cell_length_b 8.821982
_cell_length_c 14.942403
_cell_angle_alpha 90.000000
_cell_angle_beta 90.000000
_cell_angle_gamma 90.000000
_cell_volume 2885.533262
_symmetry_space_group_name_H-M "A B M 2"
_symmetry_group_IT_number 39
_symmetry_cell_setting 'orthorhombic'
loop_
_space_group_symop_operation_xyz
x,y,z
-x,-y,z
-x,1/2+y,z
x,1/2-y,z
x,1/2+y,1/2+z
-x,1/2-y,1/2+z
-x,y,1/2+z
x,-y,1/2+z
loop_
_atom_site_type_symbol
_atom_site_label
_atom_site_fract_x
_atom_site_fract_y
_atom_site_fract_z
Si Si1 0.189204 0.931206 0.039510
Si Si2 0.315945 0.069902 0.350879
Si Si3 0.312905 0.430114 0.048712
Si Si4 0.194272 0.066091 0.837661
Si Si5 0.560340 0.081405 0.092743
Si Si6 0.936473 0.073572 0.543545
Si Si7 0.062438 0.925129 0.324547
Si Si8 0.440132 0.080740 0.803815
O O1 0.191005 0.750000 0.035222
O O2 0.250887 0.992649 0.085479
O O3 0.123977 0.986712 0.075910
O O4 0.191317 0.003179 0.939503
O O5 0.309902 0.250000 0.360308
O O6 0.315935 0.986279 0.446318
O O7 0.256735 0.003381 0.300171
O O8 0.380703 0.023205 0.311328
O O9 0.307455 0.250000 0.055396
O O10 0.377376 0.487263 0.085873
O O11 0.196922 0.250000 0.838586
O O12 0.129364 0.016952 0.795794
O O13 0.569000 0.250000 0.053139
O O14 0.548986 0.099035 0.198269
O O15 0.500000 0.000000 0.055098
O O16 0.933163 0.250000 0.567408
O O17 0.937256 0.065447 0.433918
O O18 0.000000 0.000000 0.573696
O O19 0.059761 0.750000 0.299881
O O20 0.000000 0.000000 0.293107
O O21 0.429802 0.250000 0.842061
O O22 0.500000 0.000000 0.842583
#
# Coordination Sequence:
#
# PCOD9359716 Si02
#       8
#     8   8   8   8   8   8   8   8
#     4  10  17  26  40  60  88 122 159 199 244 291
#     4  11  21  33  51  75 102 132 168 206 247 295
#     4  11  21  34  52  74 102 134 168 206 249 295
#     4   9  16  27  40  58  87 122 159 198 243 289
#     4  10  21  38  58  79 102 129 162 200 245 295
#     4   9  15  23  34  52  79 115 157 197 239 287
#     4   8  14  21  32  50  76 112 152 192 232 280
#     4  10  21  38  58  78 102 130 161 200 245 294
#
# _framework density 22.179608000000002
#
# number of rings (size 3 to 8) (size 9 to 14) (size 15 to 20)
#    0.000    2.250    0.000    7.125    0.000    5.500 
#    0.000    2.500    0.000    0.000    0.000    0.000 
#    0.000    1.000    0.000    5.250    0.000   13.250 
#
# Total GULP energy -178598.008570 kJ/mol
# GULP energy per Si atom -5581.187768 kJ/mol
# Density = 2.212913 g / cm^3
# Si number density = 22.179608 Si / 1000 Ang^3
#
#
#
# Elastic Constant Matrix: (Units=GPa)
#
#
# Indices 1 2 3 4 5 6 
#
# 1 238.2623 82.3086 1.7437 0.0000 0.0000 0.0000
# 2 82.3086 126.5148 -7.5255 0.0000 0.0000 0.0000
# 3 1.7437 -7.5255 37.0929 0.0000 0.0000 0.0000
# 4 0.0000 0.0000 0.0000 12.3287 0.0000 0.0000
# 5 0.0000 0.0000 0.0000 0.0000 9.4722 0.0000
# 6 0.0000 0.0000 0.0000 0.0000 0.0000 26.1137
#
#
#
# Elastic Compliance Matrix: (Units=1/GPa)
#
#
# Indices 1 2 3 4 5 6 
#
# 1 0.005449 -0.003604 -0.000987 0.000000 0.000000 0.000000
# 2 -0.003604 0.010384 0.002276 0.000000 0.000000 0.000000
# 3 -0.000987 0.002276 0.027468 0.000000 0.000000 0.000000
# 4 0.000000 0.000000 0.000000 0.081111 0.000000 0.000000
# 5 0.000000 0.000000 0.000000 0.000000 0.105572 0.000000
# 6 0.000000 0.000000 0.000000 0.000000 0.000000 0.038294
#
#
# Mechanical properties :
#
#
# Convention : Reuss Voigt Hill
#
# Bulk Modulus (GPa) = 25.85922 61.65819 43.75871
# Shear Modulus (GPa) = 17.49482 31.27247 24.38364
#
# Velocity S-wave (km/s) = 2.81157 3.75902 3.31928
# Velocity P-wave (km/s) = 4.71426 6.83375 5.87045
#
# Compressibility (1/GPa) = 0.03867093
#
# Stress axis : x y z
#
# Youngs Moduli (GPa) = 183.51047 96.29933 36.40660
#
# Poissons Ratio (x) = 0.34706 0.03595
# Poissons Ratio (y) = 0.66136 -0.08287
# Poissons Ratio (z) = 0.18119 -0.21920
#
# Static dielectric constant tensor:
#      x y z
#    x 1.868480 0.000000 0.000000 
#    y 0.000000 1.774170 0.000000 
#    z 0.000000 0.000000 1.843120 
# 
# From -- ./inp_files/15079.got.cif
#   From: 2010.05.17/outbox.cif.g08.bks.cpg/sg39_8_cif.got.tgz:15079.got - 2010.06.03 18:22:40.
