data_PCOD9359052
_publ_section_title
;
Structure prediction by ZEFSAII (Michael W. Deem and Ramdas Pophale) SiO2 
 PCOD9359052
Probable space group: A M M 2
;
_chemical_formula_sum "Si O2"
_cell_formula_units_Z 64
_cell_length_a 17.609983
_cell_length_b 14.445467
_cell_length_c 12.719391
_cell_angle_alpha 90.000000
_cell_angle_beta 90.000000
_cell_angle_gamma 90.000000
_cell_volume 3235.615008
_symmetry_space_group_name_H-M "A M M 2"
_symmetry_group_IT_number 38
_symmetry_cell_setting 'orthorhombic'
loop_
_space_group_symop_operation_xyz
x,y,z
-x,-y,z
-x,y,z
x,-y,z
x,1/2+y,1/2+z
-x,1/2-y,1/2+z
-x,1/2+y,1/2+z
x,1/2-y,1/2+z
loop_
_atom_site_type_symbol
_atom_site_label
_atom_site_fract_x
_atom_site_fract_y
_atom_site_fract_z
Si Si1 0.309639 0.248573 0.784910
Si Si2 0.410630 0.896795 0.906326
Si Si3 0.084491 0.105909 0.180939
Si Si4 0.589134 0.107000 0.158075
Si Si5 0.798894 0.604060 0.851677
Si Si6 0.821908 0.109539 0.734724
Si Si7 0.086416 0.643818 0.026745
Si Si8 0.913458 0.354148 0.446251
O O1 0.365634 0.182812 0.848669
O O2 0.356069 0.317219 0.708879
O O3 0.265445 0.319212 0.862375
O O4 0.250059 0.178364 0.729741
O O5 0.500000 0.891364 0.881807
O O6 0.383149 0.000000 0.876074
O O7 0.403158 0.888851 0.032022
O O8 0.148485 0.143862 0.256782
O O9 0.000000 0.149782 0.188805
O O10 0.077090 0.000000 0.217357
O O11 0.107473 0.103475 0.059440
O O12 0.500000 0.124244 0.183721
O O13 0.606152 0.000000 0.189233
O O14 0.771388 0.500000 0.825067
O O15 0.852330 0.596237 0.952359
O O16 0.882371 0.138912 0.645054
O O17 0.859297 0.122445 0.850136
O O18 0.804168 0.000000 0.720539
O O19 0.000000 0.608669 0.021183
O O20 0.085391 0.746386 0.977009
O O21 0.000000 0.383044 0.420763
#
# Coordination Sequence:
#
# PCOD9359052 Si02
#       8
#     8   8   8   8   8   8   8   8
#     4  12  23  37  62  94 131 159 198 250 314 363
#     4   9  20  41  68  96 125 161 202 240 290 367
#     4   9  18  34  57  82 109 147 202 266 322 367
#     4   9  20  41  69  97 124 159 202 244 297 370
#     4  11  23  38  58  87 122 162 208 261 319 373
#     4  12  26  41  59  89 127 169 211 258 318 379
#     4  11  24  42  61  81 115 168 223 269 311 366
#     4  10  21  38  61  84 111 152 210 272 322 372
#
# _framework density 19.779855999999999
#
# number of rings (size 3 to 8) (size 9 to 14) (size 15 to 20)
#    0.000    1.625    1.250    4.125    1.750    3.750 
#    0.000    1.250    0.000    0.000    0.000    5.250 
#    0.000    0.000    0.000    0.000    0.000    0.000 
#
# Total GULP energy -178633.509171 kJ/mol
# GULP energy per Si atom -5582.297162 kJ/mol
# Density = 1.973484 g / cm^3
# Si number density = 19.779856 Si / 1000 Ang^3
#
#
#
# Elastic Constant Matrix: (Units=GPa)
#
#
# Indices 1 2 3 4 5 6 
#
# 1 76.8923 58.9637 38.4184 0.0000 0.0000 0.0000
# 2 58.9637 138.2553 29.7020 0.0000 0.0000 0.0000
# 3 38.4184 29.7020 62.7681 0.0000 0.0000 0.0000
# 4 0.0000 0.0000 0.0000 28.0058 0.0000 0.0000
# 5 0.0000 0.0000 0.0000 0.0000 31.7052 0.0000
# 6 0.0000 0.0000 0.0000 0.0000 0.0000 68.8175
#
#
#
# Elastic Compliance Matrix: (Units=1/GPa)
#
#
# Indices 1 2 3 4 5 6 
#
# 1 0.025009 -0.008212 -0.011421 0.000000 0.000000 0.000000
# 2 -0.008212 0.010748 -0.000060 0.000000 0.000000 0.000000
# 3 -0.011421 -0.000060 0.022950 0.000000 0.000000 0.000000
# 4 0.000000 0.000000 0.000000 0.035707 0.000000 0.000000
# 5 0.000000 0.000000 0.000000 0.000000 0.031541 0.000000
# 6 0.000000 0.000000 0.000000 0.000000 0.000000 0.014531
#
#
# Mechanical properties :
#
#
# Convention : Reuss Voigt Hill
#
# Bulk Modulus (GPa) = 51.75569 59.12041 55.43805
# Shear Modulus (GPa) = 26.83648 35.76114 31.29881
#
# Velocity S-wave (km/s) = 3.68742 4.25662 3.98220
# Velocity P-wave (km/s) = 6.65973 7.35612 7.01657
#
# Compressibility (1/GPa) = 0.01932155
#
# Stress axis : x y z
#
# Youngs Moduli (GPa) = 39.98518 93.03856 43.57210
#
# Poissons Ratio (x) = 0.76407 0.49765
# Poissons Ratio (y) = 0.32837 0.00259
# Poissons Ratio (z) = 0.45668 0.00554
#
# Static dielectric constant tensor:
#      x y z
#    x 1.634380 0.000000 0.000000 
#    y 0.000000 1.684350 0.000000 
#    z 0.000000 0.000000 1.667810 
# 
# From -- ./inp_files/10611.got.cif
#   From: 2010.05.17/outbox.cif.g08.bks.cpg/sg38_6_cif.got.tgz:10611.got - 2010.06.03 18:07:57.
