data_PCOD9359844
_publ_section_title
;
Structure prediction by ZEFSAII (Michael W. Deem and Ramdas Pophale) SiO2 
 PCOD9359844
Probable space group: A B M 2
;
_chemical_formula_sum "Si O2"
_cell_formula_units_Z 48
_cell_length_a 9.213744
_cell_length_b 8.669519
_cell_length_c 32.074549
_cell_angle_alpha 90.000000
_cell_angle_beta 90.000000
_cell_angle_gamma 90.000000
_cell_volume 2562.074197
_symmetry_space_group_name_H-M "A B M 2"
_symmetry_group_IT_number 39
_symmetry_cell_setting 'orthorhombic'
loop_
_space_group_symop_operation_xyz
x,y,z
-x,-y,z
-x,1/2+y,z
x,1/2-y,z
x,1/2+y,1/2+z
-x,1/2-y,1/2+z
-x,y,1/2+z
x,-y,1/2+z
loop_
_atom_site_type_symbol
_atom_site_label
_atom_site_fract_x
_atom_site_fract_y
_atom_site_fract_z
Si Si1 0.664661 0.934230 0.830300
Si Si2 0.663130 0.434839 0.916664
Si Si3 0.837956 0.434914 0.000331
Si Si4 0.337762 0.435402 0.078817
Si Si5 0.161686 0.935843 0.661212
Si Si6 0.663588 0.564471 0.243812
O O1 0.661828 0.750000 0.829731
O O2 0.500000 0.000000 0.830558
O O3 0.727281 0.995290 0.873883
O O4 0.727503 0.998781 0.787110
O O5 0.500000 0.500000 0.922238
O O6 0.654217 0.250000 0.912514
O O7 0.758115 0.474222 0.956948
O O8 0.841404 0.250000 0.004010
O O9 0.747965 0.503531 0.038733
O O10 0.000000 0.500000 0.000818
O O11 0.500000 0.500000 0.078948
O O12 0.342216 0.250000 0.077703
O O13 0.253846 0.484632 0.120825
O O14 0.155426 0.750000 0.660845
O O15 0.242584 0.982060 0.703783
O O16 0.000000 0.000000 0.659287
O O17 0.500000 0.500000 0.239078
O O18 0.656509 0.750000 0.246345
#
# Coordination Sequence:
#
# PCOD9359844 Si02
#       6
#     8   8   8   8   8   8
#     4  10  18  30  52  81 110 143 183 228 278 326
#     4  10  20  35  56  82 111 145 186 231 278 328
#     4  11  24  40  59  84 115 151 188 230 281 336
#     4  11  23  40  62  88 115 146 187 232 279 331
#     4  10  23  39  57  82 113 149 186 227 276 331
#     4  10  19  34  55  81 111 144 185 230 276 326
#
# _framework density 18.734819999999999
#
# number of rings (size 3 to 8) (size 9 to 14) (size 15 to 20)
#    0.000    1.667    0.000    7.000    0.000    8.000 
#    0.000    0.833    0.000    0.000    0.000    0.000 
#    0.000    0.000    0.000    0.000    0.000    0.000 
#
# Total GULP energy -134091.546926 kJ/mol
# GULP energy per Si atom -5587.147789 kJ/mol
# Density = 1.869218 g / cm^3
# Si number density = 18.734820 Si / 1000 Ang^3
#
#
#
# Elastic Constant Matrix: (Units=GPa)
#
#
# Indices 1 2 3 4 5 6 
#
# 1 129.2521 43.9117 104.5851 0.0000 0.0000 0.0000
# 2 43.9117 79.5408 77.1438 0.0000 0.0000 0.0000
# 3 104.5851 77.1438 233.6700 0.0000 0.0000 0.0000
# 4 0.0000 0.0000 0.0000 30.8937 0.0000 0.0000
# 5 0.0000 0.0000 0.0000 0.0000 7.0201 0.0000
# 6 0.0000 0.0000 0.0000 0.0000 0.0000 31.2296
#
#
#
# Elastic Compliance Matrix: (Units=1/GPa)
#
#
# Indices 1 2 3 4 5 6 
#
# 1 0.012374 -0.002147 -0.004829 0.000000 0.000000 0.000000
# 2 -0.002147 0.018866 -0.005267 0.000000 0.000000 0.000000
# 3 -0.004829 -0.005267 0.008180 0.000000 0.000000 0.000000
# 4 0.000000 0.000000 0.000000 0.032369 0.000000 0.000000
# 5 0.000000 0.000000 0.000000 0.000000 0.142449 0.000000
# 6 0.000000 0.000000 0.000000 0.000000 0.000000 0.032021
#
#
# Mechanical properties :
#
#
# Convention : Reuss Voigt Hill
#
# Bulk Modulus (GPa) = 66.97013 99.30488 83.13751
# Shear Modulus (GPa) = 18.13401 28.28348 23.20874
#
# Velocity S-wave (km/s) = 3.11453 3.88967 3.52348
# Velocity P-wave (km/s) = 6.98267 8.56115 7.81188
#
# Compressibility (1/GPa) = 0.01493203
#
# Stress axis : x y z
#
# Youngs Moduli (GPa) = 80.81373 53.00444 122.24877
#
# Poissons Ratio (x) = 0.11382 0.59039
# Poissons Ratio (y) = 0.17354 0.64393
# Poissons Ratio (z) = 0.39028 0.27919
#
# Static dielectric constant tensor:
#      x y z
#    x 1.604200 0.000000 0.000000 
#    y 0.000000 1.631910 0.000000 
#    z 0.000000 0.000000 1.674310 
# 
# From -- ./inp_files/17596.got.cif
#   From: 2010.05.17/outbox.cif.g08.bks.cpg/sg39_9_cif.got.tgz:17596.got - 2010.06.03 18:22:40.
