data_PCOD9359585
_publ_section_title
;
Structure prediction by ZEFSAII (Michael W. Deem and Ramdas Pophale) SiO2 
 PCOD9359585
Probable space group: A M M 2
;
_chemical_formula_sum "Si O2"
_cell_formula_units_Z 29
_cell_length_a 27.000000
_cell_length_b 12.000000
_cell_length_c 9.000000
_cell_angle_alpha 90.000000
_cell_angle_beta 90.000000
_cell_angle_gamma 90.000000
_cell_volume 2916.000000
_symmetry_space_group_name_H-M "A M M 2"
_symmetry_group_IT_number 38
_symmetry_cell_setting 'orthorhombic'
loop_
_space_group_symop_operation_xyz
x,y,z
-x,-y,z
-x,y,z
x,-y,z
x,1/2+y,1/2+z
-x,1/2-y,1/2+z
-x,1/2+y,1/2+z
x,1/2-y,1/2+z
loop_
_atom_site_type_symbol
_atom_site_label
_atom_site_fract_x
_atom_site_fract_y
_atom_site_fract_z
Si Si1 0.825335 0.378696 0.918400
Si Si2 0.701138 0.619801 0.480850
Si Si3 0.281479 0.334856 0.820783
Si Si4 0.587071 0.839440 0.054952
Si Si5 0.500000 0.000000 0.962611
Si Si6 0.605086 0.879221 0.397246
Si Si7 0.058106 0.370121 0.464775
Si Si8 0.119340 0.218143 0.693484
O O1 0.844134 0.500000 0.873816
O O2 0.766000 0.378947 0.906834
O O3 0.845672 0.290702 0.800196
O O4 0.846434 0.350532 0.080267
O O5 0.718608 0.500000 0.435223
O O6 0.721768 0.644244 0.645504
O O7 0.716595 0.705471 0.357209
O O8 0.641717 0.622603 0.501816
O O9 0.335070 0.376178 0.878534
O O10 0.543621 0.904533 0.975736
O O11 0.584765 0.857650 0.231517
O O12 0.586652 0.711090 0.011854
O O13 0.589270 0.000000 0.447021
O O14 0.062280 0.500000 0.504060
O O15 0.085457 0.295758 0.588207
O O16 0.084537 0.349898 0.306142
O O17 0.000000 0.340792 0.455458
#
# Coordination Sequence:
#
# PCOD9359585 Si02
#       8
#     8   8   8   8   2   8   8   8
#     4  11  21  36  54  80 115 151 180 227 285 336
#     4  10  19  38  56  81 110 145 182 235 274 322
#     4  10  20  34  60  84 110 149 193 223 277 339
#     4  10  21  37  63  81 114 148 182 229 288 335
#     4  12  20  40  62  86 112 152 184 228 296 348
#     4  10  20  41  60  86 114 149 188 237 277 330
#     4  10  20  37  59  81 107 149 194 236 280 328
#     4  10  22  36  54  82 116 145 186 234 282 334
#
# _framework density 9.9451300000000007
#
# number of rings (size 3 to 8) (size 9 to 14) (size 15 to 20)
#    0.000    1.793    1.379    4.138    0.000    0.552 
#    1.241   13.103    0.000    6.621    0.000    0.000 
#    0.000    0.000    0.000    0.000    0.000    0.000 
#
# Total GULP energy -161553.706060 kJ/mol
# GULP energy per Si atom -5570.817450 kJ/mol
# Density = 0.992249 g / cm^3
# Si number density = 9.945130 Si / 1000 Ang^3
#
#
#
# Elastic Constant Matrix: (Units=GPa)
#
#
# Indices 1 2 3 4 5 6 
#
# 1 25.8426 12.1326 3.6339 0.0000 0.0000 0.0000
# 2 12.1326 144.6651 13.4959 0.0000 0.0000 0.0000
# 3 3.6339 13.4959 6.1921 0.0000 0.0000 0.0000
# 4 0.0000 0.0000 0.0000 -37.7464 0.0000 0.0000
# 5 0.0000 0.0000 0.0000 0.0000 -10.3831 0.0000
# 6 0.0000 0.0000 0.0000 0.0000 0.0000 62.0338
#
#
#
# Elastic Compliance Matrix: (Units=1/GPa)
#
#
# Indices 1 2 3 4 5 6 
#
# 1 0.042452 -0.001552 -0.021532 0.000000 0.000000 0.000000
# 2 -0.001552 0.008733 -0.018124 0.000000 0.000000 0.000000
# 3 -0.021532 -0.018124 0.213636 0.000000 0.000000 0.000000
# 4 0.000000 0.000000 0.000000 -0.026493 0.000000 0.000000
# 5 0.000000 0.000000 0.000000 0.000000 -0.096310 0.000000
# 6 0.000000 0.000000 0.000000 0.000000 0.000000 0.016120
#
#
# Mechanical properties :
#
#
# Convention : Reuss Voigt Hill
#
# Bulk Modulus (GPa) = 5.48228 26.13606 15.80917
# Shear Modulus (GPa) = 16.59166 12.61001 14.60084
#
# Velocity S-wave (km/s) = 2.89132 2.52063 2.71231
# Velocity P-wave (km/s) = 3.72941 4.65189 4.21596
#
# Compressibility (1/GPa) = 0.18240592
#
# Stress axis : x y z
#
# Youngs Moduli (GPa) = 23.55603 114.50170 4.68086
#
# Poissons Ratio (x) = 0.17766 0.10079
# Poissons Ratio (y) = 0.03655 0.08484
# Poissons Ratio (z) = 0.50720 2.07529
#
# Static dielectric constant tensor:
#      x y z
#    x 1.686980 0.000000 0.000000 
#    y 0.000000 1.724430 0.000000 
#    z 0.000000 0.000000 1.638920 
# 
# From -- ./inp_files/7016.got.cif
#   From: 2010.05.17/outbox.ucp.g08.bks.cvg/sg38_4_cif.got.tgz:7016.got - 2010.06.11 10:39:43.
