data_PCOD9359861
_publ_section_title
;
Structure prediction by ZEFSAII (Michael W. Deem and Ramdas Pophale) SiO2 
 PCOD9359861
Probable space group: A B M 2
;
_chemical_formula_sum "Si O2"
_cell_formula_units_Z 56
_cell_length_a 18.360131
_cell_length_b 8.832678
_cell_length_c 19.550810
_cell_angle_alpha 90.000000
_cell_angle_beta 90.000000
_cell_angle_gamma 90.000000
_cell_volume 3170.537754
_symmetry_space_group_name_H-M "A B M 2"
_symmetry_group_IT_number 39
_symmetry_cell_setting 'orthorhombic'
loop_
_space_group_symop_operation_xyz
x,y,z
-x,-y,z
-x,1/2+y,z
x,1/2-y,z
x,1/2+y,1/2+z
-x,1/2-y,1/2+z
-x,y,1/2+z
x,-y,1/2+z
loop_
_atom_site_type_symbol
_atom_site_label
_atom_site_fract_x
_atom_site_fract_y
_atom_site_fract_z
Si Si1 0.079377 0.071610 0.887450
Si Si2 0.813280 0.574904 0.276963
Si Si3 0.580320 0.568096 0.603841
Si Si4 0.307727 0.581542 0.888848
Si Si5 0.572813 0.075166 0.454795
Si Si6 0.797017 0.928601 0.992231
Si Si7 0.265460 0.568301 0.642690
O O1 0.072654 0.250000 0.878061
O O2 0.123520 0.047028 0.958830
O O3 0.127626 0.008035 0.824325
O O4 0.000000 0.000000 0.889231
O O5 0.837045 0.750000 0.269203
O O6 0.738942 0.573931 0.320773
O O7 0.787868 0.514310 0.203484
O O8 0.500000 0.500000 0.624313
O O9 0.576875 0.750000 0.607365
O O10 0.590949 0.512353 0.525206
O O11 0.654071 0.507461 0.640609
O O12 0.339191 0.750000 0.896448
O O13 0.367454 0.454032 0.897755
O O14 0.252536 0.543887 0.949961
O O15 0.564304 0.250000 0.471820
O O16 0.500000 0.000000 0.428565
O O17 0.778501 0.750000 0.977646
O O18 0.777731 0.952737 0.071243
O O19 0.276647 0.750000 0.651393
#
# Coordination Sequence:
#
# PCOD9359861 Si02
#       7
#     8   8   8   8   8   8   8
#     4  10  20  36  58  83 109 141 179 221 269 326
#     4   9  20  36  56  80 110 146 179 217 266 325
#     4  11  21  33  51  77 107 143 185 229 277 323
#     4  10  18  31  50  75 103 134 175 219 265 316
#     4  11  20  31  48  72 101 135 177 226 278 323
#     4   9  18  32  54  79 104 136 175 217 264 317
#     4  10  19  35  56  80 111 145 182 223 273 324
#
# _framework density 17.662618999999999
#
# number of rings (size 3 to 8) (size 9 to 14) (size 15 to 20)
#    0.000    2.000    1.429    4.286    0.000    1.714 
#    0.000    1.429    0.000    1.714    0.000    0.000 
#    0.000    0.000    0.000    0.000    0.000    0.000 
#
# Total GULP energy -155957.512735 kJ/mol
# GULP energy per Si atom -5569.911169 kJ/mol
# Density = 1.762242 g / cm^3
# Si number density = 17.662619 Si / 1000 Ang^3
#
#
#
# Elastic Constant Matrix: (Units=GPa)
#
#
# Indices 1 2 3 4 5 6 
#
# 1 114.6496 45.3773 37.4422 0.0000 0.0000 0.0000
# 2 45.3773 83.2174 28.2713 0.0000 0.0000 0.0000
# 3 37.4422 28.2713 82.1756 0.0000 0.0000 0.0000
# 4 0.0000 0.0000 0.0000 14.7832 0.0000 0.0000
# 5 0.0000 0.0000 0.0000 0.0000 18.8228 0.0000
# 6 0.0000 0.0000 0.0000 0.0000 0.0000 29.1738
#
#
#
# Elastic Compliance Matrix: (Units=1/GPa)
#
#
# Indices 1 2 3 4 5 6 
#
# 1 0.012016 -0.005313 -0.003647 0.000000 0.000000 0.000000
# 2 -0.005313 0.015956 -0.003069 0.000000 0.000000 0.000000
# 3 -0.003647 -0.003069 0.014887 0.000000 0.000000 0.000000
# 4 0.000000 0.000000 0.000000 0.067644 0.000000 0.000000
# 5 0.000000 0.000000 0.000000 0.000000 0.053127 0.000000
# 6 0.000000 0.000000 0.000000 0.000000 0.000000 0.034277
#
#
# Mechanical properties :
#
#
# Convention : Reuss Voigt Hill
#
# Bulk Modulus (GPa) = 53.18806 55.80269 54.49538
# Shear Modulus (GPa) = 21.90741 23.81941 22.86341
#
# Velocity S-wave (km/s) = 3.52565 3.67628 3.60175
# Velocity P-wave (km/s) = 6.83757 7.04857 6.94387
#
# Compressibility (1/GPa) = 0.01880121
#
# Stress axis : x y z
#
# Youngs Moduli (GPa) = 83.22068 62.67044 67.17475
#
# Poissons Ratio (x) = 0.33299 0.24499
# Poissons Ratio (y) = 0.44217 0.20614
# Poissons Ratio (z) = 0.30351 0.19231
#
# Static dielectric constant tensor:
#      x y z
#    x 1.579220 0.000000 0.000000 
#    y 0.000000 1.609860 0.000000 
#    z 0.000000 0.000000 1.605630 
# 
# From -- ./inp_files/14935.got.cif
#   From: 2010.05.17/outbox.cif.g08.bks.cpg/sg39_8_cif.got.tgz:14935.got - 2010.06.03 18:22:40.
