data_PCOD9359687
_publ_section_title
;
Structure prediction by ZEFSAII (Michael W. Deem and Ramdas Pophale) SiO2 
 PCOD9359687
Probable space group: A B M 2
;
_chemical_formula_sum "Si O2"
_cell_formula_units_Z 48
_cell_length_a 28.734981
_cell_length_b 15.147206
_cell_length_c 5.299158
_cell_angle_alpha 90.000000
_cell_angle_beta 90.000000
_cell_angle_gamma 90.000000
_cell_volume 2306.483302
_symmetry_space_group_name_H-M "A B M 2"
_symmetry_group_IT_number 39
_symmetry_cell_setting 'orthorhombic'
loop_
_space_group_symop_operation_xyz
x,y,z
-x,-y,z
-x,1/2+y,z
x,1/2-y,z
x,1/2+y,1/2+z
-x,1/2-y,1/2+z
-x,y,1/2+z
x,-y,1/2+z
loop_
_atom_site_type_symbol
_atom_site_label
_atom_site_fract_x
_atom_site_fract_y
_atom_site_fract_z
Si Si1 0.874962 0.555523 0.053830
Si Si2 0.973407 0.856530 0.956180
Si Si3 0.480950 0.101990 0.580070
Si Si4 0.775140 0.143282 0.517059
Si Si5 0.720667 0.643696 0.518057
Si Si6 0.378066 0.444280 0.451277
O O1 0.875375 0.520377 0.340225
O O2 0.921407 0.611119 0.003936
O O3 0.827561 0.609075 0.011719
O O4 0.973677 0.750000 0.955300
O O5 0.006135 0.886637 0.187631
O O6 0.510591 0.141906 0.353365
O O7 0.427333 0.102283 0.501521
O O8 0.500000 0.000000 0.607945
O O9 0.775820 0.250000 0.515445
O O10 0.749288 0.114001 0.772136
O O11 0.746196 0.113026 0.272624
O O12 0.721113 0.750000 0.519893
O O13 0.667893 0.611871 0.500677
O O14 0.377408 0.479089 0.164491
#
# Coordination Sequence:
#
# PCOD9359687 Si02
#       6
#     8   8   8   8   8   8
#     4  12  25  38  61  92 122 152 187 246 302 335
#     4  10  22  41  63  87 119 161 205 238 274 344
#     4  10  16  30  48  74 107 138 177 223 263 327
#     4  10  22  43  62  78 110 158 196 226 278 354
#     4  10  23  40  58  81 114 149 185 235 289 339
#     4  12  21  32  56  86 106 143 184 232 278 327
#
# _framework density 20.810901999999999
#
# number of rings (size 3 to 8) (size 9 to 14) (size 15 to 20)
#    0.000    1.333    3.333    3.500    0.000    6.000 
#    0.000    6.667    0.000    1.000    0.000    0.000 
#    0.000    0.000    0.000    0.000    0.000    0.000 
#
# Total GULP energy -134190.106427 kJ/mol
# GULP energy per Si atom -5591.254434 kJ/mol
# Density = 2.076354 g / cm^3
# Si number density = 20.810902 Si / 1000 Ang^3
#
#
#
# Elastic Constant Matrix: (Units=GPa)
#
#
# Indices 1 2 3 4 5 6 
#
# 1 121.9951 5.1236 -5.1247 0.0000 0.0000 0.0000
# 2 5.1236 25.8243 -2.3621 0.0000 0.0000 0.0000
# 3 -5.1247 -2.3621 86.5342 0.0000 0.0000 0.0000
# 4 0.0000 0.0000 0.0000 -6.6518 0.0000 0.0000
# 5 0.0000 0.0000 0.0000 0.0000 36.8143 0.0000
# 6 0.0000 0.0000 0.0000 0.0000 0.0000 48.7329
#
#
#
# Elastic Compliance Matrix: (Units=1/GPa)
#
#
# Indices 1 2 3 4 5 6 
#
# 1 0.008283 -0.001603 0.000447 0.000000 0.000000 0.000000
# 2 -0.001603 0.039130 0.000973 0.000000 0.000000 0.000000
# 3 0.000447 0.000973 0.011609 0.000000 0.000000 0.000000
# 4 0.000000 0.000000 0.000000 -0.150336 0.000000 0.000000
# 5 0.000000 0.000000 0.000000 0.000000 0.027163 0.000000
# 6 0.000000 0.000000 0.000000 0.000000 0.000000 0.020520
#
#
# Mechanical properties :
#
#
# Convention : Reuss Voigt Hill
#
# Bulk Modulus (GPa) = 17.04814 25.51414 21.28114
# Shear Modulus (GPa) = -210.86165 31.56020 -89.65072
#
# Velocity S-wave (km/s) = -10.07684 3.89848 -6.57056
# Velocity P-wave (km/s) = 11.27743 5.70533 6.87858
#
# Compressibility (1/GPa) = 0.05865741
#
# Stress axis : x y z
#
# Youngs Moduli (GPa) = 120.72741 25.55572 86.13900
#
# Poissons Ratio (x) = 0.04095 -0.03849
# Poissons Ratio (y) = 0.19347 -0.08383
# Poissons Ratio (z) = -0.05394 -0.02487
#
# Static dielectric constant tensor:
#      x y z
#    x 1.693390 0.000000 0.000000 
#    y 0.000000 1.908940 0.000000 
#    z 0.000000 0.000000 1.761980 
# 
# From -- ./inp_files/1258.got.cif
#   From: 2010.05.17/outbox.cif.g08.bks.cpg/sg39_1_cif.got.tgz:1258.got - 2010.06.03 18:22:40.
