data_PCOD9359219
_publ_section_title
;
Structure prediction by ZEFSAII (Michael W. Deem and Ramdas Pophale) SiO2 
 PCOD9359219
Probable space group: A M M 2
;
_chemical_formula_sum "Si O2"
_cell_formula_units_Z 56
_cell_length_a 20.685291
_cell_length_b 14.110694
_cell_length_c 10.051528
_cell_angle_alpha 90.000000
_cell_angle_beta 90.000000
_cell_angle_gamma 90.000000
_cell_volume 2933.878305
_symmetry_space_group_name_H-M "A M M 2"
_symmetry_group_IT_number 38
_symmetry_cell_setting 'orthorhombic'
loop_
_space_group_symop_operation_xyz
x,y,z
-x,-y,z
-x,y,z
x,-y,z
x,1/2+y,1/2+z
-x,1/2-y,1/2+z
-x,1/2+y,1/2+z
x,1/2-y,1/2+z
loop_
_atom_site_type_symbol
_atom_site_label
_atom_site_fract_x
_atom_site_fract_y
_atom_site_fract_z
Si Si1 0.889641 0.253819 0.826660
Si Si2 0.685206 0.886198 0.684177
Si Si3 0.000000 0.387041 0.418446
Si Si4 0.307738 0.885858 0.994223
Si Si5 0.797259 0.738459 0.075483
Si Si6 0.574039 0.115270 0.185034
Si Si7 0.426268 0.884658 0.485921
Si Si8 0.000000 0.611134 0.736506
O O1 0.936407 0.164556 0.859475
O O2 0.847067 0.240819 0.696198
O O3 0.937890 0.340465 0.801428
O O4 0.839970 0.272870 0.944757
O O5 0.686006 0.857486 0.839122
O O6 0.746079 0.843598 0.607030
O O7 0.621754 0.855613 0.602667
O O8 0.687632 0.000000 0.682314
O O9 0.000000 0.500000 0.394727
O O10 0.000000 0.370039 0.577664
O O11 0.299881 0.000000 0.000411
O O12 0.246508 0.832579 0.057450
O O13 0.372234 0.859969 0.076500
O O14 0.500000 0.145657 0.157269
O O15 0.592144 0.145735 0.335708
O O16 0.572595 0.000000 0.186902
O O17 0.500000 0.855123 0.509914
O O18 0.425675 0.000000 0.484500
O O19 0.000000 0.500000 0.756670
#
# Coordination Sequence:
#
# PCOD9359219 Si02
#       8
#     8   8   4   8   8   8   8   4
#     4  11  24  42  65  94 126 160 194 240 291 347
#     4  10  22  38  57  85 119 158 205 252 301 358
#     4  10  22  43  72  97 122 159 197 236 288 348
#     4  10  22  38  58  85 117 159 207 250 299 361
#     4  12  24  41  60  89 129 163 195 240 298 351
#     4   8  15  30  53  81 113 151 199 255 309 358
#     4   8  15  30  53  81 114 152 197 254 312 357
#     4  10  22  43  70  99 124 153 199 242 282 344
#
# _framework density 19.087364000000001
#
# number of rings (size 3 to 8) (size 9 to 14) (size 15 to 20)
#    0.000    2.143    2.857    0.857    2.000    2.857 
#    0.000    4.286    0.000    0.000    0.000    0.000 
#    0.000    0.000    0.000    0.000    0.000    0.000 
#
# Total GULP energy -156332.074236 kJ/mol
# GULP energy per Si atom -5583.288366 kJ/mol
# Density = 1.904392 g / cm^3
# Si number density = 19.087364 Si / 1000 Ang^3
#
#
#
# Elastic Constant Matrix: (Units=GPa)
#
#
# Indices 1 2 3 4 5 6 
#
# 1 253.3355 55.4089 250.0286 0.0000 0.0000 0.0000
# 2 55.4089 80.5091 66.2374 0.0000 0.0000 0.0000
# 3 250.0286 66.2374 381.0653 0.0000 0.0000 0.0000
# 4 0.0000 0.0000 0.0000 15.7068 0.0000 0.0000
# 5 0.0000 0.0000 0.0000 0.0000 53.0961 0.0000
# 6 0.0000 0.0000 0.0000 0.0000 0.0000 12.9899
#
#
#
# Elastic Compliance Matrix: (Units=1/GPa)
#
#
# Indices 1 2 3 4 5 6 
#
# 1 0.011466 -0.001986 -0.007178 0.000000 0.000000 0.000000
# 2 -0.001986 0.014838 -0.001276 0.000000 0.000000 0.000000
# 3 -0.007178 -0.001276 0.007556 0.000000 0.000000 0.000000
# 4 0.000000 0.000000 0.000000 0.063667 0.000000 0.000000
# 5 0.000000 0.000000 0.000000 0.000000 0.018834 0.000000
# 6 0.000000 0.000000 0.000000 0.000000 0.000000 0.076983
#
#
# Mechanical properties :
#
#
# Convention : Reuss Voigt Hill
#
# Bulk Modulus (GPa) = 77.04478 162.02886 119.53682
# Shear Modulus (GPa) = 22.87817 39.24088 31.05953
#
# Velocity S-wave (km/s) = 3.46584 4.53907 4.03827
# Velocity P-wave (km/s) = 7.51452 10.60864 9.19269
#
# Compressibility (1/GPa) = 0.01297947
#
# Stress axis : x y z
#
# Youngs Moduli (GPa) = 87.21480 67.39656 132.34916
#
# Poissons Ratio (x) = 0.13383 0.95000
# Poissons Ratio (y) = 0.17318 0.16891
# Poissons Ratio (z) = 0.62603 0.08601
#
# Static dielectric constant tensor:
#      x y z
#    x 1.639430 0.000000 0.000000 
#    y 0.000000 1.678680 0.000000 
#    z 0.000000 0.000000 1.626770 
# 
# From -- ./inp_files/6757.got.cif
#   From: 2010.05.17/outbox.cif.g08.bks.cpg/sg38_4_cif.got.tgz:6757.got - 2010.06.03 18:07:57.
