data_PCOD9359191
_publ_section_title
;
Structure prediction by ZEFSAII (Michael W. Deem and Ramdas Pophale) SiO2 
 PCOD9359191
Probable space group: A M M 2
;
_chemical_formula_sum "Si O2"
_cell_formula_units_Z 64
_cell_length_a 14.542141
_cell_length_b 22.128102
_cell_length_c 9.592242
_cell_angle_alpha 90.000000
_cell_angle_beta 90.000000
_cell_angle_gamma 90.000000
_cell_volume 3086.687355
_symmetry_space_group_name_H-M "A M M 2"
_symmetry_group_IT_number 38
_symmetry_cell_setting 'orthorhombic'
loop_
_space_group_symop_operation_xyz
x,y,z
-x,-y,z
-x,y,z
x,-y,z
x,1/2+y,1/2+z
-x,1/2-y,1/2+z
-x,1/2+y,1/2+z
x,1/2-y,1/2+z
loop_
_atom_site_type_symbol
_atom_site_label
_atom_site_fract_x
_atom_site_fract_y
_atom_site_fract_z
Si Si1 0.105171 0.571706 0.092270
Si Si2 0.657530 0.208122 0.500232
Si Si3 0.098299 0.668318 0.653778
Si Si4 0.604003 0.151059 0.989506
Si Si5 0.799615 0.931816 0.297305
Si Si6 0.400075 0.108070 0.303175
Si Si7 0.156756 0.248446 0.893424
Si Si8 0.266189 0.143427 0.746526
O O1 0.103492 0.500000 0.119726
O O2 0.187561 0.600742 0.182659
O O3 0.000000 0.595336 0.115495
O O4 0.134403 0.579009 0.930394
O O5 0.627061 0.277544 0.514119
O O6 0.605866 0.173267 0.378080
O O7 0.765413 0.209744 0.461399
O O8 0.657107 0.166960 0.637377
O O9 0.176530 0.619024 0.683222
O O10 0.098133 0.711424 0.789163
O O11 0.113070 0.709505 0.517462
O O12 0.000000 0.636827 0.641279
O O13 0.500000 0.147509 0.934085
O O14 0.677739 0.123350 0.882966
O O15 0.605645 0.118555 0.138081
O O16 0.693504 0.925541 0.344860
O O17 0.814840 0.000000 0.246636
O O18 0.500000 0.080773 0.336815
O O19 0.211546 0.202799 0.794630
#
# Coordination Sequence:
#
# PCOD9359191 Si02
#       8
#     8   8   8   8   8   8   8   8
#     4  10  22  42  67  92 122 166 218 271 326 384
#     4  11  19  35  59  88 123 166 207 253 308 379
#     4  12  24  40  63  95 131 170 216 261 322 390
#     4  10  22  36  57  92 132 169 204 249 314 387
#     4  11  23  43  67  93 125 168 218 271 322 380
#     4  11  22  39  62  92 127 166 213 263 318 382
#     4  11  22  39  58  92 134 170 204 260 324 381
#     4  11  21  37  63  90 129 162 213 261 319 374
#
# _framework density 20.734203999999998
#
# number of rings (size 3 to 8) (size 9 to 14) (size 15 to 20)
#    0.000    1.125    3.750    4.125    0.000    4.000 
#    0.000    2.500    0.000    1.125    0.000    0.000 
#    0.000    0.000    0.000    0.000    0.000    0.000 
#
# Total GULP energy -178615.107044 kJ/mol
# GULP energy per Si atom -5581.722095 kJ/mol
# Density = 2.068701 g / cm^3
# Si number density = 20.734204 Si / 1000 Ang^3
#
#
#
# Elastic Constant Matrix: (Units=GPa)
#
#
# Indices 1 2 3 4 5 6 
#
# 1 124.0282 12.2523 21.7158 0.0000 0.0000 0.0000
# 2 12.2523 54.1877 15.7548 0.0000 0.0000 0.0000
# 3 21.7158 15.7548 79.8809 0.0000 0.0000 0.0000
# 4 0.0000 0.0000 0.0000 -5.7769 0.0000 0.0000
# 5 0.0000 0.0000 0.0000 0.0000 29.1192 0.0000
# 6 0.0000 0.0000 0.0000 0.0000 0.0000 15.9484
#
#
#
# Elastic Compliance Matrix: (Units=1/GPa)
#
#
# Indices 1 2 3 4 5 6 
#
# 1 0.008556 -0.001335 -0.002063 0.000000 0.000000 0.000000
# 2 -0.001335 0.019785 -0.003539 0.000000 0.000000 0.000000
# 3 -0.002063 -0.003539 0.013777 0.000000 0.000000 0.000000
# 4 0.000000 0.000000 0.000000 -0.173104 0.000000 0.000000
# 5 0.000000 0.000000 0.000000 0.000000 0.034342 0.000000
# 6 0.000000 0.000000 0.000000 0.000000 0.000000 0.062702
#
#
# Mechanical properties :
#
#
# Convention : Reuss Voigt Hill
#
# Bulk Modulus (GPa) = 35.40477 39.72697 37.56587
# Shear Modulus (GPa) = -469.35476 21.74973 -223.80252
#
# Velocity S-wave (km/s) = -15.06183 3.24231 -10.40063
# Velocity P-wave (km/s) = 16.89277 5.76354 11.22825
#
# Compressibility (1/GPa) = 0.02824478
#
# Stress axis : x y z
#
# Youngs Moduli (GPa) = 116.88137 50.54278 72.58252
#
# Poissons Ratio (x) = 0.06747 0.14971
# Poissons Ratio (y) = 0.15602 0.25689
# Poissons Ratio (z) = 0.24108 0.17889
#
# Static dielectric constant tensor:
#      x y z
#    x 1.776160 0.000000 0.000000 
#    y 0.000000 1.757910 0.000000 
#    z 0.000000 0.000000 1.781540 
# 
# From -- ./inp_files/5884.got.cif
#   From: 2010.05.17/outbox.cif.g08.bks.cpg/sg38_3_cif.got.tgz:5884.got - 2010.06.03 18:07:57.
