data_PCOD9359491
_publ_section_title
;
Structure prediction by ZEFSAII (Michael W. Deem and Ramdas Pophale) SiO2 
 PCOD9359491
Probable space group: A M M 2
;
_chemical_formula_sum "Si O2"
_cell_formula_units_Z 34
_cell_length_a 7.186611
_cell_length_b 14.215621
_cell_length_c 12.649229
_cell_angle_alpha 90.000000
_cell_angle_beta 90.000000
_cell_angle_gamma 90.000000
_cell_volume 1292.272282
_symmetry_space_group_name_H-M "A M M 2"
_symmetry_group_IT_number 38
_symmetry_cell_setting 'orthorhombic'
loop_
_space_group_symop_operation_xyz
x,y,z
-x,-y,z
-x,y,z
x,-y,z
x,1/2+y,1/2+z
-x,1/2-y,1/2+z
-x,1/2+y,1/2+z
x,1/2-y,1/2+z
loop_
_atom_site_type_symbol
_atom_site_label
_atom_site_fract_x
_atom_site_fract_y
_atom_site_fract_z
Si Si1 0.227158 0.183242 0.184490
Si Si2 0.772474 0.398139 0.227750
Si Si3 0.213818 0.360195 0.462246
Si Si4 0.786112 0.638380 0.916956
Si Si5 0.500000 0.000000 0.519717
O O1 0.282527 0.294219 0.187158
O O2 0.278039 0.134698 0.294790
O O3 0.000000 0.184903 0.182502
O O4 0.291735 0.129276 0.079707
O O5 0.700568 0.500000 0.185458
O O6 0.714507 0.398213 0.351433
O O7 0.000000 0.399627 0.221084
O O8 0.215363 0.248079 0.445429
O O9 0.000000 0.392233 0.466367
O O10 0.659630 0.581475 0.994557
O O11 0.000000 0.607603 0.923591
#
# Coordination Sequence:
#
# PCOD9359491 Si02
#       5
#     8   8   8   8   2
#     4   8  14  28  49  73 103 137 170 210 266 318
#     4   8  13  22  39  69 102 129 167 214 253 307
#     4   8  14  28  49  73 103 137 170 210 266 318
#     4   9  19  35  54  77 107 140 176 219 264 318
#     4  12  22  36  52  74 106 146 182 220 264 302
#
# _framework density 26.310247
#
# number of rings (size 3 to 8) (size 9 to 14) (size 15 to 20)
#    0.000    3.529    0.000    3.176    0.000    0.000 
#    4.235    1.176    0.000    0.000    0.000    3.294 
#    0.000    0.000    0.000    0.000    0.000    1.882 
#
# Total GULP energy -94749.562353 kJ/mol
# GULP energy per Si atom -5573.503668 kJ/mol
# Density = 2.625036 g / cm^3
# Si number density = 26.310247 Si / 1000 Ang^3
#
#
#
# Elastic Constant Matrix: (Units=GPa)
#
#
# Indices 1 2 3 4 5 6 
#
# 1 113.9139 -9.1951 -33.4598 0.0000 0.0000 0.0000
# 2 -9.1951 114.8329 -3.8075 0.0000 0.0000 0.0000
# 3 -33.4598 -3.8075 150.0348 0.0000 0.0000 0.0000
# 4 0.0000 0.0000 0.0000 38.6310 0.0000 0.0000
# 5 0.0000 0.0000 0.0000 0.0000 -94.7924 0.0000
# 6 0.0000 0.0000 0.0000 0.0000 0.0000 -60.7047
#
#
#
# Elastic Compliance Matrix: (Units=1/GPa)
#
#
# Indices 1 2 3 4 5 6 
#
# 1 0.009472 0.000829 0.002133 0.000000 0.000000 0.000000
# 2 0.000829 0.008788 0.000408 0.000000 0.000000 0.000000
# 3 0.002133 0.000408 0.007151 0.000000 0.000000 0.000000
# 4 0.000000 0.000000 0.000000 0.025886 0.000000 0.000000
# 5 0.000000 0.000000 0.000000 0.000000 -0.010549 0.000000
# 6 0.000000 0.000000 0.000000 0.000000 0.000000 -0.016473
#
#
# Mechanical properties :
#
#
# Convention : Reuss Voigt Hill
#
# Bulk Modulus (GPa) = 31.10142 31.76188 31.43165
# Shear Modulus (GPa) = 176.98222 4.97639 90.97931
#
# Velocity S-wave (km/s) = 8.21057 1.37678 5.88681
# Velocity P-wave (km/s) = 10.08619 3.82435 7.62748
#
# Compressibility (1/GPa) = 0.03215287
#
# Stress axis : x y z
#
# Youngs Moduli (GPa) = 105.57266 113.78856 139.83547
#
# Poissons Ratio (x) = -0.09435 -0.29833
# Poissons Ratio (y) = -0.08754 -0.05705
# Poissons Ratio (z) = -0.22523 -0.04642
#
# Static dielectric constant tensor:
#      x y z
#    x 2.021830 0.000000 0.000000 
#    y 0.000000 2.012500 0.000000 
#    z 0.000000 0.000000 2.169590 
# 
# From -- ./inp_files/11481.got.cif
#   From: 2010.05.17/outbox.cif.g08.bks.cpg/sg38_6_cif.got.tgz:11481.got - 2010.06.03 18:07:57.
