data_PCOD9359009
_publ_section_title
;
Structure prediction by ZEFSAII (Michael W. Deem and Ramdas Pophale) SiO2 
 PCOD9359009
Probable space group: A M M 2
;
_chemical_formula_sum "Si O2"
_cell_formula_units_Z 58
_cell_length_a 7.576349
_cell_length_b 21.644257
_cell_length_c 14.677875
_cell_angle_alpha 90.000000
_cell_angle_beta 90.000000
_cell_angle_gamma 90.000000
_cell_volume 2406.943184
_symmetry_space_group_name_H-M "A M M 2"
_symmetry_group_IT_number 38
_symmetry_cell_setting 'orthorhombic'
loop_
_space_group_symop_operation_xyz
x,y,z
-x,-y,z
-x,y,z
x,-y,z
x,1/2+y,1/2+z
-x,1/2-y,1/2+z
-x,1/2+y,1/2+z
x,1/2-y,1/2+z
loop_
_atom_site_type_symbol
_atom_site_label
_atom_site_fract_x
_atom_site_fract_y
_atom_site_fract_z
Si Si1 0.701173 0.101391 0.953250
Si Si2 0.791286 0.240456 0.950263
Si Si3 0.000000 0.500000 0.720011
Si Si4 0.711653 0.930858 0.414205
Si Si5 0.716555 0.570535 0.252865
Si Si6 0.709391 0.851360 0.586265
Si Si7 0.295188 0.410719 0.652436
Si Si8 0.200873 0.682130 0.785776
O O1 0.500000 0.078836 0.950784
O O2 0.703473 0.175014 0.965570
O O3 0.779208 0.082987 0.856196
O O4 0.772804 0.078972 0.049771
O O5 0.721375 0.266243 0.852904
O O6 0.000000 0.230052 0.939914
O O7 0.771996 0.290637 0.031459
O O8 0.155962 0.447700 0.711238
O O9 0.500000 0.931154 0.396445
O O10 0.738195 0.909015 0.517647
O O11 0.791616 0.876144 0.355052
O O12 0.781410 0.000000 0.399167
O O13 0.500000 0.573103 0.252289
O O14 0.763807 0.500000 0.226484
O O15 0.777907 0.624037 0.183247
O O16 0.500000 0.842218 0.595197
O O17 0.500000 0.429829 0.659547
O O18 0.288942 0.341088 0.692999
O O19 0.000000 0.698473 0.764070
#
# Coordination Sequence:
#
# PCOD9359009 Si02
#       8
#     8   8   2   8   8   8   8   8
#     4  10  23  41  62  90 119 160 215 266 318 375
#     4  10  22  39  62  85 124 166 209 261 320 378
#     4  12  26  44  68  90 132 166 214 264 318 382
#     4   9  17  28  48  80 116 153 199 250 306 375
#     4   9  18  35  61  91 123 155 196 252 311 374
#     4   9  17  33  58  87 117 155 199 249 308 371
#     4  11  25  43  66  95 127 168 215 262 319 382
#     4  10  21  38  56  86 122 165 209 260 318 376
#
# _framework density 24.096952999999999
#
# number of rings (size 3 to 8) (size 9 to 14) (size 15 to 20)
#    0.000    2.207    0.690    1.448    2.897    4.690 
#    0.000    4.828    0.000    2.069    0.000    0.000 
#    0.000    0.000    0.000    0.000    0.000    0.000 
#
# Total GULP energy -161635.341626 kJ/mol
# GULP energy per Si atom -5573.632470 kJ/mol
# Density = 2.404211 g / cm^3
# Si number density = 24.096953 Si / 1000 Ang^3
#
#
#
# Elastic Constant Matrix: (Units=GPa)
#
#
# Indices 1 2 3 4 5 6 
#
# 1 76.9082 -0.8455 10.0115 0.0000 0.0000 0.0000
# 2 -0.8455 63.5684 -1.6706 0.0000 0.0000 0.0000
# 3 10.0115 -1.6706 103.9114 0.0000 0.0000 0.0000
# 4 0.0000 0.0000 0.0000 16.8810 0.0000 0.0000
# 5 0.0000 0.0000 0.0000 0.0000 15.6832 0.0000
# 6 0.0000 0.0000 0.0000 0.0000 0.0000 -10.9958
#
#
#
# Elastic Compliance Matrix: (Units=1/GPa)
#
#
# Indices 1 2 3 4 5 6 
#
# 1 0.013169 0.000142 -0.001266 0.000000 0.000000 0.000000
# 2 0.000142 0.015739 0.000239 0.000000 0.000000 0.000000
# 3 -0.001266 0.000239 0.009749 0.000000 0.000000 0.000000
# 4 0.000000 0.000000 0.000000 0.059238 0.000000 0.000000
# 5 0.000000 0.000000 0.000000 0.000000 0.063763 0.000000
# 6 0.000000 0.000000 0.000000 0.000000 0.000000 -0.090944
#
#
# Mechanical properties :
#
#
# Convention : Reuss Voigt Hill
#
# Bulk Modulus (GPa) = 27.10970 28.81986 27.96478
# Shear Modulus (GPa) = 58.97589 20.10653 39.54121
#
# Velocity S-wave (km/s) = 4.95253 2.89173 4.05522
# Velocity P-wave (km/s) = 6.63160 4.80993 5.79282
#
# Compressibility (1/GPa) = 0.03688716
#
# Stress axis : x y z
#
# Youngs Moduli (GPa) = 75.93622 63.53536 102.56987
#
# Poissons Ratio (x) = -0.00901 0.12990
# Poissons Ratio (y) = -0.01077 -0.02455
# Poissons Ratio (z) = 0.09617 -0.01521
#
# Static dielectric constant tensor:
#      x y z
#    x 1.913560 0.000000 0.000000 
#    y 0.000000 1.932560 0.000000 
#    z 0.000000 0.000000 1.969790 
# 
# From -- ./inp_files/12682.got.cif
#   From: 2010.05.17/outbox.cif.g08.bks.cpg/sg38_7_cif.got.tgz:12682.got - 2010.06.03 18:07:57.
