data_PCOD9359601
_publ_section_title
;
Structure prediction by ZEFSAII (Michael W. Deem and Ramdas Pophale) SiO2 
 PCOD9359601
Probable space group: A M M 2
;
_chemical_formula_sum "Si O2"
_cell_formula_units_Z 32
_cell_length_a 18.000000
_cell_length_b 9.000000
_cell_length_c 21.000000
_cell_angle_alpha 90.000000
_cell_angle_beta 90.000000
_cell_angle_gamma 90.000000
_cell_volume 3402.000000
_symmetry_space_group_name_H-M "A M M 2"
_symmetry_group_IT_number 38
_symmetry_cell_setting 'orthorhombic'
loop_
_space_group_symop_operation_xyz
x,y,z
-x,-y,z
-x,y,z
x,-y,z
x,1/2+y,1/2+z
-x,1/2-y,1/2+z
-x,1/2+y,1/2+z
x,1/2-y,1/2+z
loop_
_atom_site_type_symbol
_atom_site_label
_atom_site_fract_x
_atom_site_fract_y
_atom_site_fract_z
Si Si1 0.317685 0.678770 0.094680
Si Si2 0.086701 0.322586 0.458645
Si Si3 0.415865 0.681107 0.974923
Si Si4 0.143114 0.322211 0.088756
Si Si5 0.350476 0.680680 0.840576
Si Si6 0.822357 0.320384 0.843437
Si Si7 0.086365 0.323284 0.717592
Si Si8 0.414835 0.820376 0.204948
O O1 0.324342 0.500000 0.099878
O O2 0.230774 0.714592 0.091490
O O3 0.358783 0.752773 0.153977
O O4 0.359411 0.726773 0.030123
O O5 0.096800 0.500000 0.460668
O O6 0.107986 0.253402 0.526726
O O7 0.136922 0.252149 0.403394
O O8 0.000000 0.291260 0.445289
O O9 0.500000 0.728778 0.988669
O O10 0.415463 0.500000 0.973961
O O11 0.389819 0.731599 0.905278
O O12 0.135069 0.500000 0.084042
O O13 0.106674 0.262934 0.153521
O O14 0.352794 0.500000 0.841120
O O15 0.264027 0.723003 0.840613
O O16 0.391247 0.727303 0.776023
O O17 0.826406 0.500000 0.849775
O O18 0.863053 0.279331 0.777568
O O19 0.097366 0.500000 0.706486
O O20 0.000000 0.299809 0.733689
O O21 0.500000 0.776674 0.191601
O O22 0.410699 0.000000 0.202435
#
# Coordination Sequence:
#
# PCOD9359601 Si02
#       8
#     8   8   8   8   8   8   8   8
#     4  10  21  36  54  78 108 142 180 223 272 325
#     4  11  24  40  58  82 113 147 183 229 286 343
#     4   9  16  28  49  75 102 134 172 213 256 303
#     4  11  23  38  58  83 110 144 189 236 280 333
#     4   9  17  31  52  79 109 138 174 221 266 310
#     4  10  20  36  59  83 110 147 187 227 273 328
#     4  10  21  37  57  82 112 146 184 227 279 336
#     4  10  20  34  55  83 112 144 183 225 270 323
#
# _framework density 9.4062319999999993
#
# number of rings (size 3 to 8) (size 9 to 14) (size 15 to 20)
#    0.000    2.000    0.000    3.750    0.000   10.000 
#    0.000    0.625    0.000    0.750    0.000    0.000 
#    0.000    0.000    0.000    0.000    0.000    0.000 
#
# Total GULP energy -178768.903182 kJ/mol
# GULP energy per Si atom -5586.528224 kJ/mol
# Density = 0.938482 g / cm^3
# Si number density = 9.406232 Si / 1000 Ang^3
#
#
#
# Elastic Constant Matrix: (Units=GPa)
#
#
# Indices 1 2 3 4 5 6 
#
# 1 46.5560 7.3376 -24.4367 0.0000 0.0000 0.0000
# 2 7.3376 8.2761 -2.6808 0.0000 0.0000 0.0000
# 3 -24.4367 -2.6808 50.6033 0.0000 0.0000 0.0000
# 4 0.0000 0.0000 0.0000 33.1978 0.0000 0.0000
# 5 0.0000 0.0000 0.0000 0.0000 43.6894 0.0000
# 6 0.0000 0.0000 0.0000 0.0000 0.0000 23.0364
#
#
#
# Elastic Compliance Matrix: (Units=1/GPa)
#
#
# Indices 1 2 3 4 5 6 
#
# 1 0.033041 -0.024547 0.014655 0.000000 0.000000 0.000000
# 2 -0.024547 0.141176 -0.004375 0.000000 0.000000 0.000000
# 3 0.014655 -0.004375 0.026607 0.000000 0.000000 0.000000
# 4 0.000000 0.000000 0.000000 0.030123 0.000000 0.000000
# 5 0.000000 0.000000 0.000000 0.000000 0.022889 0.000000
# 6 0.000000 0.000000 0.000000 0.000000 0.000000 0.043410
#
#
# Mechanical properties :
#
#
# Convention : Reuss Voigt Hill
#
# Bulk Modulus (GPa) = 5.80415 7.31951 6.56183
# Shear Modulus (GPa) = 13.04778 28.33241 20.69009
#
# Velocity S-wave (km/s) = 2.63643 3.88499 3.31993
# Velocity P-wave (km/s) = 3.51563 4.90137 4.26515
#
# Compressibility (1/GPa) = 0.17229065
#
# Stress axis : x y z
#
# Youngs Moduli (GPa) = 30.26580 7.08336 37.58425
#
# Poissons Ratio (x) = 0.17387 -0.55080
# Poissons Ratio (y) = 0.74292 0.16443
# Poissons Ratio (z) = -0.44355 0.03099
#
# Static dielectric constant tensor:
#      x y z
#    x 1.635510 0.000000 0.000000 
#    y 0.000000 1.634570 0.000000 
#    z 0.000000 0.000000 1.615860 
# 
# From -- ./inp_files/21438.got.cif
#   From: 2010.05.17/outbox.ucp.g08.bks.cvg/sg38_11_cif.got.tgz:21438.got - 2010.06.11 10:39:43.
