data_PCOD9359770
_publ_section_title
;
Structure prediction by ZEFSAII (Michael W. Deem and Ramdas Pophale) SiO2 
 PCOD9359770
Probable space group: A B M 2
;
_chemical_formula_sum "Si O2"
_cell_formula_units_Z 64
_cell_length_a 10.652200
_cell_length_b 14.365125
_cell_length_c 19.853774
_cell_angle_alpha 90.000000
_cell_angle_beta 90.000000
_cell_angle_gamma 90.000000
_cell_volume 3038.028161
_symmetry_space_group_name_H-M "A B M 2"
_symmetry_group_IT_number 39
_symmetry_cell_setting 'orthorhombic'
loop_
_space_group_symop_operation_xyz
x,y,z
-x,-y,z
-x,1/2+y,z
x,1/2-y,z
x,1/2+y,1/2+z
-x,1/2-y,1/2+z
-x,y,1/2+z
x,-y,1/2+z
loop_
_atom_site_type_symbol
_atom_site_label
_atom_site_fract_x
_atom_site_fract_y
_atom_site_fract_z
Si Si1 0.708619 0.142596 0.388930
Si Si2 0.164350 0.363868 0.662337
Si Si3 0.344043 0.635931 0.679612
Si Si4 0.400521 0.364473 0.748933
Si Si5 0.084059 0.855187 0.736385
Si Si6 0.968718 0.138659 0.030431
Si Si7 0.258952 0.635951 0.536203
Si Si8 0.003116 0.892387 0.877864
O O1 0.667169 0.250000 0.393139
O O2 0.640728 0.101990 0.323319
O O3 0.692797 0.100985 0.463650
O O4 0.859625 0.143140 0.377793
O O5 0.169053 0.250000 0.662862
O O6 0.294788 0.393236 0.695009
O O7 0.128141 0.394578 0.586985
O O8 0.047191 0.394194 0.709073
O O9 0.345875 0.750000 0.681597
O O10 0.463721 0.606258 0.722497
O O11 0.212808 0.602072 0.710990
O O12 0.339586 0.609261 0.601030
O O13 0.398377 0.250000 0.751407
O O14 0.085507 0.750000 0.708013
O O15 0.079095 0.849613 0.816654
O O16 0.970858 0.250000 0.035646
O O17 0.112372 0.107581 0.044435
O O18 0.941601 0.117416 0.952602
O O19 0.257293 0.750000 0.533230
O O20 0.000000 0.000000 0.861649
#
# Coordination Sequence:
#
# PCOD9359770 Si02
#       8
#     8   8   8   8   8   8   8   8
#     4   9  16  29  50  70  95 131 167 196 241 301
#     4   9  15  26  48  73  96 124 160 198 244 292
#     4   9  16  26  44  74 105 126 156 203 246 285
#     4   9  16  26  44  75 105 127 156 201 246 287
#     4  10  17  30  51  73  98 127 160 199 247 295
#     4   9  16  29  49  71  94 127 166 200 246 300
#     4   8  13  23  42  66  90 121 158 193 232 287
#     4  11  21  31  46  72 101 128 165 210 248 283
#
# _framework density 21.066295
#
# number of rings (size 3 to 8) (size 9 to 14) (size 15 to 20)
#    0.000    2.750    2.500    1.875    0.000    0.000 
#    0.000    1.875    0.000    6.750    0.000    0.000 
#    0.000    0.000    0.000    0.000    0.000    0.000 
#
# Total GULP energy -178514.095371 kJ/mol
# GULP energy per Si atom -5578.565480 kJ/mol
# Density = 2.101835 g / cm^3
# Si number density = 21.066295 Si / 1000 Ang^3
#
#
#
# Elastic Constant Matrix: (Units=GPa)
#
#
# Indices 1 2 3 4 5 6 
#
# 1 104.8514 -15.1427 71.0736 0.0000 0.0000 0.0000
# 2 -15.1427 40.6139 -15.5471 0.0000 0.0000 0.0000
# 3 71.0736 -15.5471 170.1150 0.0000 0.0000 0.0000
# 4 0.0000 0.0000 0.0000 3.5415 0.0000 0.0000
# 5 0.0000 0.0000 0.0000 0.0000 29.7640 0.0000
# 6 0.0000 0.0000 0.0000 0.0000 0.0000 -5.2912
#
#
#
# Elastic Compliance Matrix: (Units=1/GPa)
#
#
# Indices 1 2 3 4 5 6 
#
# 1 0.013652 0.003012 -0.005429 0.000000 0.000000 0.000000
# 2 0.003012 0.026179 0.001134 0.000000 0.000000 0.000000
# 3 -0.005429 0.001134 0.008250 0.000000 0.000000 0.000000
# 4 0.000000 0.000000 0.000000 0.282368 0.000000 0.000000
# 5 0.000000 0.000000 0.000000 0.000000 0.033598 0.000000
# 6 0.000000 0.000000 0.000000 0.000000 0.000000 -0.188992
#
#
# Mechanical properties :
#
#
# Convention : Reuss Voigt Hill
#
# Bulk Modulus (GPa) = 21.96996 44.03868 33.00432
# Shear Modulus (GPa) = 25.93476 23.94928 24.94202
#
# Velocity S-wave (km/s) = 3.51251 3.37538 3.44463
# Velocity P-wave (km/s) = 5.18671 6.01175 5.61440
#
# Compressibility (1/GPa) = 0.04551670
#
# Stress axis : x y z
#
# Youngs Moduli (GPa) = 73.24923 38.19813 121.21148
#
# Poissons Ratio (x) = -0.11505 0.65800
# Poissons Ratio (y) = -0.22063 -0.13747
# Poissons Ratio (z) = 0.39763 -0.04332
#
# Static dielectric constant tensor:
#      x y z
#    x 1.720320 0.000000 0.000000 
#    y 0.000000 1.805010 0.000000 
#    z 0.000000 0.000000 1.798740 
# 
# From -- ./inp_files/12473.got.cif
#   From: 2010.05.17/outbox.cif.g08.bks.cpg/sg39_7_cif.got.tgz:12473.got - 2010.06.03 18:22:40.
