data_PCOD9359357
_publ_section_title
;
Structure prediction by ZEFSAII (Michael W. Deem and Ramdas Pophale) SiO2 
 PCOD9359357
Probable space group: A M M 2
;
_chemical_formula_sum "Si O2"
_cell_formula_units_Z 40
_cell_length_a 11.152931
_cell_length_b 19.998492
_cell_length_c 9.130466
_cell_angle_alpha 90.000000
_cell_angle_beta 90.000000
_cell_angle_gamma 90.000000
_cell_volume 2036.475584
_symmetry_space_group_name_H-M "A M M 2"
_symmetry_group_IT_number 38
_symmetry_cell_setting 'orthorhombic'
loop_
_space_group_symop_operation_xyz
x,y,z
-x,-y,z
-x,y,z
x,-y,z
x,1/2+y,1/2+z
-x,1/2-y,1/2+z
-x,1/2+y,1/2+z
x,1/2-y,1/2+z
loop_
_atom_site_type_symbol
_atom_site_label
_atom_site_fract_x
_atom_site_fract_y
_atom_site_fract_z
Si Si1 0.636963 0.803247 0.683240
Si Si2 0.000000 0.283964 0.350213
Si Si3 0.252043 0.078804 0.517796
Si Si4 0.747353 0.690052 0.492800
Si Si5 0.000000 0.653849 0.027222
Si Si6 0.359301 0.078734 0.193947
O O1 0.500000 0.786250 0.647893
O O2 0.669286 0.877304 0.628599
O O3 0.725688 0.752211 0.601171
O O4 0.660487 0.798932 0.855054
O O5 0.119558 0.311852 0.427188
O O6 0.000000 0.303804 0.179380
O O7 0.000000 0.205144 0.390264
O O8 0.306590 0.089411 0.356045
O O9 0.118172 0.108313 0.522888
O O10 0.253873 0.000000 0.550012
O O11 0.711504 0.624019 0.579968
O O12 0.500000 0.097029 0.192678
O O13 0.349206 0.000000 0.160334
#
# Coordination Sequence:
#
# PCOD9359357 Si02
#       6
#     8   4   8   8   4   8
#     4  12  24  40  66  97 131 171 218 273 329 390
#     4  12  24  44  69  95 129 170 213 276 318 388
#     4  11  24  43  67  94 131 175 219 270 325 388
#     4  12  24  43  66  98 132 172 222 271 333 385
#     4  12  25  46  65  99 130 170 223 272 331 380
#     4  10  23  44  68  97 134 174 218 270 329 395
#
# _framework density 19.641776
#
# number of rings (size 3 to 8) (size 9 to 14) (size 15 to 20)
#    0.000    0.600    4.000    3.900    2.800    2.000 
#    0.000    1.500    0.000    0.000    0.000    0.000 
#    0.000    0.000    0.000    0.000    0.000    0.000 
#
# Total GULP energy -111924.284291 kJ/mol
# GULP energy per Si atom -5596.214215 kJ/mol
# Density = 1.959707 g / cm^3
# Si number density = 19.641776 Si / 1000 Ang^3
#
#
#
# Elastic Constant Matrix: (Units=GPa)
#
#
# Indices 1 2 3 4 5 6 
#
# 1 99.6380 15.0751 -6.0161 0.0000 0.0000 0.0000
# 2 15.0751 71.2518 45.2614 0.0000 0.0000 0.0000
# 3 -6.0161 45.2614 65.7463 0.0000 0.0000 0.0000
# 4 0.0000 0.0000 0.0000 39.6050 0.0000 0.0000
# 5 0.0000 0.0000 0.0000 0.0000 31.8430 0.0000
# 6 0.0000 0.0000 0.0000 0.0000 0.0000 9.0103
#
#
#
# Elastic Compliance Matrix: (Units=1/GPa)
#
#
# Indices 1 2 3 4 5 6 
#
# 1 0.011126 -0.005333 0.004689 0.000000 0.000000 0.000000
# 2 -0.005333 0.027498 -0.019419 0.000000 0.000000 0.000000
# 3 0.004689 -0.019419 0.029007 0.000000 0.000000 0.000000
# 4 0.000000 0.000000 0.000000 0.025249 0.000000 0.000000
# 5 0.000000 0.000000 0.000000 0.000000 0.031404 0.000000
# 6 0.000000 0.000000 0.000000 0.000000 0.000000 0.110984
#
#
# Mechanical properties :
#
#
# Convention : Reuss Voigt Hill
#
# Bulk Modulus (GPa) = 36.35317 38.36410 37.35864
# Shear Modulus (GPa) = 17.57084 28.24606 22.90845
#
# Velocity S-wave (km/s) = 2.99417 3.79629 3.41884
# Velocity P-wave (km/s) = 5.52283 6.22817 5.88607
#
# Compressibility (1/GPa) = 0.02750792
#
# Stress axis : x y z
#
# Youngs Moduli (GPa) = 89.87675 36.36582 34.47405
#
# Poissons Ratio (x) = 0.19394 -0.16166
# Poissons Ratio (y) = 0.47931 0.66944
# Poissons Ratio (z) = -0.42147 0.70617
#
# Static dielectric constant tensor:
#      x y z
#    x 1.683580 0.000000 0.000000 
#    y 0.000000 1.672070 0.000000 
#    z 0.000000 0.000000 1.654540 
# 
# From -- ./inp_files/4501.got.cif
#   From: 2010.05.17/outbox.cif.g08.bks.cpg/sg38_3_cif.got.tgz:4501.got - 2010.06.03 18:07:57.
