data_PCOD9359515
_publ_section_title
;
Structure prediction by ZEFSAII (Michael W. Deem and Ramdas Pophale) SiO2 
 PCOD9359515
Probable space group: A M M 2
;
_chemical_formula_sum "Si O2"
_cell_formula_units_Z 48
_cell_length_a 7.413110
_cell_length_b 32.968215
_cell_length_c 9.385850
_cell_angle_alpha 90.000000
_cell_angle_beta 90.000000
_cell_angle_gamma 90.000000
_cell_volume 2293.873623
_symmetry_space_group_name_H-M "A M M 2"
_symmetry_group_IT_number 38
_symmetry_cell_setting 'orthorhombic'
loop_
_space_group_symop_operation_xyz
x,y,z
-x,-y,z
-x,y,z
x,-y,z
x,1/2+y,1/2+z
-x,1/2-y,1/2+z
-x,1/2+y,1/2+z
x,1/2-y,1/2+z
loop_
_atom_site_type_symbol
_atom_site_label
_atom_site_fract_x
_atom_site_fract_y
_atom_site_fract_z
Si Si1 0.779172 0.291002 0.351780
Si Si2 0.220063 0.288559 0.678576
Si Si3 0.213119 0.367556 0.173836
Si Si4 0.208056 0.956203 0.321394
Si Si5 0.778490 0.131281 0.346677
Si Si6 0.715374 0.543603 0.156270
O O1 0.721439 0.288158 0.515100
O O2 0.723144 0.251612 0.262660
O O3 0.716957 0.332230 0.275228
O O4 0.000000 0.291228 0.353140
O O5 0.276451 0.329551 0.758269
O O6 0.000000 0.288469 0.679427
O O7 0.000000 0.360490 0.162084
O O8 0.282680 0.365244 0.011263
O O9 0.236374 0.413730 0.227093
O O10 0.283826 0.912048 0.283309
O O11 0.210247 0.955233 0.494672
O O12 0.000000 0.956834 0.274528
O O13 0.289273 0.000000 0.280252
O O14 0.000000 0.129944 0.347820
O O15 0.500000 0.543138 0.144252
O O16 0.772586 0.500000 0.219645
#
# Coordination Sequence:
#
# PCOD9359515 Si02
#       6
#     8   8   8   8   8   8
#     4   9  16  24  36  56  83 111 137 169 208 247
#     4   9  15  23  36  57  85 112 138 170 207 245
#     4   9  16  26  40  60  85 111 138 168 206 247
#     4   8  13  22  37  58  84 113 142 171 204 241
#     4   8  13  21  35  55  80 108 136 167 203 242
#     4   9  16  25  39  61  85 108 137 172 206 240
#
# _framework density 20.925301999999999
#
# number of rings (size 3 to 8) (size 9 to 14) (size 15 to 20)
#    0.000    3.333    0.000    2.500    0.000    5.000 
#    0.000    0.000    0.000    1.000    0.000   19.833 
#    0.000   10.667    0.000    0.000    0.000    0.000 
#
# Total GULP energy -133736.997493 kJ/mol
# GULP energy per Si atom -5572.374896 kJ/mol
# Density = 2.087767 g / cm^3
# Si number density = 20.925302 Si / 1000 Ang^3
#
#
#
# Elastic Constant Matrix: (Units=GPa)
#
#
# Indices 1 2 3 4 5 6 
#
# 1 66.9999 -2.5030 3.7910 0.0000 0.0000 0.0000
# 2 -2.5030 265.5135 100.8949 0.0000 0.0000 0.0000
# 3 3.7910 100.8949 94.9063 0.0000 0.0000 0.0000
# 4 0.0000 0.0000 0.0000 23.0011 0.0000 0.0000
# 5 0.0000 0.0000 0.0000 0.0000 -97.2475 0.0000
# 6 0.0000 0.0000 0.0000 0.0000 0.0000 -50.3854
#
#
#
# Elastic Compliance Matrix: (Units=1/GPa)
#
#
# Indices 1 2 3 4 5 6 
#
# 1 0.015020 0.000620 -0.001259 0.000000 0.000000 0.000000
# 2 0.000620 0.006345 -0.006770 0.000000 0.000000 0.000000
# 3 -0.001259 -0.006770 0.017784 0.000000 0.000000 0.000000
# 4 0.000000 0.000000 0.000000 0.043476 0.000000 0.000000
# 5 0.000000 0.000000 0.000000 0.000000 -0.010283 0.000000
# 6 0.000000 0.000000 0.000000 0.000000 0.000000 -0.019847
#
#
# Mechanical properties :
#
#
# Convention : Reuss Voigt Hill
#
# Bulk Modulus (GPa) = 41.10035 70.19838 55.64937
# Shear Modulus (GPa) = 66.29334 -3.24391 31.52472
#
# Velocity S-wave (km/s) = 5.63469 -1.24643 3.88562
# Velocity P-wave (km/s) = 7.87509 5.61680 6.83979
#
# Compressibility (1/GPa) = 0.02433070
#
# Stress axis : x y z
#
# Youngs Moduli (GPa) = 66.57874 157.61375 56.23061
#
# Poissons Ratio (x) = -0.09773 0.07080
# Poissons Ratio (y) = -0.04128 0.38067
# Poissons Ratio (z) = 0.08383 1.06700
#
# Static dielectric constant tensor:
#      x y z
#    x 1.874310 0.000000 0.000000 
#    y 0.000000 1.804110 0.000000 
#    z 0.000000 0.000000 1.692090 
# 
# From -- ./inp_files/4831.got.cif
#   From: 2010.05.17/outbox.cif.g08.bks.cpg/sg38_3_cif.got.tgz:4831.got - 2010.06.03 18:07:57.
