data_PCOD9359596
_publ_section_title
;
Structure prediction by ZEFSAII (Michael W. Deem and Ramdas Pophale) SiO2 
 PCOD9359596
Probable space group: A M M 2
;
_chemical_formula_sum "Si O2"
_cell_formula_units_Z 32
_cell_length_a 9.000000
_cell_length_b 21.000000
_cell_length_c 18.000000
_cell_angle_alpha 90.000000
_cell_angle_beta 90.000000
_cell_angle_gamma 90.000000
_cell_volume 3402.000000
_symmetry_space_group_name_H-M "A M M 2"
_symmetry_group_IT_number 38
_symmetry_cell_setting 'orthorhombic'
loop_
_space_group_symop_operation_xyz
x,y,z
-x,-y,z
-x,y,z
x,-y,z
x,1/2+y,1/2+z
-x,1/2-y,1/2+z
-x,1/2+y,1/2+z
x,1/2-y,1/2+z
loop_
_atom_site_type_symbol
_atom_site_label
_atom_site_fract_x
_atom_site_fract_y
_atom_site_fract_z
Si Si1 0.671499 0.672373 0.901740
Si Si2 0.671515 0.072535 0.161026
Si Si3 0.830026 0.929568 0.496317
Si Si4 0.322969 0.812526 0.893923
Si Si5 0.678135 0.067925 0.984974
Si Si6 0.324036 0.068919 0.652723
Si Si7 0.173572 0.183771 0.734790
Si Si8 0.172446 0.678540 0.746568
O O1 0.500000 0.653484 0.910668
O O2 0.779790 0.623586 0.940237
O O3 0.691851 0.743854 0.931952
O O4 0.716751 0.675750 0.815930
O O5 0.500000 0.093191 0.174429
O O6 0.696563 0.072254 0.072892
O O7 0.788905 0.118426 0.197676
O O8 0.684750 0.000000 0.187954
O O9 0.725890 0.927117 0.567712
O O10 0.000000 0.920977 0.520645
O O11 0.817190 0.000000 0.462294
O O12 0.500000 0.819274 0.876934
O O13 0.230691 0.813210 0.818775
O O14 0.267409 0.870079 0.943846
O O15 0.500000 0.066731 0.972777
O O16 0.739262 0.000000 0.958330
O O17 0.500000 0.069936 0.658238
O O18 0.259032 0.128567 0.694264
O O19 0.269970 0.000000 0.681798
O O20 0.199337 0.254976 0.704132
O O21 0.000000 0.170377 0.731768
O O22 0.000000 0.679299 0.771121
#
# Coordination Sequence:
#
# PCOD9359596 Si02
#       8
#     8   8   8   8   8   8   8   8
#     4  10  20  34  53  77 105 137 174 216 258 305
#     4   9  18  33  53  77 104 135 171 212 260 311
#     4  10  21  37  56  78 106 138 171 213 265 317
#     4   9  18  33  53  78 105 135 174 215 254 300
#     4   8  15  30  52  76 102 131 164 204 249 298
#     4  10  21  37  57  80 105 136 176 218 259 310
#     4  10  21  36  53  76 107 140 173 213 263 314
#     4  10  21  36  53  75 104 139 177 216 262 313
#
# _framework density 9.4062319999999993
#
# number of rings (size 3 to 8) (size 9 to 14) (size 15 to 20)
#    0.000    2.500    0.000    2.625    0.000    5.750 
#    0.000    3.125    0.000    0.750    0.000    0.000 
#    0.000    0.000    0.000    0.000    0.000    0.000 
#
# Total GULP energy -178225.979784 kJ/mol
# GULP energy per Si atom -5569.561868 kJ/mol
# Density = 0.938482 g / cm^3
# Si number density = 9.406232 Si / 1000 Ang^3
#
#
#
# Elastic Constant Matrix: (Units=GPa)
#
#
# Indices 1 2 3 4 5 6 
#
# 1 28.0363 36.7537 6.6564 0.0000 0.0000 0.0000
# 2 36.7537 88.2185 34.9095 0.0000 0.0000 0.0000
# 3 6.6564 34.9095 9.3813 0.0000 0.0000 0.0000
# 4 0.0000 0.0000 0.0000 28.8495 0.0000 0.0000
# 5 0.0000 0.0000 0.0000 0.0000 27.8014 0.0000
# 6 0.0000 0.0000 0.0000 0.0000 0.0000 25.0843
#
#
#
# Elastic Compliance Matrix: (Units=1/GPa)
#
#
# Indices 1 2 3 4 5 6 
#
# 1 0.037371 0.010743 -0.066495 0.000000 0.000000 0.000000
# 2 0.010743 -0.020900 0.070150 0.000000 0.000000 0.000000
# 3 -0.066495 0.070150 -0.107267 0.000000 0.000000 0.000000
# 4 0.000000 0.000000 0.000000 0.034663 0.000000 0.000000
# 5 0.000000 0.000000 0.000000 0.000000 0.035969 0.000000
# 6 0.000000 0.000000 0.000000 0.000000 0.000000 0.039866
#
#
# Mechanical properties :
#
#
# Convention : Reuss Voigt Hill
#
# Bulk Modulus (GPa) = -16.12956 31.36389 7.61716
# Shear Modulus (GPa) = -167.99894 19.50149 -74.24873
#
# Velocity S-wave (km/s) = -9.46022 3.22316 -6.28916
# Velocity P-wave (km/s) = 11.31018 5.52809 6.97712
#
# Compressibility (1/GPa) = -0.06199796
#
# Stress axis : x y z
#
# Youngs Moduli (GPa) = 26.75854 -47.84662 -9.32254
#
# Poissons Ratio (x) = 0.51404 -0.61990
# Poissons Ratio (y) = -0.28748 0.65398
# Poissons Ratio (z) = 1.77931 3.35646
#
# Static dielectric constant tensor:
#      x y z
#    x 1.627670 0.000000 0.000000 
#    y 0.000000 1.703790 0.000000 
#    z 0.000000 0.000000 1.627780 
# 
# From -- ./inp_files/17168.got.cif
#   From: 2010.05.17/outbox.ucp.g08.bks.cvg/sg38_9_cif.got.tgz:17168.got - 2010.06.11 10:39:43.
