data_PCOD9359404
_publ_section_title
;
Structure prediction by ZEFSAII (Michael W. Deem and Ramdas Pophale) SiO2 
 PCOD9359404
Probable space group: A M M 2
;
_chemical_formula_sum "Si O2"
_cell_formula_units_Z 56
_cell_length_a 9.120396
_cell_length_b 14.541827
_cell_length_c 23.347483
_cell_angle_alpha 90.000000
_cell_angle_beta 90.000000
_cell_angle_gamma 90.000000
_cell_volume 3096.511783
_symmetry_space_group_name_H-M "A M M 2"
_symmetry_group_IT_number 38
_symmetry_cell_setting 'orthorhombic'
loop_
_space_group_symop_operation_xyz
x,y,z
-x,-y,z
-x,y,z
x,-y,z
x,1/2+y,1/2+z
-x,1/2-y,1/2+z
-x,1/2+y,1/2+z
x,1/2-y,1/2+z
loop_
_atom_site_type_symbol
_atom_site_label
_atom_site_fract_x
_atom_site_fract_y
_atom_site_fract_z
Si Si1 0.175366 0.782602 0.278020
Si Si2 0.675947 0.105972 0.512564
Si Si3 0.328841 0.109648 0.378983
Si Si4 0.324053 0.394028 0.317965
Si Si5 0.821491 0.605604 0.665265
Si Si6 0.824634 0.782603 0.052509
Si Si7 0.328841 0.390352 0.451545
O O1 0.231708 0.835683 0.334245
O O2 0.243934 0.681244 0.280028
O O3 0.223403 0.840106 0.222267
O O4 0.000000 0.777296 0.278284
O O5 0.500000 0.113374 0.518356
O O6 0.709995 0.125609 0.445482
O O7 0.756064 0.181245 0.550500
O O8 0.716550 0.000000 0.524421
O O9 0.500000 0.135737 0.371463
O O10 0.316828 0.000000 0.369195
O O11 0.500000 0.386623 0.312173
O O12 0.283456 0.500000 0.306109
O O13 0.290005 0.374390 0.385047
O O14 0.770285 0.500000 0.665265
O O15 0.776599 0.659892 0.608262
O O16 0.000000 0.603334 0.665265
O O17 0.000000 0.777295 0.052244
O O18 0.768292 0.835684 0.996284
O O19 0.500000 0.364263 0.459066
O O20 0.316829 0.500000 0.461334
#
# Coordination Sequence:
#
# PCOD9359404 Si02
#       7
#     8   8   8   8   8   8   8
#     4  11  21  33  53  78 103 135 174 216 259 300
#     4   9  19  36  55  75 104 140 171 204 254 312
#     4   9  18  33  53  77 106 139 171 205 252 310
#     4   9  19  36  55  75 104 140 171 204 254 312
#     4   9  20  38  54  71 102 140 171 203 252 309
#     4  11  21  33  53  78 103 135 174 216 259 300
#     4   9  18  33  53  77 106 139 171 205 252 310
#
# _framework density 18.084866000000002
#
# number of rings (size 3 to 8) (size 9 to 14) (size 15 to 20)
#    0.000    2.429    0.000    4.286    0.000    6.857 
#    0.000    6.429    0.000    9.429    0.000    0.000 
#    0.000    0.000    0.000    0.000    0.000    0.000 
#
# Total GULP energy -156312.525737 kJ/mol
# GULP energy per Si atom -5582.590205 kJ/mol
# Density = 1.804370 g / cm^3
# Si number density = 18.084866 Si / 1000 Ang^3
#
#
#
# Elastic Constant Matrix: (Units=GPa)
#
#
# Indices 1 2 3 4 5 6 
#
# 1 32.6841 53.0349 39.2526 0.0000 0.0000 0.0000
# 2 53.0349 151.3595 97.6363 0.0000 0.0000 0.0000
# 3 39.2526 97.6363 74.3370 0.0000 0.0000 0.0000
# 4 0.0000 0.0000 0.0000 32.7172 0.0000 0.0000
# 5 0.0000 0.0000 0.0000 0.0000 38.1465 0.0000
# 6 0.0000 0.0000 0.0000 0.0000 0.0000 32.5254
#
#
#
# Elastic Compliance Matrix: (Units=1/GPa)
#
#
# Indices 1 2 3 4 5 6 
#
# 1 0.084298 -0.005394 -0.037428 0.000000 0.000000 0.000000
# 2 -0.005394 0.043595 -0.054411 0.000000 0.000000 0.000000
# 3 -0.037428 -0.054411 0.104680 0.000000 0.000000 0.000000
# 4 0.000000 0.000000 0.000000 0.030565 0.000000 0.000000
# 5 0.000000 0.000000 0.000000 0.000000 0.026215 0.000000
# 6 0.000000 0.000000 0.000000 0.000000 0.000000 0.030745
#
#
# Mechanical properties :
#
#
# Convention : Reuss Voigt Hill
#
# Bulk Modulus (GPa) = 26.24106 70.91424 48.57765
# Shear Modulus (GPa) = 9.48286 25.24161 17.36224
#
# Velocity S-wave (km/s) = 2.29236 3.74000 3.10182
# Velocity P-wave (km/s) = 4.64198 7.61231 6.30457
#
# Compressibility (1/GPa) = 0.03810821
#
# Stress axis : x y z
#
# Youngs Moduli (GPa) = 11.86266 22.93825 9.55290
#
# Poissons Ratio (x) = 0.12373 0.35754
# Poissons Ratio (y) = 0.06399 0.51978
# Poissons Ratio (z) = 0.44399 1.24809
#
# Static dielectric constant tensor:
#      x y z
#    x 1.600590 0.000000 0.000000 
#    y 0.000000 1.635450 0.000000 
#    z 0.000000 0.000000 1.598980 
# 
# From -- ./inp_files/19800.got.cif
#   From: 2010.05.17/outbox.cif.g08.bks.cpg/sg38_10_cif.got.tgz:19800.got - 2010.06.03 18:07:57.
