data_PCOD9359659
_publ_section_title
;
Structure prediction by ZEFSAII (Michael W. Deem and Ramdas Pophale) SiO2 
 PCOD9359659
Probable space group: A B M 2
;
_chemical_formula_sum "Si O2"
_cell_formula_units_Z 32
_cell_length_a 14.624380
_cell_length_b 5.524712
_cell_length_c 13.919379
_cell_angle_alpha 90.000000
_cell_angle_beta 90.000000
_cell_angle_gamma 90.000000
_cell_volume 1124.623014
_symmetry_space_group_name_H-M "A B M 2"
_symmetry_group_IT_number 39
_symmetry_cell_setting 'orthorhombic'
loop_
_space_group_symop_operation_xyz
x,y,z
-x,-y,z
-x,1/2+y,z
x,1/2-y,z
x,1/2+y,1/2+z
-x,1/2-y,1/2+z
-x,y,1/2+z
x,-y,1/2+z
loop_
_atom_site_type_symbol
_atom_site_label
_atom_site_fract_x
_atom_site_fract_y
_atom_site_fract_z
Si Si1 0.280625 0.750000 0.526640
Si Si2 0.972522 0.250000 0.641968
Si Si3 0.447366 0.750000 0.908757
Si Si4 0.784899 0.250000 0.761210
Si Si5 0.953488 0.250000 0.351393
Si Si6 0.239496 0.250000 0.482137
Si Si7 0.743529 0.250000 0.316313
Si Si8 0.554270 0.250000 0.676919
O O1 0.223266 0.501603 0.534924
O O2 0.314520 0.750000 0.414237
O O3 0.359759 0.750000 0.604777
O O4 0.000000 0.500000 0.590925
O O5 0.873400 0.250000 0.694012
O O6 0.038032 0.250000 0.735458
O O7 0.500000 0.500000 0.931910
O O8 0.349160 0.750000 0.961162
O O9 0.432512 0.750000 0.793028
O O10 0.734213 0.508048 0.755102
O O11 0.806165 0.250000 0.876683
O O12 0.845267 0.250000 0.361693
O O13 0.000000 0.500000 0.382809
O O14 0.500000 0.500000 0.657622
#
# Coordination Sequence:
#
# PCOD9359659 Si02
#       8
#     4   4   4   4   4   4   4   4
#     4  10  21  32  48  73 101 127 150 197 243 288
#     4  10  14  20  34  52  77 118 148 178 211 268
#     4  10  21  37  55  72  93 124 163 199 232 282
#     4  10  16  25  36  57  89 119 146 180 229 271
#     4  10  14  20  34  52  77 118 148 178 211 268
#     4  10  21  32  48  73 101 127 150 197 243 288
#     4  10  16  25  36  57  89 119 146 180 229 271
#     4  10  21  37  55  72  93 124 163 199 232 282
#
# _framework density 28.453979
#
# number of rings (size 3 to 8) (size 9 to 14) (size 15 to 20)
#    0.000    2.000    5.000    1.500    0.000    3.000 
#    0.000    0.000    0.000    0.000    0.000    0.000 
#    0.000    2.000    0.000    0.000    0.000   10.000 
#
# Total GULP energy -89626.307414 kJ/mol
# GULP energy per Si atom -5601.644213 kJ/mol
# Density = 2.838922 g / cm^3
# Si number density = 28.453979 Si / 1000 Ang^3
#
#
#
# Elastic Constant Matrix: (Units=GPa)
#
#
# Indices 1 2 3 4 5 6 
#
# 1 106.5130 58.4569 31.5330 0.0000 0.0000 0.0000
# 2 58.4569 334.5446 32.6109 0.0000 0.0000 0.0000
# 3 31.5330 32.6109 141.0068 0.0000 0.0000 0.0000
# 4 0.0000 0.0000 0.0000 -10.9660 0.0000 0.0000
# 5 0.0000 0.0000 0.0000 0.0000 4.8669 0.0000
# 6 0.0000 0.0000 0.0000 0.0000 0.0000 51.1325
#
#
#
# Elastic Compliance Matrix: (Units=1/GPa)
#
#
# Indices 1 2 3 4 5 6 
#
# 1 0.010934 -0.001711 -0.002050 0.000000 0.000000 0.000000
# 2 -0.001711 0.003326 -0.000387 0.000000 0.000000 0.000000
# 3 -0.002050 -0.000387 0.007640 0.000000 0.000000 0.000000
# 4 0.000000 0.000000 0.000000 -0.091191 0.000000 0.000000
# 5 0.000000 0.000000 0.000000 0.000000 0.205468 0.000000
# 6 0.000000 0.000000 0.000000 0.000000 0.000000 0.019557
#
#
# Mechanical properties :
#
#
# Convention : Reuss Voigt Hill
#
# Bulk Modulus (GPa) = 73.49836 91.91843 82.70840
# Shear Modulus (GPa) = 29.66245 39.63759 34.65002
#
# Velocity S-wave (km/s) = 3.23223 3.73640 3.49342
# Velocity P-wave (km/s) = 6.31003 7.14063 6.73814
#
# Compressibility (1/GPa) = 0.01360575
#
# Stress axis : x y z
#
# Youngs Moduli (GPa) = 91.45599 300.68309 130.89706
#
# Poissons Ratio (x) = 0.51441 0.26828
# Poissons Ratio (y) = 0.15646 0.05060
# Poissons Ratio (z) = 0.18744 0.11624
#
# Static dielectric constant tensor:
#      x y z
#    x 2.201160 0.000000 0.000000 
#    y 0.000000 2.321740 0.000000 
#    z 0.000000 0.000000 2.121920 
# 
# From -- ./inp_files/9923.got.cif
#   From: 2010.05.17/outbox.cif.g08.bks.cpg/sg39_5_cif.got.tgz:9923.got - 2010.06.03 18:22:40.
