data_PCOD9359675
_publ_section_title
;
Structure prediction by ZEFSAII (Michael W. Deem and Ramdas Pophale) SiO2 
 PCOD9359675
Probable space group: A B M 2
;
_chemical_formula_sum "Si O2"
_cell_formula_units_Z 64
_cell_length_a 24.317133
_cell_length_b 26.168954
_cell_length_c 5.404767
_cell_angle_alpha 90.000000
_cell_angle_beta 90.000000
_cell_angle_gamma 90.000000
_cell_volume 3439.344748
_symmetry_space_group_name_H-M "A B M 2"
_symmetry_group_IT_number 39
_symmetry_cell_setting 'orthorhombic'
loop_
_space_group_symop_operation_xyz
x,y,z
-x,-y,z
-x,1/2+y,z
x,1/2-y,z
x,1/2+y,1/2+z
-x,1/2-y,1/2+z
-x,y,1/2+z
x,-y,1/2+z
loop_
_atom_site_type_symbol
_atom_site_label
_atom_site_fract_x
_atom_site_fract_y
_atom_site_fract_z
Si Si1 0.522883 0.942267 0.654470
Si Si2 0.078185 0.191989 0.664833
Si Si3 0.938119 0.519588 0.036232
Si Si4 0.788413 0.631861 0.162102
Si Si5 0.348118 0.556074 0.261010
Si Si6 0.303311 0.060180 0.260514
Si Si7 0.079224 0.365728 0.165797
Si Si8 0.787985 0.808647 0.661366
O O1 0.506856 0.917961 0.392066
O O2 0.587623 0.947545 0.701363
O O3 0.500000 0.000000 0.631979
O O4 0.058450 0.250000 0.635359
O O5 0.062206 0.157679 0.429129
O O6 0.145050 0.192887 0.661382
O O7 0.063575 0.169491 0.932693
O O8 0.911302 0.488949 0.266268
O O9 0.942264 0.577889 0.116605
O O10 0.000000 0.500000 0.997212
O O11 0.758326 0.577401 0.196468
O O12 0.854367 0.628498 0.165634
O O13 0.772328 0.666350 0.399118
O O14 0.772304 0.658200 0.902261
O O15 0.319316 0.499840 0.280850
O O16 0.338839 0.580160 0.529077
O O17 0.319849 0.582211 0.026531
O O18 0.769025 0.750000 0.682076
#
# Coordination Sequence:
#
# PCOD9359675 Si02
#       8
#     8   8   8   8   8   8   8   8
#     4  10  16  25  41  60  76 104 159 207 233 267
#     4   9  17  30  52  79 107 129 150 192 261 308
#     4  10  21  38  56  77  98 132 176 205 253 292
#     4  10  19  30  46  69  95 124 161 195 230 275
#     4  10  19  30  42  57  88 127 166 187 231 278
#     4  10  18  30  40  57  86 126 162 186 222 275
#     4  10  19  33  51  78 104 126 166 215 238 290
#     4   9  17  30  47  67  93 122 153 193 236 283
#
# _framework density 18.608194999999998
#
# number of rings (size 3 to 8) (size 9 to 14) (size 15 to 20)
#    0.000    2.250    0.000    6.000    0.000    3.000 
#    4.500    0.000    0.000    0.000    0.000   35.000 
#    0.000    0.000    0.000    0.000    0.000  532.500 
#
# Total GULP energy -178367.595246 kJ/mol
# GULP energy per Si atom -5573.987351 kJ/mol
# Density = 1.856584 g / cm^3
# Si number density = 18.608195 Si / 1000 Ang^3
#
#
#
# Elastic Constant Matrix: (Units=GPa)
#
#
# Indices 1 2 3 4 5 6 
#
# 1 44.9558 9.8911 -8.6221 0.0000 0.0000 0.0000
# 2 9.8911 38.7688 -8.6335 0.0000 0.0000 0.0000
# 3 -8.6221 -8.6335 121.3758 0.0000 0.0000 0.0000
# 4 0.0000 0.0000 0.0000 22.2056 0.0000 0.0000
# 5 0.0000 0.0000 0.0000 0.0000 23.5911 0.0000
# 6 0.0000 0.0000 0.0000 0.0000 0.0000 -4.0787
#
#
#
# Elastic Compliance Matrix: (Units=1/GPa)
#
#
# Indices 1 2 3 4 5 6 
#
# 1 0.023760 -0.005778 0.001277 0.000000 0.000000 0.000000
# 2 -0.005778 0.027614 0.001554 0.000000 0.000000 0.000000
# 3 0.001277 0.001554 0.008440 0.000000 0.000000 0.000000
# 4 0.000000 0.000000 0.000000 0.045034 0.000000 0.000000
# 5 0.000000 0.000000 0.000000 0.000000 0.042389 0.000000
# 6 0.000000 0.000000 0.000000 0.000000 0.000000 -0.245176
#
#
# Mechanical properties :
#
#
# Convention : Reuss Voigt Hill
#
# Bulk Modulus (GPa) = 18.54587 21.15238 19.84913
# Shear Modulus (GPa) = -67.50217 22.50792 -22.49713
#
# Velocity S-wave (km/s) = -6.02945 3.48166 -3.48083
# Velocity P-wave (km/s) = 6.20356 5.24924 2.33770
#
# Compressibility (1/GPa) = 0.05392036
#
# Stress axis : x y z
#
# Youngs Moduli (GPa) = 42.08735 36.21350 118.48205
#
# Poissons Ratio (x) = 0.20923 -0.15129
# Poissons Ratio (y) = 0.24316 -0.18409
# Poissons Ratio (z) = -0.05374 -0.05627
#
# Static dielectric constant tensor:
#      x y z
#    x 1.664700 0.000000 0.000000 
#    y 0.000000 1.601950 0.000000 
#    z 0.000000 0.000000 1.751940 
# 
# From -- ./inp_files/1458.got.cif
#   From: 2010.05.17/outbox.cif.g08.bks.cpg/sg39_1_cif.got.tgz:1458.got - 2010.06.03 18:22:40.
