data_PCOD9359432
_publ_section_title
;
Structure prediction by ZEFSAII (Michael W. Deem and Ramdas Pophale) SiO2 
 PCOD9359432
Probable space group: A M M 2
;
_chemical_formula_sum "Si O2"
_cell_formula_units_Z 58
_cell_length_a 14.743493
_cell_length_b 9.476964
_cell_length_c 23.842785
_cell_angle_alpha 90.000000
_cell_angle_beta 90.000000
_cell_angle_gamma 90.000000
_cell_volume 3331.398619
_symmetry_space_group_name_H-M "A M M 2"
_symmetry_group_IT_number 38
_symmetry_cell_setting 'orthorhombic'
loop_
_space_group_symop_operation_xyz
x,y,z
-x,-y,z
-x,y,z
x,-y,z
x,1/2+y,1/2+z
-x,1/2-y,1/2+z
-x,1/2+y,1/2+z
x,1/2-y,1/2+z
loop_
_atom_site_type_symbol
_atom_site_label
_atom_site_fract_x
_atom_site_fract_y
_atom_site_fract_z
Si Si1 0.500000 0.000000 0.768770
Si Si2 0.744524 0.166849 0.632613
Si Si3 0.690379 0.845215 0.760402
Si Si4 0.107124 0.831846 0.066960
Si Si5 0.606112 0.159291 0.928601
Si Si6 0.606271 0.658379 0.562882
Si Si7 0.248979 0.832435 0.363937
Si Si8 0.108616 0.333623 0.437805
O O1 0.417438 0.121407 0.767055
O O2 0.715220 0.192989 0.696697
O O3 0.833546 0.247568 0.611348
O O4 0.664664 0.225363 0.593366
O O5 0.755873 0.000000 0.625617
O O6 0.729873 0.732471 0.803185
O O7 0.733471 0.000000 0.772367
O O8 0.000000 0.803433 0.072669
O O9 0.120470 0.000000 0.073217
O O10 0.133858 0.796588 0.002408
O O11 0.500000 0.172516 0.914272
O O12 0.666330 0.277427 0.900766
O O13 0.633934 0.000000 0.910199
O O14 0.614932 0.165788 0.995668
O O15 0.500000 0.672765 0.576080
O O16 0.636010 0.500000 0.579741
O O17 0.162598 0.760293 0.393765
O O18 0.241247 0.000000 0.363190
O O19 0.129996 0.500000 0.430216
O O20 0.000000 0.318019 0.432938
#
# Coordination Sequence:
#
# PCOD9359432 Si02
#       8
#     2   8   8   8   8   8   8   8
#     4   8  20  44  66  72  98 156 218 240 268 326
#     4  11  22  34  56  83 112 143 182 235 286 334
#     4   9  22  40  60  76 103 149 202 233 273 331
#     4   9  19  37  61  87 115 151 191 228 273 336
#     4   9  19  35  54  74 104 147 187 220 267 335
#     4   9  19  34  52  77 107 144 184 221 269 336
#     4  12  24  35  53  84 116 140 180 238 296 340
#     4   9  19  38  63  86 111 151 196 228 267 337
#
# _framework density 17.410105000000001
#
# number of rings (size 3 to 8) (size 9 to 14) (size 15 to 20)
#    0.414    1.931    0.000    4.138    1.931    6.621 
#    0.000    3.448    0.000    0.828    0.000    0.000 
#    0.000    0.000    0.000    0.000    0.000    0.000 
#
# Total GULP energy -161489.750833 kJ/mol
# GULP energy per Si atom -5568.612098 kJ/mol
# Density = 1.737048 g / cm^3
# Si number density = 17.410105 Si / 1000 Ang^3
#
#
#
# Elastic Constant Matrix: (Units=GPa)
#
#
# Indices 1 2 3 4 5 6 
#
# 1 66.0324 42.6817 41.6200 0.0000 0.0000 0.0000
# 2 42.6817 88.4591 53.6668 0.0000 0.0000 0.0000
# 3 41.6200 53.6668 68.2230 0.0000 0.0000 0.0000
# 4 0.0000 0.0000 0.0000 24.0484 0.0000 0.0000
# 5 0.0000 0.0000 0.0000 0.0000 36.0868 0.0000
# 6 0.0000 0.0000 0.0000 0.0000 0.0000 35.5852
#
#
#
# Elastic Compliance Matrix: (Units=1/GPa)
#
#
# Indices 1 2 3 4 5 6 
#
# 1 0.025971 -0.005584 -0.011452 0.000000 0.000000 0.000000
# 2 -0.005584 0.022825 -0.014549 0.000000 0.000000 0.000000
# 3 -0.011452 -0.014549 0.033089 0.000000 0.000000 0.000000
# 4 0.000000 0.000000 0.000000 0.041583 0.000000 0.000000
# 5 0.000000 0.000000 0.000000 0.000000 0.027711 0.000000
# 6 0.000000 0.000000 0.000000 0.000000 0.000000 0.028102
#
#
# Mechanical properties :
#
#
# Convention : Reuss Voigt Hill
#
# Bulk Modulus (GPa) = 53.42785 55.40572 54.41678
# Shear Modulus (GPa) = 20.10550 24.79382 22.44966
#
# Velocity S-wave (km/s) = 3.40195 3.77783 3.59480
# Velocity P-wave (km/s) = 6.79599 7.13598 6.96806
#
# Compressibility (1/GPa) = 0.01871683
#
# Stress axis : x y z
#
# Youngs Moduli (GPa) = 38.50438 43.81078 30.22165
#
# Poissons Ratio (x) = 0.24462 0.34609
# Poissons Ratio (y) = 0.21499 0.43970
# Poissons Ratio (z) = 0.44094 0.63741
#
# Static dielectric constant tensor:
#      x y z
#    x 1.597100 0.000000 0.000000 
#    y 0.000000 1.573990 0.000000 
#    z 0.000000 0.000000 1.603590 
# 
# From -- ./inp_files/22805.got.cif
#   From: 2010.05.17/outbox.cif.g08.bks.cpg/sg38_12_cif.got.tgz:22805.got - 2010.06.03 18:07:57.
