data_PCOD9359786
_publ_section_title
;
Structure prediction by ZEFSAII (Michael W. Deem and Ramdas Pophale) SiO2 
 PCOD9359786
Probable space group: A B M 2
;
_chemical_formula_sum "Si O2"
_cell_formula_units_Z 60
_cell_length_a 13.567062
_cell_length_b 9.510704
_cell_length_c 27.898508
_cell_angle_alpha 90.000000
_cell_angle_beta 90.000000
_cell_angle_gamma 90.000000
_cell_volume 3599.808956
_symmetry_space_group_name_H-M "A B M 2"
_symmetry_group_IT_number 39
_symmetry_cell_setting 'orthorhombic'
loop_
_space_group_symop_operation_xyz
x,y,z
-x,-y,z
-x,1/2+y,z
x,1/2-y,z
x,1/2+y,1/2+z
-x,1/2-y,1/2+z
-x,y,1/2+z
x,-y,1/2+z
loop_
_atom_site_type_symbol
_atom_site_label
_atom_site_fract_x
_atom_site_fract_y
_atom_site_fract_z
Si Si1 0.699034 0.586579 0.786150
Si Si2 0.500000 0.500000 0.128825
Si Si3 0.908172 0.415471 0.231785
Si Si4 0.396800 0.417926 0.367421
Si Si5 0.399139 0.583684 0.978411
Si Si6 0.620248 0.604513 0.211228
Si Si7 0.818986 0.589683 0.148972
Si Si8 0.301201 0.415455 0.574221
O O1 0.681080 0.750000 0.796612
O O2 0.808517 0.572783 0.763539
O O3 0.681299 0.488601 0.831864
O O4 0.622655 0.528561 0.745984
O O5 0.545125 0.605658 0.167500
O O6 0.590833 0.441705 0.098211
O O7 0.929607 0.250000 0.226303
O O8 0.888625 0.489416 0.180349
O O9 0.000000 0.500000 0.253745
O O10 0.500000 0.500000 0.359288
O O11 0.407549 0.250000 0.360394
O O12 0.369787 0.441211 0.423365
O O13 0.500000 0.500000 0.987571
O O14 0.419740 0.750000 0.983948
O O15 0.318123 0.548241 0.018491
O O16 0.611643 0.750000 0.239660
O O17 0.724357 0.601637 0.183900
O O18 0.854602 0.750000 0.140508
O O19 0.777482 0.511911 0.101811
O O20 0.277220 0.250000 0.579645
#
# Coordination Sequence:
#
# PCOD9359786 Si02
#       8
#     8   4   8   8   8   8   8   8
#     4  10  21  35  50  70  97 129 166 204 248 298
#     4  10  18  26  42  62  88 124 166 200 244 280
#     4  10  20  35  56  79 103 131 162 202 249 301
#     4  10  20  34  51  70  97 133 173 213 255 299
#     4   9  18  31  47  68  93 127 170 214 255 296
#     4   9  18  29  41  60  88 122 159 196 234 279
#     4   9  18  31  46  68  97 127 159 195 239 290
#     4  10  18  29  45  66  95 128 165 208 249 291
#
# _framework density 16.667551
#
# number of rings (size 3 to 8) (size 9 to 14) (size 15 to 20)
#    0.000    2.400    0.667    2.000    0.933    6.933 
#    0.000    0.000    0.000    0.000    0.000    0.933 
#    0.000    2.133    0.000    0.000    0.000    0.000 
#
# Total GULP energy -167046.972895 kJ/mol
# GULP energy per Si atom -5568.232430 kJ/mol
# Density = 1.662961 g / cm^3
# Si number density = 16.667551 Si / 1000 Ang^3
#
#
#
# Elastic Constant Matrix: (Units=GPa)
#
#
# Indices 1 2 3 4 5 6 
#
# 1 44.7605 35.5134 22.5360 0.0000 0.0000 0.0000
# 2 35.5134 128.4337 53.9857 0.0000 0.0000 0.0000
# 3 22.5360 53.9857 91.5095 0.0000 0.0000 0.0000
# 4 0.0000 0.0000 0.0000 20.4874 0.0000 0.0000
# 5 0.0000 0.0000 0.0000 0.0000 14.0870 0.0000
# 6 0.0000 0.0000 0.0000 0.0000 0.0000 7.6450
#
#
#
# Elastic Compliance Matrix: (Units=1/GPa)
#
#
# Indices 1 2 3 4 5 6 
#
# 1 0.029326 -0.006746 -0.003242 0.000000 0.000000 0.000000
# 2 -0.006746 0.011905 -0.005362 0.000000 0.000000 0.000000
# 3 -0.003242 -0.005362 0.014890 0.000000 0.000000 0.000000
# 4 0.000000 0.000000 0.000000 0.048810 0.000000 0.000000
# 5 0.000000 0.000000 0.000000 0.000000 0.070987 0.000000
# 6 0.000000 0.000000 0.000000 0.000000 0.000000 0.130804
#
#
# Mechanical properties :
#
#
# Convention : Reuss Voigt Hill
#
# Bulk Modulus (GPa) = 39.33914 54.30822 46.82368
# Shear Modulus (GPa) = 14.45513 18.62179 16.53846
#
# Velocity S-wave (km/s) = 2.94813 3.34615 3.15343
# Velocity P-wave (km/s) = 5.93650 6.89804 6.43525
#
# Compressibility (1/GPa) = 0.02541998
#
# Stress axis : x y z
#
# Youngs Moduli (GPa) = 34.09948 83.99504 67.16048
#
# Poissons Ratio (x) = 0.56664 0.21775
# Poissons Ratio (y) = 0.23004 0.36013
# Poissons Ratio (z) = 0.11056 0.45040
#
# Static dielectric constant tensor:
#      x y z
#    x 1.590360 0.000000 0.000000 
#    y 0.000000 1.662730 0.000000 
#    z 0.000000 0.000000 1.568690 
# 
# From -- ./inp_files/17163.got.cif
#   From: 2010.05.17/outbox.cif.g08.bks.cpg/sg39_9_cif.got.tgz:17163.got - 2010.06.03 18:22:40.
