data_PCOD9359196
_publ_section_title
;
Structure prediction by ZEFSAII (Michael W. Deem and Ramdas Pophale) SiO2 
 PCOD9359196
Probable space group: A M M 2
;
_chemical_formula_sum "Si O2"
_cell_formula_units_Z 64
_cell_length_a 8.873674
_cell_length_b 30.708574
_cell_length_c 14.869030
_cell_angle_alpha 90.000000
_cell_angle_beta 90.000000
_cell_angle_gamma 90.000000
_cell_volume 4051.779074
_symmetry_space_group_name_H-M "A M M 2"
_symmetry_group_IT_number 38
_symmetry_cell_setting 'orthorhombic'
loop_
_space_group_symop_operation_xyz
x,y,z
-x,-y,z
-x,y,z
x,-y,z
x,1/2+y,1/2+z
-x,1/2-y,1/2+z
-x,1/2+y,1/2+z
x,1/2-y,1/2+z
loop_
_atom_site_type_symbol
_atom_site_label
_atom_site_fract_x
_atom_site_fract_y
_atom_site_fract_z
Si Si1 0.318581 0.708495 0.057440
Si Si2 0.319184 0.050482 0.960986
Si Si3 0.820637 0.134779 0.024942
Si Si4 0.672812 0.673327 0.347530
Si Si5 0.822157 0.366235 0.174435
Si Si6 0.681089 0.949828 0.750070
Si Si7 0.326308 0.277649 0.852614
Si Si8 0.821175 0.709290 0.664703
O O1 0.500000 0.710227 0.061678
O O2 0.259145 0.664113 0.101488
O O3 0.256466 0.749955 0.113423
O O4 0.271719 0.710943 0.952820
O O5 0.500000 0.055488 0.968830
O O6 0.280534 0.059025 0.855473
O O7 0.282448 0.000000 0.979501
O O8 0.236079 0.085146 0.023539
O O9 0.788058 0.164645 0.111296
O O10 0.000000 0.136058 0.009004
O O11 0.732310 0.156733 0.942396
O O12 0.500000 0.658421 0.331949
O O13 0.779066 0.656039 0.269236
O O14 0.673813 0.725298 0.347120
O O15 0.759098 0.414983 0.185884
O O16 0.000000 0.366177 0.160060
O O17 0.500000 0.946231 0.742892
O O18 0.722356 0.000000 0.731536
O O19 0.500000 0.292407 0.844090
O O20 0.233487 0.293689 0.767167
O O21 0.000000 0.716905 0.661821
#
# Coordination Sequence:
#
# PCOD9359196 Si02
#       8
#     8   8   8   8   8   8   8   8
#     4  11  22  37  54  73  99 135 178 215 251 299
#     4   9  18  32  51  74 100 134 173 211 253 301
#     4  11  22  33  48  76 106 138 173 207 255 309
#     4  11  20  32  50  72 101 138 176 214 250 292
#     4  12  23  33  49  77 106 137 172 209 256 307
#     4   9  18  33  52  74 102 136 172 209 251 301
#     4  10  22  37  54  73  97 135 180 219 252 293
#     4  11  23  35  51  75 105 136 169 211 258 306
#
# _framework density 15.795529999999999
#
# number of rings (size 3 to 8) (size 9 to 14) (size 15 to 20)
#    0.000    1.500    3.750    3.375    0.000    3.500 
#    0.000    1.250    0.000    0.000    0.000    0.875 
#    0.000    5.000    0.000    0.000    0.000    0.000 
#
# Total GULP energy -178630.370590 kJ/mol
# GULP energy per Si atom -5582.199081 kJ/mol
# Density = 1.575958 g / cm^3
# Si number density = 15.795530 Si / 1000 Ang^3
#
#
#
# Elastic Constant Matrix: (Units=GPa)
#
#
# Indices 1 2 3 4 5 6 
#
# 1 53.6971 38.7953 36.3462 0.0000 0.0000 0.0000
# 2 38.7953 105.3340 47.1381 0.0000 0.0000 0.0000
# 3 36.3462 47.1381 97.0882 0.0000 0.0000 0.0000
# 4 0.0000 0.0000 0.0000 21.0865 0.0000 0.0000
# 5 0.0000 0.0000 0.0000 0.0000 17.7381 0.0000
# 6 0.0000 0.0000 0.0000 0.0000 0.0000 19.8528
#
#
#
# Elastic Compliance Matrix: (Units=1/GPa)
#
#
# Indices 1 2 3 4 5 6 
#
# 1 0.028847 -0.007400 -0.007207 0.000000 0.000000 0.000000
# 2 -0.007400 0.014027 -0.004040 0.000000 0.000000 0.000000
# 3 -0.007207 -0.004040 0.014959 0.000000 0.000000 0.000000
# 4 0.000000 0.000000 0.000000 0.047424 0.000000 0.000000
# 5 0.000000 0.000000 0.000000 0.000000 0.056376 0.000000
# 6 0.000000 0.000000 0.000000 0.000000 0.000000 0.050371
#
#
# Mechanical properties :
#
#
# Convention : Reuss Voigt Hill
#
# Bulk Modulus (GPa) = 48.68413 55.63096 52.15755
# Shear Modulus (GPa) = 19.52030 20.65810 20.08920
#
# Velocity S-wave (km/s) = 3.51922 3.62034 3.57014
# Velocity P-wave (km/s) = 6.88488 7.26441 7.07719
#
# Compressibility (1/GPa) = 0.02054057
#
# Stress axis : x y z
#
# Youngs Moduli (GPa) = 34.66563 71.29124 66.84749
#
# Poissons Ratio (x) = 0.52752 0.48175
# Poissons Ratio (y) = 0.25651 0.27008
# Poissons Ratio (z) = 0.24982 0.28803
#
# Static dielectric constant tensor:
#      x y z
#    x 1.531560 0.000000 0.000000 
#    y 0.000000 1.540330 0.000000 
#    z 0.000000 0.000000 1.511220 
# 
# From -- ./inp_files/13117.got.cif
#   From: 2010.05.17/outbox.cif.g08.bks.cpg/sg38_7_cif.got.tgz:13117.got - 2010.06.03 18:07:57.
