data_PCOD9359590
_publ_section_title
;
Structure prediction by ZEFSAII (Michael W. Deem and Ramdas Pophale) SiO2 
 PCOD9359590
Probable space group: A M M 2
;
_chemical_formula_sum "Si O2"
_cell_formula_units_Z 28
_cell_length_a 21.000000
_cell_length_b 9.000000
_cell_length_c 15.000000
_cell_angle_alpha 90.000000
_cell_angle_beta 90.000000
_cell_angle_gamma 90.000000
_cell_volume 2835.000000
_symmetry_space_group_name_H-M "A M M 2"
_symmetry_group_IT_number 38
_symmetry_cell_setting 'orthorhombic'
loop_
_space_group_symop_operation_xyz
x,y,z
-x,-y,z
-x,y,z
x,-y,z
x,1/2+y,1/2+z
-x,1/2-y,1/2+z
-x,1/2+y,1/2+z
x,1/2-y,1/2+z
loop_
_atom_site_type_symbol
_atom_site_label
_atom_site_fract_x
_atom_site_fract_y
_atom_site_fract_z
Si Si1 0.294344 0.332457 0.524800
Si Si2 0.926602 0.179422 0.667510
Si Si3 0.299307 0.665666 0.312408
Si Si4 0.166327 0.677472 0.013186
Si Si5 0.430288 0.670526 0.778384
Si Si6 0.431592 0.172179 0.064191
Si Si7 0.829570 0.822689 0.304783
O O1 0.294807 0.500000 0.563694
O O2 0.289686 0.344018 0.418418
O O3 0.231109 0.247002 0.552386
O O4 0.363314 0.259058 0.541421
O O5 0.893371 0.220828 0.573826
O O6 0.883174 0.248841 0.744280
O O7 0.000000 0.226651 0.672271
O O8 0.924659 0.000000 0.674623
O O9 0.296223 0.500000 0.273724
O O10 0.368948 0.734357 0.301055
O O11 0.240789 0.764502 0.278429
O O12 0.172989 0.500000 0.016263
O O13 0.159290 0.717651 0.909062
O O14 0.500000 0.725706 0.809480
O O15 0.422420 0.500000 0.809370
O O16 0.433057 0.666674 0.671067
O O17 0.500000 0.237144 0.034554
O O18 0.429678 0.000000 0.031167
O O19 0.831438 0.000000 0.296689
#
# Coordination Sequence:
#
# PCOD9359590 Si02
#       7
#     8   8   8   8   8   8   8
#     4   9  18  32  52  77 102 134 178 226 272 321
#     4  10  22  40  61  87 118 150 182 221 278 338
#     4  10  20  33  51  77 108 140 178 228 282 329
#     4   9  20  38  58  82 114 150 184 225 278 333
#     4   9  18  32  49  71 102 140 182 228 277 328
#     4   8  15  29  48  70  97 132 175 220 266 315
#     4  10  21  38  60  85 115 151 191 232 273 328
#
# _framework density 9.8765429999999999
#
# number of rings (size 3 to 8) (size 9 to 14) (size 15 to 20)
#    0.000    2.714    0.000    1.714    2.000    3.429 
#    0.000    2.857    0.000    1.286    0.000    0.000 
#    0.000    0.000    0.000    0.000    0.000    0.000 
#
# Total GULP energy -156051.436106 kJ/mol
# GULP energy per Si atom -5573.265575 kJ/mol
# Density = 0.985406 g / cm^3
# Si number density = 9.876543 Si / 1000 Ang^3
#
#
#
# Elastic Constant Matrix: (Units=GPa)
#
#
# Indices 1 2 3 4 5 6 
#
# 1 199.6683 57.5816 46.9404 0.0000 0.0000 0.0000
# 2 57.5816 32.3437 28.5980 0.0000 0.0000 0.0000
# 3 46.9404 28.5980 53.5222 0.0000 0.0000 0.0000
# 4 0.0000 0.0000 0.0000 13.5991 0.0000 0.0000
# 5 0.0000 0.0000 0.0000 0.0000 40.2750 0.0000
# 6 0.0000 0.0000 0.0000 0.0000 0.0000 28.3732
#
#
#
# Elastic Compliance Matrix: (Units=1/GPa)
#
#
# Indices 1 2 3 4 5 6 
#
# 1 0.010352 -0.019718 0.001457 0.000000 0.000000 0.000000
# 2 -0.019718 0.096163 -0.034088 0.000000 0.000000 0.000000
# 3 0.001457 -0.034088 0.035621 0.000000 0.000000 0.000000
# 4 0.000000 0.000000 0.000000 0.073534 0.000000 0.000000
# 5 0.000000 0.000000 0.000000 0.000000 0.024829 0.000000
# 6 0.000000 0.000000 0.000000 0.000000 0.000000 0.035245
#
#
# Mechanical properties :
#
#
# Convention : Reuss Voigt Hill
#
# Bulk Modulus (GPa) = 26.71240 61.30823 44.01032
# Shear Modulus (GPa) = 12.72514 26.61042 19.66778
#
# Velocity S-wave (km/s) = 2.54088 3.67434 3.15887
# Velocity P-wave (km/s) = 4.70751 7.00755 5.96935
#
# Compressibility (1/GPa) = 0.03743579
#
# Stress axis : x y z
#
# Youngs Moduli (GPa) = 96.59630 10.39898 28.07371
#
# Poissons Ratio (x) = 0.20505 -0.04089
# Poissons Ratio (y) = 1.90471 0.95699
# Poissons Ratio (z) = -0.14070 0.35449
#
# Static dielectric constant tensor:
#      x y z
#    x 1.696690 0.000000 0.000000 
#    y 0.000000 1.701860 0.000000 
#    z 0.000000 0.000000 1.715730 
# 
# From -- ./inp_files/15447.got.cif
#   From: 2010.05.17/outbox.ucp.g08.bks.cvg/sg38_8_cif.got.tgz:15447.got - 2010.06.11 10:39:43.
