data_PCOD9359792
_publ_section_title
;
Structure prediction by ZEFSAII (Michael W. Deem and Ramdas Pophale) SiO2 
 PCOD9359792
Probable space group: A B M 2
;
_chemical_formula_sum "Si O2"
_cell_formula_units_Z 48
_cell_length_a 13.561510
_cell_length_b 8.731292
_cell_length_c 23.618617
_cell_angle_alpha 90.000000
_cell_angle_beta 90.000000
_cell_angle_gamma 90.000000
_cell_volume 2796.668719
_symmetry_space_group_name_H-M "A B M 2"
_symmetry_group_IT_number 39
_symmetry_cell_setting 'orthorhombic'
loop_
_space_group_symop_operation_xyz
x,y,z
-x,-y,z
-x,1/2+y,z
x,1/2-y,z
x,1/2+y,1/2+z
-x,1/2-y,1/2+z
-x,y,1/2+z
x,-y,1/2+z
loop_
_atom_site_type_symbol
_atom_site_label
_atom_site_fract_x
_atom_site_fract_y
_atom_site_fract_z
Si Si1 0.904656 0.921902 0.082060
Si Si2 0.608453 0.932993 0.582144
Si Si3 0.106929 0.064538 0.268096
Si Si4 0.225832 0.069277 0.491757
Si Si5 0.737276 0.577080 0.176761
Si Si6 0.894413 0.566978 0.894287
O O1 0.922872 0.750000 0.060298
O O2 0.798221 0.984588 0.230672
O O3 0.865026 0.031368 0.033172
O O4 0.000000 0.000000 0.107319
O O5 0.606411 0.750000 0.581160
O O6 0.679847 0.981961 0.529605
O O7 0.500000 0.000000 0.575127
O O8 0.653920 0.985396 0.642633
O O9 0.102688 0.250000 0.266109
O O10 0.119240 0.005152 0.332062
O O11 0.000000 0.000000 0.248601
O O12 0.234068 0.250000 0.480925
O O13 0.177368 0.912086 0.629740
O O14 0.195632 0.982132 0.434783
O O15 0.701595 0.750000 0.189453
O O16 0.901895 0.750000 0.890853
O O17 0.000000 0.500000 0.915429
#
# Coordination Sequence:
#
# PCOD9359792 Si02
#       6
#     8   8   8   8   8   8
#     4  10  18  28  43  67  98 130 161 198 242 293
#     4  10  21  36  57  79 101 128 162 207 259 309
#     4  10  19  32  50  74 105 141 175 209 244 289
#     4  10  20  34  50  71  97 129 166 205 249 299
#     4   9  19  33  50  72 100 132 167 205 248 295
#     4  11  21  33  50  73 103 140 175 210 246 291
#
# _framework density 17.163276
#
# number of rings (size 3 to 8) (size 9 to 14) (size 15 to 20)
#    0.000    2.000    0.000    5.500    0.000    4.000 
#    0.000    0.000    0.000    1.000    0.000    4.667 
#    0.000    0.000    0.000    0.000    0.000    0.000 
#
# Total GULP energy -133733.909902 kJ/mol
# GULP energy per Si atom -5572.246246 kJ/mol
# Density = 1.712421 g / cm^3
# Si number density = 17.163276 Si / 1000 Ang^3
#
#
#
# Elastic Constant Matrix: (Units=GPa)
#
#
# Indices 1 2 3 4 5 6 
#
# 1 92.3029 43.8467 47.4168 0.0000 0.0000 0.0000
# 2 43.8467 62.2245 21.2040 0.0000 0.0000 0.0000
# 3 47.4168 21.2040 86.6491 0.0000 0.0000 0.0000
# 4 0.0000 0.0000 0.0000 22.3382 0.0000 0.0000
# 5 0.0000 0.0000 0.0000 0.0000 22.9399 0.0000
# 6 0.0000 0.0000 0.0000 0.0000 0.0000 26.3386
#
#
#
# Elastic Compliance Matrix: (Units=1/GPa)
#
#
# Indices 1 2 3 4 5 6 
#
# 1 0.020778 -0.011746 -0.008496 0.000000 0.000000 0.000000
# 2 -0.011746 0.024173 0.000512 0.000000 0.000000 0.000000
# 3 -0.008496 0.000512 0.016065 0.000000 0.000000 0.000000
# 4 0.000000 0.000000 0.000000 0.044766 0.000000 0.000000
# 5 0.000000 0.000000 0.000000 0.000000 0.043592 0.000000
# 6 0.000000 0.000000 0.000000 0.000000 0.000000 0.037967
#
#
# Mechanical properties :
#
#
# Convention : Reuss Voigt Hill
#
# Bulk Modulus (GPa) = 46.38980 51.79019 49.08999
# Shear Modulus (GPa) = 21.36872 22.90395 22.13634
#
# Velocity S-wave (km/s) = 3.53232 3.65701 3.59521
# Velocity P-wave (km/s) = 6.61238 6.93341 6.77480
#
# Compressibility (1/GPa) = 0.02155646
#
# Stress axis : x y z
#
# Youngs Moduli (GPa) = 48.12735 41.36800 62.24851
#
# Poissons Ratio (x) = 0.48592 0.52886
# Poissons Ratio (y) = 0.56532 -0.03190
# Poissons Ratio (z) = 0.40889 -0.02120
#
# Static dielectric constant tensor:
#      x y z
#    x 1.601870 0.000000 0.000000 
#    y 0.000000 1.598480 0.000000 
#    z 0.000000 0.000000 1.603290 
# 
# From -- ./inp_files/15973.got.cif
#   From: 2010.05.17/outbox.cif.g08.bks.cpg/sg39_8_cif.got.tgz:15973.got - 2010.06.03 18:22:40.
