data_PCOD9359549
_publ_section_title
;
Structure prediction by ZEFSAII (Michael W. Deem and Ramdas Pophale) SiO2 
 PCOD9359549
Probable space group: A M M 2
;
_chemical_formula_sum "Si O2"
_cell_formula_units_Z 32
_cell_length_a 9.000000
_cell_length_b 30.000000
_cell_length_c 12.000000
_cell_angle_alpha 90.000000
_cell_angle_beta 90.000000
_cell_angle_gamma 90.000000
_cell_volume 3240.000000
_symmetry_space_group_name_H-M "A M M 2"
_symmetry_group_IT_number 38
_symmetry_cell_setting 'orthorhombic'
loop_
_space_group_symop_operation_xyz
x,y,z
-x,-y,z
-x,y,z
x,-y,z
x,1/2+y,1/2+z
-x,1/2-y,1/2+z
-x,1/2+y,1/2+z
x,1/2-y,1/2+z
loop_
_atom_site_type_symbol
_atom_site_label
_atom_site_fract_x
_atom_site_fract_y
_atom_site_fract_z
Si Si1 0.320778 0.050554 0.541680
Si Si2 0.328235 0.837324 0.230267
Si Si3 0.823397 0.717607 0.897779
Si Si4 0.666250 0.870682 0.982345
Si Si5 0.818267 0.647809 0.089808
Si Si6 0.835437 0.450410 0.562211
Si Si7 0.824470 0.311050 0.322829
Si Si8 0.174061 0.573551 0.814029
O O1 0.500000 0.054962 0.541227
O O2 0.250895 0.097520 0.588578
O O3 0.253550 0.050360 0.416773
O O4 0.287234 0.000000 0.588859
O O5 0.500000 0.829721 0.261611
O O6 0.221236 0.799440 0.275563
O O7 0.320917 0.844287 0.098562
O O8 0.264453 0.881728 0.287287
O O9 0.764138 0.768242 0.891747
O O10 0.000000 0.718972 0.914085
O O11 0.771278 0.680058 0.986278
O O12 0.500000 0.865663 0.938322
O O13 0.705422 0.920890 0.013914
O O14 0.785406 0.853226 0.896751
O O15 0.772429 0.676090 0.199120
O O16 0.000000 0.643175 0.087973
O O17 0.830945 0.500000 0.517742
O O18 0.823193 0.451443 0.696202
O O19 0.000000 0.430679 0.539613
O O20 0.000000 0.303968 0.312915
O O21 0.000000 0.582721 0.840977
#
# Coordination Sequence:
#
# PCOD9359549 Si02
#       8
#     8   8   8   8   8   8   8   8
#     4  11  23  37  56  85 121 162 204 248 304 363
#     4  10  20  34  54  84 120 154 190 233 285 347
#     4  10  21  37  62  91 117 150 191 241 299 357
#     4  10  22  38  56  83 119 155 195 240 289 347
#     4  10  22  41  62  90 122 154 202 254 300 359
#     4   9  18  33  55  83 114 152 198 245 296 351
#     4  10  23  41  63  88 117 155 200 249 300 354
#     4  10  18  31  53  83 118 154 192 238 292 349
#
# _framework density 9.8765429999999999
#
# number of rings (size 3 to 8) (size 9 to 14) (size 15 to 20)
#    0.000    2.000    1.250    1.875    1.750    4.750 
#    0.000    0.625    0.000    0.750    0.000    0.000 
#    0.000    0.000    0.000    0.000    0.000    0.000 
#
# Total GULP energy -178154.166998 kJ/mol
# GULP energy per Si atom -5567.317719 kJ/mol
# Density = 0.985406 g / cm^3
# Si number density = 9.876543 Si / 1000 Ang^3
#
#
#
# Elastic Constant Matrix: (Units=GPa)
#
#
# Indices 1 2 3 4 5 6 
#
# 1 -5.6358 10.1219 10.8551 0.0000 0.0000 0.0000
# 2 10.1219 84.1214 36.9561 0.0000 0.0000 0.0000
# 3 10.8551 36.9561 45.8714 0.0000 0.0000 0.0000
# 4 0.0000 0.0000 0.0000 -11.2272 0.0000 0.0000
# 5 0.0000 0.0000 0.0000 0.0000 17.3269 0.0000
# 6 0.0000 0.0000 0.0000 0.0000 0.0000 8.6708
#
#
#
# Elastic Compliance Matrix: (Units=1/GPa)
#
#
# Indices 1 2 3 4 5 6 
#
# 1 -0.121368 0.003074 0.026244 0.000000 0.000000 0.000000
# 2 0.003074 0.018322 -0.015489 0.000000 0.000000 0.000000
# 3 0.026244 -0.015489 0.028068 0.000000 0.000000 0.000000
# 4 0.000000 0.000000 0.000000 -0.089069 0.000000 0.000000
# 5 0.000000 0.000000 0.000000 0.000000 0.057714 0.000000
# 6 0.000000 0.000000 0.000000 0.000000 0.000000 0.115329
#
#
# Mechanical properties :
#
#
# Convention : Reuss Voigt Hill
#
# Bulk Modulus (GPa) = -21.13336 26.69148 2.77906
# Shear Modulus (GPa) = -145.19510 7.38236 -68.90637
#
# Velocity S-wave (km/s) = -8.58281 1.93531 -5.91266
# Velocity P-wave (km/s) = 10.43750 4.30532 6.72330
#
# Compressibility (1/GPa) = -0.04731855
#
# Stress axis : x y z
#
# Youngs Moduli (GPa) = -8.23941 54.57872 35.62793
#
# Poissons Ratio (x) = -0.16777 -0.93503
# Poissons Ratio (y) = 0.02533 0.55183
# Poissons Ratio (z) = 0.21624 0.84535
#
# Static dielectric constant tensor:
#      x y z
#    x 1.677450 0.000000 0.000000 
#    y 0.000000 1.794710 0.000000 
#    z 0.000000 0.000000 1.708540 
# 
# From -- ./inp_files/8521.got.cif
#   From: 2010.05.17/outbox.ucp.g08.bks.cvg/sg38_5_cif.got.tgz:8521.got - 2010.06.11 10:39:43.
