data_PCOD9359398
_publ_section_title
;
Structure prediction by ZEFSAII (Michael W. Deem and Ramdas Pophale) SiO2 
 PCOD9359398
Probable space group: A M M 2
;
_chemical_formula_sum "Si O2"
_cell_formula_units_Z 64
_cell_length_a 7.625133
_cell_length_b 15.234444
_cell_length_c 28.971918
_cell_angle_alpha 90.000000
_cell_angle_beta 90.000000
_cell_angle_gamma 90.000000
_cell_volume 3365.513053
_symmetry_space_group_name_H-M "A M M 2"
_symmetry_group_IT_number 38
_symmetry_cell_setting 'orthorhombic'
loop_
_space_group_symop_operation_xyz
x,y,z
-x,-y,z
-x,y,z
x,-y,z
x,1/2+y,1/2+z
-x,1/2-y,1/2+z
-x,1/2+y,1/2+z
x,1/2-y,1/2+z
loop_
_atom_site_type_symbol
_atom_site_label
_atom_site_fract_x
_atom_site_fract_y
_atom_site_fract_z
Si Si1 0.788390 0.599678 0.892360
Si Si2 0.703972 0.773544 0.745554
Si Si3 0.788059 0.600092 0.329544
Si Si4 0.208557 0.902506 0.663401
Si Si5 0.214155 0.600541 0.059282
Si Si6 0.709465 0.598601 0.786439
Si Si7 0.785165 0.777666 0.476170
Si Si8 0.214030 0.900957 0.935346
O O1 0.728050 0.500000 0.901773
O O2 0.736811 0.622294 0.840225
O O3 0.728830 0.666691 0.931359
O O4 0.000000 0.599325 0.893784
O O5 0.500000 0.759502 0.737860
O O6 0.726306 0.831865 0.791529
O O7 0.764360 0.829981 0.702096
O O8 0.783478 0.677578 0.755577
O O9 0.733515 0.500000 0.318452
O O10 0.733758 0.618942 0.382264
O O11 0.000000 0.601848 0.328725
O O12 0.273985 0.881678 0.611746
O O13 0.000000 0.910343 0.658702
O O14 0.275491 0.000000 0.677067
O O15 0.263869 0.500000 0.047319
O O16 0.000000 0.602318 0.058625
O O17 0.273761 0.671192 0.021806
O O18 0.500000 0.593953 0.779391
O O19 0.780794 0.500000 0.779164
O O20 0.728899 0.677355 0.468628
O O21 0.000000 0.777809 0.476640
O O22 0.000000 0.901870 0.935403
O O23 0.271473 0.000000 0.946702
#
# Coordination Sequence:
#
# PCOD9359398 Si02
#       8
#     8   8   8   8   8   8   8   8
#     4   9  16  25  41  67  91 109 137 177 214 246
#     4  11  21  30  45  67  86 109 145 186 221 252
#     4   9  17  29  44  63  91 124 150 172 206 256
#     4   9  18  32  48  65  87 115 142 170 213 268
#     4   8  14  25  41  61  83 107 137 170 206 253
#     4   9  19  34  46  58  84 120 150 175 210 258
#     4   9  14  21  38  62  86 110 137 174 212 241
#     4   8  14  23  35  55  84 117 148 171 196 239
#
# _framework density 19.016416
#
# number of rings (size 3 to 8) (size 9 to 14) (size 15 to 20)
#    0.000    3.000    0.000    3.375    0.000    5.500 
#    0.000    0.000    0.000    1.500    0.000    3.500 
#    0.000    0.000    0.000    0.000    0.000    0.000 
#
# Total GULP energy -178433.945882 kJ/mol
# GULP energy per Si atom -5576.060809 kJ/mol
# Density = 1.897313 g / cm^3
# Si number density = 19.016416 Si / 1000 Ang^3
#
#
#
# Elastic Constant Matrix: (Units=GPa)
#
#
# Indices 1 2 3 4 5 6 
#
# 1 33.6278 4.7628 4.7160 0.0000 0.0000 0.0000
# 2 4.7628 160.6002 120.2666 0.0000 0.0000 0.0000
# 3 4.7160 120.2666 118.5109 0.0000 0.0000 0.0000
# 4 0.0000 0.0000 0.0000 31.4475 0.0000 0.0000
# 5 0.0000 0.0000 0.0000 0.0000 103.6338 0.0000
# 6 0.0000 0.0000 0.0000 0.0000 0.0000 8.3695
#
#
#
# Elastic Compliance Matrix: (Units=1/GPa)
#
#
# Indices 1 2 3 4 5 6 
#
# 1 0.029904 0.000018 -0.001208 0.000000 0.000000 0.000000
# 2 0.000018 0.025939 -0.026324 0.000000 0.000000 0.000000
# 3 -0.001208 -0.026324 0.035200 0.000000 0.000000 0.000000
# 4 0.000000 0.000000 0.000000 0.031799 0.000000 0.000000
# 5 0.000000 0.000000 0.000000 0.000000 0.009649 0.000000
# 6 0.000000 0.000000 0.000000 0.000000 0.000000 0.119481
#
#
# Mechanical properties :
#
#
# Convention : Reuss Voigt Hill
#
# Bulk Modulus (GPa) = 27.76640 63.58106 45.67373
# Shear Modulus (GPa) = 15.67366 40.88973 28.28170
#
# Velocity S-wave (km/s) = 2.87403 4.64209 3.86064
# Velocity P-wave (km/s) = 5.06423 7.88920 6.62895
#
# Compressibility (1/GPa) = 0.03601475
#
# Stress axis : x y z
#
# Youngs Moduli (GPa) = 33.44015 38.55183 28.40892
#
# Poissons Ratio (x) = -0.00069 0.03432
# Poissons Ratio (y) = -0.00060 0.74784
# Poissons Ratio (z) = 0.04040 1.01484
#
# Static dielectric constant tensor:
#      x y z
#    x 1.711990 0.000000 0.000000 
#    y 0.000000 1.711780 0.000000 
#    z 0.000000 0.000000 1.640240 
# 
# From -- ./inp_files/24707.got.cif
#   From: 2010.05.17/outbox.cif.g08.bks.cpg/sg38_13_cif.got.tgz:24707.got - 2010.06.03 18:07:57.
