data_PCOD9359343
_publ_section_title
;
Structure prediction by ZEFSAII (Michael W. Deem and Ramdas Pophale) SiO2 
 PCOD9359343
Probable space group: A M M 2
;
_chemical_formula_sum "Si O2"
_cell_formula_units_Z 48
_cell_length_a 14.249526
_cell_length_b 9.016911
_cell_length_c 20.897668
_cell_angle_alpha 90.000000
_cell_angle_beta 90.000000
_cell_angle_gamma 90.000000
_cell_volume 2685.072561
_symmetry_space_group_name_H-M "A M M 2"
_symmetry_group_IT_number 38
_symmetry_cell_setting 'orthorhombic'
loop_
_space_group_symop_operation_xyz
x,y,z
-x,-y,z
-x,y,z
x,-y,z
x,1/2+y,1/2+z
-x,1/2-y,1/2+z
-x,1/2+y,1/2+z
x,1/2-y,1/2+z
loop_
_atom_site_type_symbol
_atom_site_label
_atom_site_fract_x
_atom_site_fract_y
_atom_site_fract_z
Si Si1 0.709543 0.176597 0.724570
Si Si2 0.389520 0.322320 0.603473
Si Si3 0.891711 0.176928 0.272916
Si Si4 0.892010 0.177207 0.424622
Si Si5 0.708104 0.323016 0.468475
Si Si6 0.612395 0.173293 0.346400
O O1 0.661830 0.238620 0.660709
O O2 0.815738 0.234814 0.732539
O O3 0.654107 0.243514 0.785210
O O4 0.706536 0.000000 0.726085
O O5 0.500000 0.285515 0.601677
O O6 0.381723 0.500000 0.613957
O O7 0.341130 0.287807 0.535729
O O8 0.877394 0.207839 0.348762
O O9 0.000000 0.212525 0.257811
O O10 0.878924 0.000000 0.264295
O O11 0.814372 0.264168 0.464245
O O12 0.000000 0.215239 0.439922
O O13 0.880854 0.000000 0.433077
O O14 0.705860 0.500000 0.459602
O O15 0.653013 0.245072 0.410628
O O16 0.500000 0.182943 0.346014
O O17 0.639828 0.000000 0.343427
#
# Coordination Sequence:
#
# PCOD9359343 Si02
#       6
#     8   8   8   8   8   8
#     4  12  24  37  58  89 119 149 192 246 295 342
#     4  10  23  43  62  80 113 161 202 238 289 351
#     4   9  18  35  60  87 117 155 194 233 284 347
#     4   9  18  34  58  87 119 156 194 233 283 345
#     4  11  22  37  60  90 118 148 192 245 294 342
#     4  11  23  38  58  83 114 153 194 237 289 349
#
# _framework density 17.876612999999999
#
# number of rings (size 3 to 8) (size 9 to 14) (size 15 to 20)
#    0.000    1.667    1.667    4.500    0.000    6.333 
#    0.000    2.500    0.000    1.000    0.000    0.000 
#    0.000    0.000    0.000    0.000    0.000    0.000 
#
# Total GULP energy -134121.692766 kJ/mol
# GULP energy per Si atom -5588.403865 kJ/mol
# Density = 1.783592 g / cm^3
# Si number density = 17.876613 Si / 1000 Ang^3
#
#
#
# Elastic Constant Matrix: (Units=GPa)
#
#
# Indices 1 2 3 4 5 6 
#
# 1 158.3206 89.0810 93.4052 0.0000 0.0000 0.0000
# 2 89.0810 96.8121 90.8418 0.0000 0.0000 0.0000
# 3 93.4052 90.8418 139.6342 0.0000 0.0000 0.0000
# 4 0.0000 0.0000 0.0000 30.6879 0.0000 0.0000
# 5 0.0000 0.0000 0.0000 0.0000 30.4853 0.0000
# 6 0.0000 0.0000 0.0000 0.0000 0.0000 25.1183
#
#
#
# Elastic Compliance Matrix: (Units=1/GPa)
#
#
# Indices 1 2 3 4 5 6 
#
# 1 0.013408 -0.010067 -0.002420 0.000000 0.000000 0.000000
# 2 -0.010067 0.034074 -0.015434 0.000000 0.000000 0.000000
# 3 -0.002420 -0.015434 0.018821 0.000000 0.000000 0.000000
# 4 0.000000 0.000000 0.000000 0.032586 0.000000 0.000000
# 5 0.000000 0.000000 0.000000 0.000000 0.032803 0.000000
# 6 0.000000 0.000000 0.000000 0.000000 0.000000 0.039812
#
#
# Mechanical properties :
#
#
# Convention : Reuss Voigt Hill
#
# Bulk Modulus (GPa) = 95.57912 104.60253 100.09083
# Shear Modulus (GPa) = 21.66082 25.35422 23.50752
#
# Velocity S-wave (km/s) = 3.48470 3.77010 3.63021
# Velocity P-wave (km/s) = 8.35302 8.80865 8.58386
#
# Compressibility (1/GPa) = 0.01046254
#
# Stress axis : x y z
#
# Youngs Moduli (GPa) = 74.58135 29.34803 53.13205
#
# Poissons Ratio (x) = 0.29544 0.12858
# Poissons Ratio (y) = 0.75078 0.82002
# Poissons Ratio (z) = 0.18049 0.45294
#
# Static dielectric constant tensor:
#      x y z
#    x 1.617700 0.000000 0.000000 
#    y 0.000000 1.593250 0.000000 
#    z 0.000000 0.000000 1.574460 
# 
# From -- ./inp_files/18155.got.cif
#   From: 2010.05.17/outbox.cif.g08.bks.cpg/sg38_10_cif.got.tgz:18155.got - 2010.06.03 18:07:57.
