data_PCOD9359107
_publ_section_title
;
Structure prediction by ZEFSAII (Michael W. Deem and Ramdas Pophale) SiO2 
 PCOD9359107
Probable space group: A M M 2
;
_chemical_formula_sum "Si O2"
_cell_formula_units_Z 64
_cell_length_a 13.927453
_cell_length_b 26.215052
_cell_length_c 8.692927
_cell_angle_alpha 90.000000
_cell_angle_beta 90.000000
_cell_angle_gamma 90.000000
_cell_volume 3173.865055
_symmetry_space_group_name_H-M "A M M 2"
_symmetry_group_IT_number 38
_symmetry_cell_setting 'orthorhombic'
loop_
_space_group_symop_operation_xyz
x,y,z
-x,-y,z
-x,y,z
x,-y,z
x,1/2+y,1/2+z
-x,1/2-y,1/2+z
-x,1/2+y,1/2+z
x,1/2-y,1/2+z
loop_
_atom_site_type_symbol
_atom_site_label
_atom_site_fract_x
_atom_site_fract_y
_atom_site_fract_z
Si Si1 0.391899 0.575895 0.305330
Si Si2 0.765206 0.861342 0.267416
Si Si3 0.111564 0.691778 0.028306
Si Si4 0.205255 0.441979 0.504363
Si Si5 0.391058 0.197497 0.781039
Si Si6 0.709772 0.055319 0.492049
Si Si7 0.890000 0.912529 0.687411
Si Si8 0.718229 0.734465 0.570279
O O1 0.500000 0.560824 0.345980
O O2 0.312595 0.560716 0.430853
O O3 0.388236 0.636867 0.286907
O O4 0.361467 0.556573 0.136981
O O5 0.845445 0.835536 0.376193
O O6 0.804181 0.900528 0.138882
O O7 0.700048 0.896942 0.377918
O O8 0.713959 0.814536 0.181268
O O9 0.121538 0.648257 0.159717
O O10 0.177025 0.740208 0.066404
O O11 0.000000 0.704317 0.009977
O O12 0.186114 0.500000 0.554425
O O13 0.138019 0.427920 0.359561
O O14 0.500000 0.213800 0.815745
O O15 0.355072 0.221653 0.623176
O O16 0.314619 0.217016 0.903862
O O17 0.814593 0.061473 0.571716
O O18 0.702458 0.000000 0.414499
O O19 0.000000 0.925719 0.652901
#
# Coordination Sequence:
#
# PCOD9359107 Si02
#       8
#     8   8   8   8   8   8   8   8
#     4  10  21  39  63  90 122 159 205 255 305 363
#     4  11  23  40  61  85 128 160 199 250 310 355
#     4  10  23  42  65  91 122 165 208 248 306 374
#     4  11  22  37  61  91 123 160 203 252 312 364
#     4  11  23  39  63  93 121 161 205 249 307 369
#     4  10  21  39  62  86 116 160 208 248 299 361
#     4   9  19  37  62  90 119 153 200 251 298 361
#     4  12  22  41  63  88 125 163 198 253 306 368
#
# _framework density 20.164688999999999
#
# number of rings (size 3 to 8) (size 9 to 14) (size 15 to 20)
#    0.000    1.500    2.500    4.500    0.000    3.000 
#    0.000    1.250    0.000    3.750    0.000    0.000 
#    0.000    0.000    0.000    0.000    0.000    0.000 
#
# Total GULP energy -178740.434350 kJ/mol
# GULP energy per Si atom -5585.638573 kJ/mol
# Density = 2.011879 g / cm^3
# Si number density = 20.164689 Si / 1000 Ang^3
#
#
#
# Elastic Constant Matrix: (Units=GPa)
#
#
# Indices 1 2 3 4 5 6 
#
# 1 68.9279 17.2760 -10.2653 0.0000 0.0000 0.0000
# 2 17.2760 98.4923 20.0193 0.0000 0.0000 0.0000
# 3 -10.2653 20.0193 49.4860 0.0000 0.0000 0.0000
# 4 0.0000 0.0000 0.0000 18.5607 0.0000 0.0000
# 5 0.0000 0.0000 0.0000 0.0000 10.2706 0.0000
# 6 0.0000 0.0000 0.0000 0.0000 0.0000 -13.1858
#
#
#
# Elastic Compliance Matrix: (Units=1/GPa)
#
#
# Indices 1 2 3 4 5 6 
#
# 1 0.016203 -0.003841 0.004915 0.000000 0.000000 0.000000
# 2 -0.003841 0.011973 -0.005640 0.000000 0.000000 0.000000
# 3 0.004915 -0.005640 0.023509 0.000000 0.000000 0.000000
# 4 0.000000 0.000000 0.000000 0.053877 0.000000 0.000000
# 5 0.000000 0.000000 0.000000 0.000000 0.097366 0.000000
# 6 0.000000 0.000000 0.000000 0.000000 0.000000 -0.075839
#
#
# Mechanical properties :
#
#
# Convention : Reuss Voigt Hill
#
# Bulk Modulus (GPa) = 23.50077 30.10734 26.80406
# Shear Modulus (GPa) = 33.24331 15.78750 24.51540
#
# Velocity S-wave (km/s) = 4.06469 2.80112 3.49056
# Velocity P-wave (km/s) = 5.80591 5.04230 5.43753
#
# Compressibility (1/GPa) = 0.04255179
#
# Stress axis : x y z
#
# Youngs Moduli (GPa) = 61.71853 83.51937 42.53673
#
# Poissons Ratio (x) = 0.32080 -0.20906
# Poissons Ratio (y) = 0.23706 0.23993
# Poissons Ratio (z) = -0.30334 0.47109
#
# Static dielectric constant tensor:
#      x y z
#    x 1.695280 0.000000 0.000000 
#    y 0.000000 1.732230 0.000000 
#    z 0.000000 0.000000 1.706880 
# 
# From -- ./inp_files/5894.got.cif
#   From: 2010.05.17/outbox.cif.g08.bks.cpg/sg38_3_cif.got.tgz:5894.got - 2010.06.03 18:07:57.
