data_PCOD9359371
_publ_section_title
;
Structure prediction by ZEFSAII (Michael W. Deem and Ramdas Pophale) SiO2 
 PCOD9359371
Probable space group: A M M 2
;
_chemical_formula_sum "Si O2"
_cell_formula_units_Z 26
_cell_length_a 8.032130
_cell_length_b 15.052358
_cell_length_c 10.062482
_cell_angle_alpha 90.000000
_cell_angle_beta 90.000000
_cell_angle_gamma 90.000000
_cell_volume 1216.579192
_symmetry_space_group_name_H-M "A M M 2"
_symmetry_group_IT_number 38
_symmetry_cell_setting 'orthorhombic'
loop_
_space_group_symop_operation_xyz
x,y,z
-x,-y,z
-x,y,z
x,-y,z
x,1/2+y,1/2+z
-x,1/2-y,1/2+z
-x,1/2+y,1/2+z
x,1/2-y,1/2+z
loop_
_atom_site_type_symbol
_atom_site_label
_atom_site_fract_x
_atom_site_fract_y
_atom_site_fract_z
Si Si1 0.000000 0.500000 0.250000
Si Si2 0.691930 0.691722 0.604988
Si Si3 0.183761 0.500000 0.528519
Si Si4 0.687182 0.500000 0.041651
Si Si5 0.191075 0.329548 0.896973
O O1 0.141887 0.500000 0.371834
O O2 0.151799 0.500000 0.138657
O O3 0.500000 0.714712 0.584248
O O4 0.723722 0.589046 0.570624
O O5 0.741134 0.706062 0.757531
O O6 0.798097 0.752894 0.507257
O O7 0.000000 0.500000 0.595244
O O8 0.500000 0.500000 0.102656
O O9 0.705967 0.587030 0.950199
O O10 0.000000 0.356531 0.878588
#
# Coordination Sequence:
#
# PCOD9359371 Si02
#       5
#     2   8   4   4   8
#     4  10  26  46  72 110 138 188 232 292 352 420
#     4  12  26  45  70 105 138 183 236 293 349 418
#     4  10  24  45  70  94 140 180 231 276 354 414
#     4  12  25  47  73 104 143 187 235 291 349 421
#     4  12  26  46  72 100 141 188 234 286 354 419
#
# _framework density 21.371400999999999
#
# number of rings (size 3 to 8) (size 9 to 14) (size 15 to 20)
#    0.462    0.000    1.538    6.923    4.308    1.231 
#    0.000    0.000    0.000    0.000    0.000    0.000 
#    0.000    0.000    0.000    0.000    0.000    0.000 
#
# Total GULP energy -72464.318652 kJ/mol
# GULP energy per Si atom -5574.178358 kJ/mol
# Density = 2.132276 g / cm^3
# Si number density = 21.371401 Si / 1000 Ang^3
#
#
#
# Elastic Constant Matrix: (Units=GPa)
#
#
# Indices 1 2 3 4 5 6 
#
# 1 139.8998 -16.4595 9.7656 0.0000 0.0000 0.0000
# 2 -16.4595 89.4238 20.6792 0.0000 0.0000 0.0000
# 3 9.7656 20.6792 137.9475 0.0000 0.0000 0.0000
# 4 0.0000 0.0000 0.0000 -6.5502 0.0000 0.0000
# 5 0.0000 0.0000 0.0000 0.0000 1.2981 0.0000
# 6 0.0000 0.0000 0.0000 0.0000 0.0000 31.2653
#
#
#
# Elastic Compliance Matrix: (Units=1/GPa)
#
#
# Indices 1 2 3 4 5 6 
#
# 1 0.007381 0.001532 -0.000752 0.000000 0.000000 0.000000
# 2 0.001532 0.011902 -0.001893 0.000000 0.000000 0.000000
# 3 -0.000752 -0.001893 0.007586 0.000000 0.000000 0.000000
# 4 0.000000 0.000000 0.000000 -0.152667 0.000000 0.000000
# 5 0.000000 0.000000 0.000000 0.000000 0.770333 0.000000
# 6 0.000000 0.000000 0.000000 0.000000 0.000000 0.031984
#
#
# Mechanical properties :
#
#
# Convention : Reuss Voigt Hill
#
# Bulk Modulus (GPa) = 40.57724 43.91575 42.24650
# Shear Modulus (GPa) = 7.27845 28.75504 18.01674
#
# Velocity S-wave (km/s) = 1.84745 3.67207 2.90665
# Velocity P-wave (km/s) = 4.85579 6.21066 5.57454
#
# Compressibility (1/GPa) = 0.02464436
#
# Stress axis : x y z
#
# Youngs Moduli (GPa) = 135.48708 84.01621 131.81969
#
# Poissons Ratio (x) = -0.12875 0.09916
# Poissons Ratio (y) = -0.20763 0.24950
# Poissons Ratio (z) = 0.10192 0.15902
#
# Static dielectric constant tensor:
#      x y z
#    x 1.925890 0.000000 0.000000 
#    y 0.000000 1.770830 0.000000 
#    z 0.000000 0.000000 1.738060 
# 
# From -- ./inp_files/2922.got.cif
#   From: 2010.05.17/outbox.cif.g08.bks.cpg/sg38_2_cif.got.tgz:2922.got - 2010.06.03 18:07:57.
