data_PCOD9359117
_publ_section_title
;
Structure prediction by ZEFSAII (Michael W. Deem and Ramdas Pophale) SiO2 
 PCOD9359117
Probable space group: A M M 2
;
_chemical_formula_sum "Si O2"
_cell_formula_units_Z 48
_cell_length_a 14.251749
_cell_length_b 17.269508
_cell_length_c 9.683255
_cell_angle_alpha 90.000000
_cell_angle_beta 90.000000
_cell_angle_gamma 90.000000
_cell_volume 2383.249435
_symmetry_space_group_name_H-M "A M M 2"
_symmetry_group_IT_number 38
_symmetry_cell_setting 'orthorhombic'
loop_
_space_group_symop_operation_xyz
x,y,z
-x,-y,z
-x,y,z
x,-y,z
x,1/2+y,1/2+z
-x,1/2-y,1/2+z
-x,1/2+y,1/2+z
x,1/2-y,1/2+z
loop_
_atom_site_type_symbol
_atom_site_label
_atom_site_fract_x
_atom_site_fract_y
_atom_site_fract_z
Si Si1 0.611305 0.092049 0.913650
Si Si2 0.771873 0.145142 0.090569
Si Si3 0.889361 0.084027 0.844460
Si Si4 0.889806 0.801265 0.595331
Si Si5 0.393251 0.593875 0.097722
Si Si6 0.779861 0.408035 0.904060
O O1 0.500000 0.100100 0.931062
O O2 0.633673 0.114762 0.755128
O O3 0.633184 0.000000 0.930999
O O4 0.669568 0.142061 0.021624
O O5 0.822592 0.227727 0.090656
O O6 0.769656 0.111418 0.243614
O O7 0.833212 0.094506 0.984462
O O8 0.870514 0.151307 0.735541
O O9 0.000000 0.085937 0.873573
O O10 0.866045 0.000000 0.781399
O O11 0.863862 0.858814 0.470638
O O12 0.000000 0.779851 0.590701
O O13 0.500000 0.621166 0.069083
O O14 0.397102 0.500000 0.096826
O O15 0.314117 0.616041 0.988306
O O16 0.793659 0.500000 0.922168
#
# Coordination Sequence:
#
# PCOD9359117 Si02
#       6
#     8   8   8   8   8   8
#     4   9  18  35  61  91 123 162 205 245 290 353
#     4  12  23  37  59  92 128 156 190 246 313 364
#     4  10  21  39  63  87 114 158 212 253 289 350
#     4  11  25  44  62  82 117 165 207 246 301 366
#     4   8  16  34  60  88 118 154 196 240 288 347
#     4  11  23  38  61  93 123 155 200 254 306 355
#
# _framework density 20.140568999999999
#
# number of rings (size 3 to 8) (size 9 to 14) (size 15 to 20)
#    0.000    1.833    0.000    5.500    0.000    5.667 
#    0.000    2.500    0.000    3.000    0.000    0.000 
#    0.000    0.000    0.000    0.000    0.000    0.000 
#
# Total GULP energy -134132.094939 kJ/mol
# GULP energy per Si atom -5588.837289 kJ/mol
# Density = 2.009473 g / cm^3
# Si number density = 20.140569 Si / 1000 Ang^3
#
#
#
# Elastic Constant Matrix: (Units=GPa)
#
#
# Indices 1 2 3 4 5 6 
#
# 1 103.5180 51.2752 59.3463 0.0000 0.0000 0.0000
# 2 51.2752 82.7327 32.9782 0.0000 0.0000 0.0000
# 3 59.3463 32.9782 125.9490 0.0000 0.0000 0.0000
# 4 0.0000 0.0000 0.0000 1.4586 0.0000 0.0000
# 5 0.0000 0.0000 0.0000 0.0000 21.1927 0.0000
# 6 0.0000 0.0000 0.0000 0.0000 0.0000 -12.1532
#
#
#
# Elastic Compliance Matrix: (Units=1/GPa)
#
#
# Indices 1 2 3 4 5 6 
#
# 1 0.017147 -0.008270 -0.005914 0.000000 0.000000 0.000000
# 2 -0.008270 0.017484 -0.000681 0.000000 0.000000 0.000000
# 3 -0.005914 -0.000681 0.010905 0.000000 0.000000 0.000000
# 4 0.000000 0.000000 0.000000 0.685573 0.000000 0.000000
# 5 0.000000 0.000000 0.000000 0.000000 0.047186 0.000000
# 6 0.000000 0.000000 0.000000 0.000000 0.000000 -0.082283
#
#
# Mechanical properties :
#
#
# Convention : Reuss Voigt Hill
#
# Bulk Modulus (GPa) = 63.26983 66.59991 64.93487
# Shear Modulus (GPa) = 6.83984 13.33964 10.08974
#
# Velocity S-wave (km/s) = 1.84484 2.57636 2.24065
# Velocity P-wave (km/s) = 6.00168 6.47993 6.24539
#
# Compressibility (1/GPa) = 0.01580532
#
# Stress axis : x y z
#
# Youngs Moduli (GPa) = 58.31957 57.19516 91.70227
#
# Poissons Ratio (x) = 0.47298 0.54235
# Poissons Ratio (y) = 0.48228 0.06248
# Poissons Ratio (z) = 0.34491 0.03897
#
# Static dielectric constant tensor:
#      x y z
#    x 1.743130 0.000000 0.000000 
#    y 0.000000 1.713280 0.000000 
#    z 0.000000 0.000000 1.681680 
# 
# From -- ./inp_files/5456.got.cif
#   From: 2010.05.17/outbox.cif.g08.bks.cpg/sg38_3_cif.got.tgz:5456.got - 2010.06.03 18:07:57.
