data_PCOD9359391
_publ_section_title
;
Structure prediction by ZEFSAII (Michael W. Deem and Ramdas Pophale) SiO2 
 PCOD9359391
Probable space group: A M M 2
;
_chemical_formula_sum "Si O2"
_cell_formula_units_Z 56
_cell_length_a 7.681290
_cell_length_b 21.713279
_cell_length_c 19.225024
_cell_angle_alpha 90.000000
_cell_angle_beta 90.000000
_cell_angle_gamma 90.000000
_cell_volume 3206.464715
_symmetry_space_group_name_H-M "A M M 2"
_symmetry_group_IT_number 38
_symmetry_cell_setting 'orthorhombic'
loop_
_space_group_symop_operation_xyz
x,y,z
-x,-y,z
-x,y,z
x,-y,z
x,1/2+y,1/2+z
-x,1/2-y,1/2+z
-x,1/2+y,1/2+z
x,1/2-y,1/2+z
loop_
_atom_site_type_symbol
_atom_site_label
_atom_site_fract_x
_atom_site_fract_y
_atom_site_fract_z
Si Si1 0.292586 0.698181 0.708130
Si Si2 0.706799 0.500000 0.066897
Si Si3 0.789845 0.753388 0.911822
Si Si4 0.800917 0.176687 0.782193
Si Si5 0.208640 0.374514 0.144915
Si Si6 0.291452 0.125175 0.336162
Si Si7 0.285490 0.500000 0.907722
Si Si8 0.790380 0.250864 0.068543
O O1 0.500000 0.706380 0.717595
O O2 0.200716 0.758371 0.740345
O O3 0.235888 0.641886 0.757313
O O4 0.255615 0.699938 0.626353
O O5 0.500000 0.500000 0.061968
O O6 0.758365 0.561348 0.107815
O O7 0.774081 0.500000 0.987775
O O8 0.721258 0.803639 0.856140
O O9 0.750967 0.685047 0.882785
O O10 0.000000 0.759080 0.911801
O O11 0.725762 0.760159 0.990540
O O12 0.721927 0.131345 0.724179
O O13 0.000000 0.157001 0.795438
O O14 0.273864 0.316743 0.098822
O O15 0.000000 0.366842 0.150226
O O16 0.500000 0.119813 0.334975
O O17 0.225326 0.061994 0.369072
O O18 0.500000 0.500000 0.907751
O O19 0.000000 0.254203 0.064834
#
# Coordination Sequence:
#
# PCOD9359391 Si02
#       8
#     8   4   8   8   8   8   4   8
#     4   9  16  25  40  61  82 106 138 172 205 242
#     4  11  21  29  41  61  82 109 142 172 201 231
#     4   9  16  27  44  65  86 107 134 169 208 248
#     4   8  15  28  44  60  80 107 137 168 206 249
#     4   9  17  29  42  57  82 113 139 164 197 240
#     4   9  17  29  43  59  82 113 144 171 201 239
#     4   9  18  31  43  57  82 113 142 170 199 235
#     4   9  17  28  43  63  86 111 135 164 207 251
#
# _framework density 17.464717
#
# number of rings (size 3 to 8) (size 9 to 14) (size 15 to 20)
#    0.000    3.000    0.000    2.357    0.000    3.429 
#    0.000    1.071    0.000    0.000    0.000    1.000 
#    0.000    3.429    0.000    0.000    0.000    0.000 
#
# Total GULP energy -155883.324355 kJ/mol
# GULP energy per Si atom -5567.261584 kJ/mol
# Density = 1.742497 g / cm^3
# Si number density = 17.464717 Si / 1000 Ang^3
#
#
#
# Elastic Constant Matrix: (Units=GPa)
#
#
# Indices 1 2 3 4 5 6 
#
# 1 32.1111 2.6840 4.2015 0.0000 0.0000 0.0000
# 2 2.6840 83.6634 82.1900 0.0000 0.0000 0.0000
# 3 4.2015 82.1900 196.9148 0.0000 0.0000 0.0000
# 4 0.0000 0.0000 0.0000 27.2472 0.0000 0.0000
# 5 0.0000 0.0000 0.0000 0.0000 12.3524 0.0000
# 6 0.0000 0.0000 0.0000 0.0000 0.0000 13.7038
#
#
#
# Elastic Compliance Matrix: (Units=1/GPa)
#
#
# Indices 1 2 3 4 5 6 
#
# 1 0.031246 -0.000589 -0.000421 0.000000 0.000000 0.000000
# 2 -0.000589 0.020271 -0.008448 0.000000 0.000000 0.000000
# 3 -0.000421 -0.008448 0.008614 0.000000 0.000000 0.000000
# 4 0.000000 0.000000 0.000000 0.036701 0.000000 0.000000
# 5 0.000000 0.000000 0.000000 0.000000 0.080956 0.000000
# 6 0.000000 0.000000 0.000000 0.000000 0.000000 0.072972
#
#
# Mechanical properties :
#
#
# Convention : Reuss Voigt Hill
#
# Bulk Modulus (GPa) = 24.26334 54.53782 39.40058
# Shear Modulus (GPa) = 17.64198 25.56827 21.60513
#
# Velocity S-wave (km/s) = 3.18173 3.83037 3.52102
# Velocity P-wave (km/s) = 5.23649 7.13145 6.25613
#
# Compressibility (1/GPa) = 0.04121445
#
# Stress axis : x y z
#
# Youngs Moduli (GPa) = 32.00395 49.33120 116.09589
#
# Poissons Ratio (x) = 0.02905 0.04886
# Poissons Ratio (y) = 0.01885 0.98082
# Poissons Ratio (z) = 0.01347 0.41677
#
# Static dielectric constant tensor:
#      x y z
#    x 1.655630 0.000000 0.000000 
#    y 0.000000 1.585020 0.000000 
#    z 0.000000 0.000000 1.656550 
# 
# From -- ./inp_files/20180.got.cif
#   From: 2010.05.17/outbox.cif.g08.bks.cpg/sg38_11_cif.got.tgz:20180.got - 2010.06.03 18:07:57.
