data_PCOD9359034
_publ_section_title
;
Structure prediction by ZEFSAII (Michael W. Deem and Ramdas Pophale) SiO2 
 PCOD9359034
Probable space group: A M M 2
;
_chemical_formula_sum "Si O2"
_cell_formula_units_Z 48
_cell_length_a 15.393475
_cell_length_b 8.805137
_cell_length_c 19.204291
_cell_angle_alpha 90.000000
_cell_angle_beta 90.000000
_cell_angle_gamma 90.000000
_cell_volume 2602.981410
_symmetry_space_group_name_H-M "A M M 2"
_symmetry_group_IT_number 38
_symmetry_cell_setting 'orthorhombic'
loop_
_space_group_symop_operation_xyz
x,y,z
-x,-y,z
-x,y,z
x,-y,z
x,1/2+y,1/2+z
-x,1/2-y,1/2+z
-x,1/2+y,1/2+z
x,1/2-y,1/2+z
loop_
_atom_site_type_symbol
_atom_site_label
_atom_site_fract_x
_atom_site_fract_y
_atom_site_fract_z
Si Si1 0.345419 0.681875 0.551000
Si Si2 0.646278 0.680294 0.388661
Si Si3 0.151894 0.681332 0.397470
Si Si4 0.500000 0.818981 0.641152
Si Si5 0.500000 0.678835 0.793790
Si Si6 0.000000 0.181908 0.789927
Si Si7 0.154634 0.681032 0.047617
Si Si8 0.000000 0.680758 0.637556
O O1 0.341411 0.500000 0.559031
O O2 0.370670 0.712654 0.470308
O O3 0.415903 0.752125 0.602144
O O4 0.250251 0.751951 0.562236
O O5 0.631667 0.500000 0.377633
O O6 0.748321 0.712365 0.376873
O O7 0.583546 0.773039 0.339022
O O8 0.146050 0.500000 0.412324
O O9 0.084220 0.717174 0.336893
O O10 0.132045 0.768881 0.468701
O O11 0.500000 0.766572 0.720929
O O12 0.500000 0.000000 0.636452
O O13 0.500000 0.500000 0.780612
O O14 0.000000 0.269510 0.717770
O O15 0.000000 0.000000 0.776427
O O16 0.155604 0.500000 0.053189
O O17 0.084176 0.750819 0.099376
O O18 0.000000 0.500000 0.630682
#
# Coordination Sequence:
#
# PCOD9359034 Si02
#       8
#     8   8   8   4   4   4   8   4
#     4  10  21  40  64  89 118 152 192 238 292 348
#     4   9  19  37  60  85 114 149 188 233 286 343
#     4   9  19  37  62  88 116 151 188 232 289 346
#     4  12  25  40  59  85 119 157 197 240 289 344
#     4  12  25  38  55  81 115 155 197 240 287 340
#     4  10  21  38  59  85 117 151 191 238 291 348
#     4  11  22  38  62  90 118 150 195 244 288 341
#     4  12  25  40  57  81 119 161 199 240 291 348
#
# _framework density 18.440393
#
# number of rings (size 3 to 8) (size 9 to 14) (size 15 to 20)
#    0.000    1.667    0.000    6.250    0.000    8.000 
#    0.000    5.000    0.000    0.000    0.000    0.000 
#    0.000    0.000    0.000    0.000    0.000    0.000 
#
# Total GULP energy -134181.768112 kJ/mol
# GULP energy per Si atom -5590.907005 kJ/mol
# Density = 1.839842 g / cm^3
# Si number density = 18.440393 Si / 1000 Ang^3
#
#
#
# Elastic Constant Matrix: (Units=GPa)
#
#
# Indices 1 2 3 4 5 6 
#
# 1 113.9866 77.3942 101.1500 0.0000 0.0000 0.0000
# 2 77.3942 129.8811 90.4132 0.0000 0.0000 0.0000
# 3 101.1500 90.4132 129.9242 0.0000 0.0000 0.0000
# 4 0.0000 0.0000 0.0000 36.3768 0.0000 0.0000
# 5 0.0000 0.0000 0.0000 0.0000 -40.1986 0.0000
# 6 0.0000 0.0000 0.0000 0.0000 0.0000 33.7481
#
#
#
# Elastic Compliance Matrix: (Units=1/GPa)
#
#
# Indices 1 2 3 4 5 6 
#
# 1 0.028981 -0.003032 -0.020453 0.000000 0.000000 0.000000
# 2 -0.003032 0.015251 -0.008253 0.000000 0.000000 0.000000
# 3 -0.020453 -0.008253 0.029363 0.000000 0.000000 0.000000
# 4 0.000000 0.000000 0.000000 0.027490 0.000000 0.000000
# 5 0.000000 0.000000 0.000000 0.000000 -0.024877 0.000000
# 6 0.000000 0.000000 0.000000 0.000000 0.000000 0.029631
#
#
# Mechanical properties :
#
#
# Convention : Reuss Voigt Hill
#
# Bulk Modulus (GPa) = 98.81109 101.30076 100.05592
# Shear Modulus (GPa) = 28.95410 12.97422 20.96416
#
# Velocity S-wave (km/s) = 3.96680 2.65538 3.37539
# Velocity P-wave (km/s) = 8.64182 8.02837 8.34074
#
# Compressibility (1/GPa) = 0.01012032
#
# Stress axis : x y z
#
# Youngs Moduli (GPa) = 34.50550 65.57087 34.05647
#
# Poissons Ratio (x) = 0.19878 0.69655
# Poissons Ratio (y) = 0.10460 0.28106
# Poissons Ratio (z) = 0.70574 0.54114
#
# Static dielectric constant tensor:
#      x y z
#    x 1.622080 0.000000 0.000000 
#    y 0.000000 1.615170 0.000000 
#    z 0.000000 0.000000 1.600020 
# 
# From -- ./inp_files/18266.got.cif
#   From: 2010.05.17/outbox.cif.g08.bks.cpg/sg38_10_cif.got.tgz:18266.got - 2010.06.03 18:07:57.
