data_PCOD9359486
_publ_section_title
;
Structure prediction by ZEFSAII (Michael W. Deem and Ramdas Pophale) SiO2 
 PCOD9359486
Probable space group: A M M 2
;
_chemical_formula_sum "Si O2"
_cell_formula_units_Z 48
_cell_length_a 13.598513
_cell_length_b 20.517290
_cell_length_c 8.568948
_cell_angle_alpha 90.000000
_cell_angle_beta 90.000000
_cell_angle_gamma 90.000000
_cell_volume 2390.776207
_symmetry_space_group_name_H-M "A M M 2"
_symmetry_group_IT_number 38
_symmetry_cell_setting 'orthorhombic'
loop_
_space_group_symop_operation_xyz
x,y,z
-x,-y,z
-x,y,z
x,-y,z
x,1/2+y,1/2+z
-x,1/2-y,1/2+z
-x,1/2+y,1/2+z
x,1/2-y,1/2+z
loop_
_atom_site_type_symbol
_atom_site_label
_atom_site_fract_x
_atom_site_fract_y
_atom_site_fract_z
Si Si1 0.795755 0.309320 0.599490
Si Si2 0.500000 0.152069 0.902831
Si Si3 0.294926 0.308710 0.916701
Si Si4 0.000000 0.219576 0.930742
Si Si5 0.795222 0.925057 0.596747
Si Si6 0.500000 0.716439 0.745804
Si Si7 0.300652 0.425644 0.434835
Si Si8 0.000000 0.850073 0.591929
O O1 0.788085 0.300632 0.783452
O O2 0.725339 0.252742 0.528672
O O3 0.902046 0.303425 0.521730
O O4 0.751402 0.379423 0.559196
O O5 0.500000 0.205264 0.764939
O O6 0.595459 0.107235 0.897019
O O7 0.500000 0.190514 0.068980
O O8 0.400965 0.306161 0.834667
O O9 0.276318 0.376027 0.005211
O O10 0.000000 0.297494 0.953022
O O11 0.000000 0.191004 0.755351
O O12 0.763201 0.924153 0.777305
O O13 0.903286 0.894144 0.584994
O O14 0.791857 0.000000 0.542288
O O15 0.312070 0.500000 0.486573
#
# Coordination Sequence:
#
# PCOD9359486 Si02
#       8
#     8   4   8   4   8   4   8   4
#     4  12  23  42  67 100 134 170 221 277 329 387
#     4  12  25  42  67 101 130 174 221 280 333 398
#     4  12  24  42  68  99 136 174 218 282 328 397
#     4  12  24  38  71 105 127 170 219 278 326 396
#     4  11  26  45  67  95 135 183 224 273 335 399
#     4  12  24  40  69 101 131 166 221 276 338 394
#     4  11  24  44  66  93 132 179 224 269 330 396
#     4  12  23  42  69  99 136 170 225 276 333 398
#
# _framework density 20.077162000000001
#
# number of rings (size 3 to 8) (size 9 to 14) (size 15 to 20)
#    0.000    0.333    6.667    2.500    2.333    0.667 
#    0.000    1.667    0.000    0.000    0.000    0.000 
#    0.000    0.000    0.000    0.000    0.000    0.000 
#
# Total GULP energy -134309.995430 kJ/mol
# GULP energy per Si atom -5596.249810 kJ/mol
# Density = 2.003147 g / cm^3
# Si number density = 20.077162 Si / 1000 Ang^3
#
#
#
# Elastic Constant Matrix: (Units=GPa)
#
#
# Indices 1 2 3 4 5 6 
#
# 1 102.8143 33.6902 -16.6314 0.0000 0.0000 0.0000
# 2 33.6902 173.3229 30.7762 0.0000 0.0000 0.0000
# 3 -16.6314 30.7762 52.5000 0.0000 0.0000 0.0000
# 4 0.0000 0.0000 0.0000 34.1874 0.0000 0.0000
# 5 0.0000 0.0000 0.0000 0.0000 21.3286 0.0000
# 6 0.0000 0.0000 0.0000 0.0000 0.0000 12.4515
#
#
#
# Elastic Compliance Matrix: (Units=1/GPa)
#
#
# Indices 1 2 3 4 5 6 
#
# 1 0.011710 -0.003276 0.005630 0.000000 0.000000 0.000000
# 2 -0.003276 0.007356 -0.005350 0.000000 0.000000 0.000000
# 3 0.005630 -0.005350 0.023968 0.000000 0.000000 0.000000
# 4 0.000000 0.000000 0.000000 0.029251 0.000000 0.000000
# 5 0.000000 0.000000 0.000000 0.000000 0.046885 0.000000
# 6 0.000000 0.000000 0.000000 0.000000 0.000000 0.080312
#
#
# Mechanical properties :
#
#
# Convention : Reuss Voigt Hill
#
# Bulk Modulus (GPa) = 26.99612 47.14525 37.07068
# Shear Modulus (GPa) = 22.95455 32.31364 27.63409
#
# Velocity S-wave (km/s) = 3.38496 4.01618 3.71400
# Velocity P-wave (km/s) = 5.36215 6.71113 6.07420
#
# Compressibility (1/GPa) = 0.03704236
#
# Stress axis : x y z
#
# Youngs Moduli (GPa) = 85.39349 135.93660 41.72314
#
# Poissons Ratio (x) = 0.44533 -0.23491
# Poissons Ratio (y) = 0.27975 0.22323
# Poissons Ratio (z) = -0.48078 0.72729
#
# Static dielectric constant tensor:
#      x y z
#    x 1.718330 0.000000 0.000000 
#    y 0.000000 1.682850 0.000000 
#    z 0.000000 0.000000 1.698570 
# 
# From -- ./inp_files/5522.got.cif
#   From: 2010.05.17/outbox.cif.g08.bks.cpg/sg38_3_cif.got.tgz:5522.got - 2010.06.03 18:07:57.
