data_PCOD9359661
_publ_section_title
;
Structure prediction by ZEFSAII (Michael W. Deem and Ramdas Pophale) SiO2 
 PCOD9359661
Probable space group: A B M 2
;
_chemical_formula_sum "Si O2"
_cell_formula_units_Z 48
_cell_length_a 31.336393
_cell_length_b 14.002426
_cell_length_c 5.328592
_cell_angle_alpha 90.000000
_cell_angle_beta 90.000000
_cell_angle_gamma 90.000000
_cell_volume 2338.109033
_symmetry_space_group_name_H-M "A B M 2"
_symmetry_group_IT_number 39
_symmetry_cell_setting 'orthorhombic'
loop_
_space_group_symop_operation_xyz
x,y,z
-x,-y,z
-x,1/2+y,z
x,1/2-y,z
x,1/2+y,1/2+z
-x,1/2-y,1/2+z
-x,y,1/2+z
x,-y,1/2+z
loop_
_atom_site_type_symbol
_atom_site_label
_atom_site_fract_x
_atom_site_fract_y
_atom_site_fract_z
Si Si1 0.518111 0.607504 0.200740
Si Si2 0.323973 0.750000 0.746701
Si Si3 0.732631 0.250000 0.246674
Si Si4 0.017726 0.110026 0.691803
Si Si5 0.792758 0.065365 0.274256
Si Si6 0.111500 0.060844 0.722810
Si Si7 0.616638 0.936110 0.271778
O O1 0.500000 0.500000 0.171566
O O2 0.491984 0.650267 0.430798
O O3 0.567834 0.601137 0.262236
O O4 0.299457 0.750000 0.482062
O O5 0.352547 0.654711 0.763992
O O6 0.291881 0.750000 0.981993
O O7 0.761005 0.154227 0.264117
O O8 0.067509 0.116469 0.757007
O O9 0.008967 0.150355 0.419811
O O10 0.000000 0.000000 0.668186
O O11 0.841645 0.104040 0.261887
O O12 0.787395 0.003984 0.531015
O O13 0.109633 0.019951 0.439987
O O14 0.622784 0.997334 0.526016
#
# Coordination Sequence:
#
# PCOD9359661 Si02
#       7
#     8   4   4   8   8   8   8
#     4  10  16  32  61  90 123 172 205 243 300 354
#     4  12  30  44  66 101 124 163 222 254 316 406
#     4  12  26  50  66  89 132 159 206 276 324 370
#     4  10  14  20  36  65 109 149 176 227 289 333
#     4  10  23  40  68  94 118 158 212 259 317 382
#     4  10  16  27  44  77 113 140 195 245 277 363
#     4  12  23  42  68  95 136 171 209 261 316 355
#
# _framework density 20.529412000000001
#
# number of rings (size 3 to 8) (size 9 to 14) (size 15 to 20)
#    0.000    1.333    6.667    2.000    0.000    4.000 
#    0.000    0.833    0.000    0.000    0.000    1.167 
#    0.000    0.000    0.000    0.000    0.000    0.000 
#
# Total GULP energy -133938.576685 kJ/mol
# GULP energy per Si atom -5580.774029 kJ/mol
# Density = 2.048269 g / cm^3
# Si number density = 20.529412 Si / 1000 Ang^3
#
#
#
# Elastic Constant Matrix: (Units=GPa)
#
#
# Indices 1 2 3 4 5 6 
#
# 1 81.3954 28.3664 -16.2143 0.0000 0.0000 0.0000
# 2 28.3664 91.8775 7.8695 0.0000 0.0000 0.0000
# 3 -16.2143 7.8695 110.6461 0.0000 0.0000 0.0000
# 4 0.0000 0.0000 0.0000 -6.4191 0.0000 0.0000
# 5 0.0000 0.0000 0.0000 0.0000 35.8416 0.0000
# 6 0.0000 0.0000 0.0000 0.0000 0.0000 -290.5987
#
#
#
# Elastic Compliance Matrix: (Units=1/GPa)
#
#
# Indices 1 2 3 4 5 6 
#
# 1 0.014393 -0.004653 0.002440 0.000000 0.000000 0.000000
# 2 -0.004653 0.012455 -0.001568 0.000000 0.000000 0.000000
# 3 0.002440 -0.001568 0.009507 0.000000 0.000000 0.000000
# 4 0.000000 0.000000 0.000000 -0.155784 0.000000 0.000000
# 5 0.000000 0.000000 0.000000 0.000000 0.027901 0.000000
# 6 0.000000 0.000000 0.000000 0.000000 0.000000 -0.003441
#
#
# Mechanical properties :
#
#
# Convention : Reuss Voigt Hill
#
# Bulk Modulus (GPa) = 34.72896 35.99579 35.36238
# Shear Modulus (GPa) = -64.25813 -34.64208 -49.45011
#
# Velocity S-wave (km/s) = -5.60076 -4.11230 -4.91322
# Velocity P-wave (km/s) = 4.98711 2.23073 3.86312
#
# Compressibility (1/GPa) = 0.02879441
#
# Stress axis : x y z
#
# Youngs Moduli (GPa) = 69.47668 80.28999 105.18665
#
# Poissons Ratio (x) = 0.37358 -0.25667
# Poissons Ratio (y) = 0.32326 0.16490
# Poissons Ratio (z) = -0.16953 0.12587
#
# Static dielectric constant tensor:
#      x y z
#    x 1.726920 0.000000 0.000000 
#    y 0.000000 1.694410 0.000000 
#    z 0.000000 0.000000 1.754120 
# 
# From -- ./inp_files/1394.got.cif
#   From: 2010.05.17/outbox.cif.g08.bks.cpg/sg39_1_cif.got.tgz:1394.got - 2010.06.03 18:22:40.
