data_PCOD9359078
_publ_section_title
;
Structure prediction by ZEFSAII (Michael W. Deem and Ramdas Pophale) SiO2 
 PCOD9359078
Probable space group: A M M 2
;
_chemical_formula_sum "Si O2"
_cell_formula_units_Z 56
_cell_length_a 16.130854
_cell_length_b 7.994344
_cell_length_c 20.892801
_cell_angle_alpha 90.000000
_cell_angle_beta 90.000000
_cell_angle_gamma 90.000000
_cell_volume 2694.243603
_symmetry_space_group_name_H-M "A M M 2"
_symmetry_group_IT_number 38
_symmetry_cell_setting 'orthorhombic'
loop_
_space_group_symop_operation_xyz
x,y,z
-x,-y,z
-x,y,z
x,-y,z
x,1/2+y,1/2+z
-x,1/2-y,1/2+z
-x,1/2+y,1/2+z
x,1/2-y,1/2+z
loop_
_atom_site_type_symbol
_atom_site_label
_atom_site_fract_x
_atom_site_fract_y
_atom_site_fract_z
Si Si1 0.912636 0.698365 0.783300
Si Si2 0.731136 0.295000 0.818728
Si Si3 0.409582 0.299820 0.560419
Si Si4 0.726973 0.302168 0.958519
Si Si5 0.909241 0.197094 0.000120
Si Si6 0.313344 0.703393 0.679815
Si Si7 0.870533 0.302737 0.142672
O O1 0.912648 0.500000 0.795961
O O2 0.826404 0.764597 0.810525
O O3 0.908097 0.724576 0.706908
O O4 0.000000 0.770123 0.807176
O O5 0.731748 0.500000 0.818951
O O6 0.701930 0.237522 0.888086
O O7 0.683472 0.244513 0.754146
O O8 0.500000 0.233907 0.540385
O O9 0.414971 0.500000 0.563363
O O10 0.333829 0.263686 0.513020
O O11 0.385236 0.242058 0.631870
O O12 0.716582 0.500000 0.958754
O O13 0.824544 0.269069 0.970755
O O14 0.901513 0.225670 0.076556
O O15 0.000000 0.265404 0.979530
O O16 0.908481 0.000000 0.987296
O O17 0.308235 0.500000 0.679048
O O18 0.227586 0.770798 0.650348
O O19 0.887558 0.500000 0.141768
#
# Coordination Sequence:
#
# PCOD9359078 Si02
#       7
#     8   8   8   8   8   8   8
#     4   9  17  31  51  73 102 145 193 235 278 334
#     4   8  17  33  54  80 109 146 187 229 282 335
#     4  10  21  38  63  90 114 147 191 235 282 343
#     4  11  22  37  58  86 120 152 186 238 294 338
#     4  11  23  37  53  75 109 156 202 239 280 335
#     4   9  17  35  60  81 108 145 186 229 275 335
#     4  11  20  30  49  79 112 143 181 236 292 333
#
# _framework density 20.785056000000001
#
# number of rings (size 3 to 8) (size 9 to 14) (size 15 to 20)
#    0.000    2.143    1.429    3.429    0.000    4.000 
#    0.000    7.857    0.000    2.571    0.000    0.000 
#    0.000    0.000    0.000    0.000    0.000    0.000 
#
# Total GULP energy -156216.651991 kJ/mol
# GULP energy per Si atom -5579.166143 kJ/mol
# Density = 2.073775 g / cm^3
# Si number density = 20.785056 Si / 1000 Ang^3
#
#
#
# Elastic Constant Matrix: (Units=GPa)
#
#
# Indices 1 2 3 4 5 6 
#
# 1 101.6161 7.1075 51.3862 0.0000 0.0000 0.0000
# 2 7.1075 21.1983 0.4725 0.0000 0.0000 0.0000
# 3 51.3862 0.4725 127.3856 0.0000 0.0000 0.0000
# 4 0.0000 0.0000 0.0000 12.8433 0.0000 0.0000
# 5 0.0000 0.0000 0.0000 0.0000 1.4722 0.0000
# 6 0.0000 0.0000 0.0000 0.0000 0.0000 0.8492
#
#
#
# Elastic Compliance Matrix: (Units=1/GPa)
#
#
# Indices 1 2 3 4 5 6 
#
# 1 0.012718 -0.004150 -0.005115 0.000000 0.000000 0.000000
# 2 -0.004150 0.048532 0.001494 0.000000 0.000000 0.000000
# 3 -0.005115 0.001494 0.009908 0.000000 0.000000 0.000000
# 4 0.000000 0.000000 0.000000 0.077862 0.000000 0.000000
# 5 0.000000 0.000000 0.000000 0.000000 0.679271 0.000000
# 6 0.000000 0.000000 0.000000 0.000000 0.000000 1.177616
#
#
# Mechanical properties :
#
#
# Convention : Reuss Voigt Hill
#
# Bulk Modulus (GPa) = 17.98052 40.90358 29.44205
# Shear Modulus (GPa) = 2.45100 15.78185 9.11643
#
# Velocity S-wave (km/s) = 1.08709 2.75851 2.09656
# Velocity P-wave (km/s) = 3.20081 5.46515 4.47845
#
# Compressibility (1/GPa) = 0.05561574
#
# Stress axis : x y z
#
# Youngs Moduli (GPa) = 78.63027 20.60510 100.92940
#
# Poissons Ratio (x) = 0.08551 0.51624
# Poissons Ratio (y) = 0.32632 -0.15080
# Poissons Ratio (z) = 0.40218 -0.03079
#
# Static dielectric constant tensor:
#      x y z
#    x 1.774410 0.000000 0.000000 
#    y 0.000000 1.735050 0.000000 
#    z 0.000000 0.000000 1.760790 
# 
# From -- ./inp_files/21057.got.cif
#   From: 2010.05.17/outbox.cif.g08.bks.cpg/sg38_11_cif.got.tgz:21057.got - 2010.06.03 18:07:57.
