data_PCOD9359763
_publ_section_title
;
Structure prediction by ZEFSAII (Michael W. Deem and Ramdas Pophale) SiO2 
 PCOD9359763
Probable space group: A B M 2
;
_chemical_formula_sum "Si O2"
_cell_formula_units_Z 40
_cell_length_a 15.638471
_cell_length_b 8.409466
_cell_length_c 14.919722
_cell_angle_alpha 90.000000
_cell_angle_beta 90.000000
_cell_angle_gamma 90.000000
_cell_volume 1962.110397
_symmetry_space_group_name_H-M "A B M 2"
_symmetry_group_IT_number 39
_symmetry_cell_setting 'orthorhombic'
loop_
_space_group_symop_operation_xyz
x,y,z
-x,-y,z
-x,1/2+y,z
x,1/2-y,z
x,1/2+y,1/2+z
-x,1/2-y,1/2+z
-x,y,1/2+z
x,-y,1/2+z
loop_
_atom_site_type_symbol
_atom_site_label
_atom_site_fract_x
_atom_site_fract_y
_atom_site_fract_z
Si Si1 0.724635 0.056217 0.362130
Si Si2 0.596606 0.059110 0.513414
Si Si3 0.087325 0.561311 0.667159
Si Si4 0.267339 0.940464 0.154559
Si Si5 0.910051 0.562489 0.871292
O O1 0.726503 0.250000 0.363250
O O2 0.646225 0.004942 0.423443
O O3 0.718045 0.008979 0.258181
O O4 0.816850 0.999742 0.400103
O O5 0.597041 0.250000 0.515813
O O6 0.500000 0.000000 0.516729
O O7 0.654075 0.995142 0.594559
O O8 0.082114 0.750000 0.679588
O O9 0.177442 0.516509 0.623170
O O10 0.089665 0.475240 0.764431
O O11 0.000000 0.500000 0.622447
O O12 0.258850 0.750000 0.152428
O O13 0.910593 0.750000 0.885211
O O14 0.000000 0.500000 0.907509
#
# Coordination Sequence:
#
# PCOD9359763 Si02
#       5
#     8   8   8   8   8
#     4   8  18  36  58  80 111 148 184 224 275 330
#     4  11  23  41  60  82 109 143 184 235 288 339
#     4  10  17  28  49  80 114 151 188 227 271 325
#     4  10  20  38  60  85 114 149 187 230 278 333
#     4   9  15  27  48  77 110 147 184 224 270 325
#
# _framework density 20.386213000000001
#
# number of rings (size 3 to 8) (size 9 to 14) (size 15 to 20)
#    0.000    2.400    0.000    6.000    0.000    0.800 
#    0.000   15.000    0.000    2.400    0.000    0.000 
#    0.000    0.000    0.000    0.000    0.000    0.000 
#
# Total GULP energy -111610.044257 kJ/mol
# GULP energy per Si atom -5580.502213 kJ/mol
# Density = 2.033981 g / cm^3
# Si number density = 20.386213 Si / 1000 Ang^3
#
#
#
# Elastic Constant Matrix: (Units=GPa)
#
#
# Indices 1 2 3 4 5 6 
#
# 1 227.7909 28.0449 65.8070 0.0000 0.0000 0.0000
# 2 28.0449 39.8302 1.5239 0.0000 0.0000 0.0000
# 3 65.8070 1.5239 84.9478 0.0000 0.0000 0.0000
# 4 0.0000 0.0000 0.0000 7.4631 0.0000 0.0000
# 5 0.0000 0.0000 0.0000 0.0000 42.4596 0.0000
# 6 0.0000 0.0000 0.0000 0.0000 0.0000 36.7930
#
#
#
# Elastic Compliance Matrix: (Units=1/GPa)
#
#
# Indices 1 2 3 4 5 6 
#
# 1 0.006302 -0.004253 -0.004806 0.000000 0.000000 0.000000
# 2 -0.004253 0.027995 0.002793 0.000000 0.000000 0.000000
# 3 -0.004806 0.002793 0.015445 0.000000 0.000000 0.000000
# 4 0.000000 0.000000 0.000000 0.133993 0.000000 0.000000
# 5 0.000000 0.000000 0.000000 0.000000 0.023552 0.000000
# 6 0.000000 0.000000 0.000000 0.000000 0.000000 0.027179
#
#
# Mechanical properties :
#
#
# Convention : Reuss Voigt Hill
#
# Bulk Modulus (GPa) = 26.87543 60.36895 43.62219
# Shear Modulus (GPa) = 19.27521 34.48932 26.88227
#
# Velocity S-wave (km/s) = 3.07824 4.11761 3.63526
# Velocity P-wave (km/s) = 5.08388 7.23071 6.25016
#
# Compressibility (1/GPa) = 0.03720871
#
# Stress axis : x y z
#
# Youngs Moduli (GPa) = 158.68000 35.72113 64.74715
#
# Poissons Ratio (x) = 0.15194 0.31116
# Poissons Ratio (y) = 0.67494 -0.18083
# Poissons Ratio (z) = 0.76257 -0.09976
#
# Static dielectric constant tensor:
#      x y z
#    x 1.745360 0.000000 0.000000 
#    y 0.000000 1.696250 0.000000 
#    z 0.000000 0.000000 1.761780 
# 
# From -- ./inp_files/9634.got.cif
#   From: 2010.05.17/outbox.cif.g08.bks.cpg/sg39_5_cif.got.tgz:9634.got - 2010.06.03 18:22:40.
