data_PCOD9359614
_publ_section_title
;
Structure prediction by ZEFSAII (Michael W. Deem and Ramdas Pophale) SiO2 
 PCOD9359614
Probable space group: A M M 2
;
_chemical_formula_sum "Si O2"
_cell_formula_units_Z 32
_cell_length_a 18.000000
_cell_length_b 21.000000
_cell_length_c 9.000000
_cell_angle_alpha 90.000000
_cell_angle_beta 90.000000
_cell_angle_gamma 90.000000
_cell_volume 3402.000000
_symmetry_space_group_name_H-M "A M M 2"
_symmetry_group_IT_number 38
_symmetry_cell_setting 'orthorhombic'
loop_
_space_group_symop_operation_xyz
x,y,z
-x,-y,z
-x,y,z
x,-y,z
x,1/2+y,1/2+z
-x,1/2-y,1/2+z
-x,1/2+y,1/2+z
x,1/2-y,1/2+z
loop_
_atom_site_type_symbol
_atom_site_label
_atom_site_fract_x
_atom_site_fract_y
_atom_site_fract_z
Si Si1 0.133529 0.814347 0.746240
Si Si2 0.689140 0.426647 0.606018
Si Si3 0.630178 0.228737 0.569061
Si Si4 0.297532 0.671932 0.357613
Si Si5 0.087054 0.072395 0.531385
Si Si6 0.419831 0.159252 0.278095
Si Si7 0.081843 0.201235 0.068882
Si Si8 0.860637 0.572403 0.702464
O O1 0.212470 0.833182 0.813460
O O2 0.103779 0.873157 0.650067
O O3 0.137446 0.751615 0.643509
O O4 0.086582 0.797843 0.891896
O O5 0.666991 0.500000 0.596134
O O6 0.677294 0.389192 0.451484
O O7 0.644366 0.389147 0.732582
O O8 0.776051 0.423628 0.647469
O O9 0.689849 0.268656 0.470547
O O10 0.661137 0.185726 0.702700
O O11 0.589420 0.188294 0.442446
O O12 0.585372 0.282984 0.658669
O O13 0.132775 0.082085 0.379737
O O14 0.000000 0.075917 0.490847
O O15 0.101545 0.000000 0.586195
O O16 0.500000 0.128133 0.263967
O O17 0.096357 0.129689 0.124003
O O18 0.000000 0.222369 0.116577
O O19 0.888072 0.500000 0.672129
#
# Coordination Sequence:
#
# PCOD9359614 Si02
#       8
#     8   8   8   8   8   8   8   8
#     4  12  24  37  59  83 119 154 194 247 302 358
#     4  10  22  40  60  87 118 154 199 239 285 345
#     4   9  20  35  60  91 122 151 192 238 286 343
#     4  10  20  37  59  87 117 154 196 244 292 341
#     4  10  22  40  59  80 111 152 198 245 297 355
#     4  10  20  36  62  91 123 155 187 232 285 345
#     4  12  24  37  56  83 115 151 195 248 304 355
#     4  10  22  41  61  82 110 152 200 244 292 352
#
# _framework density 9.4062319999999993
#
# number of rings (size 3 to 8) (size 9 to 14) (size 15 to 20)
#    0.000    1.625    1.250    3.375    5.250    2.000 
#    0.000    1.250    0.000    0.000    0.000    0.000 
#    0.000    0.000    0.000    0.000    0.000    0.000 
#
# Total GULP energy -178542.948527 kJ/mol
# GULP energy per Si atom -5579.467141 kJ/mol
# Density = 0.938482 g / cm^3
# Si number density = 9.406232 Si / 1000 Ang^3
#
#
#
# Elastic Constant Matrix: (Units=GPa)
#
#
# Indices 1 2 3 4 5 6 
#
# 1 38.3133 8.9429 15.1787 0.0000 0.0000 0.0000
# 2 8.9429 96.5745 57.4820 0.0000 0.0000 0.0000
# 3 15.1787 57.4820 128.6991 0.0000 0.0000 0.0000
# 4 0.0000 0.0000 0.0000 27.1407 0.0000 0.0000
# 5 0.0000 0.0000 0.0000 0.0000 -5.7295 0.0000
# 6 0.0000 0.0000 0.0000 0.0000 0.0000 48.5298
#
#
#
# Elastic Compliance Matrix: (Units=1/GPa)
#
#
# Indices 1 2 3 4 5 6 
#
# 1 0.027429 -0.000837 -0.002861 0.000000 0.000000 0.000000
# 2 -0.000837 0.014130 -0.006212 0.000000 0.000000 0.000000
# 3 -0.002861 -0.006212 0.010882 0.000000 0.000000 0.000000
# 4 0.000000 0.000000 0.000000 0.036845 0.000000 0.000000
# 5 0.000000 0.000000 0.000000 0.000000 -0.174534 0.000000
# 6 0.000000 0.000000 0.000000 0.000000 0.000000 0.020606
#
#
# Mechanical properties :
#
#
# Convention : Reuss Voigt Hill
#
# Bulk Modulus (GPa) = 30.65545 47.42156 39.03851
# Shear Modulus (GPa) = -147.28613 26.12042 -60.58286
#
# Velocity S-wave (km/s) = -8.85786 3.73025 -5.68098
# Velocity P-wave (km/s) = 9.39601 6.61931 4.71539
#
# Compressibility (1/GPa) = 0.03262063
#
# Stress axis : x y z
#
# Youngs Moduli (GPa) = 36.45713 70.77270 91.89397
#
# Poissons Ratio (x) = 0.05924 0.26293
# Poissons Ratio (y) = 0.03051 0.57086
# Poissons Ratio (z) = 0.10431 0.43965
#
# Static dielectric constant tensor:
#      x y z
#    x 1.673990 0.000000 0.000000 
#    y 0.000000 1.635390 0.000000 
#    z 0.000000 0.000000 1.620800 
# 
# From -- ./inp_files/6461.got.cif
#   From: 2010.05.17/outbox.ucp.g08.bks.cvg/sg38_4_cif.got.tgz:6461.got - 2010.06.11 10:39:43.
