data_PCOD9359222
_publ_section_title
;
Structure prediction by ZEFSAII (Michael W. Deem and Ramdas Pophale) SiO2 
 PCOD9359222
Probable space group: A M M 2
;
_chemical_formula_sum "Si O2"
_cell_formula_units_Z 48
_cell_length_a 8.671724
_cell_length_b 18.605252
_cell_length_c 15.206842
_cell_angle_alpha 90.000000
_cell_angle_beta 90.000000
_cell_angle_gamma 90.000000
_cell_volume 2453.465962
_symmetry_space_group_name_H-M "A M M 2"
_symmetry_group_IT_number 38
_symmetry_cell_setting 'orthorhombic'
loop_
_space_group_symop_operation_xyz
x,y,z
-x,-y,z
-x,y,z
x,-y,z
x,1/2+y,1/2+z
-x,1/2-y,1/2+z
-x,1/2+y,1/2+z
x,1/2-y,1/2+z
loop_
_atom_site_type_symbol
_atom_site_label
_atom_site_fract_x
_atom_site_fract_y
_atom_site_fract_z
Si Si1 0.820476 0.119976 0.644390
Si Si2 0.176851 0.000000 0.497589
Si Si3 0.680331 0.734931 0.591895
Si Si4 0.319892 0.500000 0.812346
Si Si5 0.815205 0.274196 0.398420
Si Si6 0.814956 0.347257 0.754358
Si Si7 0.683955 0.078111 0.824991
O O1 0.805428 0.068922 0.560109
O O2 0.711804 0.188360 0.636510
O O3 0.770062 0.079205 0.731673
O O4 0.000000 0.142618 0.651426
O O5 0.291783 0.000000 0.417088
O O6 0.000000 0.000000 0.463154
O O7 0.500000 0.721396 0.578989
O O8 0.763714 0.740201 0.497957
O O9 0.750737 0.678005 0.660159
O O10 0.500000 0.500000 0.791340
O O11 0.244232 0.573388 0.777236
O O12 0.766803 0.211181 0.329775
O O13 0.743551 0.351071 0.373358
O O14 0.000000 0.278566 0.393515
O O15 0.000000 0.346954 0.752348
O O16 0.500000 0.083623 0.812404
O O17 0.714905 0.000000 0.868030
#
# Coordination Sequence:
#
# PCOD9359222 Si02
#       7
#     8   4   8   4   8   8   8
#     4  11  21  37  61  91 127 168 213 257 314 384
#     4  10  22  38  60  91 128 169 214 262 314 382
#     4  12  25  41  65  96 130 167 214 270 326 382
#     4  12  26  42  64  95 130 167 212 268 330 382
#     4  11  24  43  69  96 127 171 221 266 318 386
#     4  11  24  45  70  94 128 172 219 267 319 386
#     4  11  23  39  62  94 132 168 208 263 324 377
#
# _framework density 19.564160999999999
#
# number of rings (size 3 to 8) (size 9 to 14) (size 15 to 20)
#    0.000    0.833    2.500    5.250    0.000    8.333 
#    1.500    0.000    0.000    0.000    0.000    0.000 
#    0.000    0.000    0.000    0.000    0.000    0.000 
#
# Total GULP energy -134172.360537 kJ/mol
# GULP energy per Si atom -5590.515022 kJ/mol
# Density = 1.951963 g / cm^3
# Si number density = 19.564161 Si / 1000 Ang^3
#
#
#
# Elastic Constant Matrix: (Units=GPa)
#
#
# Indices 1 2 3 4 5 6 
#
# 1 69.5965 21.9055 8.6040 0.0000 0.0000 0.0000
# 2 21.9055 116.4778 15.6624 0.0000 0.0000 0.0000
# 3 8.6040 15.6624 56.3046 0.0000 0.0000 0.0000
# 4 0.0000 0.0000 0.0000 30.5808 0.0000 0.0000
# 5 0.0000 0.0000 0.0000 0.0000 18.1233 0.0000
# 6 0.0000 0.0000 0.0000 0.0000 0.0000 24.8342
#
#
#
# Elastic Compliance Matrix: (Units=1/GPa)
#
#
# Indices 1 2 3 4 5 6 
#
# 1 0.015412 -0.002682 -0.001609 0.000000 0.000000 0.000000
# 2 -0.002682 0.009386 -0.002201 0.000000 0.000000 0.000000
# 3 -0.001609 -0.002201 0.018619 0.000000 0.000000 0.000000
# 4 0.000000 0.000000 0.000000 0.032700 0.000000 0.000000
# 5 0.000000 0.000000 0.000000 0.000000 0.055178 0.000000
# 6 0.000000 0.000000 0.000000 0.000000 0.000000 0.040267
#
#
# Mechanical properties :
#
#
# Convention : Reuss Voigt Hill
#
# Bulk Modulus (GPa) = 32.86027 37.19141 35.02584
# Shear Modulus (GPa) = 25.68197 27.78811 26.73504
#
# Velocity S-wave (km/s) = 3.62706 3.77285 3.70067
# Velocity P-wave (km/s) = 5.86288 6.16688 6.01680
#
# Compressibility (1/GPa) = 0.03043189
#
# Stress axis : x y z
#
# Youngs Moduli (GPa) = 64.88609 106.54524 53.70958
#
# Poissons Ratio (x) = 0.28576 0.08642
# Poissons Ratio (y) = 0.17403 0.11821
# Poissons Ratio (z) = 0.10440 0.23450
#
# Static dielectric constant tensor:
#      x y z
#    x 1.656900 0.000000 0.000000 
#    y 0.000000 1.756510 0.000000 
#    z 0.000000 0.000000 1.666570 
# 
# From -- ./inp_files/12146.got.cif
#   From: 2010.05.17/outbox.cif.g08.bks.cpg/sg38_7_cif.got.tgz:12146.got - 2010.06.03 18:07:57.
