data_PCOD9359820
_publ_section_title
;
Structure prediction by ZEFSAII (Michael W. Deem and Ramdas Pophale) SiO2 
 PCOD9359820
Probable space group: A B M 2
;
_chemical_formula_sum "Si O2"
_cell_formula_units_Z 64
_cell_length_a 14.527142
_cell_length_b 8.690164
_cell_length_c 31.939849
_cell_angle_alpha 90.000000
_cell_angle_beta 90.000000
_cell_angle_gamma 90.000000
_cell_volume 4032.190228
_symmetry_space_group_name_H-M "A B M 2"
_symmetry_group_IT_number 39
_symmetry_cell_setting 'orthorhombic'
loop_
_space_group_symop_operation_xyz
x,y,z
-x,-y,z
-x,1/2+y,z
x,1/2-y,z
x,1/2+y,1/2+z
-x,1/2-y,1/2+z
-x,y,1/2+z
x,-y,1/2+z
loop_
_atom_site_type_symbol
_atom_site_label
_atom_site_fract_x
_atom_site_fract_y
_atom_site_fract_z
Si Si1 0.396724 0.434383 0.247680
Si Si2 0.719956 0.565153 0.503519
Si Si3 0.397286 0.434720 0.586182
Si Si4 0.099045 0.433798 0.631813
Si Si5 0.604091 0.066203 0.334495
Si Si6 0.603395 0.565310 0.421427
Si Si7 0.098322 0.566762 0.538397
Si Si8 0.716675 0.565705 0.164342
O O1 0.500000 0.500000 0.241505
O O2 0.403308 0.250000 0.251792
O O3 0.356726 0.504052 0.290757
O O4 0.334655 0.472207 0.207627
O O5 0.733681 0.750000 0.504156
O O6 0.657147 0.525132 0.543683
O O7 0.665911 0.525127 0.461205
O O8 0.817594 0.483591 0.509270
O O9 0.500000 0.500000 0.584681
O O10 0.399815 0.250000 0.589701
O O11 0.343686 0.503116 0.625797
O O12 0.096348 0.250000 0.630582
O O13 0.115988 0.495908 0.584606
O O14 0.182665 0.492423 0.660026
O O15 0.000000 0.500000 0.644914
O O16 0.602298 0.250000 0.334745
O O17 0.500000 0.000000 0.334364
O O18 0.643177 0.002499 0.378084
O O19 0.500000 0.500000 0.427324
O O20 0.597187 0.750000 0.418071
O O21 0.092805 0.750000 0.542137
O O22 0.000000 0.500000 0.524314
O O23 0.723759 0.750000 0.161067
#
# Coordination Sequence:
#
# PCOD9359820 Si02
#       8
#     8   8   8   8   8   8   8   8
#     4  10  20  33  50  72 101 133 169 208 249 298
#     4  10  21  35  50  72 100 134 171 207 249 297
#     4  11  22  34  48  67  99 138 173 207 242 290
#     4  11  21  35  54  74  99 129 166 210 255 299
#     4  10  18  30  49  71  97 128 167 209 252 296
#     4  10  19  32  50  72 102 135 169 208 249 295
#     4  11  21  34  54  74  98 129 166 211 255 298
#     4  11  22  35  51  74 100 132 171 208 251 299
#
# _framework density 15.872267000000001
#
# number of rings (size 3 to 8) (size 9 to 14) (size 15 to 20)
#    0.000    1.500    1.250    7.875    0.000    4.500 
#    0.000    0.000    0.000    0.000    0.000    0.875 
#    0.000    0.000    0.000    0.000    0.000    0.000 
#
# Total GULP energy -178702.772883 kJ/mol
# GULP energy per Si atom -5584.461653 kJ/mol
# Density = 1.583614 g / cm^3
# Si number density = 15.872267 Si / 1000 Ang^3
#
#
#
# Elastic Constant Matrix: (Units=GPa)
#
#
# Indices 1 2 3 4 5 6 
#
# 1 113.6712 55.6543 70.7371 0.0000 0.0000 0.0000
# 2 55.6543 101.1020 70.6119 0.0000 0.0000 0.0000
# 3 70.7371 70.6119 147.3271 0.0000 0.0000 0.0000
# 4 0.0000 0.0000 0.0000 23.8892 0.0000 0.0000
# 5 0.0000 0.0000 0.0000 0.0000 6.5415 0.0000
# 6 0.0000 0.0000 0.0000 0.0000 0.0000 26.7447
#
#
#
# Elastic Compliance Matrix: (Units=1/GPa)
#
#
# Indices 1 2 3 4 5 6 
#
# 1 0.013760 -0.004450 -0.004474 0.000000 0.000000 0.000000
# 2 -0.004450 0.016307 -0.005679 0.000000 0.000000 0.000000
# 3 -0.004474 -0.005679 0.011658 0.000000 0.000000 0.000000
# 4 0.000000 0.000000 0.000000 0.041860 0.000000 0.000000
# 5 0.000000 0.000000 0.000000 0.000000 0.152870 0.000000
# 6 0.000000 0.000000 0.000000 0.000000 0.000000 0.037391
#
#
# Mechanical properties :
#
#
# Convention : Reuss Voigt Hill
#
# Bulk Modulus (GPa) = 79.88016 84.01187 81.94601
# Shear Modulus (GPa) = 16.27477 22.44157 19.35817
#
# Velocity S-wave (km/s) = 3.20560 3.76425 3.49610
# Velocity P-wave (km/s) = 8.00857 8.48160 8.24848
#
# Compressibility (1/GPa) = 0.01251875
#
# Stress axis : x y z
#
# Youngs Moduli (GPa) = 72.67366 61.32321 85.78043
#
# Poissons Ratio (x) = 0.27288 0.38378
# Poissons Ratio (y) = 0.32339 0.48716
# Poissons Ratio (z) = 0.32514 0.34827
#
# Static dielectric constant tensor:
#      x y z
#    x 1.516490 0.000000 0.000000 
#    y 0.000000 1.532310 0.000000 
#    z 0.000000 0.000000 1.541070 
# 
# From -- ./inp_files/17954.got.cif
#   From: 2010.05.17/outbox.cif.g08.bks.cpg/sg39_9_cif.got.tgz:17954.got - 2010.06.03 18:22:40.
