data_PCOD9359331
_publ_section_title
;
Structure prediction by ZEFSAII (Michael W. Deem and Ramdas Pophale) SiO2 
 PCOD9359331
Probable space group: A M M 2
;
_chemical_formula_sum "Si O2"
_cell_formula_units_Z 48
_cell_length_a 19.293072
_cell_length_b 8.571685
_cell_length_c 15.078808
_cell_angle_alpha 90.000000
_cell_angle_beta 90.000000
_cell_angle_gamma 90.000000
_cell_volume 2493.644843
_symmetry_space_group_name_H-M "A M M 2"
_symmetry_group_IT_number 38
_symmetry_cell_setting 'orthorhombic'
loop_
_space_group_symop_operation_xyz
x,y,z
-x,-y,z
-x,y,z
x,-y,z
x,1/2+y,1/2+z
-x,1/2-y,1/2+z
-x,1/2+y,1/2+z
x,1/2-y,1/2+z
loop_
_atom_site_type_symbol
_atom_site_label
_atom_site_fract_x
_atom_site_fract_y
_atom_site_fract_z
Si Si1 0.753813 0.315881 0.436950
Si Si2 0.500000 0.686862 0.581583
Si Si3 0.000000 0.180840 0.526164
Si Si4 0.500000 0.813173 0.784232
Si Si5 0.000000 0.682842 0.333981
Si Si6 0.601096 0.314966 0.932911
Si Si7 0.140268 0.683472 0.589384
Si Si8 0.850879 0.818498 0.290728
O O1 0.739477 0.500000 0.445182
O O2 0.681835 0.225856 0.433118
O O3 0.802315 0.266528 0.518972
O O4 0.800763 0.282035 0.351529
O O5 0.500000 0.500000 0.584681
O O6 0.500000 0.749840 0.682942
O O7 0.564612 0.744848 0.521078
O O8 0.069731 0.220514 0.578727
O O9 0.000000 0.288937 0.439441
O O10 0.000000 0.000000 0.499255
O O11 0.435368 0.755286 0.844759
O O12 0.500000 0.000000 0.781043
O O13 0.069922 0.762729 0.299776
O O14 0.000000 0.500000 0.312820
O O15 0.589892 0.500000 0.932685
O O16 0.123931 0.500000 0.572701
O O17 0.168495 0.695780 0.688239
O O18 0.846506 0.000000 0.317715
#
# Coordination Sequence:
#
# PCOD9359331 Si02
#       8
#     8   4   4   4   4   8   8   8
#     4  11  23  41  62  87 123 167 204 248 306 365
#     4  11  22  41  68  98 130 165 206 251 304 362
#     4  12  23  36  61  88 114 150 203 257 306 363
#     4  11  22  41  68  98 128 163 208 253 302 364
#     4  12  23  38  59  84 116 156 199 253 316 367
#     4  11  23  41  64  94 130 167 207 254 303 359
#     4  10  23  41  61  84 119 158 198 249 311 366
#     4  11  23  40  61  88 117 156 205 255 308 365
#
# _framework density 19.248933999999998
#
# number of rings (size 3 to 8) (size 9 to 14) (size 15 to 20)
#    0.000    1.000    1.667    7.000    0.000    5.333 
#    0.000    5.000    0.000    0.000    0.000    0.000 
#    0.000    0.000    0.000    0.000    0.000    0.000 
#
# Total GULP energy -134186.541612 kJ/mol
# GULP energy per Si atom -5591.105901 kJ/mol
# Density = 1.920512 g / cm^3
# Si number density = 19.248934 Si / 1000 Ang^3
#
#
#
# Elastic Constant Matrix: (Units=GPa)
#
#
# Indices 1 2 3 4 5 6 
#
# 1 126.2437 32.1211 49.3187 0.0000 0.0000 0.0000
# 2 32.1211 103.2351 38.0290 0.0000 0.0000 0.0000
# 3 49.3187 38.0290 124.2169 0.0000 0.0000 0.0000
# 4 0.0000 0.0000 0.0000 29.4750 0.0000 0.0000
# 5 0.0000 0.0000 0.0000 0.0000 93.6140 0.0000
# 6 0.0000 0.0000 0.0000 0.0000 0.0000 28.3490
#
#
#
# Elastic Compliance Matrix: (Units=1/GPa)
#
#
# Indices 1 2 3 4 5 6 
#
# 1 0.009662 -0.001796 -0.003286 0.000000 0.000000 0.000000
# 2 -0.001796 0.011252 -0.002732 0.000000 0.000000 0.000000
# 3 -0.003286 -0.002732 0.010192 0.000000 0.000000 0.000000
# 4 0.000000 0.000000 0.000000 0.033927 0.000000 0.000000
# 5 0.000000 0.000000 0.000000 0.000000 0.010682 0.000000
# 6 0.000000 0.000000 0.000000 0.000000 0.000000 0.035275
#
#
# Mechanical properties :
#
#
# Convention : Reuss Voigt Hill
#
# Bulk Modulus (GPa) = 64.60966 65.84812 65.22889
# Shear Modulus (GPa) = 37.94322 45.90272 41.92297
#
# Velocity S-wave (km/s) = 4.44462 4.88863 4.67190
# Velocity P-wave (km/s) = 7.74453 8.13313 7.94121
#
# Compressibility (1/GPa) = 0.01547756
#
# Stress axis : x y z
#
# Youngs Moduli (GPa) = 103.49887 88.87594 98.12015
#
# Poissons Ratio (x) = 0.15959 0.32246
# Poissons Ratio (y) = 0.18585 0.26804
# Poissons Ratio (z) = 0.34014 0.24279
#
# Static dielectric constant tensor:
#      x y z
#    x 1.651490 0.000000 0.000000 
#    y 0.000000 1.656020 0.000000 
#    z 0.000000 0.000000 1.664820 
# 
# From -- ./inp_files/15115.got.cif
#   From: 2010.05.17/outbox.cif.g08.bks.cpg/sg38_8_cif.got.tgz:15115.got - 2010.06.03 18:07:57.
