data_PCOD9359237
_publ_section_title
;
Structure prediction by ZEFSAII (Michael W. Deem and Ramdas Pophale) SiO2 
 PCOD9359237
Probable space group: A M M 2
;
_chemical_formula_sum "Si O2"
_cell_formula_units_Z 56
_cell_length_a 8.782977
_cell_length_b 21.256759
_cell_length_c 14.266739
_cell_angle_alpha 90.000000
_cell_angle_beta 90.000000
_cell_angle_gamma 90.000000
_cell_volume 2663.566293
_symmetry_space_group_name_H-M "A M M 2"
_symmetry_group_IT_number 38
_symmetry_cell_setting 'orthorhombic'
loop_
_space_group_symop_operation_xyz
x,y,z
-x,-y,z
-x,y,z
x,-y,z
x,1/2+y,1/2+z
-x,1/2-y,1/2+z
-x,1/2+y,1/2+z
x,1/2-y,1/2+z
loop_
_atom_site_type_symbol
_atom_site_label
_atom_site_fract_x
_atom_site_fract_y
_atom_site_fract_z
Si Si1 0.182331 0.431094 0.868430
Si Si2 0.316126 0.244597 0.566175
Si Si3 0.327705 0.160247 0.228100
Si Si4 0.175582 0.161858 0.919195
Si Si5 0.182266 0.605604 0.077109
Si Si6 0.318258 0.070245 0.772300
Si Si7 0.668425 0.073736 0.052143
O O1 0.237727 0.500000 0.833268
O O2 0.240537 0.368993 0.815385
O O3 0.000000 0.431003 0.859720
O O4 0.220925 0.425860 0.977979
O O5 0.500000 0.241964 0.566051
O O6 0.269764 0.283742 0.660482
O O7 0.261236 0.281361 0.472581
O O8 0.241178 0.176917 0.571109
O O9 0.500000 0.176604 0.256616
O O10 0.331608 0.102292 0.155096
O O11 0.248100 0.129619 0.827710
O O12 0.000000 0.177914 0.903821
O O13 0.198718 0.105867 0.994345
O O14 0.260231 0.574114 0.166263
O O15 0.000000 0.603629 0.088676
O O16 0.500000 0.075007 0.775445
O O17 0.277056 0.000000 0.810796
O O18 0.500000 0.090895 0.010718
O O19 0.680820 0.000000 0.053027
#
# Coordination Sequence:
#
# PCOD9359237 Si02
#       7
#     8   8   8   8   8   8   8
#     4  10  22  39  59  86 120 155 190 235 293 350
#     4  10  22  42  63  87 122 160 201 246 297 358
#     4   9  19  35  57  84 114 151 193 239 287 341
#     4  11  22  36  58  88 120 155 197 246 301 359
#     4  11  24  42  63  87 119 158 202 253 304 355
#     4  11  24  42  64  90 120 158 204 251 304 366
#     4   9  17  31  51  78 115 155 193 238 294 354
#
# _framework density 21.024445
#
# number of rings (size 3 to 8) (size 9 to 14) (size 15 to 20)
#    0.000    1.857    0.000    4.714    0.000    9.714 
#    0.000    2.857    0.000    0.000    0.000    0.000 
#    0.000    0.000    0.000    0.000    0.000    0.000 
#
# Total GULP energy -156302.394966 kJ/mol
# GULP energy per Si atom -5582.228392 kJ/mol
# Density = 2.097659 g / cm^3
# Si number density = 21.024445 Si / 1000 Ang^3
#
#
#
# Elastic Constant Matrix: (Units=GPa)
#
#
# Indices 1 2 3 4 5 6 
#
# 1 42.9753 7.1479 24.8735 0.0000 0.0000 0.0000
# 2 7.1479 83.0675 18.2811 0.0000 0.0000 0.0000
# 3 24.8735 18.2811 65.3201 0.0000 0.0000 0.0000
# 4 0.0000 0.0000 0.0000 22.6259 0.0000 0.0000
# 5 0.0000 0.0000 0.0000 0.0000 33.0310 0.0000
# 6 0.0000 0.0000 0.0000 0.0000 0.0000 16.9231
#
#
#
# Elastic Compliance Matrix: (Units=1/GPa)
#
#
# Indices 1 2 3 4 5 6 
#
# 1 0.029848 -0.000071 -0.011346 0.000000 0.000000 0.000000
# 2 -0.000071 0.012829 -0.003563 0.000000 0.000000 0.000000
# 3 -0.011346 -0.003563 0.020627 0.000000 0.000000 0.000000
# 4 0.000000 0.000000 0.000000 0.044197 0.000000 0.000000
# 5 0.000000 0.000000 0.000000 0.000000 0.030275 0.000000
# 6 0.000000 0.000000 0.000000 0.000000 0.000000 0.059091
#
#
# Mechanical properties :
#
#
# Convention : Reuss Voigt Hill
#
# Bulk Modulus (GPa) = 29.99175 32.44090 31.21633
# Shear Modulus (GPa) = 21.01359 23.92003 22.46681
#
# Velocity S-wave (km/s) = 3.16489 3.37668 3.27250
# Velocity P-wave (km/s) = 5.25847 5.53771 5.39989
#
# Compressibility (1/GPa) = 0.03334250
#
# Stress axis : x y z
#
# Youngs Moduli (GPa) = 33.50312 77.95017 48.48039
#
# Poissons Ratio (x) = 0.00557 0.55006
# Poissons Ratio (y) = 0.00239 0.17274
# Poissons Ratio (z) = 0.38012 0.27775
#
# Static dielectric constant tensor:
#      x y z
#    x 1.741290 0.000000 0.000000 
#    y 0.000000 1.757640 0.000000 
#    z 0.000000 0.000000 1.785640 
# 
# From -- ./inp_files/12453.got.cif
#   From: 2010.05.17/outbox.cif.g08.bks.cpg/sg38_7_cif.got.tgz:12453.got - 2010.06.03 18:07:57.
