data_PCOD9359950
_publ_section_title
;
Structure prediction by ZEFSAII (Michael W. Deem and Ramdas Pophale) SiO2 
 PCOD9359950
Probable space group: A B M 2
;
_chemical_formula_sum "Si O2"
_cell_formula_units_Z 64
_cell_length_a 20.095095
_cell_length_b 8.189964
_cell_length_c 21.169446
_cell_angle_alpha 90.000000
_cell_angle_beta 90.000000
_cell_angle_gamma 90.000000
_cell_volume 3484.027299
_symmetry_space_group_name_H-M "A B M 2"
_symmetry_group_IT_number 39
_symmetry_cell_setting 'orthorhombic'
loop_
_space_group_symop_operation_xyz
x,y,z
-x,-y,z
-x,1/2+y,z
x,1/2-y,z
x,1/2+y,1/2+z
-x,1/2-y,1/2+z
-x,y,1/2+z
x,-y,1/2+z
loop_
_atom_site_type_symbol
_atom_site_label
_atom_site_fract_x
_atom_site_fract_y
_atom_site_fract_z
Si Si1 0.210129 0.947556 0.639600
Si Si2 0.213230 0.049808 0.389898
Si Si3 0.573058 0.055568 0.563848
Si Si4 0.427215 0.553165 0.709274
Si Si5 0.290949 0.050901 0.264767
Si Si6 0.712203 0.055938 0.015256
Si Si7 0.073246 0.446787 0.338429
Si Si8 0.927226 0.553398 0.192236
O O1 0.211635 0.750000 0.637207
O O2 0.249164 0.997150 0.703013
O O3 0.134047 0.002427 0.649283
O O4 0.247052 0.009738 0.577897
O O5 0.212813 0.250000 0.390559
O O6 0.255849 0.997277 0.328892
O O7 0.248722 0.992451 0.453715
O O8 0.136724 0.997819 0.378974
O O9 0.572909 0.250000 0.566561
O O10 0.581862 0.994348 0.636567
O O11 0.500000 0.000000 0.541857
O O12 0.636406 0.002800 0.523322
O O13 0.500000 0.500000 0.730773
O O14 0.425102 0.750000 0.707557
O O15 0.366473 0.496581 0.752685
O O16 0.290518 0.250000 0.266180
O O17 0.709878 0.250000 0.010179
O O18 0.074368 0.250000 0.337401
O O19 0.081550 0.502733 0.265242
O O20 0.000000 0.500000 0.360160
O O21 0.925087 0.750000 0.193767
O O22 0.000000 0.500000 0.170616
#
# Coordination Sequence:
#
# PCOD9359950 Si02
#       8
#     8   8   8   8   8   8   8   8
#     4  10  18  33  55  76  99 135 177 215 259 310
#     4   9  18  33  53  75 103 139 177 211 253 313
#     4  10  19  34  55  79 105 137 176 216 259 311
#     4   9  17  29  50  76 100 127 163 209 253 296
#     4   9  15  30  54  75  95 129 175 212 249 303
#     4  11  22  34  51  79 110 141 174 215 262 308
#     4   9  16  30  52  76 100 129 169 216 260 312
#     4   9  17  29  51  78 103 131 169 217 268 314
#
# _framework density 18.369544999999999
#
# number of rings (size 3 to 8) (size 9 to 14) (size 15 to 20)
#    0.000    2.500    2.500    0.750    0.000    1.000 
#    0.000    2.500    0.000    8.250    0.000    0.000 
#    0.000    0.000    0.000    0.000    0.000    0.000 
#
# Total GULP energy -178437.184529 kJ/mol
# GULP energy per Si atom -5576.162017 kJ/mol
# Density = 1.832774 g / cm^3
# Si number density = 18.369545 Si / 1000 Ang^3
#
#
#
# Elastic Constant Matrix: (Units=GPa)
#
#
# Indices 1 2 3 4 5 6 
#
# 1 208.3523 19.2552 87.3648 0.0000 0.0000 0.0000
# 2 19.2552 11.4326 10.8213 0.0000 0.0000 0.0000
# 3 87.3648 10.8213 109.2844 0.0000 0.0000 0.0000
# 4 0.0000 0.0000 0.0000 11.9433 0.0000 0.0000
# 5 0.0000 0.0000 0.0000 0.0000 27.9300 0.0000
# 6 0.0000 0.0000 0.0000 0.0000 0.0000 29.6117
#
#
#
# Elastic Compliance Matrix: (Units=1/GPa)
#
#
# Indices 1 2 3 4 5 6 
#
# 1 0.007833 -0.008017 -0.005468 0.000000 0.000000 0.000000
# 2 -0.008017 0.104721 -0.003960 0.000000 0.000000 0.000000
# 3 -0.005468 -0.003960 0.013914 0.000000 0.000000 0.000000
# 4 0.000000 0.000000 0.000000 0.083729 0.000000 0.000000
# 5 0.000000 0.000000 0.000000 0.000000 0.035804 0.000000
# 6 0.000000 0.000000 0.000000 0.000000 0.000000 0.033770
#
#
# Mechanical properties :
#
#
# Convention : Reuss Voigt Hill
#
# Bulk Modulus (GPa) = 10.91984 62.66133 36.79058
# Shear Modulus (GPa) = 14.48485 28.00555 21.24520
#
# Velocity S-wave (km/s) = 2.81112 3.90880 3.40449
# Velocity P-wave (km/s) = 4.06127 7.38629 5.96033
#
# Compressibility (1/GPa) = 0.09157644
#
# Stress axis : x y z
#
# Youngs Moduli (GPa) = 127.65715 9.54923 71.86936
#
# Poissons Ratio (x) = 0.07656 0.39301
# Poissons Ratio (y) = 1.02348 0.28460
# Poissons Ratio (z) = 0.69808 0.03781
#
# Static dielectric constant tensor:
#      x y z
#    x 1.653830 0.000000 0.000000 
#    y 0.000000 1.655150 0.000000 
#    z 0.000000 0.000000 1.614090 
# 
# From -- ./inp_files/13097.got.cif
#   From: 2010.05.17/outbox.cif.g08.bks.cpg/sg39_7_cif.got.tgz:13097.got - 2010.06.03 18:22:40.
