data_PCOD9359455
_publ_section_title
;
Structure prediction by ZEFSAII (Michael W. Deem and Ramdas Pophale) SiO2 
 PCOD9359455
Probable space group: A M M 2
;
_chemical_formula_sum "Si O2"
_cell_formula_units_Z 40
_cell_length_a 15.009269
_cell_length_b 8.032281
_cell_length_c 15.702613
_cell_angle_alpha 90.000000
_cell_angle_beta 90.000000
_cell_angle_gamma 90.000000
_cell_volume 1893.086079
_symmetry_space_group_name_H-M "A M M 2"
_symmetry_group_IT_number 38
_symmetry_cell_setting 'orthorhombic'
loop_
_space_group_symop_operation_xyz
x,y,z
-x,-y,z
-x,y,z
x,-y,z
x,1/2+y,1/2+z
-x,1/2-y,1/2+z
-x,1/2+y,1/2+z
x,1/2-y,1/2+z
loop_
_atom_site_type_symbol
_atom_site_label
_atom_site_fract_x
_atom_site_fract_y
_atom_site_fract_z
Si Si1 0.902722 0.297557 0.332180
Si Si2 0.902856 0.797886 0.033181
Si Si3 0.710092 0.195282 0.082649
Si Si4 0.398367 0.195874 0.421038
Si Si5 0.282920 0.304471 0.262842
O O1 0.901625 0.500000 0.327962
O O2 0.895362 0.256913 0.432597
O O3 0.815988 0.235304 0.283464
O O4 0.000000 0.240155 0.301430
O O5 0.812267 0.739261 0.077077
O O6 0.000000 0.736777 0.063817
O O7 0.904677 0.000000 0.039380
O O8 0.678259 0.220736 0.178712
O O9 0.712146 0.000000 0.061775
O O10 0.649560 0.278342 0.011325
O O11 0.500000 0.257456 0.423957
O O12 0.341851 0.280959 0.346659
O O13 0.399398 0.000000 0.402009
O O14 0.275549 0.500000 0.244871
#
# Coordination Sequence:
#
# PCOD9359455 Si02
#       5
#     8   8   8   8   8
#     4   8  14  28  53  84 118 157 198 237 282 339
#     4   8  14  28  53  84 118 157 198 237 282 339
#     4  11  22  38  62  92 123 159 198 241 293 350
#     4  11  25  45  66  87 114 150 195 251 308 359
#     4  11  22  38  62  92 123 159 198 241 293 350
#
# _framework density 21.129518999999998
#
# number of rings (size 3 to 8) (size 9 to 14) (size 15 to 20)
#    0.000    2.200    2.000    3.000    0.000    3.200 
#    0.000    0.000    0.000    4.800    0.000    0.000 
#    0.000    0.000    0.000    0.000    0.000    0.000 
#
# Total GULP energy -111678.701466 kJ/mol
# GULP energy per Si atom -5583.935073 kJ/mol
# Density = 2.108143 g / cm^3
# Si number density = 21.129519 Si / 1000 Ang^3
#
#
#
# Elastic Constant Matrix: (Units=GPa)
#
#
# Indices 1 2 3 4 5 6 
#
# 1 117.5750 1.1466 37.3560 0.0000 0.0000 0.0000
# 2 1.1466 24.6819 -11.9725 0.0000 0.0000 0.0000
# 3 37.3560 -11.9725 87.1986 0.0000 0.0000 0.0000
# 4 0.0000 0.0000 0.0000 22.2805 0.0000 0.0000
# 5 0.0000 0.0000 0.0000 0.0000 -7.2349 0.0000
# 6 0.0000 0.0000 0.0000 0.0000 0.0000 -7.8599
#
#
#
# Elastic Compliance Matrix: (Units=1/GPa)
#
#
# Indices 1 2 3 4 5 6 
#
# 1 0.010014 -0.002728 -0.004664 0.000000 0.000000 0.000000
# 2 -0.002728 0.044149 0.007230 0.000000 0.000000 0.000000
# 3 -0.004664 0.007230 0.014459 0.000000 0.000000 0.000000
# 4 0.000000 0.000000 0.000000 0.044882 0.000000 0.000000
# 5 0.000000 0.000000 0.000000 0.000000 -0.138219 0.000000
# 6 0.000000 0.000000 0.000000 0.000000 0.000000 -0.127229
#
#
# Mechanical properties :
#
#
# Convention : Reuss Voigt Hill
#
# Bulk Modulus (GPa) = 14.64158 31.39062 23.01610
# Shear Modulus (GPa) = -38.80374 14.96553 -11.91911
#
# Velocity S-wave (km/s) = -4.29006 2.66423 -2.37765
# Velocity P-wave (km/s) = 4.19463 4.93485 1.83817
#
# Compressibility (1/GPa) = 0.06829866
#
# Stress axis : x y z
#
# Youngs Moduli (GPa) = 99.86220 22.65033 69.16071
#
# Poissons Ratio (x) = 0.06179 0.32260
# Poissons Ratio (y) = 0.27240 -0.50006
# Poissons Ratio (z) = 0.46580 -0.16377
#
# Static dielectric constant tensor:
#      x y z
#    x 1.784530 0.000000 0.000000 
#    y 0.000000 1.742520 0.000000 
#    z 0.000000 0.000000 1.728170 
# 
# From -- ./inp_files/5252.got.cif
#   From: 2010.05.17/outbox.cif.g08.bks.cpg/sg38_3_cif.got.tgz:5252.got - 2010.06.03 18:07:57.
