data_PCOD9359877
_publ_section_title
;
Structure prediction by ZEFSAII (Michael W. Deem and Ramdas Pophale) SiO2 
 PCOD9359877
Probable space group: A B M 2
;
_chemical_formula_sum "Si O2"
_cell_formula_units_Z 48
_cell_length_a 9.227257
_cell_length_b 8.591302
_cell_length_c 32.130841
_cell_angle_alpha 90.000000
_cell_angle_beta 90.000000
_cell_angle_gamma 90.000000
_cell_volume 2547.145158
_symmetry_space_group_name_H-M "A B M 2"
_symmetry_group_IT_number 39
_symmetry_cell_setting 'orthorhombic'
loop_
_space_group_symop_operation_xyz
x,y,z
-x,-y,z
-x,1/2+y,z
x,1/2-y,z
x,1/2+y,1/2+z
-x,1/2-y,1/2+z
-x,y,1/2+z
x,-y,1/2+z
loop_
_atom_site_type_symbol
_atom_site_label
_atom_site_fract_x
_atom_site_fract_y
_atom_site_fract_z
Si Si1 0.164359 0.435957 0.120240
Si Si2 0.165041 0.564109 0.033193
Si Si3 0.835979 0.937106 0.946339
Si Si4 0.662717 0.562624 0.699268
Si Si5 0.662365 0.562111 0.863797
Si Si6 0.837445 0.062194 0.282092
O O1 0.158941 0.250000 0.119127
O O2 0.226920 0.498799 0.076349
O O3 0.257558 0.495277 0.158850
O O4 0.000000 0.500000 0.124542
O O5 0.163537 0.750000 0.033924
O O6 0.000000 0.500000 0.032805
O O7 0.227543 0.503048 0.989627
O O8 0.841788 0.750000 0.948901
O O9 0.742790 0.984590 0.906336
O O10 0.000000 0.000000 0.941556
O O11 0.500000 0.500000 0.701677
O O12 0.661628 0.750000 0.696983
O O13 0.750725 0.515253 0.740669
O O14 0.500000 0.500000 0.862204
O O15 0.658504 0.750000 0.863062
O O16 0.753177 0.509317 0.823510
O O17 0.842289 0.250000 0.282786
O O18 0.000000 0.000000 0.281367
#
# Coordination Sequence:
#
# PCOD9359877 Si02
#       6
#     8   8   8   8   8   8
#     4  11  21  36  58  84 114 148 189 235 282 332
#     4  10  18  31  53  81 111 144 185 231 281 330
#     4  10  19  33  54  81 111 144 186 231 277 328
#     4  11  23  39  58  83 115 150 188 229 280 336
#     4  10  22  38  56  81 113 148 185 226 274 329
#     4  10  22  39  60  86 113 144 185 230 275 327
#
# _framework density 18.844626000000002
#
# number of rings (size 3 to 8) (size 9 to 14) (size 15 to 20)
#    0.000    1.667    0.000    7.500    0.000    4.667 
#    0.000    0.833    0.000    2.000    0.000    0.000 
#    0.000    0.000    0.000    0.000    0.000    0.000 
#
# Total GULP energy -134089.116807 kJ/mol
# GULP energy per Si atom -5587.046534 kJ/mol
# Density = 1.880173 g / cm^3
# Si number density = 18.844626 Si / 1000 Ang^3
#
#
#
# Elastic Constant Matrix: (Units=GPa)
#
#
# Indices 1 2 3 4 5 6 
#
# 1 127.6790 38.0874 105.3860 0.0000 0.0000 0.0000
# 2 38.0874 95.4608 67.9077 0.0000 0.0000 0.0000
# 3 105.3860 67.9077 239.1767 0.0000 0.0000 0.0000
# 4 0.0000 0.0000 0.0000 20.8406 0.0000 0.0000
# 5 0.0000 0.0000 0.0000 0.0000 -15.6300 0.0000
# 6 0.0000 0.0000 0.0000 0.0000 0.0000 31.6031
#
#
#
# Elastic Compliance Matrix: (Units=1/GPa)
#
#
# Indices 1 2 3 4 5 6 
#
# 1 0.012443 -0.001334 -0.005104 0.000000 0.000000 0.000000
# 2 -0.001334 0.013270 -0.003180 0.000000 0.000000 0.000000
# 3 -0.005104 -0.003180 0.007333 0.000000 0.000000 0.000000
# 4 0.000000 0.000000 0.000000 0.047983 0.000000 0.000000
# 5 0.000000 0.000000 0.000000 0.000000 -0.063979 0.000000
# 6 0.000000 0.000000 0.000000 0.000000 0.000000 0.031642
#
#
# Mechanical properties :
#
#
# Convention : Reuss Voigt Hill
#
# Bulk Modulus (GPa) = 72.41041 98.34210 85.37625
# Shear Modulus (GPa) = 68.93714 24.09175 46.51445
#
# Velocity S-wave (km/s) = 6.05486 3.57941 4.97360
# Velocity P-wave (km/s) = 9.34827 8.32958 8.85359
#
# Compressibility (1/GPa) = 0.01381017
#
# Stress axis : x y z
#
# Youngs Moduli (GPa) = 80.36848 75.35955 136.37556
#
# Poissons Ratio (x) = 0.10051 0.69604
# Poissons Ratio (y) = 0.10719 0.43366
# Poissons Ratio (z) = 0.41019 0.23964
#
# Static dielectric constant tensor:
#      x y z
#    x 1.636690 0.000000 0.000000 
#    y 0.000000 1.643290 0.000000 
#    z 0.000000 0.000000 1.679680 
# 
# From -- ./inp_files/17615.got.cif
#   From: 2010.05.17/outbox.cif.g08.bks.cpg/sg39_9_cif.got.tgz:17615.got - 2010.06.03 18:22:40.
