data_PCOD9359356
_publ_section_title
;
Structure prediction by ZEFSAII (Michael W. Deem and Ramdas Pophale) SiO2 
 PCOD9359356
Probable space group: A M M 2
;
_chemical_formula_sum "Si O2"
_cell_formula_units_Z 34
_cell_length_a 15.464737
_cell_length_b 11.791524
_cell_length_c 7.553791
_cell_angle_alpha 90.000000
_cell_angle_beta 90.000000
_cell_angle_gamma 90.000000
_cell_volume 1377.455072
_symmetry_space_group_name_H-M "A M M 2"
_symmetry_group_IT_number 38
_symmetry_cell_setting 'orthorhombic'
loop_
_space_group_symop_operation_xyz
x,y,z
-x,-y,z
-x,y,z
x,-y,z
x,1/2+y,1/2+z
-x,1/2-y,1/2+z
-x,1/2+y,1/2+z
x,1/2-y,1/2+z
loop_
_atom_site_type_symbol
_atom_site_label
_atom_site_fract_x
_atom_site_fract_y
_atom_site_fract_z
Si Si1 0.843241 0.849574 0.969260
Si Si2 0.659971 0.124646 0.785374
Si Si3 0.598155 0.127957 0.167130
Si Si4 0.000000 0.500000 0.344626
Si Si5 0.898165 0.879748 0.361062
O O1 0.755253 0.876554 0.871593
O O2 0.924095 0.902876 0.867118
O O3 0.856072 0.715796 0.975059
O O4 0.851155 0.885328 0.172835
O O5 0.645903 0.250901 0.703543
O O6 0.648900 0.000000 0.690429
O O7 0.597831 0.122439 0.954998
O O8 0.500000 0.137160 0.236557
O O9 0.631905 0.000000 0.223205
O O10 0.000000 0.859591 0.324796
O O11 0.893891 0.000000 0.455451
#
# Coordination Sequence:
#
# PCOD9359356 Si02
#       5
#     8   8   8   2   8
#     4  12  22  40  63  86 126 168 208 255 310 351
#     4  11  23  40  65  96 126 164 209 259 305 376
#     4  10  23  44  68  94 127 163 201 256 327 384
#     4  12  20  40  62  86 126 176 204 256 308 356
#     4  11  21  39  58  83 114 160 211 259 304 357
#
# _framework density 24.683199999999999
#
# number of rings (size 3 to 8) (size 9 to 14) (size 15 to 20)
#    0.000    0.941    4.706    2.118    0.000    5.176 
#    2.118    0.000    0.000    0.000    0.000    0.000 
#    0.000    0.000    0.000    0.000    0.000    0.000 
#
# Total GULP energy -94650.062426 kJ/mol
# GULP energy per Si atom -5567.650731 kJ/mol
# Density = 2.462702 g / cm^3
# Si number density = 24.683200 Si / 1000 Ang^3
#
#
#
# Elastic Constant Matrix: (Units=GPa)
#
#
# Indices 1 2 3 4 5 6 
#
# 1 123.8824 28.5792 -5.4610 0.0000 0.0000 0.0000
# 2 28.5792 243.1948 20.2670 0.0000 0.0000 0.0000
# 3 -5.4610 20.2670 35.6144 0.0000 0.0000 0.0000
# 4 0.0000 0.0000 0.0000 64.2783 0.0000 0.0000
# 5 0.0000 0.0000 0.0000 0.0000 45.3983 0.0000
# 6 0.0000 0.0000 0.0000 0.0000 0.0000 -20.8395
#
#
#
# Elastic Compliance Matrix: (Units=1/GPa)
#
#
# Indices 1 2 3 4 5 6 
#
# 1 0.008424 -0.001152 0.001947 0.000000 0.000000 0.000000
# 2 -0.001152 0.004474 -0.002723 0.000000 0.000000 0.000000
# 3 0.001947 -0.002723 0.029927 0.000000 0.000000 0.000000
# 4 0.000000 0.000000 0.000000 0.015557 0.000000 0.000000
# 5 0.000000 0.000000 0.000000 0.000000 0.022027 0.000000
# 6 0.000000 0.000000 0.000000 0.000000 0.000000 -0.047986
#
#
# Mechanical properties :
#
#
# Convention : Reuss Voigt Hill
#
# Bulk Modulus (GPa) = 25.66119 54.38465 40.02292
# Shear Modulus (GPa) = 101.48460 41.72117 71.60289
#
# Velocity S-wave (km/s) = 6.41904 4.11574 5.39182
# Velocity P-wave (km/s) = 8.08440 6.68332 7.41702
#
# Compressibility (1/GPa) = 0.03896936
#
# Stress axis : x y z
#
# Youngs Moduli (GPa) = 118.71087 223.50135 33.41508
#
# Poissons Ratio (x) = 0.25752 -0.06507
# Poissons Ratio (y) = 0.13678 0.09098
# Poissons Ratio (z) = -0.23118 0.60856
#
# Static dielectric constant tensor:
#      x y z
#    x 1.939680 0.000000 0.000000 
#    y 0.000000 1.951740 0.000000 
#    z 0.000000 0.000000 1.940820 
# 
# From -- ./inp_files/5081.got.cif
#   From: 2010.05.17/outbox.cif.g08.bks.cpg/sg38_3_cif.got.tgz:5081.got - 2010.06.03 18:07:57.
