data_PCOD9359257
_publ_section_title
;
Structure prediction by ZEFSAII (Michael W. Deem and Ramdas Pophale) SiO2 
 PCOD9359257
Probable space group: A M M 2
;
_chemical_formula_sum "Si O2"
_cell_formula_units_Z 48
_cell_length_a 9.196042
_cell_length_b 7.498533
_cell_length_c 36.049183
_cell_angle_alpha 90.000000
_cell_angle_beta 90.000000
_cell_angle_gamma 90.000000
_cell_volume 2485.837182
_symmetry_space_group_name_H-M "A M M 2"
_symmetry_group_IT_number 38
_symmetry_cell_setting 'orthorhombic'
loop_
_space_group_symop_operation_xyz
x,y,z
-x,-y,z
-x,y,z
x,-y,z
x,1/2+y,1/2+z
-x,1/2-y,1/2+z
-x,1/2+y,1/2+z
x,1/2-y,1/2+z
loop_
_atom_site_type_symbol
_atom_site_label
_atom_site_fract_x
_atom_site_fract_y
_atom_site_fract_z
Si Si1 0.333767 0.213167 0.008300
Si Si2 0.334686 0.286968 0.090759
Si Si3 0.827751 0.713964 0.433767
Si Si4 0.675783 0.000000 0.382804
Si Si5 0.325462 0.208325 0.738448
Si Si6 0.676394 0.000000 0.297089
Si Si7 0.833588 0.217917 0.663176
O O1 0.500000 0.283578 0.005408
O O2 0.276227 0.254348 0.049412
O O3 0.342265 0.000000 0.005849
O O4 0.235232 0.270482 0.973982
O O5 0.500000 0.216241 0.091901
O O6 0.343014 0.500000 0.095049
O O7 0.241900 0.219512 0.125284
O O8 0.805604 0.500000 0.429436
O O9 0.741226 0.827576 0.403440
O O10 0.000000 0.748582 0.431693
O O11 0.721823 0.000000 0.339698
O O12 0.500000 0.000000 0.385287
O O13 0.500000 0.223163 0.734436
O O14 0.278635 0.328230 0.773104
O O15 0.252639 0.269750 0.700145
O O16 0.290574 0.000000 0.744308
O O17 0.500000 0.000000 0.297771
O O18 0.000000 0.275118 0.664983
O O19 0.831779 0.000000 0.662583
#
# Coordination Sequence:
#
# PCOD9359257 Si02
#       7
#     8   8   8   4   8   4   8
#     4   9  18  33  52  76 106 141 185 233 281 332
#     4   9  17  29  47  72 102 138 181 227 274 325
#     4  10  22  40  60  84 117 156 194 234 288 353
#     4  11  23  39  63  91 119 149 191 243 295 351
#     4   9  17  33  57  79 104 140 177 219 273 328
#     4   9  20  37  57  87 113 135 179 233 279 335
#     4   9  17  30  48  72 103 139 180 221 266 322
#
# _framework density 19.309391000000002
#
# number of rings (size 3 to 8) (size 9 to 14) (size 15 to 20)
#    0.000    2.667    0.000    1.250    1.167    4.333 
#    1.500    3.750    0.000    2.000    0.000    0.000 
#    0.000    0.000    0.000    0.000    0.000    0.000 
#
# Total GULP energy -133916.457541 kJ/mol
# GULP energy per Si atom -5579.852398 kJ/mol
# Density = 1.926544 g / cm^3
# Si number density = 19.309391 Si / 1000 Ang^3
#
#
#
# Elastic Constant Matrix: (Units=GPa)
#
#
# Indices 1 2 3 4 5 6 
#
# 1 74.4295 39.1780 81.6778 0.0000 0.0000 0.0000
# 2 39.1780 75.3916 60.3748 0.0000 0.0000 0.0000
# 3 81.6778 60.3748 219.4207 0.0000 0.0000 0.0000
# 4 0.0000 0.0000 0.0000 35.8401 0.0000 0.0000
# 5 0.0000 0.0000 0.0000 0.0000 -15.1731 0.0000
# 6 0.0000 0.0000 0.0000 0.0000 0.0000 12.4744
#
#
#
# Elastic Compliance Matrix: (Units=1/GPa)
#
#
# Indices 1 2 3 4 5 6 
#
# 1 0.025459 -0.007235 -0.007486 0.000000 0.000000 0.000000
# 2 -0.007235 0.019069 -0.002554 0.000000 0.000000 0.000000
# 3 -0.007486 -0.002554 0.008047 0.000000 0.000000 0.000000
# 4 0.000000 0.000000 0.000000 0.027902 0.000000 0.000000
# 5 0.000000 0.000000 0.000000 0.000000 -0.065906 0.000000
# 6 0.000000 0.000000 0.000000 0.000000 0.000000 0.080164
#
#
# Mechanical properties :
#
#
# Convention : Reuss Voigt Hill
#
# Bulk Modulus (GPa) = 55.47873 81.30035 68.38954
# Shear Modulus (GPa) = 36.95686 19.16235 28.05961
#
# Velocity S-wave (km/s) = 4.37960 3.15363 3.81617
# Velocity P-wave (km/s) = 7.37349 7.44688 7.41027
#
# Compressibility (1/GPa) = 0.01802493
#
# Stress axis : x y z
#
# Youngs Moduli (GPa) = 39.27859 52.44147 124.27245
#
# Poissons Ratio (x) = 0.37941 0.93033
# Poissons Ratio (y) = 0.28418 0.31736
# Poissons Ratio (z) = 0.29405 0.13392
#
# Static dielectric constant tensor:
#      x y z
#    x 1.651310 0.000000 0.000000 
#    y 0.000000 1.709400 0.000000 
#    z 0.000000 0.000000 1.649890 
# 
# From -- ./inp_files/24330.got.cif
#   From: 2010.05.17/outbox.cif.g08.bks.cpg/sg38_13_cif.got.tgz:24330.got - 2010.06.03 18:07:57.
