data_PCOD9359914
_publ_section_title
;
Structure prediction by ZEFSAII (Michael W. Deem and Ramdas Pophale) SiO2 
 PCOD9359914
Probable space group: A B M 2
;
_chemical_formula_sum "Si O2"
_cell_formula_units_Z 64
_cell_length_a 14.064998
_cell_length_b 30.185931
_cell_length_c 8.116321
_cell_angle_alpha 90.000000
_cell_angle_beta 90.000000
_cell_angle_gamma 90.000000
_cell_volume 3445.906305
_symmetry_space_group_name_H-M "A B M 2"
_symmetry_group_IT_number 39
_symmetry_cell_setting 'orthorhombic'
loop_
_space_group_symop_operation_xyz
x,y,z
-x,-y,z
-x,1/2+y,z
x,1/2-y,z
x,1/2+y,1/2+z
-x,1/2-y,1/2+z
-x,y,1/2+z
x,-y,1/2+z
loop_
_atom_site_type_symbol
_atom_site_label
_atom_site_fract_x
_atom_site_fract_y
_atom_site_fract_z
Si Si1 0.180147 0.564280 0.756210
Si Si2 0.890079 0.484684 0.429253
Si Si3 0.572452 0.303637 0.400784
Si Si4 0.057742 0.365314 0.459946
Si Si5 0.366858 0.302916 0.528500
Si Si6 0.130292 0.607743 0.311696
Si Si7 0.276520 0.636894 0.561260
Si Si8 0.812374 0.302201 0.817058
O O1 0.133440 0.539359 0.600639
O O2 0.182788 0.524447 0.888713
O O3 0.110376 0.599570 0.840942
O O4 0.267041 0.593730 0.681859
O O5 0.877857 0.445197 0.297208
O O6 0.000000 0.500000 0.427659
O O7 0.587136 0.250000 0.432959
O O8 0.460256 0.312263 0.419913
O O9 0.610142 0.314287 0.217498
O O10 0.627257 0.336348 0.525181
O O11 0.099324 0.371023 0.641140
O O12 0.087606 0.317927 0.389365
O O13 0.947816 0.376436 0.445139
O O14 0.356509 0.250000 0.530200
O O15 0.270518 0.319403 0.442889
O O16 0.230515 0.621442 0.388571
O O17 0.210150 0.673780 0.646605
O O18 0.806230 0.250000 0.800099
#
# Coordination Sequence:
#
# PCOD9359914 Si02
#       8
#     8   8   8   8   8   8   8   8
#     4  10  21  31  49  77 102 136 169 218 268 324
#     4  11  19  30  51  74  99 132 170 213 272 321
#     4  10  18  32  53  79 111 143 178 223 271 320
#     4  11  21  36  50  73 105 140 182 221 267 310
#     4   9  18  31  54  83 107 139 181 226 275 317
#     4  11  22  35  52  73 105 141 175 223 267 320
#     4  10  21  34  50  76 109 142 178 219 266 315
#     4  10  20  36  54  74 105 143 181 224 269 316
#
# _framework density 18.572762000000001
#
# number of rings (size 3 to 8) (size 9 to 14) (size 15 to 20)
#    0.000    1.750    1.250    5.250    0.000    2.000 
#    0.000    3.750    0.000    0.000    0.000    0.000 
#    0.000  121.000    0.000    0.000    0.000    0.000 
#
# Total GULP energy -178355.997765 kJ/mol
# GULP energy per Si atom -5573.624930 kJ/mol
# Density = 1.853049 g / cm^3
# Si number density = 18.572762 Si / 1000 Ang^3
#
#
#
# Elastic Constant Matrix: (Units=GPa)
#
#
# Indices 1 2 3 4 5 6 
#
# 1 47.5119 23.7294 -1.8150 0.0000 0.0000 0.0000
# 2 23.7294 85.2546 23.4989 0.0000 0.0000 0.0000
# 3 -1.8150 23.4989 65.7092 0.0000 0.0000 0.0000
# 4 0.0000 0.0000 0.0000 26.8044 0.0000 0.0000
# 5 0.0000 0.0000 0.0000 0.0000 21.7772 0.0000
# 6 0.0000 0.0000 0.0000 0.0000 0.0000 22.8968
#
#
#
# Elastic Compliance Matrix: (Units=1/GPa)
#
#
# Indices 1 2 3 4 5 6 
#
# 1 0.025171 -0.007985 0.003551 0.000000 0.000000 0.000000
# 2 -0.007985 0.015545 -0.005780 0.000000 0.000000 0.000000
# 3 0.003551 -0.005780 0.017384 0.000000 0.000000 0.000000
# 4 0.000000 0.000000 0.000000 0.037307 0.000000 0.000000
# 5 0.000000 0.000000 0.000000 0.000000 0.045920 0.000000
# 6 0.000000 0.000000 0.000000 0.000000 0.000000 0.043674
#
#
# Mechanical properties :
#
#
# Convention : Reuss Voigt Hill
#
# Bulk Modulus (GPa) = 26.54482 32.14472 29.34477
# Shear Modulus (GPa) = 22.93732 24.49984 23.71858
#
# Velocity S-wave (km/s) = 3.51807 3.63592 3.57748
# Velocity P-wave (km/s) = 5.55209 5.91368 5.73574
#
# Compressibility (1/GPa) = 0.03767213
#
# Stress axis : x y z
#
# Youngs Moduli (GPa) = 39.72846 64.32906 57.52551
#
# Poissons Ratio (x) = 0.51364 -0.20426
# Poissons Ratio (y) = 0.31722 0.33248
# Poissons Ratio (z) = -0.14106 0.37181
#
# Static dielectric constant tensor:
#      x y z
#    x 1.625150 0.000000 0.000000 
#    y 0.000000 1.658210 0.000000 
#    z 0.000000 0.000000 1.721500 
# 
# From -- ./inp_files/3585.got.cif
#   From: 2010.05.17/outbox.cif.g08.bks.cpg/sg39_2_cif.got.tgz:3585.got - 2010.06.03 18:22:40.
