data_PCOD9359789
_publ_section_title
;
Structure prediction by ZEFSAII (Michael W. Deem and Ramdas Pophale) SiO2 
 PCOD9359789
Probable space group: A B M 2
;
_chemical_formula_sum "Si O2"
_cell_formula_units_Z 60
_cell_length_a 13.895181
_cell_length_b 27.552541
_cell_length_c 8.979629
_cell_angle_alpha 90.000000
_cell_angle_beta 90.000000
_cell_angle_gamma 90.000000
_cell_volume 3437.828911
_symmetry_space_group_name_H-M "A B M 2"
_symmetry_group_IT_number 39
_symmetry_cell_setting 'orthorhombic'
loop_
_space_group_symop_operation_xyz
x,y,z
-x,-y,z
-x,1/2+y,z
x,1/2-y,z
x,1/2+y,1/2+z
-x,1/2-y,1/2+z
-x,y,1/2+z
x,-y,1/2+z
loop_
_atom_site_type_symbol
_atom_site_label
_atom_site_fract_x
_atom_site_fract_y
_atom_site_fract_z
Si Si1 0.439000 0.931487 0.487130
Si Si2 0.306542 0.338325 0.984433
Si Si3 0.039345 0.193150 0.478345
Si Si4 0.482343 0.303186 0.820147
Si Si5 0.136313 0.690866 0.670815
Si Si6 0.398230 0.644262 0.037581
Si Si7 0.223070 0.692403 0.174437
Si Si8 0.500000 0.500000 0.235162
O O1 0.355387 0.891406 0.485807
O O2 0.544348 0.904655 0.494772
O O3 0.439522 0.964427 0.340757
O O4 0.435444 0.966629 0.628532
O O5 0.400149 0.305617 0.948086
O O6 0.242121 0.327830 0.127842
O O7 0.239695 0.325117 0.842603
O O8 0.021051 0.250000 0.446251
O O9 0.115712 0.190445 0.613185
O O10 0.939258 0.174018 0.543375
O O11 0.091611 0.174613 0.329138
O O12 0.488320 0.250000 0.756425
O O13 0.577291 0.319920 0.902255
O O14 0.450685 0.339392 0.690835
O O15 0.140766 0.750000 0.670656
O O16 0.288356 0.655363 0.077694
O O17 0.253842 0.750000 0.162412
#
# Coordination Sequence:
#
# PCOD9359789 Si02
#       8
#     8   8   8   8   8   8   8   4
#     4  10  21  35  53  76  94 127 157 207 251 307
#     4  10  19  30  47  69  97 123 165 203 243 285
#     4   9  19  30  45  67  96 138 182 204 232 266
#     4  10  18  28  41  63  95 137 167 193 231 276
#     4  10  18  31  47  68 100 138 170 206 235 272
#     4  10  19  30  45  66  97 125 167 203 234 273
#     4  10  18  30  45  67 101 143 174 203 233 272
#     4  10  20  38  56  68  98 122 158 198 266 314
#
# _framework density 17.452876
#
# number of rings (size 3 to 8) (size 9 to 14) (size 15 to 20)
#    0.000    2.133    0.000    6.400    0.000    5.333 
#    0.000    4.000    0.000    0.000    0.000    0.000 
#    0.000   36.267    0.000    0.000    0.000    0.000 
#
# Total GULP energy -167104.054276 kJ/mol
# GULP energy per Si atom -5570.135143 kJ/mol
# Density = 1.741315 g / cm^3
# Si number density = 17.452876 Si / 1000 Ang^3
#
#
#
# Elastic Constant Matrix: (Units=GPa)
#
#
# Indices 1 2 3 4 5 6 
#
# 1 45.3347 17.8851 22.5075 0.0000 0.0000 0.0000
# 2 17.8851 74.7690 28.7164 0.0000 0.0000 0.0000
# 3 22.5075 28.7164 62.2456 0.0000 0.0000 0.0000
# 4 0.0000 0.0000 0.0000 23.6642 0.0000 0.0000
# 5 0.0000 0.0000 0.0000 0.0000 27.2834 0.0000
# 6 0.0000 0.0000 0.0000 0.0000 0.0000 1686.2204
#
#
#
# Elastic Compliance Matrix: (Units=1/GPa)
#
#
# Indices 1 2 3 4 5 6 
#
# 1 0.027562 -0.003361 -0.008416 0.000000 0.000000 0.000000
# 2 -0.003361 0.016664 -0.006473 0.000000 0.000000 0.000000
# 3 -0.008416 -0.006473 0.022095 0.000000 0.000000 0.000000
# 4 0.000000 0.000000 0.000000 0.042258 0.000000 0.000000
# 5 0.000000 0.000000 0.000000 0.000000 0.036652 0.000000
# 6 0.000000 0.000000 0.000000 0.000000 0.000000 0.000593
#
#
# Mechanical properties :
#
#
# Convention : Reuss Voigt Hill
#
# Bulk Modulus (GPa) = 33.53160 35.61859 34.57510
# Shear Modulus (GPa) = 26.00591 354.98296 190.49444
#
# Velocity S-wave (km/s) = 3.86432 14.27714 10.45872
# Velocity P-wave (km/s) = 6.25820 17.09488 12.87245
#
# Compressibility (1/GPa) = 0.02982261
#
# Stress axis : x y z
#
# Youngs Moduli (GPa) = 36.28151 60.00808 45.25994
#
# Poissons Ratio (x) = 0.20167 0.38090
# Poissons Ratio (y) = 0.12193 0.29296
# Poissons Ratio (z) = 0.30534 0.38842
#
# Static dielectric constant tensor:
#      x y z
#    x 1.614760 0.000000 0.000000 
#    y 0.000000 1.591220 0.000000 
#    z 0.000000 0.000000 1.669820 
# 
# From -- ./inp_files/3551.got.cif
#   From: 2010.05.17/outbox.cif.g08.bks.cpg/sg39_2_cif.got.tgz:3551.got - 2010.06.03 18:22:40.
