data_PCOD9359963
_publ_section_title
;
Structure prediction by ZEFSAII (Michael W. Deem and Ramdas Pophale) SiO2 
 PCOD9359963
Probable space group: A B M 2
;
_chemical_formula_sum "Si O2"
_cell_formula_units_Z 44
_cell_length_a 9.049912
_cell_length_b 22.229223
_cell_length_c 10.182215
_cell_angle_alpha 90.000000
_cell_angle_beta 90.000000
_cell_angle_gamma 90.000000
_cell_volume 2048.381769
_symmetry_space_group_name_H-M "A B M 2"
_symmetry_group_IT_number 39
_symmetry_cell_setting 'orthorhombic'
loop_
_space_group_symop_operation_xyz
x,y,z
-x,-y,z
-x,1/2+y,z
x,1/2-y,z
x,1/2+y,1/2+z
-x,1/2-y,1/2+z
-x,y,1/2+z
x,-y,1/2+z
loop_
_atom_site_type_symbol
_atom_site_label
_atom_site_fract_x
_atom_site_fract_y
_atom_site_fract_z
Si Si1 0.895290 0.250000 0.198710
Si Si2 0.101934 0.862383 0.634513
Si Si3 0.354047 0.386931 0.432049
Si Si4 0.442689 0.360390 0.171911
Si Si5 0.049707 0.568214 0.903891
Si Si6 0.608553 0.250000 0.314041
Si Si7 0.665698 0.250000 0.963266
O O1 0.786042 0.250000 0.325532
O O2 0.997888 0.306906 0.174748
O O3 0.765812 0.250000 0.090722
O O4 0.274911 0.845039 0.630938
O O5 0.071366 0.908782 0.754520
O O6 0.054895 0.890491 0.494859
O O7 0.423895 0.405844 0.294071
O O8 0.470191 0.384874 0.547879
O O9 0.211754 0.424699 0.467420
O O10 0.299625 0.316775 0.406956
O O11 0.543393 0.307248 0.234348
O O12 0.000000 0.500000 0.905623
O O13 0.513801 0.250000 0.450034
#
# Coordination Sequence:
#
# PCOD9359963 Si02
#       7
#     4   8   8   8   8   4   4
#     4  12  21  40  65  99 140 168 218 276 340 404
#     4  11  25  40  67 102 132 174 218 281 338 402
#     4  10  20  38  65  92 130 172 210 277 326 401
#     4  10  20  36  60  92 130 168 219 262 334 396
#     4  11  24  45  66  92 131 176 229 275 335 395
#     4  10  19  33  58  87 131 179 196 258 326 402
#     4  10  18  33  59  90 133 163 210 258 332 392
#
# _framework density 21.480371999999999
#
# number of rings (size 3 to 8) (size 9 to 14) (size 15 to 20)
#    0.000    1.455    3.636    1.091    0.000    7.273 
#    0.000    0.909    0.000    6.545    0.000    0.000 
#    0.000    0.000    0.000    0.000    0.000    0.000 
#
# Total GULP energy -122676.715104 kJ/mol
# GULP energy per Si atom -5576.214323 kJ/mol
# Density = 2.143148 g / cm^3
# Si number density = 21.480372 Si / 1000 Ang^3
#
#
#
# Elastic Constant Matrix: (Units=GPa)
#
#
# Indices 1 2 3 4 5 6 
#
# 1 136.7287 56.0402 29.1526 0.0000 0.0000 0.0000
# 2 56.0402 92.6860 -0.3100 0.0000 0.0000 0.0000
# 3 29.1526 -0.3100 69.1575 0.0000 0.0000 0.0000
# 4 0.0000 0.0000 0.0000 14.4617 0.0000 0.0000
# 5 0.0000 0.0000 0.0000 0.0000 42.0365 0.0000
# 6 0.0000 0.0000 0.0000 0.0000 0.0000 15.7044
#
#
#
# Elastic Compliance Matrix: (Units=1/GPa)
#
#
# Indices 1 2 3 4 5 6 
#
# 1 0.011062 -0.006704 -0.004693 0.000000 0.000000 0.000000
# 2 -0.006704 0.014852 0.002893 0.000000 0.000000 0.000000
# 3 -0.004693 0.002893 0.016451 0.000000 0.000000 0.000000
# 4 0.000000 0.000000 0.000000 0.069148 0.000000 0.000000
# 5 0.000000 0.000000 0.000000 0.000000 0.023789 0.000000
# 6 0.000000 0.000000 0.000000 0.000000 0.000000 0.063676
#
#
# Mechanical properties :
#
#
# Convention : Reuss Voigt Hill
#
# Bulk Modulus (GPa) = 39.43820 52.03754 45.73787
# Shear Modulus (GPa) = 22.27761 28.68648 25.48204
#
# Velocity S-wave (km/s) = 3.22392 3.65838 3.44800
# Velocity P-wave (km/s) = 5.67963 6.49024 6.09842
#
# Compressibility (1/GPa) = 0.02535613
#
# Stress axis : x y z
#
# Youngs Moduli (GPa) = 90.39779 67.32966 60.78624
#
# Poissons Ratio (x) = 0.45139 0.28528
# Poissons Ratio (y) = 0.60604 -0.17583
# Poissons Ratio (z) = 0.42426 -0.19476
#
# Static dielectric constant tensor:
#      x y z
#    x 1.792520 0.000000 0.000000 
#    y 0.000000 1.765010 0.000000 
#    z 0.000000 0.000000 1.913300 
# 
# From -- ./inp_files/5155.got.cif
#   From: 2010.05.17/outbox.cif.g08.bks.cpg/sg39_3_cif.got.tgz:5155.got - 2010.06.03 18:22:40.
