data_PCOD9359811
_publ_section_title
;
Structure prediction by ZEFSAII (Michael W. Deem and Ramdas Pophale) SiO2 
 PCOD9359811
Probable space group: A B M 2
;
_chemical_formula_sum "Si O2"
_cell_formula_units_Z 64
_cell_length_a 5.319687
_cell_length_b 27.189460
_cell_length_c 17.947367
_cell_angle_alpha 90.000000
_cell_angle_beta 90.000000
_cell_angle_gamma 90.000000
_cell_volume 2595.896698
_symmetry_space_group_name_H-M "A B M 2"
_symmetry_group_IT_number 39
_symmetry_cell_setting 'orthorhombic'
loop_
_space_group_symop_operation_xyz
x,y,z
-x,-y,z
-x,1/2+y,z
x,1/2-y,z
x,1/2+y,1/2+z
-x,1/2-y,1/2+z
-x,y,1/2+z
x,-y,1/2+z
loop_
_atom_site_type_symbol
_atom_site_label
_atom_site_fract_x
_atom_site_fract_y
_atom_site_fract_z
Si Si1 0.539140 0.406081 0.526850
Si Si2 0.960861 0.093919 0.890929
Si Si3 0.122058 0.305434 0.137951
Si Si4 0.954831 0.555881 0.553794
Si Si5 0.371651 0.195180 0.542151
Si Si6 0.871653 0.804820 0.875629
Si Si7 0.377943 0.694566 0.779829
Si Si8 0.454832 0.055881 0.863985
O O1 0.316583 0.425599 0.579253
O O2 0.434089 0.353822 0.495705
O O3 0.574036 0.440099 0.454341
O O4 0.803662 0.409965 0.569408
O O5 0.696338 0.090035 0.848371
O O6 0.065912 0.146178 0.922074
O O7 0.183417 0.074401 0.838526
O O8 0.925964 0.059901 0.963438
O O9 0.051156 0.250000 0.164815
O O10 0.361007 0.301209 0.083695
O O11 0.249999 0.331869 0.208890
O O12 0.864425 0.318407 0.095119
O O13 0.000000 0.500000 0.575777
O O14 0.317665 0.250000 0.509852
O O15 0.817665 0.750000 0.907927
O O16 0.635578 0.818407 0.822660
O O17 0.138996 0.801209 0.834086
O O18 0.448843 0.750000 0.752964
O O19 0.500000 0.000000 0.842002
#
# Coordination Sequence:
#
# PCOD9359811 Si02
#       8
#     8   8   8   8   8   8   8   8
#     4  10  18  30  47  69  94 124 156 193 238 279
#     4  10  18  30  47  69  94 124 156 193 238 279
#     4   9  17  30  47  65  90 127 162 192 230 271
#     4  10  19  33  50  68  93 122 158 205 243 274
#     4  10  19  30  45  69 100 127 156 193 228 279
#     4  10  19  30  45  69 100 127 156 193 228 279
#     4   9  17  30  47  65  90 127 162 192 230 271
#     4  10  19  33  50  68  93 122 158 205 243 274
#
# _framework density 24.654292999999999
#
# number of rings (size 3 to 8) (size 9 to 14) (size 15 to 20)
#    0.000    2.250    0.000    6.000    0.000    3.000 
#    0.000    5.000    0.000    0.000    0.000    0.000 
#    0.000   90.000    0.000    0.000    0.000    0.000 
#
# Total GULP energy -178165.583889 kJ/mol
# GULP energy per Si atom -5567.674497 kJ/mol
# Density = 2.459818 g / cm^3
# Si number density = 24.654293 Si / 1000 Ang^3
#
#
#
# Elastic Constant Matrix: (Units=GPa)
#
#
# Indices 1 2 3 4 5 6 
#
# 1 185.2519 20.6646 -4.7151 0.0000 0.0000 0.0000
# 2 20.6646 104.0532 5.8084 0.0000 0.0000 0.0000
# 3 -4.7151 5.8084 14.3892 0.0000 0.0000 0.0000
# 4 0.0000 0.0000 0.0000 21.7420 0.0000 0.0000
# 5 0.0000 0.0000 0.0000 0.0000 20.5212 0.0000
# 6 0.0000 0.0000 0.0000 0.0000 0.0000 35.3339
#
#
#
# Elastic Compliance Matrix: (Units=1/GPa)
#
#
# Indices 1 2 3 4 5 6 
#
# 1 0.005596 -0.001242 0.002335 0.000000 0.000000 0.000000
# 2 -0.001242 0.010108 -0.004487 0.000000 0.000000 0.000000
# 3 0.002335 -0.004487 0.072073 0.000000 0.000000 0.000000
# 4 0.000000 0.000000 0.000000 0.045994 0.000000 0.000000
# 5 0.000000 0.000000 0.000000 0.000000 0.048730 0.000000
# 6 0.000000 0.000000 0.000000 0.000000 0.000000 0.028301
#
#
# Mechanical properties :
#
#
# Convention : Reuss Voigt Hill
#
# Bulk Modulus (GPa) = 12.34732 38.57889 25.46311
# Shear Modulus (GPa) = 20.44275 34.31520 27.37898
#
# Velocity S-wave (km/s) = 2.88267 3.73480 3.33606
# Velocity P-wave (km/s) = 4.01232 5.85493 5.01891
#
# Compressibility (1/GPa) = 0.08098920
#
# Stress axis : x y z
#
# Youngs Moduli (GPa) = 178.69922 98.93614 13.87483
#
# Poissons Ratio (x) = 0.12285 -0.03240
# Poissons Ratio (y) = 0.22189 0.06226
# Poissons Ratio (z) = -0.41725 0.44392
#
# Static dielectric constant tensor:
#      x y z
#    x 2.086810 0.000000 0.000000 
#    y 0.000000 2.097750 0.000000 
#    z 0.000000 0.000000 1.970540 
# 
# From -- ./inp_files/13649.got.cif
#   From: 2010.05.17/outbox.cif.g08.bks.cpg/sg39_7_cif.got.tgz:13649.got - 2010.06.03 18:22:40.
