data_PCOD9359735
_publ_section_title
;
Structure prediction by ZEFSAII (Michael W. Deem and Ramdas Pophale) SiO2 
 PCOD9359735
Probable space group: A B M 2
;
_chemical_formula_sum "Si O2"
_cell_formula_units_Z 48
_cell_length_a 15.980920
_cell_length_b 16.213023
_cell_length_c 9.130407
_cell_angle_alpha 90.000000
_cell_angle_beta 90.000000
_cell_angle_gamma 90.000000
_cell_volume 2365.679538
_symmetry_space_group_name_H-M "A B M 2"
_symmetry_group_IT_number 39
_symmetry_cell_setting 'orthorhombic'
loop_
_space_group_symop_operation_xyz
x,y,z
-x,-y,z
-x,1/2+y,z
x,1/2-y,z
x,1/2+y,1/2+z
-x,1/2-y,1/2+z
-x,y,1/2+z
x,-y,1/2+z
loop_
_atom_site_type_symbol
_atom_site_label
_atom_site_fract_x
_atom_site_fract_y
_atom_site_fract_z
Si Si1 0.927908 0.250000 0.980600
Si Si2 0.494880 0.628730 0.316560
Si Si3 0.192736 0.100181 0.511068
Si Si4 0.203789 0.079783 0.160284
Si Si5 0.621505 0.641325 0.556791
Si Si6 0.894989 0.250000 0.632866
Si Si7 0.389746 0.054124 0.077441
O O1 0.881247 0.333677 0.033258
O O2 0.920111 0.250000 0.804497
O O3 0.022624 0.250000 0.034311
O O4 0.567319 0.668809 0.417139
O O5 0.433857 0.589503 0.435294
O O6 0.430196 0.667478 0.200162
O O7 0.551669 0.572147 0.214057
O O8 0.199448 0.078373 0.337581
O O9 0.278503 0.150246 0.551679
O O10 0.181371 0.012299 0.596556
O O11 0.154050 0.162523 0.110490
O O12 0.299373 0.091340 0.109073
O O13 0.617499 0.542320 0.556116
#
# Coordination Sequence:
#
# PCOD9359735 Si02
#       7
#     4   8   8   8   8   4   8
#     4  10  24  48  70  93 121 160 196 251 317 382
#     4  10  17  26  46  79 120 163 209 254 281 353
#     4  10  22  39  64  93 128 162 204 250 308 363
#     4  10  22  39  64  93 128 162 204 250 308 363
#     4  10  17  27  47  80 121 160 208 245 301 335
#     4  10  24  48  70  93 121 160 196 251 317 382
#     4  10  17  27  47  80 121 160 208 245 301 335
#
# _framework density 20.290153
#
# number of rings (size 3 to 8) (size 9 to 14) (size 15 to 20)
#    0.000    2.000    1.667    4.000    7.000    2.000 
#    0.000    3.333    0.000    6.000    0.000    0.000 
#    0.000    0.000    0.000    0.000    0.000    0.000 
#
# Total GULP energy -133699.404716 kJ/mol
# GULP energy per Si atom -5570.808530 kJ/mol
# Density = 2.024397 g / cm^3
# Si number density = 20.290153 Si / 1000 Ang^3
#
#
#
# Elastic Constant Matrix: (Units=GPa)
#
#
# Indices 1 2 3 4 5 6 
#
# 1 158.7924 90.1793 49.1214 0.0000 0.0000 0.0000
# 2 90.1793 153.4310 50.4097 0.0000 0.0000 0.0000
# 3 49.1214 50.4097 102.1606 0.0000 0.0000 0.0000
# 4 0.0000 0.0000 0.0000 160.3757 0.0000 0.0000
# 5 0.0000 0.0000 0.0000 0.0000 27.1463 0.0000
# 6 0.0000 0.0000 0.0000 0.0000 0.0000 49.3268
#
#
#
# Elastic Compliance Matrix: (Units=1/GPa)
#
#
# Indices 1 2 3 4 5 6 
#
# 1 0.009867 -0.005061 -0.002247 0.000000 0.000000 0.000000
# 2 -0.005061 0.010375 -0.002686 0.000000 0.000000 0.000000
# 3 -0.002247 -0.002686 0.012194 0.000000 0.000000 0.000000
# 4 0.000000 0.000000 0.000000 0.006235 0.000000 0.000000
# 5 0.000000 0.000000 0.000000 0.000000 0.036837 0.000000
# 6 0.000000 0.000000 0.000000 0.000000 0.000000 0.020273
#
#
# Mechanical properties :
#
#
# Convention : Reuss Voigt Hill
#
# Bulk Modulus (GPa) = 80.33299 88.20053 84.26676
# Shear Modulus (GPa) = 41.69516 62.34798 52.02157
#
# Velocity S-wave (km/s) = 4.53807 5.54932 5.06897
# Velocity P-wave (km/s) = 8.19371 9.19912 8.71093
#
# Compressibility (1/GPa) = 0.01244819
#
# Stress axis : x y z
#
# Youngs Moduli (GPa) = 101.35034 96.38939 82.00669
#
# Poissons Ratio (x) = 0.48782 0.18426
# Poissons Ratio (y) = 0.51293 0.22025
# Poissons Ratio (z) = 0.22773 0.25888
#
# Static dielectric constant tensor:
#      x y z
#    x 1.724310 0.000000 0.000000 
#    y 0.000000 1.771070 0.000000 
#    z 0.000000 0.000000 1.713690 
# 
# From -- ./inp_files/3264.got.cif
#   From: 2010.05.17/outbox.cif.g08.bks.cpg/sg39_2_cif.got.tgz:3264.got - 2010.06.03 18:22:40.
