data_PCOD9359996
_publ_section_title
;
Structure prediction by ZEFSAII (Michael W. Deem and Ramdas Pophale) SiO2 
 PCOD9359996
Probable space group: A B M 2
;
_chemical_formula_sum "Si O2"
_cell_formula_units_Z 48
_cell_length_a 8.449967
_cell_length_b 10.325813
_cell_length_c 28.293619
_cell_angle_alpha 90.000000
_cell_angle_beta 90.000000
_cell_angle_gamma 90.000000
_cell_volume 2468.696888
_symmetry_space_group_name_H-M "A B M 2"
_symmetry_group_IT_number 39
_symmetry_cell_setting 'orthorhombic'
loop_
_space_group_symop_operation_xyz
x,y,z
-x,-y,z
-x,1/2+y,z
x,1/2-y,z
x,1/2+y,1/2+z
-x,1/2-y,1/2+z
-x,y,1/2+z
x,-y,1/2+z
loop_
_atom_site_type_symbol
_atom_site_label
_atom_site_fract_x
_atom_site_fract_y
_atom_site_fract_z
Si Si1 0.855624 0.399638 0.841650
Si Si2 0.808924 0.983023 0.240252
Si Si3 0.307761 0.250000 0.068769
Si Si4 0.187183 0.518523 0.029450
Si Si5 0.358819 0.101956 0.434559
Si Si6 0.161453 0.750000 0.673103
Si Si7 0.322274 0.750000 0.090389
Si Si8 0.217906 0.250000 0.695468
O O1 0.912369 0.250000 0.837374
O O2 0.767842 0.435286 0.792651
O O3 0.742383 0.408566 0.886678
O O4 0.000000 0.500000 0.847377
O O5 0.745284 0.122067 0.225292
O O6 0.774989 0.876160 0.200535
O O7 0.000000 0.000000 0.241385
O O8 0.262759 0.379926 0.041095
O O9 0.213648 0.250000 0.118787
O O10 0.494772 0.250000 0.076646
O O11 0.238686 0.623345 0.068631
O O12 0.000000 0.500000 0.029271
O O13 0.249053 0.571196 0.979504
O O14 0.417149 0.250000 0.438817
O O15 0.500000 0.000000 0.434186
O O16 0.970099 0.750000 0.680772
O O17 0.308846 0.750000 0.146451
#
# Coordination Sequence:
#
# PCOD9359996 Si02
#       8
#     8   8   4   8   8   4   4   4
#     4  10  21  39  64  95 129 165 215 267 315 381
#     4   9  18  33  58  89 120 161 212 268 315 358
#     4  12  26  40  67  94 133 174 209 268 332 382
#     4  12  25  44  68  96 125 169 220 268 316 382
#     4  11  25  45  66  94 130 166 209 264 327 390
#     4  10  18  36  57  88 119 166 215 258 316 370
#     4  12  24  44  61  96 135 168 217 266 328 386
#     4  10  20  34  59  86 125 164 217 270 308 380
#
# _framework density 19.443458
#
# number of rings (size 3 to 8) (size 9 to 14) (size 15 to 20)
#    0.000    1.333    1.667    4.500    4.667    2.000 
#    0.000    1.667    0.000    0.000    0.000    0.000 
#    0.000    0.000    0.000    0.000    0.000    0.000 
#
# Total GULP energy -134185.630576 kJ/mol
# GULP energy per Si atom -5591.067941 kJ/mol
# Density = 1.939920 g / cm^3
# Si number density = 19.443458 Si / 1000 Ang^3
#
#
#
# Elastic Constant Matrix: (Units=GPa)
#
#
# Indices 1 2 3 4 5 6 
#
# 1 76.4870 50.8283 12.8917 0.0000 0.0000 0.0000
# 2 50.8283 180.8217 49.0739 0.0000 0.0000 0.0000
# 3 12.8917 49.0739 102.7750 0.0000 0.0000 0.0000
# 4 0.0000 0.0000 0.0000 16.6766 0.0000 0.0000
# 5 0.0000 0.0000 0.0000 0.0000 -30.2002 0.0000
# 6 0.0000 0.0000 0.0000 0.0000 0.0000 25.3706
#
#
#
# Elastic Compliance Matrix: (Units=1/GPa)
#
#
# Indices 1 2 3 4 5 6 
#
# 1 0.016080 -0.004564 0.000162 0.000000 0.000000 0.000000
# 2 -0.004564 0.007649 -0.003080 0.000000 0.000000 0.000000
# 3 0.000162 -0.003080 0.011180 0.000000 0.000000 0.000000
# 4 0.000000 0.000000 0.000000 0.059964 0.000000 0.000000
# 5 0.000000 0.000000 0.000000 0.000000 -0.033112 0.000000
# 6 0.000000 0.000000 0.000000 0.000000 0.000000 0.039416
#
#
# Mechanical properties :
#
#
# Convention : Reuss Voigt Hill
#
# Bulk Modulus (GPa) = 50.13567 65.07462 57.60515
# Shear Modulus (GPa) = 40.72049 18.85539 29.78794
#
# Velocity S-wave (km/s) = 4.58132 3.11747 3.91836
# Velocity P-wave (km/s) = 7.33662 6.81905 7.08256
#
# Compressibility (1/GPa) = 0.01994588
#
# Stress axis : x y z
#
# Youngs Moduli (GPa) = 62.19020 130.73460 89.44358
#
# Poissons Ratio (x) = 0.59667 -0.01451
# Poissons Ratio (y) = 0.28384 0.27547
# Poissons Ratio (z) = -0.01009 0.40264
#
# Static dielectric constant tensor:
#      x y z
#    x 1.658730 0.000000 0.000000 
#    y 0.000000 1.669510 0.000000 
#    z 0.000000 0.000000 1.663470 
# 
# From -- ./inp_files/17720.got.cif
#   From: 2010.05.17/outbox.cif.g08.bks.cpg/sg39_9_cif.got.tgz:17720.got - 2010.06.03 18:22:40.
