data_PCOD9359031
_publ_section_title
;
Structure prediction by ZEFSAII (Michael W. Deem and Ramdas Pophale) SiO2 
 PCOD9359031
Probable space group: A M M 2
;
_chemical_formula_sum "Si O2"
_cell_formula_units_Z 64
_cell_length_a 7.761341
_cell_length_b 24.438578
_cell_length_c 15.968189
_cell_angle_alpha 90.000000
_cell_angle_beta 90.000000
_cell_angle_gamma 90.000000
_cell_volume 3028.784411
_symmetry_space_group_name_H-M "A M M 2"
_symmetry_group_IT_number 38
_symmetry_cell_setting 'orthorhombic'
loop_
_space_group_symop_operation_xyz
x,y,z
-x,-y,z
-x,y,z
x,-y,z
x,1/2+y,1/2+z
-x,1/2-y,1/2+z
-x,1/2+y,1/2+z
x,1/2-y,1/2+z
loop_
_atom_site_type_symbol
_atom_site_label
_atom_site_fract_x
_atom_site_fract_y
_atom_site_fract_z
Si Si1 0.300797 0.121657 0.396340
Si Si2 0.700818 0.254174 0.155526
Si Si3 0.795653 0.358409 0.577296
Si Si4 0.198658 0.239944 0.344147
Si Si5 0.706964 0.131983 0.579674
Si Si6 0.210537 0.860483 0.892111
Si Si7 0.791880 0.062251 0.741354
Si Si8 0.291281 0.437372 0.730376
O O1 0.500000 0.103712 0.401122
O O2 0.294579 0.186130 0.375262
O O3 0.223458 0.114724 0.488775
O O4 0.224987 0.089854 0.316662
O O5 0.500000 0.263621 0.175890
O O6 0.715431 0.200091 0.099919
O O7 0.792831 0.243379 0.243575
O O8 0.769770 0.308119 0.109201
O O9 0.738537 0.378013 0.485445
O O10 0.759047 0.400909 0.651056
O O11 0.000000 0.349576 0.573374
O O12 0.266401 0.297862 0.377554
O O13 0.000000 0.234114 0.370661
O O14 0.500000 0.136947 0.570591
O O15 0.744486 0.089711 0.653418
O O16 0.271264 0.899652 0.817600
O O17 0.000000 0.860173 0.887515
O O18 0.000000 0.061252 0.746158
O O19 0.729524 0.000000 0.747639
O O20 0.500000 0.436718 0.733062
O O21 0.233971 0.500000 0.722687
#
# Coordination Sequence:
#
# PCOD9359031 Si02
#       8
#     8   8   8   8   8   8   8   8
#     4  10  21  38  59  84 116 152 188 231 287 348
#     4  11  21  35  56  85 120 154 184 229 288 345
#     4  11  22  37  60  88 115 149 191 239 287 339
#     4  11  20  34  59  87 115 150 187 232 284 343
#     4  10  22  38  59  87 117 152 192 234 285 341
#     4   9  20  37  57  85 117 149 187 231 289 346
#     4  10  21  39  61  83 113 154 195 239 289 337
#     4  10  22  40  59  80 112 154 195 237 287 340
#
# _framework density 21.130590000000002
#
# number of rings (size 3 to 8) (size 9 to 14) (size 15 to 20)
#    0.000    1.750    2.500    1.875    0.000    2.500 
#    0.000    5.625    0.000    0.000    0.000    0.000 
#    0.000    0.000    0.000    0.000    0.000    0.000 
#
# Total GULP energy -178816.223392 kJ/mol
# GULP energy per Si atom -5588.006981 kJ/mol
# Density = 2.108250 g / cm^3
# Si number density = 21.130590 Si / 1000 Ang^3
#
#
#
# Elastic Constant Matrix: (Units=GPa)
#
#
# Indices 1 2 3 4 5 6 
#
# 1 31.4316 -12.3981 -9.6741 0.0000 0.0000 0.0000
# 2 -12.3981 104.0109 46.3301 0.0000 0.0000 0.0000
# 3 -9.6741 46.3301 160.5291 0.0000 0.0000 0.0000
# 4 0.0000 0.0000 0.0000 -1.3155 0.0000 0.0000
# 5 0.0000 0.0000 0.0000 0.0000 25.3922 0.0000
# 6 0.0000 0.0000 0.0000 0.0000 0.0000 16.7064
#
#
#
# Elastic Compliance Matrix: (Units=1/GPa)
#
#
# Indices 1 2 3 4 5 6 
#
# 1 0.033523 0.003553 0.000995 0.000000 0.000000 0.000000
# 2 0.003553 0.011409 -0.003079 0.000000 0.000000 0.000000
# 3 0.000995 -0.003079 0.007178 0.000000 0.000000 0.000000
# 4 0.000000 0.000000 0.000000 -0.760190 0.000000 0.000000
# 5 0.000000 0.000000 0.000000 0.000000 0.039382 0.000000
# 6 0.000000 0.000000 0.000000 0.000000 0.000000 0.059857
#
#
# Mechanical properties :
#
#
# Convention : Reuss Voigt Hill
#
# Bulk Modulus (GPa) = 18.16609 38.27637 28.22123
# Shear Modulus (GPa) = -8.42560 26.27087 8.92263
#
# Velocity S-wave (km/s) = -1.99901 3.52982 2.05713
# Velocity P-wave (km/s) = 1.81319 5.89630 4.36199
#
# Compressibility (1/GPa) = 0.05504763
#
# Stress axis : x y z
#
# Youngs Moduli (GPa) = 29.83056 87.64830 139.31661
#
# Poissons Ratio (x) = -0.31139 -0.13860
# Poissons Ratio (y) = -0.10598 0.42891
# Poissons Ratio (z) = -0.02968 0.26984
#
# Static dielectric constant tensor:
#      x y z
#    x 1.811300 0.000000 0.000000 
#    y 0.000000 1.721040 0.000000 
#    z 0.000000 0.000000 1.758670 
# 
# From -- ./inp_files/12770.got.cif
#   From: 2010.05.17/outbox.cif.g08.bks.cpg/sg38_7_cif.got.tgz:12770.got - 2010.06.03 18:07:57.
