data_PCOD9359028
_publ_section_title
;
Structure prediction by ZEFSAII (Michael W. Deem and Ramdas Pophale) SiO2 
 PCOD9359028
Probable space group: A M M 2
;
_chemical_formula_sum "Si O2"
_cell_formula_units_Z 58
_cell_length_a 23.220609
_cell_length_b 8.050214
_cell_length_c 14.554577
_cell_angle_alpha 90.000000
_cell_angle_beta 90.000000
_cell_angle_gamma 90.000000
_cell_volume 2720.699765
_symmetry_space_group_name_H-M "A M M 2"
_symmetry_group_IT_number 38
_symmetry_cell_setting 'orthorhombic'
loop_
_space_group_symop_operation_xyz
x,y,z
-x,-y,z
-x,y,z
x,-y,z
x,1/2+y,1/2+z
-x,1/2-y,1/2+z
-x,1/2+y,1/2+z
x,1/2-y,1/2+z
loop_
_atom_site_type_symbol
_atom_site_label
_atom_site_fract_x
_atom_site_fract_y
_atom_site_fract_z
Si Si1 0.562227 0.684815 0.395750
Si Si2 0.142817 0.802408 0.347325
Si Si3 0.500000 0.500000 0.966809
Si Si4 0.651043 0.313187 0.749589
Si Si5 0.834559 0.201190 0.136305
Si Si6 0.291466 0.308537 0.071265
Si Si7 0.064310 0.699734 0.500298
Si Si8 0.264534 0.184709 0.880902
O O1 0.500000 0.678262 0.345686
O O2 0.570385 0.500000 0.438730
O O3 0.609581 0.715591 0.318449
O O4 0.550390 0.848500 0.458639
O O5 0.147913 0.757728 0.240524
O O6 0.085451 0.746660 0.398645
O O7 0.197401 0.717634 0.396556
O O8 0.148547 0.000000 0.355845
O O9 0.629442 0.500000 0.740731
O O10 0.663614 0.239093 0.650174
O O11 0.711459 0.309090 0.804893
O O12 0.772732 0.275948 0.110518
O O13 0.885829 0.259068 0.069433
O O14 0.829047 0.000000 0.129023
O O15 0.296843 0.500000 0.046324
O O16 0.296665 0.206214 0.977348
O O17 0.063241 0.500000 0.507899
O O18 0.000000 0.762059 0.519790
O O19 0.272685 0.000000 0.843930
#
# Coordination Sequence:
#
# PCOD9359028 Si02
#       8
#     8   8   2   8   8   8   8   8
#     4   9  17  32  55  86 119 161 209 252 302 358
#     4  11  22  37  59  86 114 147 190 239 292 354
#     4   8  14  32  52  86 116 164 206 254 306 346
#     4  12  22  38  61  89 123 160 203 250 304 360
#     4  10  21  38  59  82 114 151 188 234 292 354
#     4  12  24  37  57  88 120 156 197 244 298 361
#     4  10  22  40  61  82 111 152 194 238 290 350
#     4  12  24  38  57  86 121 158 196 245 299 360
#
# _framework density 21.318044
#
# number of rings (size 3 to 8) (size 9 to 14) (size 15 to 20)
#    0.414    0.828    3.448    4.138    0.000    1.379 
#    0.000    1.379    0.000    0.828    0.000    0.000 
#    0.000    0.000    0.000    0.000    0.000    0.000 
#
# Total GULP energy -161646.222166 kJ/mol
# GULP energy per Si atom -5574.007661 kJ/mol
# Density = 2.126952 g / cm^3
# Si number density = 21.318044 Si / 1000 Ang^3
#
#
#
# Elastic Constant Matrix: (Units=GPa)
#
#
# Indices 1 2 3 4 5 6 
#
# 1 49.3383 5.0258 -6.1180 0.0000 0.0000 0.0000
# 2 5.0258 95.6236 0.6594 0.0000 0.0000 0.0000
# 3 -6.1180 0.6594 58.9037 0.0000 0.0000 0.0000
# 4 0.0000 0.0000 0.0000 21.5672 0.0000 0.0000
# 5 0.0000 0.0000 0.0000 0.0000 -12.6544 0.0000
# 6 0.0000 0.0000 0.0000 0.0000 0.0000 26.8342
#
#
#
# Elastic Compliance Matrix: (Units=1/GPa)
#
#
# Indices 1 2 3 4 5 6 
#
# 1 0.020648 -0.001100 0.002157 0.000000 0.000000 0.000000
# 2 -0.001100 0.010517 -0.000232 0.000000 0.000000 0.000000
# 3 0.002157 -0.000232 0.017203 0.000000 0.000000 0.000000
# 4 0.000000 0.000000 0.000000 0.046367 0.000000 0.000000
# 5 0.000000 0.000000 0.000000 0.000000 -0.079024 0.000000
# 6 0.000000 0.000000 0.000000 0.000000 0.000000 0.037266
#
#
# Mechanical properties :
#
#
# Convention : Reuss Voigt Hill
#
# Bulk Modulus (GPa) = 19.99284 22.55556 21.27420
# Shear Modulus (GPa) = 73.52948 20.76929 47.14939
#
# Velocity S-wave (km/s) = 5.87933 3.12470 4.70799
# Velocity P-wave (km/s) = 7.44899 4.86023 6.28925
#
# Compressibility (1/GPa) = 0.05001791
#
# Stress axis : x y z
#
# Youngs Moduli (GPa) = 48.43146 95.08334 58.12777
#
# Poissons Ratio (x) = 0.10460 -0.12537
# Poissons Ratio (y) = 0.05328 0.01349
# Poissons Ratio (z) = -0.10446 0.02206
#
# Static dielectric constant tensor:
#      x y z
#    x 1.827490 0.000000 0.000000 
#    y 0.000000 1.774060 0.000000 
#    z 0.000000 0.000000 1.756280 
# 
# From -- ./inp_files/15664.got.cif
#   From: 2010.05.17/outbox.cif.g08.bks.cpg/sg38_8_cif.got.tgz:15664.got - 2010.06.03 18:07:57.
