data_PCOD9359444
_publ_section_title
;
Structure prediction by ZEFSAII (Michael W. Deem and Ramdas Pophale) SiO2 
 PCOD9359444
Probable space group: A M M 2
;
_chemical_formula_sum "Si O2"
_cell_formula_units_Z 48
_cell_length_a 8.828807
_cell_length_b 17.509642
_cell_length_c 17.378377
_cell_angle_alpha 90.000000
_cell_angle_beta 90.000000
_cell_angle_gamma 90.000000
_cell_volume 2686.510264
_symmetry_space_group_name_H-M "A M M 2"
_symmetry_group_IT_number 38
_symmetry_cell_setting 'orthorhombic'
loop_
_space_group_symop_operation_xyz
x,y,z
-x,-y,z
-x,y,z
x,-y,z
x,1/2+y,1/2+z
-x,1/2-y,1/2+z
-x,1/2+y,1/2+z
x,1/2-y,1/2+z
loop_
_atom_site_type_symbol
_atom_site_label
_atom_site_fract_x
_atom_site_fract_y
_atom_site_fract_z
Si Si1 0.181395 0.589599 0.549860
Si Si2 0.182192 0.354586 0.716433
Si Si3 0.681785 0.191211 0.743546
Si Si4 0.177837 0.086033 0.615481
Si Si5 0.317613 0.588118 0.387952
Si Si6 0.680866 0.000000 0.484423
Si Si7 0.681855 0.000000 0.303873
O O1 0.220764 0.500000 0.561572
O O2 0.225765 0.634371 0.626618
O O3 0.256692 0.615028 0.470462
O O4 0.000000 0.594227 0.541878
O O5 0.246070 0.274641 0.745729
O O6 0.249510 0.425338 0.763620
O O7 0.000000 0.356520 0.720972
O O8 0.500000 0.196461 0.743123
O O9 0.737794 0.146617 0.667778
O O10 0.750878 0.071929 0.531075
O O11 0.269914 0.141138 0.817385
O O12 0.000000 0.103665 0.610001
O O13 0.193518 0.000000 0.650835
O O14 0.500000 0.587890 0.389992
O O15 0.266886 0.500000 0.376959
O O16 0.500000 0.000000 0.493821
O O17 0.718117 0.000000 0.394819
O O18 0.500000 0.000000 0.295682
#
# Coordination Sequence:
#
# PCOD9359444 Si02
#       7
#     8   8   8   8   8   4   4
#     4   9  18  36  59  83 109 144 188 233 284 340
#     4  11  23  40  61  84 116 153 193 241 292 345
#     4  11  22  37  57  86 121 156 195 237 287 343
#     4   9  19  35  58  87 117 151 192 233 282 346
#     4   9  19  35  57  85 115 149 188 232 282 337
#     4   9  19  37  61  88 115 150 193 239 288 347
#     4  11  23  41  65  88 111 146 195 243 294 353
#
# _framework density 17.867045000000001
#
# number of rings (size 3 to 8) (size 9 to 14) (size 15 to 20)
#    0.500    1.667    0.833    2.250    0.000    4.667 
#    3.000    1.667    0.000    0.000    0.000    0.000 
#    0.000    0.000    0.000    0.000    0.000    0.000 
#
# Total GULP energy -133857.702356 kJ/mol
# GULP energy per Si atom -5577.404265 kJ/mol
# Density = 1.782638 g / cm^3
# Si number density = 17.867045 Si / 1000 Ang^3
#
#
#
# Elastic Constant Matrix: (Units=GPa)
#
#
# Indices 1 2 3 4 5 6 
#
# 1 56.4604 48.8994 55.7671 0.0000 0.0000 0.0000
# 2 48.8994 112.8975 85.2612 0.0000 0.0000 0.0000
# 3 55.7671 85.2612 159.9044 0.0000 0.0000 0.0000
# 4 0.0000 0.0000 0.0000 -0.1252 0.0000 0.0000
# 5 0.0000 0.0000 0.0000 0.0000 48.3502 0.0000
# 6 0.0000 0.0000 0.0000 0.0000 0.0000 30.2754
#
#
#
# Elastic Compliance Matrix: (Units=1/GPa)
#
#
# Indices 1 2 3 4 5 6 
#
# 1 0.031680 -0.009003 -0.006248 0.000000 0.000000 0.000000
# 2 -0.009003 0.017387 -0.006131 0.000000 0.000000 0.000000
# 3 -0.006248 -0.006131 0.011702 0.000000 0.000000 0.000000
# 4 0.000000 0.000000 0.000000 -7.987286 0.000000 0.000000
# 5 0.000000 0.000000 0.000000 0.000000 0.020682 0.000000
# 6 0.000000 0.000000 0.000000 0.000000 0.000000 0.033030
#
#
# Mechanical properties :
#
#
# Convention : Reuss Voigt Hill
#
# Bulk Modulus (GPa) = 55.54030 78.79088 67.16559
# Shear Modulus (GPa) = -0.63906 24.98904 12.17499
#
# Velocity S-wave (km/s) = -0.59871 3.74386 2.61324
# Velocity P-wave (km/s) = 5.53849 7.92987 6.83951
#
# Compressibility (1/GPa) = 0.01800494
#
# Stress axis : x y z
#
# Youngs Moduli (GPa) = 31.56524 57.51296 85.45609
#
# Poissons Ratio (x) = 0.51780 0.53394
# Poissons Ratio (y) = 0.28419 0.52394
# Poissons Ratio (z) = 0.19723 0.35262
#
# Static dielectric constant tensor:
#      x y z
#    x 1.596660 0.000000 0.000000 
#    y 0.000000 1.600800 0.000000 
#    z 0.000000 0.000000 1.600020 
# 
# From -- ./inp_files/16692.got.cif
#   From: 2010.05.17/outbox.cif.g08.bks.cpg/sg38_9_cif.got.tgz:16692.got - 2010.06.03 18:07:57.
