data_PCOD9359620
_publ_section_title
;
Structure prediction by ZEFSAII (Michael W. Deem and Ramdas Pophale) SiO2 
 PCOD9359620
Probable space group: A M M 2
;
_chemical_formula_sum "Si O2"
_cell_formula_units_Z 24
_cell_length_a 15.000000
_cell_length_b 18.000000
_cell_length_c 9.000000
_cell_angle_alpha 90.000000
_cell_angle_beta 90.000000
_cell_angle_gamma 90.000000
_cell_volume 2430.000000
_symmetry_space_group_name_H-M "A M M 2"
_symmetry_group_IT_number 38
_symmetry_cell_setting 'orthorhombic'
loop_
_space_group_symop_operation_xyz
x,y,z
-x,-y,z
-x,y,z
x,-y,z
x,1/2+y,1/2+z
-x,1/2-y,1/2+z
-x,1/2+y,1/2+z
x,1/2-y,1/2+z
loop_
_atom_site_type_symbol
_atom_site_label
_atom_site_fract_x
_atom_site_fract_y
_atom_site_fract_z
Si Si1 0.600143 0.087046 0.363020
Si Si2 0.098471 0.154317 0.710131
Si Si3 0.899792 0.814032 0.061624
Si Si4 0.303261 0.828318 0.141242
Si Si5 0.709824 0.587896 0.140396
Si Si6 0.607317 0.301556 0.329466
O O1 0.500000 0.119651 0.375111
O O2 0.645242 0.101015 0.205756
O O3 0.670935 0.115722 0.483285
O O4 0.591688 0.000000 0.389267
O O5 0.098844 0.228457 0.611147
O O6 0.188531 0.111576 0.669602
O O7 0.000000 0.118080 0.689070
O O8 0.104580 0.176199 0.884080
O O9 0.803299 0.840894 0.124936
O O10 0.000000 0.843961 0.107592
O O11 0.333975 0.762037 0.249947
O O12 0.352796 0.805590 0.992217
O O13 0.707388 0.500000 0.146329
O O14 0.639462 0.622382 0.254144
O O15 0.500000 0.291783 0.320876
#
# Coordination Sequence:
#
# PCOD9359620 Si02
#       6
#     8   8   8   8   8   8
#     4  10  23  42  62  85 120 163 202 245 299 358
#     4  10  21  39  61  90 120 153 195 247 304 359
#     4  10  20  37  62  91 119 149 192 243 300 352
#     4  12  22  40  62  90 122 155 199 249 302 357
#     4  11  23  40  60  85 118 161 203 247 300 354
#     4  12  24  37  59  90 120 156 200 250 298 354
#
# _framework density 9.8765429999999999
#
# number of rings (size 3 to 8) (size 9 to 14) (size 15 to 20)
#    0.000    1.167    3.333    3.000    2.333    2.000 
#    0.000    0.000    0.000    1.500    0.000    0.000 
#    0.000    0.000    0.000    0.000    0.000    0.000 
#
# Total GULP energy -133707.654254 kJ/mol
# GULP energy per Si atom -5571.152261 kJ/mol
# Density = 0.985406 g / cm^3
# Si number density = 9.876543 Si / 1000 Ang^3
#
#
#
# Elastic Constant Matrix: (Units=GPa)
#
#
# Indices 1 2 3 4 5 6 
#
# 1 210.4304 3.2886 38.6191 0.0000 0.0000 0.0000
# 2 3.2886 -177.8405 -50.5712 0.0000 0.0000 0.0000
# 3 38.6191 -50.5712 74.7034 0.0000 0.0000 0.0000
# 4 0.0000 0.0000 0.0000 21.3866 0.0000 0.0000
# 5 0.0000 0.0000 0.0000 0.0000 32.5236 0.0000
# 6 0.0000 0.0000 0.0000 0.0000 0.0000 46.9200
#
#
#
# Elastic Compliance Matrix: (Units=1/GPa)
#
#
# Indices 1 2 3 4 5 6 
#
# 1 0.005140 0.000713 -0.002174 0.000000 0.000000 0.000000
# 2 0.000713 -0.004616 -0.003494 0.000000 0.000000 0.000000
# 3 -0.002174 -0.003494 0.012145 0.000000 0.000000 0.000000
# 4 0.000000 0.000000 0.000000 0.046758 0.000000 0.000000
# 5 0.000000 0.000000 0.000000 0.000000 0.030747 0.000000
# 6 0.000000 0.000000 0.000000 0.000000 0.000000 0.021313
#
#
# Mechanical properties :
#
#
# Convention : Reuss Voigt Hill
#
# Bulk Modulus (GPa) = 362.41553 9.99624 186.20588
# Shear Modulus (GPa) = 40.87762 27.89648 34.38705
#
# Velocity S-wave (km/s) = 4.55403 3.76208 4.17687
# Velocity P-wave (km/s) = 14.54385 4.89312 10.85048
#
# Compressibility (1/GPa) = 0.00275926
#
# Stress axis : x y z
#
# Youngs Moduli (GPa) = 194.55024 -216.62331 82.33744
#
# Poissons Ratio (x) = 0.15453 0.17903
# Poissons Ratio (y) = -0.13878 0.28767
# Poissons Ratio (z) = 0.42302 -0.75685
#
# Static dielectric constant tensor:
#      x y z
#    x 1.715540 0.000000 0.000000 
#    y 0.000000 1.751340 0.000000 
#    z 0.000000 0.000000 2.796030 
# 
# From -- ./inp_files/5445.got.cif
#   From: 2010.05.17/outbox.ucp.g08.bks.cvg/sg38_3_cif.got.tgz:5445.got - 2010.06.11 10:39:43.
