data_PCOD9359048
_publ_section_title
;
Structure prediction by ZEFSAII (Michael W. Deem and Ramdas Pophale) SiO2 
 PCOD9359048
Probable space group: A M M 2
;
_chemical_formula_sum "Si O2"
_cell_formula_units_Z 44
_cell_length_a 17.195622
_cell_length_b 15.210834
_cell_length_c 8.456415
_cell_angle_alpha 90.000000
_cell_angle_beta 90.000000
_cell_angle_gamma 90.000000
_cell_volume 2211.857808
_symmetry_space_group_name_H-M "A M M 2"
_symmetry_group_IT_number 38
_symmetry_cell_setting 'orthorhombic'
loop_
_space_group_symop_operation_xyz
x,y,z
-x,-y,z
-x,y,z
x,-y,z
x,1/2+y,1/2+z
-x,1/2-y,1/2+z
-x,1/2+y,1/2+z
x,1/2-y,1/2+z
loop_
_atom_site_type_symbol
_atom_site_label
_atom_site_fract_x
_atom_site_fract_y
_atom_site_fract_z
Si Si1 0.911058 0.500000 0.762550
Si Si2 0.623832 0.100654 0.143765
Si Si3 0.376168 0.899346 0.759670
Si Si4 0.500000 0.750000 0.201716
Si Si5 0.200049 0.348272 0.262536
Si Si6 0.911059 0.500000 0.140888
Si Si7 0.200049 0.348272 0.640900
O O1 0.863879 0.584916 0.705058
O O2 0.000000 0.500000 0.704576
O O3 0.912088 0.500000 0.951719
O O4 0.567501 0.173314 0.214753
O O5 0.713254 0.119734 0.187178
O O6 0.604361 0.000000 0.184933
O O7 0.615891 0.108815 0.951717
O O8 0.432499 0.826686 0.688680
O O9 0.286746 0.880267 0.716257
O O10 0.395640 0.000000 0.718502
O O11 0.136121 0.415084 0.198380
O O12 0.197412 0.349536 0.451718
O O13 0.187888 0.250000 0.201718
O O14 0.000000 0.500000 0.198862
#
# Coordination Sequence:
#
# PCOD9359048 Si02
#       7
#     4   8   8   4   8   4   8
#     4  11  25  45  69 100 133 166 212 270 328 393
#     4  10  21  38  60  87 123 168 217 265 320 382
#     4  10  21  38  60  87 123 168 217 265 320 382
#     4  12  20  34  60  90 126 162 218 272 318 374
#     4  11  22  41  68  97 130 174 220 265 326 390
#     4  11  25  45  69 100 133 166 212 270 328 393
#     4  11  22  41  68  97 130 174 220 265 326 390
#
# _framework density 19.892779999999998
#
# number of rings (size 3 to 8) (size 9 to 14) (size 15 to 20)
#    0.000    1.273    3.636    2.727    0.000    3.636 
#    0.000    0.000    0.000    4.364    0.000    0.000 
#    0.000    0.000    0.000    0.000    0.000    0.000 
#
# Total GULP energy -122500.421393 kJ/mol
# GULP energy per Si atom -5568.200972 kJ/mol
# Density = 1.984750 g / cm^3
# Si number density = 19.892780 Si / 1000 Ang^3
#
#
#
# Elastic Constant Matrix: (Units=GPa)
#
#
# Indices 1 2 3 4 5 6 
#
# 1 203.8457 110.2930 38.1886 0.0000 0.0000 0.0000
# 2 110.2930 224.6526 27.4051 0.0000 0.0000 0.0000
# 3 38.1886 27.4051 24.2944 0.0000 0.0000 0.0000
# 4 0.0000 0.0000 0.0000 19.6657 0.0000 0.0000
# 5 0.0000 0.0000 0.0000 0.0000 125.0723 0.0000
# 6 0.0000 0.0000 0.0000 0.0000 0.0000 56.1178
#
#
#
# Elastic Compliance Matrix: (Units=1/GPa)
#
#
# Indices 1 2 3 4 5 6 
#
# 1 0.008299 -0.002879 -0.009797 0.000000 0.000000 0.000000
# 2 -0.002879 0.006160 -0.002423 0.000000 0.000000 0.000000
# 3 -0.009797 -0.002423 0.059296 0.000000 0.000000 0.000000
# 4 0.000000 0.000000 0.000000 0.050850 0.000000 0.000000
# 5 0.000000 0.000000 0.000000 0.000000 0.007995 0.000000
# 6 0.000000 0.000000 0.000000 0.000000 0.000000 0.017820
#
#
# Mechanical properties :
#
#
# Convention : Reuss Voigt Hill
#
# Bulk Modulus (GPa) = 22.95917 89.39623 56.17770
# Shear Modulus (GPa) = 25.62275 58.63156 42.12715
#
# Velocity S-wave (km/s) = 3.59282 5.43487 4.60685
# Velocity P-wave (km/s) = 5.36448 9.18805 7.52323
#
# Compressibility (1/GPa) = 0.04355558
#
# Stress axis : x y z
#
# Youngs Moduli (GPa) = 120.49762 162.32485 16.86450
#
# Poissons Ratio (x) = 0.46736 0.16523
# Poissons Ratio (y) = 0.34693 0.04087
# Poissons Ratio (z) = 1.18055 0.39339
#
# Static dielectric constant tensor:
#      x y z
#    x 1.678790 0.000000 0.000000 
#    y 0.000000 1.653950 0.000000 
#    z 0.000000 0.000000 1.727090 
# 
# From -- ./inp_files/6164.got.cif
#   From: 2010.05.17/outbox.cif.g08.bks.cpg/sg38_4_cif.got.tgz:6164.got - 2010.06.03 18:07:57.
