data_PCOD9359140
_publ_section_title
;
Structure prediction by ZEFSAII (Michael W. Deem and Ramdas Pophale) SiO2 
 PCOD9359140
Probable space group: A M M 2
;
_chemical_formula_sum "Si O2"
_cell_formula_units_Z 32
_cell_length_a 12.294359
_cell_length_b 7.688375
_cell_length_c 18.310521
_cell_angle_alpha 90.000000
_cell_angle_beta 90.000000
_cell_angle_gamma 90.000000
_cell_volume 1730.777139
_symmetry_space_group_name_H-M "A M M 2"
_symmetry_group_IT_number 38
_symmetry_cell_setting 'orthorhombic'
loop_
_space_group_symop_operation_xyz
x,y,z
-x,-y,z
-x,y,z
x,-y,z
x,1/2+y,1/2+z
-x,1/2-y,1/2+z
-x,1/2+y,1/2+z
x,1/2-y,1/2+z
loop_
_atom_site_type_symbol
_atom_site_label
_atom_site_fract_x
_atom_site_fract_y
_atom_site_fract_z
Si Si1 0.728197 0.787917 0.825470
Si Si2 0.500000 0.300846 0.563560
Si Si3 0.500000 0.789052 0.900993
Si Si4 0.298612 0.305208 0.161017
Si Si5 0.870929 0.000000 0.401940
Si Si6 0.128037 0.000000 0.575602
O O1 0.610827 0.742309 0.859711
O O2 0.726407 0.731522 0.740382
O O3 0.816443 0.672332 0.867631
O O4 0.746169 0.000000 0.830858
O O5 0.500000 0.500000 0.544534
O O6 0.500000 0.213943 0.483600
O O7 0.607088 0.271123 0.611515
O O8 0.500000 0.000000 0.899787
O O9 0.340784 0.500000 0.178116
O O10 0.189931 0.337611 0.113618
O O11 0.852354 0.000000 0.489293
O O12 0.000000 0.000000 0.389111
O O13 0.000000 0.000000 0.589943
#
# Coordination Sequence:
#
# PCOD9359140 Si02
#       6
#     8   4   4   8   4   4
#     4  10  21  40  61  88 120 158 195 246 296 350
#     4  11  20  31  55  86 120 151 186 237 294 355
#     4   9  19  34  56  87 120 153 192 240 295 358
#     4   9  20  36  59  81 113 155 193 234 291 349
#     4  11  24  39  61  91 119 153 206 248 290 354
#     4   9  20  39  61  85 113 153 202 248 288 340
#
# _framework density 18.488803999999998
#
# number of rings (size 3 to 8) (size 9 to 14) (size 15 to 20)
#    0.750    1.500    0.000    2.625    1.750    4.000 
#    2.250    0.000    0.000    1.500    0.000    0.000 
#    0.000    0.000    0.000    0.000    0.000    0.000 
#
# Total GULP energy -89080.074255 kJ/mol
# GULP energy per Si atom -5567.504641 kJ/mol
# Density = 1.844672 g / cm^3
# Si number density = 18.488804 Si / 1000 Ang^3
#
#
#
# Elastic Constant Matrix: (Units=GPa)
#
#
# Indices 1 2 3 4 5 6 
#
# 1 164.8162 39.0563 114.3345 0.0000 0.0000 0.0000
# 2 39.0563 54.7007 35.9180 0.0000 0.0000 0.0000
# 3 114.3345 35.9180 183.9257 0.0000 0.0000 0.0000
# 4 0.0000 0.0000 0.0000 94.8882 0.0000 0.0000
# 5 0.0000 0.0000 0.0000 0.0000 -18.1975 0.0000
# 6 0.0000 0.0000 0.0000 0.0000 0.0000 -8.8490
#
#
#
# Elastic Compliance Matrix: (Units=1/GPa)
#
#
# Indices 1 2 3 4 5 6 
#
# 1 0.011380 -0.003992 -0.006295 0.000000 0.000000 0.000000
# 2 -0.003992 0.022371 -0.001887 0.000000 0.000000 0.000000
# 3 -0.006295 -0.001887 0.009718 0.000000 0.000000 0.000000
# 4 0.000000 0.000000 0.000000 0.010539 0.000000 0.000000
# 5 0.000000 0.000000 0.000000 0.000000 -0.054953 0.000000
# 6 0.000000 0.000000 0.000000 0.000000 0.000000 -0.113007
#
#
# Mechanical properties :
#
#
# Convention : Reuss Voigt Hill
#
# Bulk Modulus (GPa) = 52.29672 86.89560 69.59616
# Shear Modulus (GPa) = -60.07415 27.84392 -16.11511
#
# Velocity S-wave (km/s) = -5.70637 3.88492 -2.95551
# Velocity P-wave (km/s) = 3.88200 8.19905 5.10659
#
# Compressibility (1/GPa) = 0.01912166
#
# Stress axis : x y z
#
# Youngs Moduli (GPa) = 87.87356 44.70125 102.89740
#
# Poissons Ratio (x) = 0.17845 0.64770
# Poissons Ratio (y) = 0.35080 0.19417
# Poissons Ratio (z) = 0.55313 0.08435
#
# Static dielectric constant tensor:
#      x y z
#    x 1.606120 0.000000 0.000000 
#    y 0.000000 1.615760 0.000000 
#    z 0.000000 0.000000 1.703700 
# 
# From -- ./inp_files/17429.got.cif
#   From: 2010.05.17/outbox.cif.g08.bks.cpg/sg38_9_cif.got.tgz:17429.got - 2010.06.03 18:07:57.
