data_PCOD9359751
_publ_section_title
;
Structure prediction by ZEFSAII (Michael W. Deem and Ramdas Pophale) SiO2 
 PCOD9359751
Probable space group: A B M 2
;
_chemical_formula_sum "Si O2"
_cell_formula_units_Z 64
_cell_length_a 25.356010
_cell_length_b 8.766322
_cell_length_c 15.018717
_cell_angle_alpha 90.000000
_cell_angle_beta 90.000000
_cell_angle_gamma 90.000000
_cell_volume 3338.344620
_symmetry_space_group_name_H-M "A B M 2"
_symmetry_group_IT_number 39
_symmetry_cell_setting 'orthorhombic'
loop_
_space_group_symop_operation_xyz
x,y,z
-x,-y,z
-x,1/2+y,z
x,1/2-y,z
x,1/2+y,1/2+z
-x,1/2-y,1/2+z
-x,y,1/2+z
x,-y,1/2+z
loop_
_atom_site_type_symbol
_atom_site_label
_atom_site_fract_x
_atom_site_fract_y
_atom_site_fract_z
Si Si1 0.446887 0.066943 0.862380
Si Si2 0.337309 0.433055 0.067735
Si Si3 0.446622 0.568267 0.063116
Si Si4 0.136099 0.932959 0.209439
Si Si5 0.056684 0.566967 0.568025
Si Si6 0.943977 0.566945 0.861364
Si Si7 0.252435 0.568133 0.715483
Si Si8 0.329607 0.567007 0.358764
O O1 0.451077 0.250000 0.867255
O O2 0.389011 0.028849 0.825218
O O3 0.500000 0.000000 0.819716
O O4 0.445508 0.998620 0.962389
O O5 0.345676 0.250000 0.071230
O O6 0.390738 0.513684 0.100877
O O7 0.288193 0.473167 0.129848
O O8 0.327210 0.472189 0.963949
O O9 0.500000 0.500000 0.104593
O O10 0.449910 0.750000 0.061936
O O11 0.135761 0.750000 0.204612
O O12 0.103536 0.980656 0.297646
O O13 0.103285 0.000829 0.127407
O O14 0.195503 0.991749 0.212006
O O15 0.055343 0.750000 0.574613
O O16 0.064218 0.523069 0.464342
O O17 0.000000 0.500000 0.596516
O O18 0.947729 0.750000 0.858158
O O19 0.000000 0.500000 0.831287
O O20 0.246244 0.750000 0.716254
O O21 0.285649 0.515012 0.801051
O O22 0.323196 0.750000 0.351501
#
# Coordination Sequence:
#
# PCOD9359751 Si02
#       8
#     8   8   8   8   8   8   8   8
#     4   9  16  28  49  77 108 141 177 220 275 335
#     4   9  20  39  58  77 107 146 183 224 280 337
#     4  10  17  27  49  79 108 138 176 222 274 332
#     4  11  23  39  58  82 114 152 190 230 276 324
#     4  10  20  37  60  88 119 150 186 226 273 325
#     4   9  20  37  59  86 117 151 183 221 270 323
#     4  11  24  40  58  81 109 144 189 236 277 325
#     4   9  19  37  58  78 106 144 182 225 278 333
#
# _framework density 19.171178000000001
#
# number of rings (size 3 to 8) (size 9 to 14) (size 15 to 20)
#    0.000    2.250    0.000    4.500    0.000    7.000 
#    0.000    5.625    0.000    1.500    0.000    0.000 
#    0.000    0.000    0.000    0.000    0.000    0.000 
#
# Total GULP energy -178661.828993 kJ/mol
# GULP energy per Si atom -5583.182156 kJ/mol
# Density = 1.912754 g / cm^3
# Si number density = 19.171178 Si / 1000 Ang^3
#
#
#
# Elastic Constant Matrix: (Units=GPa)
#
#
# Indices 1 2 3 4 5 6 
#
# 1 209.4302 71.3923 80.0021 0.0000 0.0000 0.0000
# 2 71.3923 59.9097 35.2787 0.0000 0.0000 0.0000
# 3 80.0021 35.2787 90.5822 0.0000 0.0000 0.0000
# 4 0.0000 0.0000 0.0000 21.4638 0.0000 0.0000
# 5 0.0000 0.0000 0.0000 0.0000 -133.9330 0.0000
# 6 0.0000 0.0000 0.0000 0.0000 0.0000 40.2324
#
#
#
# Elastic Compliance Matrix: (Units=1/GPa)
#
#
# Indices 1 2 3 4 5 6 
#
# 1 0.009642 -0.008403 -0.005243 0.000000 0.000000 0.000000
# 2 -0.008403 0.028982 -0.003866 0.000000 0.000000 0.000000
# 3 -0.005243 -0.003866 0.017176 0.000000 0.000000 0.000000
# 4 0.000000 0.000000 0.000000 0.046590 0.000000 0.000000
# 5 0.000000 0.000000 0.000000 0.000000 -0.007466 0.000000
# 6 0.000000 0.000000 0.000000 0.000000 0.000000 0.024856
#
#
# Mechanical properties :
#
#
# Convention : Reuss Voigt Hill
#
# Bulk Modulus (GPa) = 48.13303 81.47428 64.80365
# Shear Modulus (GPa) = 30.91589 -2.89744 14.00922
#
# Velocity S-wave (km/s) = 4.02010 -1.23070 2.70616
# Velocity P-wave (km/s) = 6.83446 6.36954 6.60609
#
# Compressibility (1/GPa) = 0.02077576
#
# Stress axis : x y z
#
# Youngs Moduli (GPa) = 103.71067 34.50469 58.21923
#
# Poissons Ratio (x) = 0.28993 0.30527
# Poissons Ratio (y) = 0.87144 0.22509
# Poissons Ratio (z) = 0.54380 0.13340
#
# Static dielectric constant tensor:
#      x y z
#    x 1.654390 0.000000 0.000000 
#    y 0.000000 1.638070 0.000000 
#    z 0.000000 0.000000 1.696630 
# 
# From -- ./inp_files/10645.got.cif
#   From: 2010.05.17/outbox.cif.g08.bks.cpg/sg39_6_cif.got.tgz:10645.got - 2010.06.03 18:22:40.
