data_PCOD9359057
_publ_section_title
;
Structure prediction by ZEFSAII (Michael W. Deem and Ramdas Pophale) SiO2 
 PCOD9359057
Probable space group: A M M 2
;
_chemical_formula_sum "Si O2"
_cell_formula_units_Z 56
_cell_length_a 21.772325
_cell_length_b 8.545287
_cell_length_c 15.913444
_cell_angle_alpha 90.000000
_cell_angle_beta 90.000000
_cell_angle_gamma 90.000000
_cell_volume 2960.708442
_symmetry_space_group_name_H-M "A M M 2"
_symmetry_group_IT_number 38
_symmetry_cell_setting 'orthorhombic'
loop_
_space_group_symop_operation_xyz
x,y,z
-x,-y,z
-x,y,z
x,-y,z
x,1/2+y,1/2+z
-x,1/2-y,1/2+z
-x,1/2+y,1/2+z
x,1/2-y,1/2+z
loop_
_atom_site_type_symbol
_atom_site_label
_atom_site_fract_x
_atom_site_fract_y
_atom_site_fract_z
Si Si1 0.368668 0.312413 0.092730
Si Si2 0.711887 0.310839 0.439240
Si Si3 0.928478 0.312459 0.101531
Si Si4 0.928439 0.187510 0.284525
Si Si5 0.146637 0.812264 0.943062
Si Si6 0.500000 0.810100 0.841208
Si Si7 0.632872 0.309002 0.279721
Si Si8 0.500000 0.311994 0.538743
O O1 0.367459 0.500000 0.088831
O O2 0.348333 0.261823 0.186099
O O3 0.438312 0.255657 0.078799
O O4 0.326216 0.245459 0.019507
O O5 0.710854 0.500000 0.439004
O O6 0.782464 0.259377 0.442366
O O7 0.677549 0.257123 0.354363
O O8 0.925793 0.500000 0.101836
O O9 0.909086 0.249914 0.192997
O O10 0.000000 0.265353 0.089020
O O11 0.887834 0.248366 0.025846
O O12 0.888044 0.252683 0.360178
O O13 0.000000 0.234402 0.296781
O O14 0.925672 0.000000 0.284599
O O15 0.145542 0.000000 0.943248
O O16 0.563228 0.755941 0.799189
O O17 0.500000 0.000000 0.836194
O O18 0.500000 0.770169 0.939693
O O19 0.632229 0.500000 0.281419
O O20 0.500000 0.500000 0.545073
#
# Coordination Sequence:
#
# PCOD9359057 Si02
#       8
#     8   8   8   8   8   4   8   4
#     4  11  22  36  59  88 113 141 187 244 290 332
#     4  10  22  41  59  79 112 156 197 229 276 345
#     4  10  21  38  61  88 118 154 197 244 294 351
#     4  10  21  38  61  89 120 153 192 243 300 353
#     4  11  23  37  58  87 119 158 201 243 290 351
#     4   9  15  29  59  82  99 141 186 220 269 336
#     4   9  18  35  58  81 107 145 188 225 275 343
#     4  11  20  35  61  84 111 151 186 226 287 352
#
# _framework density 18.914393
#
# number of rings (size 3 to 8) (size 9 to 14) (size 15 to 20)
#    0.000    1.857    1.429    2.786    0.000    6.857 
#    0.000    2.857    0.000    0.000    0.000    0.000 
#    0.000    0.000    0.000    0.000    0.000    0.000 
#
# Total GULP energy -156424.724377 kJ/mol
# GULP energy per Si atom -5586.597299 kJ/mol
# Density = 1.887134 g / cm^3
# Si number density = 18.914393 Si / 1000 Ang^3
#
#
#
# Elastic Constant Matrix: (Units=GPa)
#
#
# Indices 1 2 3 4 5 6 
#
# 1 140.3473 29.2062 113.0166 0.0000 0.0000 0.0000
# 2 29.2062 25.5584 31.9677 0.0000 0.0000 0.0000
# 3 113.0166 31.9677 205.4483 0.0000 0.0000 0.0000
# 4 0.0000 0.0000 0.0000 33.5416 0.0000 0.0000
# 5 0.0000 0.0000 0.0000 0.0000 -14.9592 0.0000
# 6 0.0000 0.0000 0.0000 0.0000 0.0000 22.7557
#
#
#
# Elastic Compliance Matrix: (Units=1/GPa)
#
#
# Indices 1 2 3 4 5 6 
#
# 1 0.013963 -0.007883 -0.006455 0.000000 0.000000 0.000000
# 2 -0.007883 0.053031 -0.003915 0.000000 0.000000 0.000000
# 3 -0.006455 -0.003915 0.009027 0.000000 0.000000 0.000000
# 4 0.000000 0.000000 0.000000 0.029814 0.000000 0.000000
# 5 0.000000 0.000000 0.000000 0.000000 -0.066848 0.000000
# 6 0.000000 0.000000 0.000000 0.000000 0.000000 0.043945
#
#
# Mechanical properties :
#
#
# Convention : Reuss Voigt Hill
#
# Bulk Modulus (GPa) = 25.30606 79.97055 52.63831
# Shear Modulus (GPa) = 37.70460 21.41185 29.55823
#
# Velocity S-wave (km/s) = 4.46963 3.36823 3.95744
# Velocity P-wave (km/s) = 6.32812 7.58279 6.98369
#
# Compressibility (1/GPa) = 0.03951622
#
# Stress axis : x y z
#
# Youngs Moduli (GPa) = 71.61662 18.85678 110.77571
#
# Poissons Ratio (x) = 0.14865 0.71501
# Poissons Ratio (y) = 0.56455 0.43371
# Poissons Ratio (z) = 0.46225 0.07383
#
# Static dielectric constant tensor:
#      x y z
#    x 1.638780 0.000000 0.000000 
#    y 0.000000 1.645930 0.000000 
#    z 0.000000 0.000000 1.636060 
# 
# From -- ./inp_files/15571.got.cif
#   From: 2010.05.17/outbox.cif.g08.bks.cpg/sg38_8_cif.got.tgz:15571.got - 2010.06.03 18:07:57.
