data_PCOD9359551
_publ_section_title
;
Structure prediction by ZEFSAII (Michael W. Deem and Ramdas Pophale) SiO2 
 PCOD9359551
Probable space group: A M M 2
;
_chemical_formula_sum "Si O2"
_cell_formula_units_Z 24
_cell_length_a 9.000000
_cell_length_b 18.000000
_cell_length_c 15.000000
_cell_angle_alpha 90.000000
_cell_angle_beta 90.000000
_cell_angle_gamma 90.000000
_cell_volume 2430.000000
_symmetry_space_group_name_H-M "A M M 2"
_symmetry_group_IT_number 38
_symmetry_cell_setting 'orthorhombic'
loop_
_space_group_symop_operation_xyz
x,y,z
-x,-y,z
-x,y,z
x,-y,z
x,1/2+y,1/2+z
-x,1/2-y,1/2+z
-x,1/2+y,1/2+z
x,1/2-y,1/2+z
loop_
_atom_site_type_symbol
_atom_site_label
_atom_site_fract_x
_atom_site_fract_y
_atom_site_fract_z
Si Si1 0.181027 0.500000 0.944440
Si Si2 0.676748 0.763511 0.870794
Si Si3 0.172010 0.875605 0.106229
Si Si4 0.827530 0.082233 0.904124
Si Si5 0.822370 0.342364 0.019649
Si Si6 0.820431 0.500000 0.743994
Si Si7 0.673855 0.761795 0.668263
O O1 0.238001 0.500000 0.843272
O O2 0.000000 0.500000 0.941454
O O3 0.225390 0.575366 0.991959
O O4 0.500000 0.755889 0.882706
O O5 0.726340 0.849280 0.876498
O O6 0.717716 0.742073 0.769197
O O7 0.758715 0.714012 0.944817
O O8 0.218601 0.928982 0.185926
O O9 0.284917 0.808293 0.107437
O O10 0.000000 0.850295 0.120016
O O11 0.174129 0.916192 0.011868
O O12 0.000000 0.095228 0.877560
O O13 0.782572 0.000000 0.873304
O O14 0.764199 0.325647 0.118635
O O15 0.000000 0.335857 0.017670
O O16 0.000000 0.500000 0.747975
O O17 0.500000 0.778334 0.667486
#
# Coordination Sequence:
#
# PCOD9359551 Si02
#       7
#     4   8   8   8   8   4   8
#     4   9  20  36  57  88 119 150 192 246 300 350
#     4  11  24  41  61  87 122 161 202 246 298 363
#     4  10  18  32  58  88 116 149 188 236 295 353
#     4  10  20  36  59  90 122 153 195 245 297 352
#     4  11  22  40  65  90 119 154 200 252 302 355
#     4   9  16  30  55  88 121 146 180 236 300 358
#     4  11  24  40  58  85 119 159 202 243 294 356
#
# _framework density 9.8765429999999999
#
# number of rings (size 3 to 8) (size 9 to 14) (size 15 to 20)
#    0.000    1.667    2.500    2.500    0.000    4.333 
#    1.500    2.083    0.000    4.000    0.000    0.000 
#    0.000    0.000    0.000    0.000    0.000    0.000 
#
# Total GULP energy -133875.636221 kJ/mol
# GULP energy per Si atom -5578.151509 kJ/mol
# Density = 0.985406 g / cm^3
# Si number density = 9.876543 Si / 1000 Ang^3
#
#
#
# Elastic Constant Matrix: (Units=GPa)
#
#
# Indices 1 2 3 4 5 6 
#
# 1 39.4382 15.5656 27.1289 0.0000 0.0000 0.0000
# 2 15.5656 81.6964 13.3769 0.0000 0.0000 0.0000
# 3 27.1289 13.3769 56.4726 0.0000 0.0000 0.0000
# 4 0.0000 0.0000 0.0000 23.9680 0.0000 0.0000
# 5 0.0000 0.0000 0.0000 0.0000 26.8814 0.0000
# 6 0.0000 0.0000 0.0000 0.0000 0.0000 108.6564
#
#
#
# Elastic Compliance Matrix: (Units=1/GPa)
#
#
# Indices 1 2 3 4 5 6 
#
# 1 0.039460 -0.004593 -0.017868 0.000000 0.000000 0.000000
# 2 -0.004593 0.013269 -0.000937 0.000000 0.000000 0.000000
# 3 -0.017868 -0.000937 0.026513 0.000000 0.000000 0.000000
# 4 0.000000 0.000000 0.000000 0.041722 0.000000 0.000000
# 5 0.000000 0.000000 0.000000 0.000000 0.037200 0.000000
# 6 0.000000 0.000000 0.000000 0.000000 0.000000 0.009203
#
#
# Mechanical properties :
#
#
# Convention : Reuss Voigt Hill
#
# Bulk Modulus (GPa) = 30.81968 32.19445 31.50706
# Shear Modulus (GPa) = 22.22422 40.00356 31.11389
#
# Velocity S-wave (km/s) = 3.35789 4.50508 3.97311
# Velocity P-wave (km/s) = 5.53807 6.58748 6.08544
#
# Compressibility (1/GPa) = 0.03244680
#
# Stress axis : x y z
#
# Youngs Moduli (GPa) = 25.34200 75.36444 37.71674
#
# Poissons Ratio (x) = 0.34612 0.67394
# Poissons Ratio (y) = 0.11639 0.03533
# Poissons Ratio (z) = 0.45282 0.07060
#
# Static dielectric constant tensor:
#      x y z
#    x 1.666090 0.000000 0.000000 
#    y 0.000000 1.738400 0.000000 
#    z 0.000000 0.000000 1.696940 
# 
# From -- ./inp_files/12107.got.cif
#   From: 2010.05.17/outbox.ucp.g08.bks.cvg/sg38_7_cif.got.tgz:12107.got - 2010.06.11 10:39:43.
