data_PCOD9359554
_publ_section_title
;
Structure prediction by ZEFSAII (Michael W. Deem and Ramdas Pophale) SiO2 
 PCOD9359554
Probable space group: A M M 2
;
_chemical_formula_sum "Si O2"
_cell_formula_units_Z 32
_cell_length_a 9.000000
_cell_length_b 24.000000
_cell_length_c 15.000000
_cell_angle_alpha 90.000000
_cell_angle_beta 90.000000
_cell_angle_gamma 90.000000
_cell_volume 3240.000000
_symmetry_space_group_name_H-M "A M M 2"
_symmetry_group_IT_number 38
_symmetry_cell_setting 'orthorhombic'
loop_
_space_group_symop_operation_xyz
x,y,z
-x,-y,z
-x,y,z
x,-y,z
x,1/2+y,1/2+z
-x,1/2-y,1/2+z
-x,1/2+y,1/2+z
x,1/2-y,1/2+z
loop_
_atom_site_type_symbol
_atom_site_label
_atom_site_fract_x
_atom_site_fract_y
_atom_site_fract_z
Si Si1 0.821575 0.937164 0.197150
Si Si2 0.664867 0.566596 0.222284
Si Si3 0.823335 0.685112 0.624029
Si Si4 0.824856 0.064114 0.903085
Si Si5 0.322704 0.321253 0.444637
Si Si6 0.324931 0.732704 0.796868
Si Si7 0.827967 0.067475 0.548655
Si Si8 0.673951 0.608762 0.872603
O O1 0.786287 0.880896 0.141629
O O2 0.736306 0.926463 0.289366
O O3 0.000000 0.935842 0.211453
O O4 0.786953 0.000000 0.162201
O O5 0.500000 0.588429 0.246702
O O6 0.650337 0.500000 0.211932
O O7 0.786407 0.572572 0.299028
O O8 0.725946 0.588584 0.129493
O O9 0.744934 0.704526 0.534040
O O10 0.766567 0.721142 0.707417
O O11 0.000000 0.688730 0.615919
O O12 0.736204 0.115381 0.944133
O O13 0.000000 0.069125 0.921771
O O14 0.780421 0.000000 0.925907
O O15 0.500000 0.320767 0.448168
O O16 0.277528 0.284796 0.358182
O O17 0.500000 0.739610 0.775239
O O18 0.311274 0.674414 0.850778
O O19 0.768992 0.092658 0.457738
O O20 0.000000 0.080885 0.564757
O O21 0.816763 0.000000 0.543789
O O22 0.500000 0.596446 0.886354
#
# Coordination Sequence:
#
# PCOD9359554 Si02
#       8
#     8   8   8   8   8   8   8   8
#     4   9  18  33  53  79 114 153 188 227 286 353
#     4   9  17  31  51  75 106 145 188 233 282 339
#     4  10  21  38  62  90 120 155 196 247 298 352
#     4  10  21  38  60  87 120 153 187 235 295 355
#     4  11  23  41  65  90 118 157 201 245 295 356
#     4   9  21  42  62  82 113 155 197 245 299 349
#     4  10  19  30  46  72 109 151 193 239 293 349
#     4  10  19  32  51  76 107 145 193 244 292 344
#
# _framework density 9.8765429999999999
#
# number of rings (size 3 to 8) (size 9 to 14) (size 15 to 20)
#    0.000    2.250    0.000    2.625    0.000    7.250 
#    2.250    1.250    0.000    0.000    0.000    0.000 
#    0.000    0.000    0.000    0.000    0.000    0.000 
#
# Total GULP energy -178524.994663 kJ/mol
# GULP energy per Si atom -5578.906083 kJ/mol
# Density = 0.985406 g / cm^3
# Si number density = 9.876543 Si / 1000 Ang^3
#
#
#
# Elastic Constant Matrix: (Units=GPa)
#
#
# Indices 1 2 3 4 5 6 
#
# 1 50.5547 30.9040 37.7321 0.0000 0.0000 0.0000
# 2 30.9040 69.9308 34.4747 0.0000 0.0000 0.0000
# 3 37.7321 34.4747 93.9160 0.0000 0.0000 0.0000
# 4 0.0000 0.0000 0.0000 13.6555 0.0000 0.0000
# 5 0.0000 0.0000 0.0000 0.0000 36.6505 0.0000
# 6 0.0000 0.0000 0.0000 0.0000 0.0000 27.5819
#
#
#
# Elastic Compliance Matrix: (Units=1/GPa)
#
#
# Indices 1 2 3 4 5 6 
#
# 1 0.032984 -0.009821 -0.009647 0.000000 0.000000 0.000000
# 2 -0.009821 0.020383 -0.003537 0.000000 0.000000 0.000000
# 3 -0.009647 -0.003537 0.015822 0.000000 0.000000 0.000000
# 4 0.000000 0.000000 0.000000 0.073231 0.000000 0.000000
# 5 0.000000 0.000000 0.000000 0.000000 0.027285 0.000000
# 6 0.000000 0.000000 0.000000 0.000000 0.000000 0.036256
#
#
# Mechanical properties :
#
#
# Convention : Reuss Voigt Hill
#
# Bulk Modulus (GPa) = 43.13927 46.73591 44.93759
# Shear Modulus (GPa) = 19.25334 22.99697 21.12516
#
# Velocity S-wave (km/s) = 3.12541 3.41577 3.27381
# Velocity P-wave (km/s) = 5.90854 6.26642 6.09011
#
# Compressibility (1/GPa) = 0.02318073
#
# Stress axis : x y z
#
# Youngs Moduli (GPa) = 30.31792 49.05961 63.20388
#
# Poissons Ratio (x) = 0.48179 0.60971
# Poissons Ratio (y) = 0.29774 0.22354
# Poissons Ratio (z) = 0.29247 0.17351
#
# Static dielectric constant tensor:
#      x y z
#    x 1.615540 0.000000 0.000000 
#    y 0.000000 1.698260 0.000000 
#    z 0.000000 0.000000 1.716430 
# 
# From -- ./inp_files/12743.got.cif
#   From: 2010.05.17/outbox.ucp.g08.bks.cvg/sg38_7_cif.got.tgz:12743.got - 2010.06.11 10:39:43.
