data_PCOD9359234
_publ_section_title
;
Structure prediction by ZEFSAII (Michael W. Deem and Ramdas Pophale) SiO2 
 PCOD9359234
Probable space group: A M M 2
;
_chemical_formula_sum "Si O2"
_cell_formula_units_Z 64
_cell_length_a 17.123920
_cell_length_b 32.950060
_cell_length_c 5.148256
_cell_angle_alpha 90.000000
_cell_angle_beta 90.000000
_cell_angle_gamma 90.000000
_cell_volume 2904.822061
_symmetry_space_group_name_H-M "A M M 2"
_symmetry_group_IT_number 38
_symmetry_cell_setting 'orthorhombic'
loop_
_space_group_symop_operation_xyz
x,y,z
-x,-y,z
-x,y,z
x,-y,z
x,1/2+y,1/2+z
-x,1/2-y,1/2+z
-x,1/2+y,1/2+z
x,1/2-y,1/2+z
loop_
_atom_site_type_symbol
_atom_site_label
_atom_site_fract_x
_atom_site_fract_y
_atom_site_fract_z
Si Si1 0.713679 0.045945 0.770980
Si Si2 0.590578 0.723095 0.173557
Si Si3 0.177891 0.390470 0.065150
Si Si4 0.909359 0.861490 0.076836
Si Si5 0.836495 0.277774 0.711733
Si Si6 0.589395 0.611661 0.507312
Si Si7 0.420012 0.041740 0.388594
Si Si8 0.308555 0.168239 0.330857
O O1 0.793877 0.066922 0.685397
O O2 0.657227 0.081742 0.889439
O O3 0.662212 0.039453 0.518031
O O4 0.722409 0.000000 0.888317
O O5 0.500000 0.710926 0.153543
O O6 0.603133 0.758369 0.957064
O O7 0.644484 0.687332 0.070032
O O8 0.139504 0.367438 0.310867
O O9 0.121577 0.389681 0.813962
O O10 0.253746 0.367038 0.950516
O O11 0.894846 0.815439 0.174070
O O12 0.000000 0.868793 0.025667
O O13 0.845358 0.245663 0.481690
O O14 0.751346 0.298920 0.714283
O O15 0.500000 0.617814 0.395500
O O16 0.575292 0.584363 0.758188
O O17 0.631816 0.651534 0.615063
O O18 0.500000 0.039933 0.558877
O O19 0.424088 0.000000 0.221469
#
# Coordination Sequence:
#
# PCOD9359234 Si02
#       8
#     8   8   8   8   8   8   8   8
#     4  11  22  38  62  92 129 174 222 277 329 384
#     4  10  22  39  58  82 116 167 225 277 330 382
#     4  11  24  43  69 103 132 170 218 263 328 403
#     4  11  25  47  74 102 136 170 205 260 332 411
#     4  11  23  39  64  97 131 169 213 265 328 395
#     4  11  22  37  57  87 127 179 236 285 332 380
#     4   9  18  33  52  80 120 165 213 266 324 372
#     4  11  22  40  60  90 129 171 220 280 331 387
#
# _framework density 22.032332
#
# number of rings (size 3 to 8) (size 9 to 14) (size 15 to 20)
#    0.000    1.375    1.250    5.250    0.000    4.750 
#    0.000    1.250    0.000    2.250    0.000    0.000 
#    0.000    0.000    0.000    0.000    0.000    0.000 
#
# Total GULP energy -178314.671063 kJ/mol
# GULP energy per Si atom -5572.333471 kJ/mol
# Density = 2.198219 g / cm^3
# Si number density = 22.032332 Si / 1000 Ang^3
#
#
#
# Elastic Constant Matrix: (Units=GPa)
#
#
# Indices 1 2 3 4 5 6 
#
# 1 86.1167 24.1198 15.7894 0.0000 0.0000 0.0000
# 2 24.1198 60.5372 12.4538 0.0000 0.0000 0.0000
# 3 15.7894 12.4538 69.6031 0.0000 0.0000 0.0000
# 4 0.0000 0.0000 0.0000 54.2884 0.0000 0.0000
# 5 0.0000 0.0000 0.0000 0.0000 23.9853 0.0000
# 6 0.0000 0.0000 0.0000 0.0000 0.0000 20.5723
#
#
#
# Elastic Compliance Matrix: (Units=1/GPa)
#
#
# Indices 1 2 3 4 5 6 
#
# 1 0.013377 -0.004885 -0.002160 0.000000 0.000000 0.000000
# 2 -0.004885 0.018934 -0.002280 0.000000 0.000000 0.000000
# 3 -0.002160 -0.002280 0.015265 0.000000 0.000000 0.000000
# 4 0.000000 0.000000 0.000000 0.018420 0.000000 0.000000
# 5 0.000000 0.000000 0.000000 0.000000 0.041692 0.000000
# 6 0.000000 0.000000 0.000000 0.000000 0.000000 0.048609
#
#
# Mechanical properties :
#
#
# Convention : Reuss Voigt Hill
#
# Bulk Modulus (GPa) = 34.57158 35.66477 35.11818
# Shear Modulus (GPa) = 27.08718 30.69548 28.89133
#
# Velocity S-wave (km/s) = 3.51013 3.73661 3.62514
# Velocity P-wave (km/s) = 5.67039 5.90245 5.78759
#
# Compressibility (1/GPa) = 0.02892549
#
# Stress axis : x y z
#
# Youngs Moduli (GPa) = 74.75793 52.81474 65.50878
#
# Poissons Ratio (x) = 0.25801 0.14152
# Poissons Ratio (y) = 0.36520 0.14933
# Poissons Ratio (z) = 0.16151 0.12040
#
# Static dielectric constant tensor:
#      x y z
#    x 1.826560 0.000000 0.000000 
#    y 0.000000 1.841210 0.000000 
#    z 0.000000 0.000000 1.861040 
# 
# From -- ./inp_files/1752.got.cif
#   From: 2010.05.17/outbox.cif.g08.bks.cpg/sg38_1_cif.got.tgz:1752.got - 2010.06.03 18:07:57.
