data_PCOD9359252
_publ_section_title
;
Structure prediction by ZEFSAII (Michael W. Deem and Ramdas Pophale) SiO2 
 PCOD9359252
Probable space group: A M M 2
;
_chemical_formula_sum "Si O2"
_cell_formula_units_Z 40
_cell_length_a 8.179729
_cell_length_b 7.732085
_cell_length_c 31.205925
_cell_angle_alpha 90.000000
_cell_angle_beta 90.000000
_cell_angle_gamma 90.000000
_cell_volume 1973.661164
_symmetry_space_group_name_H-M "A M M 2"
_symmetry_group_IT_number 38
_symmetry_cell_setting 'orthorhombic'
loop_
_space_group_symop_operation_xyz
x,y,z
-x,-y,z
-x,y,z
x,-y,z
x,1/2+y,1/2+z
-x,1/2-y,1/2+z
-x,1/2+y,1/2+z
x,1/2-y,1/2+z
loop_
_atom_site_type_symbol
_atom_site_label
_atom_site_fract_x
_atom_site_fract_y
_atom_site_fract_z
Si Si1 0.313400 0.792565 0.452860
Si Si2 0.700325 0.300459 0.637651
Si Si3 0.806329 0.697093 0.860165
Si Si4 0.693905 0.500000 0.298629
Si Si5 0.313191 0.793033 0.044542
Si Si6 0.700155 0.000000 0.701398
O O1 0.500000 0.724899 0.452760
O O2 0.233046 0.738573 0.408336
O O3 0.234691 0.745902 0.498594
O O4 0.317553 0.000000 0.451837
O O5 0.500000 0.300029 0.635701
O O6 0.749958 0.500000 0.644820
O O7 0.757367 0.237995 0.590391
O O8 0.750442 0.169573 0.674719
O O9 0.740097 0.500000 0.855331
O O10 0.742879 0.830697 0.825289
O O11 0.000000 0.688343 0.856111
O O12 0.500000 0.500000 0.295297
O O13 0.760192 0.500000 0.250153
O O14 0.500000 0.722507 0.042089
O O15 0.323183 0.000000 0.047934
O O16 0.500000 0.000000 0.701856
#
# Coordination Sequence:
#
# PCOD9359252 Si02
#       6
#     8   8   8   4   8   4
#     4   9  17  28  46  75 105 136 175 219 267 314
#     4   8  14  25  40  62  98 138 171 206 253 315
#     4  10  22  40  58  77 107 147 188 229 278 337
#     4  11  23  37  57  85 111 141 185 239 290 331
#     4   8  14  23  38  65 100 137 172 206 253 311
#     4   9  18  29  45  71 101 137 175 213 272 327
#
# _framework density 20.266905000000001
#
# number of rings (size 3 to 8) (size 9 to 14) (size 15 to 20)
#    0.000    3.000    0.000    2.100    2.800    2.000 
#    0.000    2.000    0.000    0.000    0.000    2.800 
#    0.000    3.200    0.000    0.000    0.000    0.000 
#
# Total GULP energy -111455.557176 kJ/mol
# GULP energy per Si atom -5572.777859 kJ/mol
# Density = 2.022078 g / cm^3
# Si number density = 20.266905 Si / 1000 Ang^3
#
#
#
# Elastic Constant Matrix: (Units=GPa)
#
#
# Indices 1 2 3 4 5 6 
#
# 1 14.9401 10.6801 19.3082 0.0000 0.0000 0.0000
# 2 10.6801 96.7882 94.6719 0.0000 0.0000 0.0000
# 3 19.3082 94.6719 237.5337 0.0000 0.0000 0.0000
# 4 0.0000 0.0000 0.0000 25.8743 0.0000 0.0000
# 5 0.0000 0.0000 0.0000 0.0000 -22.7855 0.0000
# 6 0.0000 0.0000 0.0000 0.0000 0.0000 6.4512
#
#
#
# Elastic Compliance Matrix: (Units=1/GPa)
#
#
# Indices 1 2 3 4 5 6 
#
# 1 0.075644 -0.003823 -0.004625 0.000000 0.000000 0.000000
# 2 -0.003823 0.017126 -0.006515 0.000000 0.000000 0.000000
# 3 -0.004625 -0.006515 0.007183 0.000000 0.000000 0.000000
# 4 0.000000 0.000000 0.000000 0.038648 0.000000 0.000000
# 5 0.000000 0.000000 0.000000 0.000000 -0.043888 0.000000
# 6 0.000000 0.000000 0.000000 0.000000 0.000000 0.155009
#
#
# Mechanical properties :
#
#
# Convention : Reuss Voigt Hill
#
# Bulk Modulus (GPa) = 14.28028 66.50917 40.39473
# Shear Modulus (GPa) = 16.50210 16.88146 16.69178
#
# Velocity S-wave (km/s) = 2.85658 2.88923 2.87295
# Velocity P-wave (km/s) = 4.23574 6.63461 5.56595
#
# Compressibility (1/GPa) = 0.07002662
#
# Stress axis : x y z
#
# Youngs Moduli (GPa) = 13.21979 58.38938 139.22544
#
# Poissons Ratio (x) = 0.22322 0.64394
# Poissons Ratio (y) = 0.05054 0.90708
# Poissons Ratio (z) = 0.06114 0.38042
#
# Static dielectric constant tensor:
#      x y z
#    x 1.711840 0.000000 0.000000 
#    y 0.000000 1.726730 0.000000 
#    z 0.000000 0.000000 1.749170 
# 
# From -- ./inp_files/23250.got.cif
#   From: 2010.05.17/outbox.cif.g08.bks.cpg/sg38_12_cif.got.tgz:23250.got - 2010.06.03 18:07:57.
