data_PCOD9359989
_publ_section_title
;
Structure prediction by ZEFSAII (Michael W. Deem and Ramdas Pophale) SiO2 
 PCOD9359989
Probable space group: A B M 2
;
_chemical_formula_sum "Si O2"
_cell_formula_units_Z 48
_cell_length_a 11.442859
_cell_length_b 13.803934
_cell_length_c 16.992010
_cell_angle_alpha 90.000000
_cell_angle_beta 90.000000
_cell_angle_gamma 90.000000
_cell_volume 2683.997925
_symmetry_space_group_name_H-M "A B M 2"
_symmetry_group_IT_number 39
_symmetry_cell_setting 'orthorhombic'
loop_
_space_group_symop_operation_xyz
x,y,z
-x,-y,z
-x,1/2+y,z
x,1/2-y,z
x,1/2+y,1/2+z
-x,1/2-y,1/2+z
-x,y,1/2+z
x,-y,1/2+z
loop_
_atom_site_type_symbol
_atom_site_label
_atom_site_fract_x
_atom_site_fract_y
_atom_site_fract_z
Si Si1 0.944518 0.636248 0.033720
Si Si2 0.893127 0.943471 0.207157
Si Si3 0.279255 0.360191 0.326883
Si Si4 0.190344 0.453200 0.481545
Si Si5 0.321536 0.542015 0.135693
Si Si6 0.451656 0.137790 0.190726
O O1 0.922383 0.750000 0.024470
O O2 0.936859 0.606307 0.126262
O O3 0.851274 0.564416 0.992682
O O4 0.072022 0.607812 0.999615
O O5 0.825212 0.870530 0.263366
O O6 0.797404 0.023933 0.182894
O O7 0.000000 0.000000 0.246103
O O8 0.286412 0.250000 0.355671
O O9 0.245854 0.429786 0.397885
O O10 0.396754 0.382479 0.277060
O O11 0.283924 0.427580 0.549049
O O12 0.413342 0.611096 0.178937
O O13 0.382315 0.435904 0.134344
O O14 0.429169 0.250000 0.173768
#
# Coordination Sequence:
#
# PCOD9359989 Si02
#       6
#     8   8   8   8   8   8
#     4  10  19  34  55  86 120 153 192 229 279 349
#     4  10  18  35  56  83 116 151 190 232 281 342
#     4  10  21  35  55  81 113 153 192 236 295 348
#     4  10  20  35  54  87 118 151 187 236 292 343
#     4   9  18  36  56  80 112 145 189 239 281 331
#     4   9  19  36  59  82 106 148 199 238 281 341
#
# _framework density 17.883769999999998
#
# number of rings (size 3 to 8) (size 9 to 14) (size 15 to 20)
#    0.000    2.333    3.333    1.000    2.333    5.333 
#    0.000    6.667    0.000    9.000    0.000    0.000 
#    0.000    0.000    0.000    0.000    0.000    0.000 
#
# Total GULP energy -133713.313535 kJ/mol
# GULP energy per Si atom -5571.388064 kJ/mol
# Density = 1.784307 g / cm^3
# Si number density = 17.883770 Si / 1000 Ang^3
#
#
#
# Elastic Constant Matrix: (Units=GPa)
#
#
# Indices 1 2 3 4 5 6 
#
# 1 95.0695 22.8555 32.4757 0.0000 0.0000 0.0000
# 2 22.8555 87.2995 33.3051 0.0000 0.0000 0.0000
# 3 32.4757 33.3051 75.6867 0.0000 0.0000 0.0000
# 4 0.0000 0.0000 0.0000 18.2694 0.0000 0.0000
# 5 0.0000 0.0000 0.0000 0.0000 19.1539 0.0000
# 6 0.0000 0.0000 0.0000 0.0000 0.0000 9.4169
#
#
#
# Elastic Compliance Matrix: (Units=1/GPa)
#
#
# Indices 1 2 3 4 5 6 
#
# 1 0.012480 -0.001471 -0.004708 0.000000 0.000000 0.000000
# 2 -0.001471 0.013939 -0.005502 0.000000 0.000000 0.000000
# 3 -0.004708 -0.005502 0.017654 0.000000 0.000000 0.000000
# 4 0.000000 0.000000 0.000000 0.054736 0.000000 0.000000
# 5 0.000000 0.000000 0.000000 0.000000 0.052209 0.000000
# 6 0.000000 0.000000 0.000000 0.000000 0.000000 0.106192
#
#
# Mechanical properties :
#
#
# Convention : Reuss Voigt Hill
#
# Bulk Modulus (GPa) = 48.28522 48.36979 48.32751
# Shear Modulus (GPa) = 17.39271 20.66268 19.02769
#
# Velocity S-wave (km/s) = 3.12194 3.40279 3.26539
# Velocity P-wave (km/s) = 6.32878 6.52258 6.42641
#
# Compressibility (1/GPa) = 0.02071027
#
# Stress axis : x y z
#
# Youngs Moduli (GPa) = 80.12503 71.73980 56.64573
#
# Poissons Ratio (x) = 0.10556 0.26667
# Poissons Ratio (y) = 0.11790 0.31169
# Poissons Ratio (z) = 0.37720 0.39474
#
# Static dielectric constant tensor:
#      x y z
#    x 1.646770 0.000000 0.000000 
#    y 0.000000 1.611070 0.000000 
#    z 0.000000 0.000000 1.616580 
# 
# From -- ./inp_files/9195.got.cif
#   From: 2010.05.17/outbox.cif.g08.bks.cpg/sg39_5_cif.got.tgz:9195.got - 2010.06.03 18:22:40.
