data_PCOD9359353
_publ_section_title
;
Structure prediction by ZEFSAII (Michael W. Deem and Ramdas Pophale) SiO2 
 PCOD9359353
Probable space group: A M M 2
;
_chemical_formula_sum "Si O2"
_cell_formula_units_Z 40
_cell_length_a 12.027454
_cell_length_b 8.353421
_cell_length_c 20.839580
_cell_angle_alpha 90.000000
_cell_angle_beta 90.000000
_cell_angle_gamma 90.000000
_cell_volume 2093.760664
_symmetry_space_group_name_H-M "A M M 2"
_symmetry_group_IT_number 38
_symmetry_cell_setting 'orthorhombic'
loop_
_space_group_symop_operation_xyz
x,y,z
-x,-y,z
-x,y,z
x,-y,z
x,1/2+y,1/2+z
-x,1/2-y,1/2+z
-x,1/2+y,1/2+z
x,1/2-y,1/2+z
loop_
_atom_site_type_symbol
_atom_site_label
_atom_site_fract_x
_atom_site_fract_y
_atom_site_fract_z
Si Si1 0.000000 0.819737 0.574520
Si Si2 0.372608 0.192845 0.646764
Si Si3 0.791503 0.810065 0.762824
Si Si4 0.000000 0.675276 0.698889
Si Si5 0.865704 0.309937 0.895469
Si Si6 0.227315 0.313633 0.527070
O O1 0.000000 0.822621 0.650554
O O2 0.107766 0.720655 0.557829
O O3 0.000000 0.000000 0.546853
O O4 0.500000 0.248362 0.649180
O O5 0.308433 0.232231 0.713482
O O6 0.312640 0.254575 0.581939
O O7 0.371334 0.000000 0.642491
O O8 0.797200 0.776905 0.838726
O O9 0.891841 0.698582 0.740364
O O10 0.812009 0.000000 0.753739
O O11 0.000000 0.500000 0.668300
O O12 0.868437 0.500000 0.884495
O O13 0.793675 0.275489 0.959606
O O14 0.000000 0.259795 0.900535
O O15 0.246798 0.500000 0.514906
#
# Coordination Sequence:
#
# PCOD9359353 Si02
#       6
#     4   8   8   4   8   8
#     4  12  22  35  56  87 124 161 199 247 309 373
#     4  10  23  44  67  89 119 163 211 257 307 363
#     4  11  22  37  61  90 124 162 203 252 305 364
#     4  12  22  33  54  89 126 159 197 247 305 369
#     4  11  23  38  59  89 129 168 203 245 303 374
#     4  12  24  38  61  92 125 160 203 255 309 368
#
# _framework density 19.104379000000002
#
# number of rings (size 3 to 8) (size 9 to 14) (size 15 to 20)
#    0.000    0.800    4.000    4.800    0.000    2.000 
#    0.000    1.000    0.000    3.600    0.000    0.000 
#    0.000    0.000    0.000    0.000    0.000    0.000 
#
# Total GULP energy -111403.377337 kJ/mol
# GULP energy per Si atom -5570.168867 kJ/mol
# Density = 1.906090 g / cm^3
# Si number density = 19.104379 Si / 1000 Ang^3
#
#
#
# Elastic Constant Matrix: (Units=GPa)
#
#
# Indices 1 2 3 4 5 6 
#
# 1 133.3449 29.3149 64.8371 0.0000 0.0000 0.0000
# 2 29.3149 69.1374 23.9532 0.0000 0.0000 0.0000
# 3 64.8371 23.9532 137.2585 0.0000 0.0000 0.0000
# 4 0.0000 0.0000 0.0000 36.5337 0.0000 0.0000
# 5 0.0000 0.0000 0.0000 0.0000 -4.2337 0.0000
# 6 0.0000 0.0000 0.0000 0.0000 0.0000 20.4579
#
#
#
# Elastic Compliance Matrix: (Units=1/GPa)
#
#
# Indices 1 2 3 4 5 6 
#
# 1 0.010232 -0.002835 -0.004339 0.000000 0.000000 0.000000
# 2 -0.002835 0.016180 -0.001484 0.000000 0.000000 0.000000
# 3 -0.004339 -0.001484 0.009594 0.000000 0.000000 0.000000
# 4 0.000000 0.000000 0.000000 0.027372 0.000000 0.000000
# 5 0.000000 0.000000 0.000000 0.000000 -0.236197 0.000000
# 6 0.000000 0.000000 0.000000 0.000000 0.000000 0.048881
#
#
# Mechanical properties :
#
#
# Convention : Reuss Voigt Hill
#
# Bulk Modulus (GPa) = 53.50454 63.99460 58.74957
# Shear Modulus (GPa) = -49.80521 25.32728 -12.23896
#
# Velocity S-wave (km/s) = -5.11142 3.64501 -2.53383
# Velocity P-wave (km/s) = 2.60160 7.16134 4.71787
#
# Compressibility (1/GPa) = 0.01869000
#
# Stress axis : x y z
#
# Youngs Moduli (GPa) = 97.72975 61.80302 104.23186
#
# Poissons Ratio (x) = 0.17524 0.45222
# Poissons Ratio (y) = 0.27711 0.15471
# Poissons Ratio (z) = 0.42401 0.09173
#
# Static dielectric constant tensor:
#      x y z
#    x 1.666950 0.000000 0.000000 
#    y 0.000000 1.632250 0.000000 
#    z 0.000000 0.000000 1.796870 
# 
# From -- ./inp_files/20467.got.cif
#   From: 2010.05.17/outbox.cif.g08.bks.cpg/sg38_11_cif.got.tgz:20467.got - 2010.06.03 18:07:57.
