data_PCOD9359695
_publ_section_title
;
Structure prediction by ZEFSAII (Michael W. Deem and Ramdas Pophale) SiO2 
 PCOD9359695
Probable space group: A B M 2
;
_chemical_formula_sum "Si O2"
_cell_formula_units_Z 64
_cell_length_a 21.412853
_cell_length_b 25.621533
_cell_length_c 5.442069
_cell_angle_alpha 90.000000
_cell_angle_beta 90.000000
_cell_angle_gamma 90.000000
_cell_volume 2985.682967
_symmetry_space_group_name_H-M "A B M 2"
_symmetry_group_IT_number 39
_symmetry_cell_setting 'orthorhombic'
loop_
_space_group_symop_operation_xyz
x,y,z
-x,-y,z
-x,1/2+y,z
x,1/2-y,z
x,1/2+y,1/2+z
-x,1/2-y,1/2+z
-x,y,1/2+z
x,-y,1/2+z
loop_
_atom_site_type_symbol
_atom_site_label
_atom_site_fract_x
_atom_site_fract_y
_atom_site_fract_z
Si Si1 0.477111 0.412360 0.644340
Si Si2 0.155748 0.354126 0.136224
Si Si3 0.373930 0.336286 0.644479
Si Si4 0.439122 0.193268 0.144439
Si Si5 0.025836 0.689544 0.696811
Si Si6 0.866904 0.972913 0.139675
Si Si7 0.766910 0.363381 0.136983
Si Si8 0.727034 0.984448 0.641499
O O1 0.499994 0.438132 0.394334
O O2 0.404926 0.394765 0.644379
O O3 0.514302 0.355928 0.644343
O O4 0.099375 0.313796 0.151984
O O5 0.123760 0.411404 0.136527
O O6 0.197509 0.351458 0.382607
O O7 0.194020 0.350158 0.882113
O O8 0.398632 0.311567 0.391606
O O9 0.299912 0.336032 0.643271
O O10 0.398438 0.311638 0.897738
O O11 0.470538 0.250000 0.144022
O O12 0.005197 0.750000 0.713814
O O13 0.991817 0.665387 0.459819
O O14 0.889820 0.999561 0.390704
O O15 0.791125 0.981104 0.140453
O O16 0.750481 0.425154 0.142072
O O17 0.692849 0.999824 0.391228
#
# Coordination Sequence:
#
# PCOD9359695 Si02
#       8
#     8   8   8   8   8   8   8   8
#     4   8  16  29  47  66  91 127 180 227 260 310
#     4  12  21  35  63  86 110 148 180 218 275 330
#     4  10  21  32  45  75 108 134 174 221 267 315
#     4  10  19  34  52  67  92 139 191 231 269 317
#     4  10  23  45  67  84 104 139 197 247 261 292
#     4  10  16  30  51  85 111 142 173 209 253 323
#     4  12  21  33  52  84 117 144 170 212 272 340
#     4  10  16  30  49  76 106 145 176 205 240 313
#
# _framework density 21.43563
#
# number of rings (size 3 to 8) (size 9 to 14) (size 15 to 20)
#    0.000    1.750    5.000    1.875    0.000    4.500 
#    0.000    3.750    0.000    2.250    0.000    0.000 
#    0.000   27.000    0.000    0.000    0.000    0.000 
#
# Total GULP energy -178613.100557 kJ/mol
# GULP energy per Si atom -5581.659392 kJ/mol
# Density = 2.138684 g / cm^3
# Si number density = 21.435630 Si / 1000 Ang^3
#
#
#
# Elastic Constant Matrix: (Units=GPa)
#
#
# Indices 1 2 3 4 5 6 
#
# 1 39.4177 -4.1230 10.5205 0.0000 0.0000 0.0000
# 2 -4.1230 29.8398 3.9821 0.0000 0.0000 0.0000
# 3 10.5205 3.9821 194.1394 0.0000 0.0000 0.0000
# 4 0.0000 0.0000 0.0000 5.2908 0.0000 0.0000
# 5 0.0000 0.0000 0.0000 0.0000 23.2521 0.0000
# 6 0.0000 0.0000 0.0000 0.0000 0.0000 70.0008
#
#
#
# Elastic Compliance Matrix: (Units=1/GPa)
#
#
# Indices 1 2 3 4 5 6 
#
# 1 0.026168 0.003815 -0.001496 0.000000 0.000000 0.000000
# 2 0.003815 0.034161 -0.000907 0.000000 0.000000 0.000000
# 3 -0.001496 -0.000907 0.005251 0.000000 0.000000 0.000000
# 4 0.000000 0.000000 0.000000 0.189007 0.000000 0.000000
# 5 0.000000 0.000000 0.000000 0.000000 0.043007 0.000000
# 6 0.000000 0.000000 0.000000 0.000000 0.000000 0.014286
#
#
# Mechanical properties :
#
#
# Convention : Reuss Voigt Hill
#
# Bulk Modulus (GPa) = 14.61944 31.57290 23.09617
# Shear Modulus (GPa) = 15.06677 36.57655 25.82166
#
# Velocity S-wave (km/s) = 2.65407 4.13527 3.47452
# Velocity P-wave (km/s) = 4.02829 6.12877 5.18599
#
# Compressibility (1/GPa) = 0.06840208
#
# Stress axis : x y z
#
# Youngs Moduli (GPa) = 38.21496 29.27353 190.45304
#
# Poissons Ratio (x) = -0.11169 0.28498
# Poissons Ratio (y) = -0.14580 0.17283
# Poissons Ratio (z) = 0.05718 0.02656
#
# Static dielectric constant tensor:
#      x y z
#    x 1.750360 0.000000 0.000000 
#    y 0.000000 1.792970 0.000000 
#    z 0.000000 0.000000 1.869290 
# 
# From -- ./inp_files/912.got.cif
#   From: 2010.05.17/outbox.cif.g08.bks.cpg/sg39_1_cif.got.tgz:912.got - 2010.06.03 18:22:40.
