data_PCOD9359986
_publ_section_title
;
Structure prediction by ZEFSAII (Michael W. Deem and Ramdas Pophale) SiO2 
 PCOD9359986
Probable space group: A B M 2
;
_chemical_formula_sum "Si O2"
_cell_formula_units_Z 40
_cell_length_a 7.140025
_cell_length_b 10.440563
_cell_length_c 22.869911
_cell_angle_alpha 90.000000
_cell_angle_beta 90.000000
_cell_angle_gamma 90.000000
_cell_volume 1704.857660
_symmetry_space_group_name_H-M "A B M 2"
_symmetry_group_IT_number 39
_symmetry_cell_setting 'orthorhombic'
loop_
_space_group_symop_operation_xyz
x,y,z
-x,-y,z
-x,1/2+y,z
x,1/2-y,z
x,1/2+y,1/2+z
-x,1/2-y,1/2+z
-x,y,1/2+z
x,-y,1/2+z
loop_
_atom_site_type_symbol
_atom_site_label
_atom_site_fract_x
_atom_site_fract_y
_atom_site_fract_z
Si Si1 0.227063 0.519882 0.794240
Si Si2 0.833296 0.250000 0.714664
Si Si3 0.837602 0.104765 0.916808
Si Si4 0.718392 0.977425 0.541671
Si Si5 0.274118 0.250000 0.747699
Si Si6 0.237940 0.750000 0.578177
Si Si7 0.330768 0.750000 0.114406
O O1 0.257905 0.623559 0.743276
O O2 0.277420 0.574953 0.857873
O O3 0.314491 0.381810 0.781159
O O4 0.000000 0.500000 0.795572
O O5 0.828551 0.250000 0.645072
O O6 0.049724 0.250000 0.735213
O O7 0.909253 0.250000 0.911700
O O8 0.735434 0.086292 0.978294
O O9 0.000000 0.000000 0.918601
O O10 0.775375 0.876338 0.591592
O O11 0.500000 0.000000 0.552416
O O12 0.814062 0.117033 0.546173
O O13 0.360092 0.250000 0.683229
O O14 0.464811 0.750000 0.584457
#
# Coordination Sequence:
#
# PCOD9359986 Si02
#       7
#     8   4   8   8   4   4   4
#     4   9  19  34  56  82 113 146 185 231 292 341
#     4  10  18  35  54  82 110 147 187 232 281 350
#     4  11  23  39  62  88 118 152 195 246 292 347
#     4  10  22  40  60  82 117 159 194 237 295 348
#     4  10  20  33  58  82 112 149 187 232 287 344
#     4  10  22  35  58  84 114 151 197 236 289 346
#     4  10  20  39  56  82 116 155 189 238 291 342
#
# _framework density 23.462368000000001
#
# number of rings (size 3 to 8) (size 9 to 14) (size 15 to 20)
#    0.000    2.000    2.000    1.200    5.600    1.600 
#    0.000    2.000    0.000    0.000    0.000    0.000 
#    0.000    0.000    0.000    0.000    0.000    0.000 
#
# Total GULP energy -111821.797866 kJ/mol
# GULP energy per Si atom -5591.089893 kJ/mol
# Density = 2.340897 g / cm^3
# Si number density = 23.462368 Si / 1000 Ang^3
#
#
#
# Elastic Constant Matrix: (Units=GPa)
#
#
# Indices 1 2 3 4 5 6 
#
# 1 46.2576 7.3478 -19.6475 0.0000 0.0000 0.0000
# 2 7.3478 210.5069 75.8725 0.0000 0.0000 0.0000
# 3 -19.6475 75.8725 130.4204 0.0000 0.0000 0.0000
# 4 0.0000 0.0000 0.0000 44.8489 0.0000 0.0000
# 5 0.0000 0.0000 0.0000 0.0000 22.1981 0.0000
# 6 0.0000 0.0000 0.0000 0.0000 0.0000 -0.8004
#
#
#
# Elastic Compliance Matrix: (Units=1/GPa)
#
#
# Indices 1 2 3 4 5 6 
#
# 1 0.024285 -0.002741 0.005253 0.000000 0.000000 0.000000
# 2 -0.002741 0.006320 -0.004090 0.000000 0.000000 0.000000
# 3 0.005253 -0.004090 0.010838 0.000000 0.000000 0.000000
# 4 0.000000 0.000000 0.000000 0.022297 0.000000 0.000000
# 5 0.000000 0.000000 0.000000 0.000000 0.045049 0.000000
# 6 0.000000 0.000000 0.000000 0.000000 0.000000 -1.249386
#
#
# Mechanical properties :
#
#
# Convention : Reuss Voigt Hill
#
# Bulk Modulus (GPa) = 26.11818 57.14783 41.63301
# Shear Modulus (GPa) = -4.44571 34.82346 15.18887
#
# Velocity S-wave (km/s) = -1.37802 3.85675 2.54711
# Velocity P-wave (km/s) = 2.93670 6.65152 5.14135
#
# Compressibility (1/GPa) = 0.03828751
#
# Stress axis : x y z
#
# Youngs Moduli (GPa) = 41.17827 158.22403 92.26741
#
# Poissons Ratio (x) = 0.43369 -0.48468
# Poissons Ratio (y) = 0.11287 0.37735
# Poissons Ratio (z) = -0.21631 0.64709
#
# Static dielectric constant tensor:
#      x y z
#    x 1.930420 0.000000 0.000000 
#    y 0.000000 1.915140 0.000000 
#    z 0.000000 0.000000 1.833610 
# 
# From -- ./inp_files/11392.got.cif
#   From: 2010.05.17/outbox.cif.g08.bks.cpg/sg39_6_cif.got.tgz:11392.got - 2010.06.03 18:22:40.
