data_PCOD9359184
_publ_section_title
;
Structure prediction by ZEFSAII (Michael W. Deem and Ramdas Pophale) SiO2 
 PCOD9359184
Probable space group: A M M 2
;
_chemical_formula_sum "Si O2"
_cell_formula_units_Z 34
_cell_length_a 8.235102
_cell_length_b 7.339949
_cell_length_c 27.674402
_cell_angle_alpha 90.000000
_cell_angle_beta 90.000000
_cell_angle_gamma 90.000000
_cell_volume 1672.785558
_symmetry_space_group_name_H-M "A M M 2"
_symmetry_group_IT_number 38
_symmetry_cell_setting 'orthorhombic'
loop_
_space_group_symop_operation_xyz
x,y,z
-x,-y,z
-x,y,z
x,-y,z
x,1/2+y,1/2+z
-x,1/2-y,1/2+z
-x,1/2+y,1/2+z
x,1/2-y,1/2+z
loop_
_atom_site_type_symbol
_atom_site_label
_atom_site_fract_x
_atom_site_fract_y
_atom_site_fract_z
Si Si1 0.000000 0.208522 0.136840
Si Si2 0.815684 0.279040 0.486914
Si Si3 0.000000 0.000000 0.230773
Si Si4 0.693661 0.791753 0.883812
Si Si5 0.676397 0.277320 0.587272
Si Si6 0.693851 0.000000 0.301485
O O1 0.831833 0.287315 0.117537
O O2 0.000000 0.000000 0.115996
O O3 0.000000 0.172469 0.194020
O O4 0.806646 0.500000 0.484977
O O5 0.770208 0.217472 0.433279
O O6 0.703585 0.223767 0.531428
O O7 0.000000 0.228344 0.498704
O O8 0.167188 0.000000 0.260883
O O9 0.500000 0.792853 0.891879
O O10 0.722864 0.671919 0.836740
O O11 0.748742 0.000000 0.876564
O O12 0.500000 0.216601 0.604651
O O13 0.674680 0.500000 0.589145
O O14 0.500000 0.000000 0.286896
#
# Coordination Sequence:
#
# PCOD9359184 Si02
#       6
#     4   8   2   8   8   4
#     4   8  16  28  39  61  94 125 165 218 261 308
#     4   9  15  23  40  69 105 134 169 208 247 311
#     4  10  22  34  50  68 106 138 184 238 276 316
#     4   9  18  33  52  76 108 144 180 218 264 321
#     4   9  14  22  39  63  95 131 164 203 257 311
#     4  10  22  38  54  76 110 144 184 230 269 316
#
# _framework density 20.325379000000002
#
# number of rings (size 3 to 8) (size 9 to 14) (size 15 to 20)
#    0.353    2.588    1.176    0.706    1.647    3.765 
#    0.000    0.000    0.000    0.000    0.000    0.000 
#    7.059    0.000    4.235    0.235    0.000    0.000 
#
# Total GULP energy -94760.815055 kJ/mol
# GULP energy per Si atom -5574.165591 kJ/mol
# Density = 2.027912 g / cm^3
# Si number density = 20.325379 Si / 1000 Ang^3
#
#
#
# Elastic Constant Matrix: (Units=GPa)
#
#
# Indices 1 2 3 4 5 6 
#
# 1 164.9978 17.9007 89.7282 0.0000 0.0000 0.0000
# 2 17.9007 77.0168 17.1269 0.0000 0.0000 0.0000
# 3 89.7282 17.1269 117.0173 0.0000 0.0000 0.0000
# 4 0.0000 0.0000 0.0000 37.0831 0.0000 0.0000
# 5 0.0000 0.0000 0.0000 0.0000 19.9306 0.0000
# 6 0.0000 0.0000 0.0000 0.0000 0.0000 -7.6769
#
#
#
# Elastic Compliance Matrix: (Units=1/GPa)
#
#
# Indices 1 2 3 4 5 6 
#
# 1 0.010429 -0.000667 -0.007899 0.000000 0.000000 0.000000
# 2 -0.000667 0.013464 -0.001459 0.000000 0.000000 0.000000
# 3 -0.007899 -0.001459 0.014816 0.000000 0.000000 0.000000
# 4 0.000000 0.000000 0.000000 0.026966 0.000000 0.000000
# 5 0.000000 0.000000 0.000000 0.000000 0.050174 0.000000
# 6 0.000000 0.000000 0.000000 0.000000 0.000000 -0.130261
#
#
# Mechanical properties :
#
#
# Convention : Reuss Voigt Hill
#
# Bulk Modulus (GPa) = 53.59579 67.61594 60.60586
# Shear Modulus (GPa) = 421.65539 25.48577 223.57058
#
# Velocity S-wave (km/s) = 14.41884 3.54487 10.49926
# Velocity P-wave (km/s) = 17.42499 7.07770 13.29895
#
# Compressibility (1/GPa) = 0.01865818
#
# Stress axis : x y z
#
# Youngs Moduli (GPa) = 95.88969 74.27379 67.49399
#
# Poissons Ratio (x) = 0.04957 0.53313
# Poissons Ratio (y) = 0.06399 0.09846
# Poissons Ratio (z) = 0.75743 0.10836
#
# Static dielectric constant tensor:
#      x y z
#    x 1.728040 0.000000 0.000000 
#    y 0.000000 1.773440 0.000000 
#    z 0.000000 0.000000 1.681500 
# 
# From -- ./inp_files/23166.got.cif
#   From: 2010.05.17/outbox.cif.g08.bks.cpg/sg38_12_cif.got.tgz:23166.got - 2010.06.03 18:07:57.
