data_PCOD9359896
_publ_section_title
;
Structure prediction by ZEFSAII (Michael W. Deem and Ramdas Pophale) SiO2 
 PCOD9359896
Probable space group: A B M 2
;
_chemical_formula_sum "Si O2"
_cell_formula_units_Z 60
_cell_length_a 25.681796
_cell_length_b 9.634601
_cell_length_c 14.086145
_cell_angle_alpha 90.000000
_cell_angle_beta 90.000000
_cell_angle_gamma 90.000000
_cell_volume 3485.389194
_symmetry_space_group_name_H-M "A B M 2"
_symmetry_group_IT_number 39
_symmetry_cell_setting 'orthorhombic'
loop_
_space_group_symop_operation_xyz
x,y,z
-x,-y,z
-x,1/2+y,z
x,1/2-y,z
x,1/2+y,1/2+z
-x,1/2-y,1/2+z
-x,y,1/2+z
x,-y,1/2+z
loop_
_atom_site_type_symbol
_atom_site_label
_atom_site_fract_x
_atom_site_fract_y
_atom_site_fract_z
Si Si1 0.853793 0.912362 0.271400
Si Si2 0.586537 0.411180 0.260027
Si Si3 0.665160 0.918391 0.604854
Si Si4 0.122824 0.914120 0.988181
Si Si5 0.948026 0.085512 0.624066
Si Si6 0.500000 0.000000 0.614219
Si Si7 0.410584 0.911596 0.474510
Si Si8 0.215519 0.586760 0.136776
O O1 0.839474 0.750000 0.268298
O O2 0.865839 0.949326 0.379524
O O3 0.905854 0.929577 0.208404
O O4 0.808479 0.001441 0.223588
O O5 0.597212 0.250000 0.273418
O O6 0.636002 0.467311 0.201538
O O7 0.538317 0.422490 0.187452
O O8 0.577571 0.463640 0.367023
O O9 0.659948 0.750000 0.596520
O O10 0.725929 0.953231 0.609364
O O11 0.634025 0.993219 0.520672
O O12 0.108086 0.750000 0.994440
O O13 0.175317 0.932154 0.049875
O O14 0.079195 0.012150 0.033846
O O15 0.957685 0.250000 0.609774
O O16 0.000000 0.000000 0.646028
O O17 0.461009 0.921148 0.542982
O O18 0.394529 0.750000 0.473503
O O19 0.216136 0.750000 0.160666
#
# Coordination Sequence:
#
# PCOD9359896 Si02
#       8
#     8   8   8   8   8   4   8   8
#     4   9  19  34  52  75 102 131 165 207 252 293
#     4   9  18  32  48  68  97 128 158 198 246 294
#     4   9  19  35  51  71 102 135 163 199 249 297
#     4   9  18  34  53  74 101 132 168 209 250 295
#     4  10  20  34  51  73 101 132 166 204 248 296
#     4  10  18  32  50  70  96 126 160 202 246 296
#     4  10  20  33  51  74  96 125 165 203 243 293
#     4   9  18  33  53  74  99 133 169 203 245 297
#
# _framework density 17.21472
#
# number of rings (size 3 to 8) (size 9 to 14) (size 15 to 20)
#    0.000    2.667    0.000    1.200    0.000    3.733 
#    0.000    4.667    0.000    0.000    0.000    0.000 
#    0.000    0.000    0.000    0.000    0.000    0.000 
#
# Total GULP energy -167060.738347 kJ/mol
# GULP energy per Si atom -5568.691278 kJ/mol
# Density = 1.717554 g / cm^3
# Si number density = 17.214720 Si / 1000 Ang^3
#
#
#
# Elastic Constant Matrix: (Units=GPa)
#
#
# Indices 1 2 3 4 5 6 
#
# 1 71.2642 31.4877 11.6436 0.0000 0.0000 0.0000
# 2 31.4877 47.7672 31.4260 0.0000 0.0000 0.0000
# 3 11.6436 31.4260 112.9892 0.0000 0.0000 0.0000
# 4 0.0000 0.0000 0.0000 24.1722 0.0000 0.0000
# 5 0.0000 0.0000 0.0000 0.0000 6.7246 0.0000
# 6 0.0000 0.0000 0.0000 0.0000 0.0000 32.1681
#
#
#
# Elastic Compliance Matrix: (Units=1/GPa)
#
#
# Indices 1 2 3 4 5 6 
#
# 1 0.020155 -0.014589 0.001981 0.000000 0.000000 0.000000
# 2 -0.014589 0.036184 -0.008560 0.000000 0.000000 0.000000
# 3 0.001981 -0.008560 0.011027 0.000000 0.000000 0.000000
# 4 0.000000 0.000000 0.000000 0.041370 0.000000 0.000000
# 5 0.000000 0.000000 0.000000 0.000000 0.148708 0.000000
# 6 0.000000 0.000000 0.000000 0.000000 0.000000 0.031087
#
#
# Mechanical properties :
#
#
# Convention : Reuss Voigt Hill
#
# Bulk Modulus (GPa) = 39.95481 42.34833 41.15157
# Shear Modulus (GPa) = 14.74013 23.11052 18.92533
#
# Velocity S-wave (km/s) = 2.92935 3.66797 3.31927
# Velocity P-wave (km/s) = 5.89080 6.52627 6.21666
#
# Compressibility (1/GPa) = 0.02502828
#
# Stress axis : x y z
#
# Youngs Moduli (GPa) = 49.61614 27.63674 90.68453
#
# Poissons Ratio (x) = 0.40319 -0.17962
# Poissons Ratio (y) = 0.72385 0.77630
# Poissons Ratio (z) = -0.09828 0.23658
#
# Static dielectric constant tensor:
#      x y z
#    x 1.575630 0.000000 0.000000 
#    y 0.000000 1.582490 0.000000 
#    z 0.000000 0.000000 1.592600 
# 
# From -- ./inp_files/10531.got.cif
#   From: 2010.05.17/outbox.cif.g08.bks.cpg/sg39_6_cif.got.tgz:10531.got - 2010.06.03 18:22:40.
