data_PCOD9359481
_publ_section_title
;
Structure prediction by ZEFSAII (Michael W. Deem and Ramdas Pophale) SiO2 
 PCOD9359481
Probable space group: A M M 2
;
_chemical_formula_sum "Si O2"
_cell_formula_units_Z 64
_cell_length_a 14.778308
_cell_length_b 16.110683
_cell_length_c 13.022965
_cell_angle_alpha 90.000000
_cell_angle_beta 90.000000
_cell_angle_gamma 90.000000
_cell_volume 3100.619967
_symmetry_space_group_name_H-M "A M M 2"
_symmetry_group_IT_number 38
_symmetry_cell_setting 'orthorhombic'
loop_
_space_group_symop_operation_xyz
x,y,z
-x,-y,z
-x,y,z
x,-y,z
x,1/2+y,1/2+z
-x,1/2-y,1/2+z
-x,1/2+y,1/2+z
x,1/2-y,1/2+z
loop_
_atom_site_type_symbol
_atom_site_label
_atom_site_fract_x
_atom_site_fract_y
_atom_site_fract_z
Si Si1 0.391038 0.898737 0.765020
Si Si2 0.398721 0.098281 0.374296
Si Si3 0.109523 0.594395 0.765024
Si Si4 0.898847 0.152454 0.491984
Si Si5 0.713364 0.343357 0.468044
Si Si6 0.601279 0.901719 0.155755
Si Si7 0.898847 0.347552 0.538062
Si Si8 0.713364 0.343352 0.062002
O O1 0.500000 0.883531 0.765021
O O2 0.341849 0.858565 0.864149
O O3 0.341848 0.858554 0.665899
O O4 0.379236 0.000000 0.765012
O O5 0.500000 0.133725 0.387847
O O6 0.361398 0.130461 0.265026
O O7 0.339159 0.111115 0.472152
O O8 0.407596 0.000000 0.365112
O O9 0.145463 0.500000 0.765026
O O10 0.131512 0.637653 0.873411
O O11 0.131511 0.637651 0.656636
O O12 0.000000 0.590866 0.765025
O O13 0.907754 0.250003 0.515022
O O14 0.816776 0.123960 0.564351
O O15 0.000000 0.115470 0.505226
O O16 0.660842 0.388883 0.557900
O O17 0.816776 0.376046 0.465697
O O18 0.716152 0.250001 0.515018
O O19 0.500000 0.866274 0.142205
O O20 0.592403 0.000000 0.164935
O O21 0.000000 0.384535 0.524822
#
# Coordination Sequence:
#
# PCOD9359481 Si02
#       8
#     8   8   8   8   8   8   8   8
#     4  11  26  47  65  85 124 173 207 243 313 394
#     4   9  19  36  58  85 117 153 193 241 301 363
#     4   9  18  33  56  88 118 145 190 252 304 345
#     4   9  20  38  59  85 124 166 201 243 304 370
#     4  11  24  38  62  92 121 154 209 256 300 355
#     4   9  19  36  58  85 117 153 193 241 301 363
#     4   9  20  38  59  85 124 166 201 243 304 370
#     4  11  24  38  62  92 121 154 209 256 300 355
#
# _framework density 20.641034000000001
#
# number of rings (size 3 to 8) (size 9 to 14) (size 15 to 20)
#    0.000    2.250    0.000    2.250    3.500    9.000 
#    0.000    1.875    0.000    0.750    0.000    0.000 
#    0.000    0.000    0.000    0.000    0.000    0.000 
#
# Total GULP energy -178272.074954 kJ/mol
# GULP energy per Si atom -5571.002342 kJ/mol
# Density = 2.059405 g / cm^3
# Si number density = 20.641034 Si / 1000 Ang^3
#
#
#
# Elastic Constant Matrix: (Units=GPa)
#
#
# Indices 1 2 3 4 5 6 
#
# 1 155.2088 15.8700 94.1310 0.0000 0.0000 0.0000
# 2 15.8700 56.5375 39.3968 0.0000 0.0000 0.0000
# 3 94.1310 39.3968 147.5484 0.0000 0.0000 0.0000
# 4 0.0000 0.0000 0.0000 32.6809 0.0000 0.0000
# 5 0.0000 0.0000 0.0000 0.0000 28.6298 0.0000
# 6 0.0000 0.0000 0.0000 0.0000 0.0000 92.2839
#
#
#
# Elastic Compliance Matrix: (Units=1/GPa)
#
#
# Indices 1 2 3 4 5 6 
#
# 1 0.010719 0.002158 -0.007415 0.000000 0.000000 0.000000
# 2 0.002158 0.022165 -0.007295 0.000000 0.000000 0.000000
# 3 -0.007415 -0.007295 0.013456 0.000000 0.000000 0.000000
# 4 0.000000 0.000000 0.000000 0.030599 0.000000 0.000000
# 5 0.000000 0.000000 0.000000 0.000000 0.034929 0.000000
# 6 0.000000 0.000000 0.000000 0.000000 0.000000 0.010836
#
#
# Mechanical properties :
#
#
# Convention : Reuss Voigt Hill
#
# Bulk Modulus (GPa) = 47.08920 73.12114 60.10517
# Shear Modulus (GPa) = 32.28196 44.71205 38.49700
#
# Velocity S-wave (km/s) = 3.95900 4.65927 4.32333
# Velocity P-wave (km/s) = 6.61522 8.02789 7.35555
#
# Compressibility (1/GPa) = 0.02123629
#
# Stress axis : x y z
#
# Youngs Moduli (GPa) = 93.29142 45.11627 74.31896
#
# Poissons Ratio (x) = -0.09735 0.55105
# Poissons Ratio (y) = -0.20131 0.54215
# Poissons Ratio (z) = 0.69172 0.32912
#
# Static dielectric constant tensor:
#      x y z
#    x 1.823400 0.000000 0.000000 
#    y 0.000000 1.556130 0.000000 
#    z 0.000000 0.000000 1.777840 
# 
# From -- ./inp_files/10247.got.cif
#   From: 2010.05.17/outbox.cif.g08.bks.cpg/sg38_6_cif.got.tgz:10247.got - 2010.06.03 18:07:57.
