data_PCOD9359718
_publ_section_title
;
Structure prediction by ZEFSAII (Michael W. Deem and Ramdas Pophale) SiO2 
 PCOD9359718
Probable space group: A B M 2
;
_chemical_formula_sum "Si O2"
_cell_formula_units_Z 64
_cell_length_a 5.002974
_cell_length_b 23.766560
_cell_length_c 30.586536
_cell_angle_alpha 90.000000
_cell_angle_beta 90.000000
_cell_angle_gamma 90.000000
_cell_volume 3636.845625
_symmetry_space_group_name_H-M "A B M 2"
_symmetry_group_IT_number 39
_symmetry_cell_setting 'orthorhombic'
loop_
_space_group_symop_operation_xyz
x,y,z
-x,-y,z
-x,1/2+y,z
x,1/2-y,z
x,1/2+y,1/2+z
-x,1/2-y,1/2+z
-x,y,1/2+z
x,-y,1/2+z
loop_
_atom_site_type_symbol
_atom_site_label
_atom_site_fract_x
_atom_site_fract_y
_atom_site_fract_z
Si Si1 0.860569 0.184062 0.560850
Si Si2 0.368912 0.123519 0.353122
Si Si3 0.457706 0.188233 0.436639
Si Si4 0.596120 0.684048 0.261731
Si Si5 0.375786 0.814554 0.119625
Si Si6 0.869850 0.439058 0.389263
Si Si7 0.919098 0.815206 0.703803
Si Si8 0.952624 0.868058 0.970052
O O1 0.792328 0.250000 0.548464
O O2 0.646551 0.164354 0.597232
O O3 0.874965 0.141484 0.520221
O O4 0.151459 0.186318 0.582350
O O5 0.423564 0.175342 0.385743
O O6 0.391419 0.144890 0.304020
O O7 0.580559 0.075389 0.368767
O O8 0.073732 0.102500 0.364579
O O9 0.371576 0.250000 0.449371
O O10 0.766664 0.178806 0.447062
O O11 0.264237 0.145129 0.462156
O O12 0.663567 0.750000 0.271804
O O13 0.300412 0.683680 0.241884
O O14 0.804636 0.663712 0.224349
O O15 0.443380 0.750000 0.132786
O O16 0.229192 0.841221 0.161644
O O17 0.876001 0.422369 0.440926
O O18 0.000000 0.500000 0.383712
O O19 0.976909 0.750000 0.691346
#
# Coordination Sequence:
#
# PCOD9359718 Si02
#       8
#     8   8   8   8   8   8   8   8
#     4  10  17  26  41  62  91 121 155 194 224 263
#     4  10  20  32  49  71  90 119 158 192 234 284
#     4  10  18  29  43  63  95 124 149 182 228 282
#     4  10  18  29  46  69  99 127 156 192 226 273
#     4   9  17  27  40  60  90 129 161 184 217 261
#     4  10  21  37  52  66  91 122 155 202 247 283
#     4   9  17  28  42  62  93 132 162 185 220 267
#     4  10  20  30  45  67  89 122 161 193 232 279
#
# _framework density 17.597667999999999
#
# number of rings (size 3 to 8) (size 9 to 14) (size 15 to 20)
#    0.000    2.250    0.000    4.125    0.000    4.000 
#    0.000    3.750    0.000    0.000    0.000    0.000 
#    0.000   15.000    0.000    0.000    0.000    0.500 
#
# Total GULP energy -178161.454284 kJ/mol
# GULP energy per Si atom -5567.545446 kJ/mol
# Density = 1.755762 g / cm^3
# Si number density = 17.597668 Si / 1000 Ang^3
#
#
#
# Elastic Constant Matrix: (Units=GPa)
#
#
# Indices 1 2 3 4 5 6 
#
# 1 75.1317 -4.6319 -6.9579 0.0000 0.0000 0.0000
# 2 -4.6319 20.4645 7.7362 0.0000 0.0000 0.0000
# 3 -6.9579 7.7362 54.5786 0.0000 0.0000 0.0000
# 4 0.0000 0.0000 0.0000 10.6337 0.0000 0.0000
# 5 0.0000 0.0000 0.0000 0.0000 23.5452 0.0000
# 6 0.0000 0.0000 0.0000 0.0000 0.0000 8.3149
#
#
#
# Elastic Compliance Matrix: (Units=1/GPa)
#
#
# Indices 1 2 3 4 5 6 
#
# 1 0.013595 0.002559 0.001370 0.000000 0.000000 0.000000
# 2 0.002559 0.052113 -0.007061 0.000000 0.000000 0.000000
# 3 0.001370 -0.007061 0.019498 0.000000 0.000000 0.000000
# 4 0.000000 0.000000 0.000000 0.094040 0.000000 0.000000
# 5 0.000000 0.000000 0.000000 0.000000 0.042472 0.000000
# 6 0.000000 0.000000 0.000000 0.000000 0.000000 0.120266
#
#
# Mechanical properties :
#
#
# Convention : Reuss Voigt Hill
#
# Bulk Modulus (GPa) = 12.66732 15.82974 14.24853
# Shear Modulus (GPa) = 13.34898 18.76733 16.05815
#
# Velocity S-wave (km/s) = 2.75719 3.26922 3.02407
# Velocity P-wave (km/s) = 4.16534 4.82341 4.50641
#
# Compressibility (1/GPa) = 0.07894332
#
# Stress axis : x y z
#
# Youngs Moduli (GPa) = 73.55847 19.18891 51.28818
#
# Poissons Ratio (x) = -0.04910 -0.07028
# Poissons Ratio (y) = -0.18823 0.36212
# Poissons Ratio (z) = -0.10080 0.13548
#
# Static dielectric constant tensor:
#      x y z
#    x 1.614150 0.000000 0.000000 
#    y 0.000000 1.593640 0.000000 
#    z 0.000000 0.000000 1.639900 
# 
# From -- ./inp_files/15382.got.cif
#   From: 2010.05.17/outbox.cif.g08.bks.cpg/sg39_8_cif.got.tgz:15382.got - 2010.06.03 18:22:40.
