data_PCOD9359312
_publ_section_title
;
Structure prediction by ZEFSAII (Michael W. Deem and Ramdas Pophale) SiO2 
 PCOD9359312
Probable space group: A M M 2
;
_chemical_formula_sum "Si O2"
_cell_formula_units_Z 58
_cell_length_a 9.521855
_cell_length_b 18.219931
_cell_length_c 17.347489
_cell_angle_alpha 90.000000
_cell_angle_beta 90.000000
_cell_angle_gamma 90.000000
_cell_volume 3009.573211
_symmetry_space_group_name_H-M "A M M 2"
_symmetry_group_IT_number 38
_symmetry_cell_setting 'orthorhombic'
loop_
_space_group_symop_operation_xyz
x,y,z
-x,-y,z
-x,y,z
x,-y,z
x,1/2+y,1/2+z
-x,1/2-y,1/2+z
-x,1/2+y,1/2+z
x,1/2-y,1/2+z
loop_
_atom_site_type_symbol
_atom_site_label
_atom_site_fract_x
_atom_site_fract_y
_atom_site_fract_z
Si Si1 0.848438 0.587346 0.895870
Si Si2 0.168465 0.297127 0.327469
Si Si3 0.668092 0.160830 0.269934
Si Si4 0.168290 0.416618 0.207031
Si Si5 0.329917 0.416582 0.609069
Si Si6 0.662733 0.706092 0.485957
Si Si7 0.277069 0.634032 0.046034
Si Si8 0.500000 0.000000 0.530159
O O1 0.841295 0.500000 0.900365
O O2 0.720244 0.616210 0.844749
O O3 0.000000 0.607560 0.860348
O O4 0.839909 0.620895 0.980784
O O5 0.243992 0.235471 0.275484
O O6 0.199516 0.374254 0.285842
O O7 0.239332 0.291707 0.411030
O O8 0.000000 0.287376 0.330974
O O9 0.500000 0.173105 0.272109
O O10 0.704864 0.115352 0.193307
O O11 0.222540 0.500000 0.206519
O O12 0.226912 0.373867 0.133396
O O13 0.000000 0.418870 0.199320
O O14 0.500000 0.419152 0.606610
O O15 0.277920 0.500000 0.598754
O O16 0.288703 0.358508 0.543502
O O17 0.500000 0.692613 0.463117
O O18 0.666199 0.784617 0.529028
O O19 0.380551 0.565717 0.031556
#
# Coordination Sequence:
#
# PCOD9359312 Si02
#       8
#     8   8   8   8   8   8   8   2
#     4  11  23  36  57  88 125 164 203 246 300 368
#     4  11  24  41  62  90 123 162 207 255 313 373
#     4  11  22  38  62  90 121 160 204 253 308 369
#     4  10  22  42  64  87 119 161 206 255 313 378
#     4   9  20  40  63  90 121 159 204 255 313 370
#     4  11  23  40  64  91 123 160 206 257 308 367
#     4  12  22  38  60  90 127 164 206 251 308 370
#     4  12  24  36  58  96 134 168 204 264 308 376
#
# _framework density 19.271836
#
# number of rings (size 3 to 8) (size 9 to 14) (size 15 to 20)
#    0.000    1.241    3.448    2.483    0.966    3.034 
#    2.483    1.379    0.000    1.655    0.000    0.000 
#    0.000    0.000    0.000    0.000    0.000    0.000 
#
# Total GULP energy -161611.537725 kJ/mol
# GULP energy per Si atom -5572.811646 kJ/mol
# Density = 1.922797 g / cm^3
# Si number density = 19.271836 Si / 1000 Ang^3
#
#
#
# Elastic Constant Matrix: (Units=GPa)
#
#
# Indices 1 2 3 4 5 6 
#
# 1 71.5037 40.1836 28.8380 0.0000 0.0000 0.0000
# 2 40.1836 134.3605 78.5004 0.0000 0.0000 0.0000
# 3 28.8380 78.5004 87.1537 0.0000 0.0000 0.0000
# 4 0.0000 0.0000 0.0000 27.5598 0.0000 0.0000
# 5 0.0000 0.0000 0.0000 0.0000 -7.4346 0.0000
# 6 0.0000 0.0000 0.0000 0.0000 0.0000 19.5407
#
#
#
# Elastic Compliance Matrix: (Units=1/GPa)
#
#
# Indices 1 2 3 4 5 6 
#
# 1 0.017010 -0.003797 -0.002208 0.000000 0.000000 0.000000
# 2 -0.003797 0.016557 -0.013657 0.000000 0.000000 0.000000
# 3 -0.002208 -0.013657 0.024506 0.000000 0.000000 0.000000
# 4 0.000000 0.000000 0.000000 0.036285 0.000000 0.000000
# 5 0.000000 0.000000 0.000000 0.000000 -0.134507 0.000000
# 6 0.000000 0.000000 0.000000 0.000000 0.000000 0.051175
#
#
# Mechanical properties :
#
#
# Convention : Reuss Voigt Hill
#
# Bulk Modulus (GPa) = 53.33850 65.34022 59.33936
# Shear Modulus (GPa) = 88.33863 17.63291 52.98577
#
# Velocity S-wave (km/s) = 6.77774 3.02811 5.24915
# Velocity P-wave (km/s) = 9.43331 6.79735 8.22166
#
# Compressibility (1/GPa) = 0.01874818
#
# Stress axis : x y z
#
# Youngs Moduli (GPa) = 58.78989 60.39589 40.80657
#
# Poissons Ratio (x) = 0.22932 0.09012
# Poissons Ratio (y) = 0.22322 0.55730
# Poissons Ratio (z) = 0.12983 0.82483
#
# Static dielectric constant tensor:
#      x y z
#    x 1.748330 0.000000 0.000000 
#    y 0.000000 1.688980 0.000000 
#    z 0.000000 0.000000 1.654820 
# 
# From -- ./inp_files/16995.got.cif
#   From: 2010.05.17/outbox.cif.g08.bks.cpg/sg38_9_cif.got.tgz:16995.got - 2010.06.03 18:07:57.
