data_PCOD9359543
_publ_section_title
;
Structure prediction by ZEFSAII (Michael W. Deem and Ramdas Pophale) SiO2 
 PCOD9359543
Probable space group: A M M 2
;
_chemical_formula_sum "Si O2"
_cell_formula_units_Z 24
_cell_length_a 15.000000
_cell_length_b 18.000000
_cell_length_c 9.000000
_cell_angle_alpha 90.000000
_cell_angle_beta 90.000000
_cell_angle_gamma 90.000000
_cell_volume 2430.000000
_symmetry_space_group_name_H-M "A M M 2"
_symmetry_group_IT_number 38
_symmetry_cell_setting 'orthorhombic'
loop_
_space_group_symop_operation_xyz
x,y,z
-x,-y,z
-x,y,z
x,-y,z
x,1/2+y,1/2+z
-x,1/2-y,1/2+z
-x,1/2+y,1/2+z
x,1/2-y,1/2+z
loop_
_atom_site_type_symbol
_atom_site_label
_atom_site_fract_x
_atom_site_fract_y
_atom_site_fract_z
Si Si1 0.845178 0.275893 0.569510
Si Si2 0.237170 0.917259 0.978386
Si Si3 0.281929 0.582105 0.826933
Si Si4 0.595630 0.352749 0.334932
Si Si5 0.903415 0.353046 0.871808
Si Si6 0.649528 0.212907 0.526721
O O1 0.831317 0.348788 0.465664
O O2 0.884642 0.306667 0.721241
O O3 0.899351 0.209157 0.498677
O O4 0.745655 0.242265 0.584612
O O5 0.275244 0.911650 0.147916
O O6 0.199458 0.000000 0.961131
O O7 0.319467 0.903703 0.868879
O O8 0.315995 0.500000 0.864210
O O9 0.180111 0.592113 0.883248
O O10 0.334711 0.648875 0.903838
O O11 0.500000 0.389644 0.358786
O O12 0.604714 0.282847 0.446965
O O13 0.601677 0.320750 0.169000
O O14 0.000000 0.389164 0.865534
#
# Coordination Sequence:
#
# PCOD9359543 Si02
#       6
#     8   8   8   8   8   8
#     4   9  17  31  49  71  96 129 167 199 240 293
#     4   9  18  34  53  72  98 133 169 202 242 295
#     4   9  19  35  53  72  98 134 171 203 241 294
#     4  11  21  33  53  78 102 126 160 209 253 291
#     4  10  18  29  49  75 101 126 160 208 250 286
#     4  10  19  34  53  74  99 132 169 201 242 297
#
# _framework density 9.8765429999999999
#
# number of rings (size 3 to 8) (size 9 to 14) (size 15 to 20)
#    0.000    2.333    0.000    6.000    0.000    1.333 
#    0.000    0.833    0.000    5.000    0.000    0.000 
#    0.000    0.000    0.000    0.000    0.000    0.000 
#
# Total GULP energy -133836.470724 kJ/mol
# GULP energy per Si atom -5576.519614 kJ/mol
# Density = 0.985406 g / cm^3
# Si number density = 9.876543 Si / 1000 Ang^3
#
#
#
# Elastic Constant Matrix: (Units=GPa)
#
#
# Indices 1 2 3 4 5 6 
#
# 1 43.0381 -12.5798 -4.6271 0.0000 0.0000 0.0000
# 2 -12.5798 64.3199 -7.0786 0.0000 0.0000 0.0000
# 3 -4.6271 -7.0786 26.3734 0.0000 0.0000 0.0000
# 4 0.0000 0.0000 0.0000 15.7200 0.0000 0.0000
# 5 0.0000 0.0000 0.0000 0.0000 28.9757 0.0000
# 6 0.0000 0.0000 0.0000 0.0000 0.0000 -1.3057
#
#
#
# Elastic Compliance Matrix: (Units=1/GPa)
#
#
# Indices 1 2 3 4 5 6 
#
# 1 0.025533 0.005654 0.005997 0.000000 0.000000 0.000000
# 2 0.005654 0.017272 0.005628 0.000000 0.000000 0.000000
# 3 0.005997 0.005628 0.040480 0.000000 0.000000 0.000000
# 4 0.000000 0.000000 0.000000 0.063613 0.000000 0.000000
# 5 0.000000 0.000000 0.000000 0.000000 0.034512 0.000000
# 6 0.000000 0.000000 0.000000 0.000000 0.000000 -0.765869
#
#
# Mechanical properties :
#
#
# Convention : Reuss Voigt Hill
#
# Bulk Modulus (GPa) = 8.48596 9.46226 8.97411
# Shear Modulus (GPa) = -8.62461 19.21245 5.29392
#
# Velocity S-wave (km/s) = -2.09181 3.12209 1.63886
# Velocity P-wave (km/s) = 1.23649 4.21868 2.85204
#
# Compressibility (1/GPa) = 0.11784168
#
# Stress axis : x y z
#
# Youngs Moduli (GPa) = 39.16576 57.89582 24.70374
#
# Poissons Ratio (x) = -0.32732 -0.14815
# Poissons Ratio (y) = -0.22143 -0.13903
# Poissons Ratio (z) = -0.23488 -0.32583
#
# Static dielectric constant tensor:
#      x y z
#    x 1.520840 0.000000 0.000000 
#    y 0.000000 1.682490 0.000000 
#    z 0.000000 0.000000 1.695240 
# 
# From -- ./inp_files/5450.got.cif
#   From: 2010.05.17/outbox.ucp.g08.bks.cvg/sg38_3_cif.got.tgz:5450.got - 2010.06.11 10:39:43.
