data_PCOD9359239
_publ_section_title
;
Structure prediction by ZEFSAII (Michael W. Deem and Ramdas Pophale) SiO2 
 PCOD9359239
Probable space group: A M M 2
;
_chemical_formula_sum "Si O2"
_cell_formula_units_Z 58
_cell_length_a 7.513984
_cell_length_b 28.278216
_cell_length_c 11.495709
_cell_angle_alpha 90.000000
_cell_angle_beta 90.000000
_cell_angle_gamma 90.000000
_cell_volume 2442.631959
_symmetry_space_group_name_H-M "A M M 2"
_symmetry_group_IT_number 38
_symmetry_cell_setting 'orthorhombic'
loop_
_space_group_symop_operation_xyz
x,y,z
-x,-y,z
-x,y,z
x,-y,z
x,1/2+y,1/2+z
-x,1/2-y,1/2+z
-x,1/2+y,1/2+z
x,1/2-y,1/2+z
loop_
_atom_site_type_symbol
_atom_site_label
_atom_site_fract_x
_atom_site_fract_y
_atom_site_fract_z
Si Si1 0.295179 0.278558 0.086420
Si Si2 0.713517 0.946944 0.369850
Si Si3 0.203652 0.614927 0.076908
Si Si4 0.706762 0.572921 0.602113
Si Si5 0.213105 0.642529 0.432310
Si Si6 0.296054 0.255962 0.340729
Si Si7 0.782334 0.447179 0.282627
Si Si8 0.000000 0.500000 0.523194
O O1 0.500000 0.261962 0.080142
O O2 0.295985 0.335350 0.097814
O O3 0.220398 0.256532 0.207819
O O4 0.214668 0.268086 0.957732
O O5 0.500000 0.946746 0.382343
O O6 0.786480 0.904813 0.447519
O O7 0.753464 0.937191 0.235481
O O8 0.778396 0.000000 0.400157
O O9 0.266534 0.570767 0.154214
O O10 0.000000 0.623898 0.111724
O O11 0.500000 0.560107 0.585701
O O12 0.734708 0.627084 0.562374
O O13 0.844739 0.540821 0.532038
O O14 0.294957 0.689372 0.380303
O O15 0.276839 0.597122 0.359156
O O16 0.000000 0.646939 0.423297
O O17 0.500000 0.238381 0.330692
O O18 0.715910 0.500000 0.304689
O O19 0.000000 0.450440 0.291801
#
# Coordination Sequence:
#
# PCOD9359239 Si02
#       8
#     8   8   8   8   8   8   8   2
#     4  10  22  42  66  91 124 170 222 282 354 423
#     4  10  22  39  59  86 127 174 218 268 320 386
#     4  11  22  37  61  91 125 163 211 267 331 398
#     4  11  24  40  61  92 130 176 227 276 332 398
#     4  11  22  38  64  92 129 170 212 272 336 402
#     4  10  22  42  67  91 123 169 223 282 351 422
#     4   9  19  34  55  87 126 169 211 255 317 390
#     4  12  22  40  64  90 130 180 230 276 340 392
#
# _framework density 23.744879000000001
#
# number of rings (size 3 to 8) (size 9 to 14) (size 15 to 20)
#    0.000    1.655    2.759    1.448    1.931    2.483 
#    0.000    2.759    0.000    2.483    0.000    0.000 
#    0.000    0.000    0.000    0.000    0.000    0.000 
#
# Total GULP energy -161678.234782 kJ/mol
# GULP energy per Si atom -5575.111544 kJ/mol
# Density = 2.369084 g / cm^3
# Si number density = 23.744879 Si / 1000 Ang^3
#
#
#
# Elastic Constant Matrix: (Units=GPa)
#
#
# Indices 1 2 3 4 5 6 
#
# 1 76.5525 -4.6047 12.0739 0.0000 0.0000 0.0000
# 2 -4.6047 64.4643 33.1147 0.0000 0.0000 0.0000
# 3 12.0739 33.1147 119.0053 0.0000 0.0000 0.0000
# 4 0.0000 0.0000 0.0000 34.5291 0.0000 0.0000
# 5 0.0000 0.0000 0.0000 0.0000 12.7420 0.0000
# 6 0.0000 0.0000 0.0000 0.0000 0.0000 26.8756
#
#
#
# Elastic Compliance Matrix: (Units=1/GPa)
#
#
# Indices 1 2 3 4 5 6 
#
# 1 0.013481 0.001943 -0.001908 0.000000 0.000000 0.000000
# 2 0.001943 0.018380 -0.005312 0.000000 0.000000 0.000000
# 3 -0.001908 -0.005312 0.010075 0.000000 0.000000 0.000000
# 4 0.000000 0.000000 0.000000 0.028961 0.000000 0.000000
# 5 0.000000 0.000000 0.000000 0.000000 0.078481 0.000000
# 6 0.000000 0.000000 0.000000 0.000000 0.000000 0.037208
#
#
# Mechanical properties :
#
#
# Convention : Reuss Voigt Hill
#
# Bulk Modulus (GPa) = 31.86565 37.91001 34.88783
# Shear Modulus (GPa) = 24.08482 29.45855 26.77169
#
# Velocity S-wave (km/s) = 3.18829 3.52608 3.36143
# Velocity P-wave (km/s) = 5.19641 5.70770 5.45805
#
# Compressibility (1/GPa) = 0.03138176
#
# Stress axis : x y z
#
# Youngs Moduli (GPa) = 74.17945 54.40762 99.25928
#
# Poissons Ratio (x) = -0.10573 0.18943
# Poissons Ratio (y) = -0.14415 0.52722
# Poissons Ratio (z) = 0.14157 0.28899
#
# Static dielectric constant tensor:
#      x y z
#    x 1.888610 0.000000 0.000000 
#    y 0.000000 1.870520 0.000000 
#    z 0.000000 0.000000 2.036020 
# 
# From -- ./inp_files/8367.got.cif
#   From: 2010.05.17/outbox.cif.g08.bks.cpg/sg38_5_cif.got.tgz:8367.got - 2010.06.03 18:07:57.
