data_PCOD9359025
_publ_section_title
;
Structure prediction by ZEFSAII (Michael W. Deem and Ramdas Pophale) SiO2 
 PCOD9359025
Probable space group: A M M 2
;
_chemical_formula_sum "Si O2"
_cell_formula_units_Z 56
_cell_length_a 17.363062
_cell_length_b 15.433980
_cell_length_c 10.602406
_cell_angle_alpha 90.000000
_cell_angle_beta 90.000000
_cell_angle_gamma 90.000000
_cell_volume 2841.244970
_symmetry_space_group_name_H-M "A M M 2"
_symmetry_group_IT_number 38
_symmetry_cell_setting 'orthorhombic'
loop_
_space_group_symop_operation_xyz
x,y,z
-x,-y,z
-x,y,z
x,-y,z
x,1/2+y,1/2+z
-x,1/2-y,1/2+z
-x,1/2+y,1/2+z
x,1/2-y,1/2+z
loop_
_atom_site_type_symbol
_atom_site_label
_atom_site_fract_x
_atom_site_fract_y
_atom_site_fract_z
Si Si1 0.193242 0.237218 0.009880
Si Si2 0.588250 0.634983 0.410399
Si Si3 0.088818 0.593980 0.388317
Si Si4 0.298421 0.100398 0.143860
Si Si5 0.658936 0.187765 0.397290
Si Si6 0.910446 0.598950 0.085235
Si Si7 0.587652 0.098643 0.630245
O O1 0.235288 0.175776 0.114376
O O2 0.148052 0.324797 0.047665
O O3 0.134002 0.173120 0.944354
O O4 0.259715 0.264349 0.912478
O O5 0.500000 0.608710 0.431558
O O6 0.641122 0.608657 0.527796
O O7 0.595018 0.737904 0.388267
O O8 0.614806 0.599423 0.274803
O O9 0.121562 0.500000 0.426863
O O10 0.089918 0.597214 0.237065
O O11 0.000000 0.597409 0.428492
O O12 0.337925 0.125821 0.276807
O O13 0.271342 0.000000 0.148785
O O14 0.642949 0.144612 0.532343
O O15 0.890127 0.500000 0.042840
O O16 0.000000 0.615684 0.045973
O O17 0.500000 0.135447 0.628713
O O18 0.582539 0.000000 0.588408
#
# Coordination Sequence:
#
# PCOD9359025 Si02
#       7
#     8   8   8   8   8   8   8
#     4  11  21  36  56  81 114 155 190 228 282 345
#     4  10  21  39  61  83 109 146 194 243 290 341
#     4   9  18  34  57  83 109 141 186 236 280 328
#     4  11  24  39  56  84 121 157 195 239 289 347
#     4  11  23  37  55  82 116 152 189 232 284 340
#     4   9  19  36  58  84 111 142 187 239 285 334
#     4  10  21  38  59  81 106 140 186 237 284 333
#
# _framework density 19.709669000000002
#
# number of rings (size 3 to 8) (size 9 to 14) (size 15 to 20)
#    0.000    1.857    0.000    5.571    0.000    5.429 
#    0.000    2.857    0.000    0.000    0.000    6.000 
#    0.000    0.000    0.000    0.000    0.000    0.000 
#
# Total GULP energy -156135.334466 kJ/mol
# GULP energy per Si atom -5576.261945 kJ/mol
# Density = 1.966481 g / cm^3
# Si number density = 19.709669 Si / 1000 Ang^3
#
#
#
# Elastic Constant Matrix: (Units=GPa)
#
#
# Indices 1 2 3 4 5 6 
#
# 1 65.1459 48.7313 33.5523 0.0000 0.0000 0.0000
# 2 48.7313 133.8120 38.1948 0.0000 0.0000 0.0000
# 3 33.5523 38.1948 76.1907 0.0000 0.0000 0.0000
# 4 0.0000 0.0000 0.0000 25.7862 0.0000 0.0000
# 5 0.0000 0.0000 0.0000 0.0000 23.1265 0.0000
# 6 0.0000 0.0000 0.0000 0.0000 0.0000 19.9771
#
#
#
# Elastic Compliance Matrix: (Units=1/GPa)
#
#
# Indices 1 2 3 4 5 6 
#
# 1 0.024103 -0.006708 -0.007251 0.000000 0.000000 0.000000
# 2 -0.006708 0.010588 -0.002354 0.000000 0.000000 0.000000
# 3 -0.007251 -0.002354 0.017498 0.000000 0.000000 0.000000
# 4 0.000000 0.000000 0.000000 0.038780 0.000000 0.000000
# 5 0.000000 0.000000 0.000000 0.000000 0.043240 0.000000
# 6 0.000000 0.000000 0.000000 0.000000 0.000000 0.050057
#
#
# Mechanical properties :
#
#
# Convention : Reuss Voigt Hill
#
# Bulk Modulus (GPa) = 51.11802 57.34505 54.23153
# Shear Modulus (GPa) = 22.38000 24.08931 23.23465
#
# Velocity S-wave (km/s) = 3.37335 3.49980 3.43716
# Velocity P-wave (km/s) = 6.41595 6.74459 6.58232
#
# Compressibility (1/GPa) = 0.01956257
#
# Stress axis : x y z
#
# Youngs Moduli (GPa) = 41.48939 94.44774 57.14845
#
# Poissons Ratio (x) = 0.63353 0.41441
# Poissons Ratio (y) = 0.27830 0.13452
# Poissons Ratio (z) = 0.30086 0.22231
#
# Static dielectric constant tensor:
#      x y z
#    x 1.598400 0.000000 0.000000 
#    y 0.000000 1.657180 0.000000 
#    z 0.000000 0.000000 1.674950 
# 
# From -- ./inp_files/10108.got.cif
#   From: 2010.05.17/outbox.cif.g08.bks.cpg/sg38_6_cif.got.tgz:10108.got - 2010.06.03 18:07:57.
