data_PCOD9359018
_publ_section_title
;
Structure prediction by ZEFSAII (Michael W. Deem and Ramdas Pophale) SiO2 
 PCOD9359018
Probable space group: A M M 2
;
_chemical_formula_sum "Si O2"
_cell_formula_units_Z 40
_cell_length_a 8.363019
_cell_length_b 30.804011
_cell_length_c 7.508455
_cell_angle_alpha 90.000000
_cell_angle_beta 90.000000
_cell_angle_gamma 90.000000
_cell_volume 1934.287100
_symmetry_space_group_name_H-M "A M M 2"
_symmetry_group_IT_number 38
_symmetry_cell_setting 'orthorhombic'
loop_
_space_group_symop_operation_xyz
x,y,z
-x,-y,z
-x,y,z
x,-y,z
x,1/2+y,1/2+z
-x,1/2-y,1/2+z
-x,1/2+y,1/2+z
x,1/2-y,1/2+z
loop_
_atom_site_type_symbol
_atom_site_label
_atom_site_fract_x
_atom_site_fract_y
_atom_site_fract_z
Si Si1 0.309221 0.381484 0.177280
Si Si2 0.693194 0.049056 0.967553
Si Si3 0.192183 0.104779 0.276490
Si Si4 0.817796 0.289415 0.125022
Si Si5 0.182675 0.196478 0.202051
O O1 0.500000 0.383000 0.174772
O O2 0.248451 0.415852 0.322599
O O3 0.258840 0.331605 0.213973
O O4 0.248783 0.394464 0.980281
O O5 0.500000 0.049719 0.965256
O O6 0.745671 0.000000 0.927610
O O7 0.750366 0.064484 0.161099
O O8 0.255636 0.148847 0.178002
O O9 0.000000 0.107321 0.276474
O O10 0.740514 0.241750 0.141691
O O11 0.000000 0.285620 0.193714
O O12 0.824894 0.299504 0.915955
O O13 0.000000 0.195744 0.130217
#
# Coordination Sequence:
#
# PCOD9359018 Si02
#       5
#     8   8   8   8   8
#     4  10  21  38  58  83 118 156 194 237 287 349
#     4  10  23  42  62  84 113 154 198 239 294 355
#     4  10  21  38  61  88 117 150 192 245 294 343
#     4   9  17  31  51  77 109 149 194 234 279 340
#     4   8  16  29  49  77 108 145 187 228 280 340
#
# _framework density 20.679452000000001
#
# number of rings (size 3 to 8) (size 9 to 14) (size 15 to 20)
#    0.000    2.600    0.000    2.400    2.800    2.800 
#    0.000    7.000    0.000    0.000    0.000    0.000 
#    0.000    0.000    0.000    0.000    0.000    0.000 
#
# Total GULP energy -111529.764575 kJ/mol
# GULP energy per Si atom -5576.488229 kJ/mol
# Density = 2.063238 g / cm^3
# Si number density = 20.679452 Si / 1000 Ang^3
#
#
#
# Elastic Constant Matrix: (Units=GPa)
#
#
# Indices 1 2 3 4 5 6 
#
# 1 20.0103 8.8789 -5.7438 0.0000 0.0000 0.0000
# 2 8.8789 100.3607 6.2069 0.0000 0.0000 0.0000
# 3 -5.7438 6.2069 34.3240 0.0000 0.0000 0.0000
# 4 0.0000 0.0000 0.0000 36.8527 0.0000 0.0000
# 5 0.0000 0.0000 0.0000 0.0000 14.9354 0.0000
# 6 0.0000 0.0000 0.0000 0.0000 0.0000 25.4624
#
#
#
# Elastic Compliance Matrix: (Units=1/GPa)
#
#
# Indices 1 2 3 4 5 6 
#
# 1 0.055377 -0.005534 0.010268 0.000000 0.000000 0.000000
# 2 -0.005534 0.010630 -0.002848 0.000000 0.000000 0.000000
# 3 0.010268 -0.002848 0.031367 0.000000 0.000000 0.000000
# 4 0.000000 0.000000 0.000000 0.027135 0.000000 0.000000
# 5 0.000000 0.000000 0.000000 0.000000 0.066955 0.000000
# 6 0.000000 0.000000 0.000000 0.000000 0.000000 0.039274
#
#
# Mechanical properties :
#
#
# Convention : Reuss Voigt Hill
#
# Bulk Modulus (GPa) = 9.88686 19.26433 14.57559
# Shear Modulus (GPa) = 19.18044 25.14032 22.16038
#
# Velocity S-wave (km/s) = 3.04881 3.49049 3.27710
# Velocity P-wave (km/s) = 4.14549 5.05773 4.62416
#
# Compressibility (1/GPa) = 0.10114436
#
# Stress axis : x y z
#
# Youngs Moduli (GPa) = 18.05805 94.07495 31.88025
#
# Poissons Ratio (x) = 0.52063 -0.32733
# Poissons Ratio (y) = 0.09994 0.09080
# Poissons Ratio (z) = -0.18541 0.26795
#
# Static dielectric constant tensor:
#      x y z
#    x 1.731020 0.000000 0.000000 
#    y 0.000000 1.793460 0.000000 
#    z 0.000000 0.000000 1.726940 
# 
# From -- ./inp_files/3449.got.cif
#   From: 2010.05.17/outbox.cif.g08.bks.cpg/sg38_2_cif.got.tgz:3449.got - 2010.06.03 18:07:57.
