data_PCOD9359565
_publ_section_title
;
Structure prediction by ZEFSAII (Michael W. Deem and Ramdas Pophale) SiO2 
 PCOD9359565
Probable space group: A M M 2
;
_chemical_formula_sum "Si O2"
_cell_formula_units_Z 32
_cell_length_a 9.000000
_cell_length_b 15.000000
_cell_length_c 24.000000
_cell_angle_alpha 90.000000
_cell_angle_beta 90.000000
_cell_angle_gamma 90.000000
_cell_volume 3240.000000
_symmetry_space_group_name_H-M "A M M 2"
_symmetry_group_IT_number 38
_symmetry_cell_setting 'orthorhombic'
loop_
_space_group_symop_operation_xyz
x,y,z
-x,-y,z
-x,y,z
x,-y,z
x,1/2+y,1/2+z
-x,1/2-y,1/2+z
-x,1/2+y,1/2+z
x,1/2-y,1/2+z
loop_
_atom_site_type_symbol
_atom_site_label
_atom_site_fract_x
_atom_site_fract_y
_atom_site_fract_z
Si Si1 0.175785 0.897638 0.339600
Si Si2 0.820538 0.274603 0.737171
Si Si3 0.335935 0.101937 0.898643
Si Si4 0.178796 0.218977 0.115811
Si Si5 0.322675 0.096440 0.581131
Si Si6 0.823348 0.329803 0.497113
Si Si7 0.323349 0.852292 0.456476
Si Si8 0.680241 0.603313 0.278802
O O1 0.229066 0.833022 0.290076
O O2 0.257245 0.886850 0.398705
O O3 0.000000 0.880326 0.348906
O O4 0.191541 0.000000 0.321166
O O5 0.777858 0.314514 0.676854
O O6 0.752512 0.175685 0.738944
O O7 0.000000 0.269483 0.739582
O O8 0.500000 0.140572 0.909960
O O9 0.238359 0.101052 0.953245
O O10 0.272077 0.138423 0.840870
O O11 0.356421 0.000000 0.882027
O O12 0.239900 0.318448 0.105509
O O13 0.000000 0.222467 0.114306
O O14 0.227111 0.163659 0.061167
O O15 0.500000 0.107205 0.589602
O O16 0.297113 0.095346 0.514236
O O17 0.277741 0.000000 0.604403
O O18 0.755364 0.240643 0.470399
O O19 0.000000 0.327179 0.495903
O O20 0.500000 0.844287 0.450571
O O21 0.500000 0.607535 0.276874
O O22 0.723612 0.500000 0.268390
#
# Coordination Sequence:
#
# PCOD9359565 Si02
#       8
#     8   8   8   8   8   8   8   8
#     4  10  21  36  54  77 104 135 173 217 263 309
#     4  10  21  37  54  73 101 138 177 215 256 302
#     4   9  18  33  52  75 104 134 163 201 254 312
#     4   9  20  36  50  68  97 132 170 209 249 296
#     4   9  18  32  50  74 102 130 161 198 244 301
#     4  10  19  32  51  75 102 132 168 209 253 302
#     4  10  19  32  52  77 105 134 163 201 253 310
#     4   9  19  35  54  78 107 137 168 204 252 309
#
# _framework density 9.8765429999999999
#
# number of rings (size 3 to 8) (size 9 to 14) (size 15 to 20)
#    0.000    2.500    0.000    2.625    0.000    6.500 
#    0.000    4.375    0.000    2.250    0.000    0.000 
#    0.000    0.000    0.000    0.000    0.000    0.000 
#
# Total GULP energy -178171.781291 kJ/mol
# GULP energy per Si atom -5567.868165 kJ/mol
# Density = 0.985406 g / cm^3
# Si number density = 9.876543 Si / 1000 Ang^3
#
#
#
# Elastic Constant Matrix: (Units=GPa)
#
#
# Indices 1 2 3 4 5 6 
#
# 1 11.5944 -1.6629 22.3255 0.0000 0.0000 0.0000
# 2 -1.6629 25.7637 8.5568 0.0000 0.0000 0.0000
# 3 22.3255 8.5568 104.4103 0.0000 0.0000 0.0000
# 4 0.0000 0.0000 0.0000 6.1018 0.0000 0.0000
# 5 0.0000 0.0000 0.0000 0.0000 17.7211 0.0000
# 6 0.0000 0.0000 0.0000 0.0000 0.0000 18.2813
#
#
#
# Elastic Compliance Matrix: (Units=1/GPa)
#
#
# Indices 1 2 3 4 5 6 
#
# 1 0.157880 0.022001 -0.035562 0.000000 0.000000 0.000000
# 2 0.022001 0.042966 -0.008226 0.000000 0.000000 0.000000
# 3 -0.035562 -0.008226 0.017856 0.000000 0.000000 0.000000
# 4 0.000000 0.000000 0.000000 0.163886 0.000000 0.000000
# 5 0.000000 0.000000 0.000000 0.000000 0.056430 0.000000
# 6 0.000000 0.000000 0.000000 0.000000 0.000000 0.054701
#
#
# Mechanical properties :
#
#
# Convention : Reuss Voigt Hill
#
# Bulk Modulus (GPa) = 5.71004 22.24525 13.97764
# Shear Modulus (GPa) = 8.39393 15.92410 12.15902
#
# Velocity S-wave (km/s) = 2.06365 2.84237 2.48372
# Velocity P-wave (km/s) = 2.92834 4.69662 3.91366
#
# Compressibility (1/GPa) = 0.17513013
#
# Stress axis : x y z
#
# Youngs Moduli (GPa) = 6.33391 23.27401 56.00439
#
# Poissons Ratio (x) = -0.51206 1.99162
# Poissons Ratio (y) = -0.13936 0.46068
# Poissons Ratio (z) = 0.22525 0.19145
#
# Static dielectric constant tensor:
#      x y z
#    x 1.674950 0.000000 0.000000 
#    y 0.000000 1.888040 0.000000 
#    z 0.000000 0.000000 1.739380 
# 
# From -- ./inp_files/20042.got.cif
#   From: 2010.05.17/outbox.ucp.g08.bks.cvg/sg38_11_cif.got.tgz:20042.got - 2010.06.11 10:39:43.
