data_PCOD9359480
_publ_section_title
;
Structure prediction by ZEFSAII (Michael W. Deem and Ramdas Pophale) SiO2 
 PCOD9359480
Probable space group: A M M 2
;
_chemical_formula_sum "Si O2"
_cell_formula_units_Z 44
_cell_length_a 12.428042
_cell_length_b 12.984903
_cell_length_c 12.284272
_cell_angle_alpha 90.000000
_cell_angle_beta 90.000000
_cell_angle_gamma 90.000000
_cell_volume 1982.397978
_symmetry_space_group_name_H-M "A M M 2"
_symmetry_group_IT_number 38
_symmetry_cell_setting 'orthorhombic'
loop_
_space_group_symop_operation_xyz
x,y,z
-x,-y,z
-x,y,z
x,-y,z
x,1/2+y,1/2+z
-x,1/2-y,1/2+z
-x,1/2+y,1/2+z
x,1/2-y,1/2+z
loop_
_atom_site_type_symbol
_atom_site_label
_atom_site_fract_x
_atom_site_fract_y
_atom_site_fract_z
Si Si1 0.372556 0.816765 0.754160
Si Si2 0.000000 0.887389 0.981006
Si Si3 0.000000 0.376688 0.808928
Si Si4 0.000000 0.174285 0.566859
Si Si5 0.764888 0.164748 0.556930
Si Si6 0.235338 0.385830 0.455298
Si Si7 0.758813 0.882375 0.303046
O O1 0.500000 0.821323 0.758923
O O2 0.325551 0.863272 0.642917
O O3 0.317196 0.871400 0.857054
O O4 0.328316 0.699434 0.763002
O O5 0.889290 0.879033 0.915418
O O6 0.000000 0.000000 0.034083
O O7 0.000000 0.798228 0.069677
O O8 0.120017 0.345335 0.771416
O O9 0.000000 0.500000 0.801654
O O10 0.000000 0.347547 0.937046
O O11 0.116647 0.137480 0.604291
O O12 0.755701 0.288312 0.534680
O O13 0.755121 0.119524 0.435629
O O14 0.248627 0.500000 0.503526
O O15 0.743020 0.000000 0.267491
#
# Coordination Sequence:
#
# PCOD9359480 Si02
#       7
#     8   4   4   4   8   8   8
#     4  11  24  37  50  76 110 143 186 227 252 294
#     4   8  14  29  55  83 106 128 162 211 267 325
#     4   8  14  29  55  83 106 128 162 211 267 325
#     4   8  14  28  50  78 106 136 166 206 264 322
#     4   9  19  34  55  80 109 138 173 217 266 318
#     4   9  19  37  59  81 107 138 171 215 271 322
#     4   9  19  37  59  81 107 138 171 215 271 322
#
# _framework density 22.195342
#
# number of rings (size 3 to 8) (size 9 to 14) (size 15 to 20)
#    0.000    2.909    0.000    1.091    0.000    6.545 
#    0.000    0.000    0.000    6.545    0.000    0.000 
#    0.000    0.000    0.000    0.000    0.000    0.000 
#
# Total GULP energy -122746.062116 kJ/mol
# GULP energy per Si atom -5579.366460 kJ/mol
# Density = 2.214482 g / cm^3
# Si number density = 22.195342 Si / 1000 Ang^3
#
#
#
# Elastic Constant Matrix: (Units=GPa)
#
#
# Indices 1 2 3 4 5 6 
#
# 1 190.3207 13.7532 67.0974 0.0000 0.0000 0.0000
# 2 13.7532 73.6194 3.6381 0.0000 0.0000 0.0000
# 3 67.0974 3.6381 87.1413 0.0000 0.0000 0.0000
# 4 0.0000 0.0000 0.0000 -13.1971 0.0000 0.0000
# 5 0.0000 0.0000 0.0000 0.0000 14.0654 0.0000
# 6 0.0000 0.0000 0.0000 0.0000 0.0000 18.9919
#
#
#
# Elastic Compliance Matrix: (Units=1/GPa)
#
#
# Indices 1 2 3 4 5 6 
#
# 1 0.007298 -0.001088 -0.005574 0.000000 0.000000 0.000000
# 2 -0.001088 0.013774 0.000263 0.000000 0.000000 0.000000
# 3 -0.005574 0.000263 0.015756 0.000000 0.000000 0.000000
# 4 0.000000 0.000000 0.000000 -0.075774 0.000000 0.000000
# 5 0.000000 0.000000 0.000000 0.000000 0.071097 0.000000
# 6 0.000000 0.000000 0.000000 0.000000 0.000000 0.052654
#
#
# Mechanical properties :
#
#
# Convention : Reuss Voigt Hill
#
# Bulk Modulus (GPa) = 41.61517 57.78433 49.69975
# Shear Modulus (GPa) = 47.34275 21.74488 34.54381
#
# Velocity S-wave (km/s) = 4.62346 3.13342 3.94935
# Velocity P-wave (km/s) = 6.87692 6.25956 6.57549
#
# Compressibility (1/GPa) = 0.02402970
#
# Stress axis : x y z
#
# Youngs Moduli (GPa) = 137.02416 72.60247 63.46603
#
# Poissons Ratio (x) = 0.07899 0.35375
# Poissons Ratio (y) = 0.14907 -0.01667
# Poissons Ratio (z) = 0.76376 -0.01907
#
# Static dielectric constant tensor:
#      x y z
#    x 1.790300 0.000000 0.000000 
#    y 0.000000 1.860450 0.000000 
#    z 0.000000 0.000000 1.854220 
# 
# From -- ./inp_files/13659.got.cif
#   From: 2010.05.17/outbox.cif.g08.bks.cpg/sg38_7_cif.got.tgz:13659.got - 2010.06.03 18:07:57.
