data_PCOD9359849
_publ_section_title
;
Structure prediction by ZEFSAII (Michael W. Deem and Ramdas Pophale) SiO2 
 PCOD9359849
Probable space group: A B M 2
;
_chemical_formula_sum "Si O2"
_cell_formula_units_Z 64
_cell_length_a 12.336054
_cell_length_b 15.875625
_cell_length_c 17.895565
_cell_angle_alpha 90.000000
_cell_angle_beta 90.000000
_cell_angle_gamma 90.000000
_cell_volume 3504.713393
_symmetry_space_group_name_H-M "A B M 2"
_symmetry_group_IT_number 39
_symmetry_cell_setting 'orthorhombic'
loop_
_space_group_symop_operation_xyz
x,y,z
-x,-y,z
-x,1/2+y,z
x,1/2-y,z
x,1/2+y,1/2+z
-x,1/2-y,1/2+z
-x,y,1/2+z
x,-y,1/2+z
loop_
_atom_site_type_symbol
_atom_site_label
_atom_site_fract_x
_atom_site_fract_y
_atom_site_fract_z
Si Si1 0.570110 0.656054 0.434110
Si Si2 0.669042 0.100348 0.421927
Si Si3 0.103790 0.839737 0.470055
Si Si4 0.256992 0.057302 0.507330
Si Si5 0.385471 0.471531 0.298524
Si Si6 0.791339 0.351989 0.735298
Si Si7 0.073896 0.584342 0.877996
Si Si8 0.889228 0.460962 0.606807
O O1 0.599207 0.750000 0.410490
O O2 0.440614 0.649073 0.442603
O O3 0.651354 0.629110 0.500855
O O4 0.591377 0.589487 0.368734
O O5 0.779616 0.150966 0.431323
O O6 0.679836 0.026922 0.483419
O O7 0.664520 0.053850 0.340667
O O8 0.097318 0.750000 0.509249
O O9 0.086591 0.915034 0.528194
O O10 0.010351 0.848538 0.409584
O O11 0.166644 0.071091 0.441762
O O12 0.194871 0.035241 0.583866
O O13 0.500000 0.500000 0.264747
O O14 0.313400 0.412666 0.246371
O O15 0.774582 0.250000 0.734952
O O16 0.867088 0.380719 0.804746
O O17 0.844053 0.388776 0.660247
O O18 0.000000 0.500000 0.866168
O O19 0.000000 0.500000 0.637271
#
# Coordination Sequence:
#
# PCOD9359849 Si02
#       8
#     8   8   8   8   8   8   8   8
#     4  10  18  30  54  90 119 140 187 254 291 324
#     4   9  17  32  53  80 115 151 190 234 288 341
#     4  11  20  33  55  83 115 151 191 240 290 341
#     4  10  18  35  58  78 110 152 196 227 278 351
#     4   9  18  34  55  79 114 154 190 230 289 354
#     4  12  24  37  58  92 119 147 194 253 298 337
#     4  12  19  37  60  82 115 146 195 239 280 349
#     4  11  22  41  55  78 119 160 194 226 295 366
#
# _framework density 18.261122
#
# number of rings (size 3 to 8) (size 9 to 14) (size 15 to 20)
#    0.000    1.500    6.250    3.000    0.000    0.500 
#    0.000    2.500    0.000    0.000    0.000    7.000 
#    0.000    0.000    0.000    0.000    0.000    0.000 
#
# Total GULP energy -178146.854780 kJ/mol
# GULP energy per Si atom -5567.089212 kJ/mol
# Density = 1.821956 g / cm^3
# Si number density = 18.261122 Si / 1000 Ang^3
#
#
#
# Elastic Constant Matrix: (Units=GPa)
#
#
# Indices 1 2 3 4 5 6 
#
# 1 98.8361 42.2006 23.8967 0.0000 0.0000 0.0000
# 2 42.2006 90.7035 15.2551 0.0000 0.0000 0.0000
# 3 23.8967 15.2551 46.9860 0.0000 0.0000 0.0000
# 4 0.0000 0.0000 0.0000 15.8428 0.0000 0.0000
# 5 0.0000 0.0000 0.0000 0.0000 16.6650 0.0000
# 6 0.0000 0.0000 0.0000 0.0000 0.0000 -16.3772
#
#
#
# Elastic Compliance Matrix: (Units=1/GPa)
#
#
# Indices 1 2 3 4 5 6 
#
# 1 0.013727 -0.005514 -0.005191 0.000000 0.000000 0.000000
# 2 -0.005514 0.013876 -0.001701 0.000000 0.000000 0.000000
# 3 -0.005191 -0.001701 0.024476 0.000000 0.000000 0.000000
# 4 0.000000 0.000000 0.000000 0.063120 0.000000 0.000000
# 5 0.000000 0.000000 0.000000 0.000000 0.060006 0.000000
# 6 0.000000 0.000000 0.000000 0.000000 0.000000 -0.061060
#
#
# Mechanical properties :
#
#
# Convention : Reuss Voigt Hill
#
# Bulk Modulus (GPa) = 36.67460 44.35894 40.51677
# Shear Modulus (GPa) = 33.77330 13.57098 23.67214
#
# Velocity S-wave (km/s) = 4.30521 2.72906 3.60434
# Velocity P-wave (km/s) = 6.69627 5.85445 6.28946
#
# Compressibility (1/GPa) = 0.02726683
#
# Stress axis : x y z
#
# Youngs Moduli (GPa) = 72.84865 72.06550 40.85709
#
# Poissons Ratio (x) = 0.39734 0.21211
# Poissons Ratio (y) = 0.40165 0.06950
# Poissons Ratio (z) = 0.37819 0.12259
#
# Static dielectric constant tensor:
#      x y z
#    x 1.693960 0.000000 0.000000 
#    y 0.000000 1.671040 0.000000 
#    z 0.000000 0.000000 1.617900 
# 
# From -- ./inp_files/12440.got.cif
#   From: 2010.05.17/outbox.cif.g08.bks.cpg/sg39_7_cif.got.tgz:12440.got - 2010.06.03 18:22:40.
