data_PCOD9359452
_publ_section_title
;
Structure prediction by ZEFSAII (Michael W. Deem and Ramdas Pophale) SiO2 
 PCOD9359452
Probable space group: A M M 2
;
_chemical_formula_sum "Si O2"
_cell_formula_units_Z 34
_cell_length_a 7.315897
_cell_length_b 14.428449
_cell_length_c 12.530516
_cell_angle_alpha 90.000000
_cell_angle_beta 90.000000
_cell_angle_gamma 90.000000
_cell_volume 1322.684263
_symmetry_space_group_name_H-M "A M M 2"
_symmetry_group_IT_number 38
_symmetry_cell_setting 'orthorhombic'
loop_
_space_group_symop_operation_xyz
x,y,z
-x,-y,z
-x,y,z
x,-y,z
x,1/2+y,1/2+z
-x,1/2-y,1/2+z
-x,1/2+y,1/2+z
x,1/2-y,1/2+z
loop_
_atom_site_type_symbol
_atom_site_label
_atom_site_fract_x
_atom_site_fract_y
_atom_site_fract_z
Si Si1 0.275767 0.898307 0.889390
Si Si2 0.209429 0.850562 0.191817
Si Si3 0.500000 0.500000 0.622904
Si Si4 0.722040 0.186951 0.431490
Si Si5 0.290527 0.362321 0.153409
O O1 0.500000 0.898055 0.893946
O O2 0.215757 0.898883 0.764860
O O3 0.221311 0.000000 0.932317
O O4 0.219699 0.796359 0.932204
O O5 0.342234 0.920118 0.134306
O O6 0.221689 0.859124 0.320407
O O7 0.281925 0.747846 0.170228
O O8 0.000000 0.859820 0.159064
O O9 0.500000 0.187982 0.433865
O O10 0.787127 0.129633 0.534631
O O11 0.500000 0.394078 0.149632
#
# Coordination Sequence:
#
# PCOD9359452 Si02
#       5
#     8   8   2   8   8
#     4   8  14  27  48  78 109 144 193 237 279 342
#     4  11  22  38  61  85 118 158 194 247 302 351
#     4  12  22  44  56  82 118 154 206 248 284 362
#     4   9  17  34  56  82 114 154 195 238 297 355
#     4   9  17  34  56  82 114 154 195 238 297 355
#
# _framework density 25.705303000000001
#
# number of rings (size 3 to 8) (size 9 to 14) (size 15 to 20)
#    0.000    2.588    2.353    1.765    0.000    0.941 
#    4.235    0.000    0.000   11.294    0.000    0.000 
#    0.000    0.000    0.000    0.000    0.000    0.000 
#
# Total GULP energy -94772.690860 kJ/mol
# GULP energy per Si atom -5574.864168 kJ/mol
# Density = 2.564680 g / cm^3
# Si number density = 25.705303 Si / 1000 Ang^3
#
#
#
# Elastic Constant Matrix: (Units=GPa)
#
#
# Indices 1 2 3 4 5 6 
#
# 1 155.1181 34.3273 0.0412 0.0000 0.0000 0.0000
# 2 34.3273 122.3550 3.8436 0.0000 0.0000 0.0000
# 3 0.0412 3.8436 154.8314 0.0000 0.0000 0.0000
# 4 0.0000 0.0000 0.0000 11.8923 0.0000 0.0000
# 5 0.0000 0.0000 0.0000 0.0000 23.2862 0.0000
# 6 0.0000 0.0000 0.0000 0.0000 0.0000 -168.6651
#
#
#
# Elastic Compliance Matrix: (Units=1/GPa)
#
#
# Indices 1 2 3 4 5 6 
#
# 1 0.006874 -0.001930 0.000046 0.000000 0.000000 0.000000
# 2 -0.001930 0.008721 -0.000216 0.000000 0.000000 0.000000
# 3 0.000046 -0.000216 0.006464 0.000000 0.000000 0.000000
# 4 0.000000 0.000000 0.000000 0.084088 0.000000 0.000000
# 5 0.000000 0.000000 0.000000 0.000000 0.042944 0.000000
# 6 0.000000 0.000000 0.000000 0.000000 0.000000 -0.005929
#
#
# Mechanical properties :
#
#
# Convention : Reuss Voigt Hill
#
# Bulk Modulus (GPa) = 55.99327 56.52541 56.25934
# Shear Modulus (GPa) = 32.61265 -0.42450 16.09408
#
# Velocity S-wave (km/s) = 3.56576 -0.40682 2.50491
# Velocity P-wave (km/s) = 6.22760 4.67085 5.50454
#
# Compressibility (1/GPa) = 0.01785929
#
# Stress axis : x y z
#
# Youngs Moduli (GPa) = 145.48046 114.66349 154.70323
#
# Poissons Ratio (x) = 0.22129 -0.00713
# Poissons Ratio (y) = 0.28077 0.03341
# Poissons Ratio (z) = -0.00670 0.02477
#
# Static dielectric constant tensor:
#      x y z
#    x 1.973940 0.000000 0.000000 
#    y 0.000000 1.960830 0.000000 
#    z 0.000000 0.000000 2.155300 
# 
# From -- ./inp_files/11494.got.cif
#   From: 2010.05.17/outbox.cif.g08.bks.cpg/sg38_6_cif.got.tgz:11494.got - 2010.06.03 18:07:57.
