data_PCOD9359779
_publ_section_title
;
Structure prediction by ZEFSAII (Michael W. Deem and Ramdas Pophale) SiO2 
 PCOD9359779
Probable space group: A B M 2
;
_chemical_formula_sum "Si O2"
_cell_formula_units_Z 44
_cell_length_a 8.242991
_cell_length_b 23.241028
_cell_length_c 9.588616
_cell_angle_alpha 90.000000
_cell_angle_beta 90.000000
_cell_angle_gamma 90.000000
_cell_volume 1836.944716
_symmetry_space_group_name_H-M "A B M 2"
_symmetry_group_IT_number 39
_symmetry_cell_setting 'orthorhombic'
loop_
_space_group_symop_operation_xyz
x,y,z
-x,-y,z
-x,1/2+y,z
x,1/2-y,z
x,1/2+y,1/2+z
-x,1/2-y,1/2+z
-x,y,1/2+z
x,-y,1/2+z
loop_
_atom_site_type_symbol
_atom_site_label
_atom_site_fract_x
_atom_site_fract_y
_atom_site_fract_z
Si Si1 0.562460 0.750000 0.453570
Si Si2 0.499065 0.874235 0.529335
Si Si3 0.839182 0.879430 0.376347
Si Si4 0.998326 0.067219 0.131217
Si Si5 0.704645 0.876106 0.792196
Si Si6 0.833739 0.750000 0.278526
Si Si7 0.177242 0.750000 0.198192
O O1 0.470120 0.807230 0.491897
O O2 0.634919 0.750000 0.295589
O O3 0.716763 0.750000 0.558272
O O4 0.667254 0.889238 0.450572
O O5 0.545413 0.879662 0.690430
O O6 0.350278 0.899991 0.442918
O O7 0.973218 0.899124 0.487638
O O8 0.863093 0.812305 0.346161
O O9 0.856596 0.912198 0.230558
O O10 0.841051 0.084487 0.222998
O O11 0.000000 0.000000 0.103612
O O12 0.771838 0.809887 0.774952
O O13 0.983157 0.750000 0.167657
#
# Coordination Sequence:
#
# PCOD9359779 Si02
#       7
#     4   8   8   8   8   4   4
#     4   8  17  31  49  78 126 163 190 247 296 372
#     4   9  19  35  54  84 121 158 200 242 306 365
#     4  10  22  38  63  90 123 161 204 258 309 371
#     4  11  23  41  62  88 121 164 211 259 306 357
#     4  10  20  36  60  87 124 160 198 252 302 371
#     4  10  18  32  58  90 123 154 201 249 313 367
#     4  10  17  33  55  86 127 159 197 242 313 367
#
# _framework density 23.952817
#
# number of rings (size 3 to 8) (size 9 to 14) (size 15 to 20)
#    0.000    2.182    1.818    2.182    0.000    1.455 
#    0.000    0.909    0.000    4.364    0.000    0.000 
#    0.000    0.000    0.000    0.000    0.000    0.000 
#
# Total GULP energy -122693.329166 kJ/mol
# GULP energy per Si atom -5576.969508 kJ/mol
# Density = 2.389830 g / cm^3
# Si number density = 23.952817 Si / 1000 Ang^3
#
#
#
# Elastic Constant Matrix: (Units=GPa)
#
#
# Indices 1 2 3 4 5 6 
#
# 1 34.9646 -25.0804 -0.2381 0.0000 0.0000 0.0000
# 2 -25.0804 76.3193 -17.6726 0.0000 0.0000 0.0000
# 3 -0.2381 -17.6726 60.1128 0.0000 0.0000 0.0000
# 4 0.0000 0.0000 0.0000 6.3578 0.0000 0.0000
# 5 0.0000 0.0000 0.0000 0.0000 47.4733 0.0000
# 6 0.0000 0.0000 0.0000 0.0000 0.0000 0.0401
#
#
#
# Elastic Compliance Matrix: (Units=1/GPa)
#
#
# Indices 1 2 3 4 5 6 
#
# 1 0.038358 0.013564 0.004140 0.000000 0.000000 0.000000
# 2 0.013564 0.018856 0.005597 0.000000 0.000000 0.000000
# 3 0.004140 0.005597 0.018297 0.000000 0.000000 0.000000
# 4 0.000000 0.000000 0.000000 0.157288 0.000000 0.000000
# 5 0.000000 0.000000 0.000000 0.000000 0.021064 0.000000
# 6 0.000000 0.000000 0.000000 0.000000 0.000000 24.917161
#
#
# Mechanical properties :
#
#
# Convention : Reuss Voigt Hill
#
# Bulk Modulus (GPa) = 8.18910 9.49052 8.83981
# Shear Modulus (GPa) = 0.19869 25.06676 12.63272
#
# Velocity S-wave (km/s) = 0.28832 3.23848 2.29901
# Velocity P-wave (km/s) = 1.88072 4.23727 3.27808
#
# Compressibility (1/GPa) = 0.12211352
#
# Stress axis : x y z
#
# Youngs Moduli (GPa) = 26.07015 53.03232 54.65277
#
# Poissons Ratio (x) = -0.71933 -0.22624
# Poissons Ratio (y) = -0.35361 -0.30591
# Poissons Ratio (z) = -0.10792 -0.29684
#
# Static dielectric constant tensor:
#      x y z
#    x 2.030370 0.000000 0.000000 
#    y 0.000000 2.029420 0.000000 
#    z 0.000000 0.000000 1.978460 
# 
# From -- ./inp_files/5146.got.cif
#   From: 2010.05.17/outbox.cif.g08.bks.cpg/sg39_3_cif.got.tgz:5146.got - 2010.06.03 18:22:40.
