data_PCOD9359370
_publ_section_title
;
Structure prediction by ZEFSAII (Michael W. Deem and Ramdas Pophale) SiO2 
 PCOD9359370
Probable space group: A M M 2
;
_chemical_formula_sum "Si O2"
_cell_formula_units_Z 40
_cell_length_a 13.564637
_cell_length_b 15.216779
_cell_length_c 7.827255
_cell_angle_alpha 90.000000
_cell_angle_beta 90.000000
_cell_angle_gamma 90.000000
_cell_volume 1615.624358
_symmetry_space_group_name_H-M "A M M 2"
_symmetry_group_IT_number 38
_symmetry_cell_setting 'orthorhombic'
loop_
_space_group_symop_operation_xyz
x,y,z
-x,-y,z
-x,y,z
x,-y,z
x,1/2+y,1/2+z
-x,1/2-y,1/2+z
-x,1/2+y,1/2+z
x,1/2-y,1/2+z
loop_
_atom_site_type_symbol
_atom_site_label
_atom_site_fract_x
_atom_site_fract_y
_atom_site_fract_z
Si Si1 0.743279 0.907996 0.000000
Si Si2 0.882345 0.396209 0.001299
Si Si3 0.193601 0.238158 0.794615
Si Si4 0.390238 0.601521 0.831896
Si Si5 0.384030 0.836694 0.712253
O O1 0.807857 0.821016 0.970123
O O2 0.680693 0.906024 0.170528
O O3 0.800179 0.000000 0.990814
O O4 0.664031 0.904764 0.844458
O O5 0.846451 0.500000 0.998376
O O6 0.852104 0.332319 0.842224
O O7 0.848798 0.335560 0.162854
O O8 0.000000 0.401268 0.004624
O O9 0.365688 0.355501 0.014440
O O10 0.500000 0.632134 0.776983
O O11 0.399538 0.500000 0.888202
O O12 0.311462 0.756094 0.756409
O O13 0.500000 0.827832 0.740764
#
# Coordination Sequence:
#
# PCOD9359370 Si02
#       5
#     8   8   8   8   8
#     4   9  18  33  60 102 156 210 267 327 389 462
#     4  11  25  51  85 116 153 205 264 336 422 497
#     4  10  24  44  74 113 156 199 262 332 396 480
#     4   9  16  27  51  94 149 214 278 327 376 442
#     4   9  19  35  61 101 156 214 268 326 388 466
#
# _framework density 24.758230999999999
#
# number of rings (size 3 to 8) (size 9 to 14) (size 15 to 20)
#    1.200    1.200    0.000    2.400    0.000    3.600 
#    0.000    5.000    0.000    6.600    0.000    0.000 
#    0.000    1.600    0.000    0.000    0.000    0.000 
#
# Total GULP energy -111474.742611 kJ/mol
# GULP energy per Si atom -5573.737131 kJ/mol
# Density = 2.470188 g / cm^3
# Si number density = 24.758231 Si / 1000 Ang^3
#
#
#
# Elastic Constant Matrix: (Units=GPa)
#
#
# Indices 1 2 3 4 5 6 
#
# 1 87.5760 33.6937 41.4247 0.0000 0.0000 0.0000
# 2 33.6937 215.3627 53.9185 0.0000 0.0000 0.0000
# 3 41.4247 53.9185 98.0938 0.0000 0.0000 0.0000
# 4 0.0000 0.0000 0.0000 -141.8817 0.0000 0.0000
# 5 0.0000 0.0000 0.0000 0.0000 25.3894 0.0000
# 6 0.0000 0.0000 0.0000 0.0000 0.0000 27.2898
#
#
#
# Elastic Compliance Matrix: (Units=1/GPa)
#
#
# Indices 1 2 3 4 5 6 
#
# 1 0.014401 -0.000847 -0.005616 0.000000 0.000000 0.000000
# 2 -0.000847 0.005434 -0.002629 0.000000 0.000000 0.000000
# 3 -0.005616 -0.002629 0.014011 0.000000 0.000000 0.000000
# 4 0.000000 0.000000 0.000000 -0.007048 0.000000 0.000000
# 5 0.000000 0.000000 0.000000 0.000000 0.039386 0.000000
# 6 0.000000 0.000000 0.000000 0.000000 0.000000 0.036644
#
#
# Mechanical properties :
#
#
# Convention : Reuss Voigt Hill
#
# Bulk Modulus (GPa) = 63.84951 73.23404 68.54178
# Shear Modulus (GPa) = 39.60926 0.29253 19.95089
#
# Velocity S-wave (km/s) = 4.00414 0.34411 2.84179
# Velocity P-wave (km/s) = 6.87188 5.45910 6.20582
#
# Compressibility (1/GPa) = 0.01566183
#
# Stress axis : x y z
#
# Youngs Moduli (GPa) = 69.43991 184.02292 71.37209
#
# Poissons Ratio (x) = 0.15587 0.40082
# Poissons Ratio (y) = 0.05882 0.18765
# Poissons Ratio (z) = 0.38997 0.48384
#
# Static dielectric constant tensor:
#      x y z
#    x 1.975920 0.000000 0.000000 
#    y 0.000000 3.131560 0.000000 
#    z 0.000000 0.000000 2.021050 
# 
# From -- ./inp_files/5221.got.cif
#   From: 2010.05.17/outbox.cif.g08.bks.cpg/sg38_3_cif.got.tgz:5221.got - 2010.06.03 18:07:57.
