data_PCOD9359267
_publ_section_title
;
Structure prediction by ZEFSAII (Michael W. Deem and Ramdas Pophale) SiO2 
 PCOD9359267
Probable space group: A M M 2
;
_chemical_formula_sum "Si O2"
_cell_formula_units_Z 40
_cell_length_a 8.776698
_cell_length_b 11.809992
_cell_length_c 20.423112
_cell_angle_alpha 90.000000
_cell_angle_beta 90.000000
_cell_angle_gamma 90.000000
_cell_volume 2116.911379
_symmetry_space_group_name_H-M "A M M 2"
_symmetry_group_IT_number 38
_symmetry_cell_setting 'orthorhombic'
loop_
_space_group_symop_operation_xyz
x,y,z
-x,-y,z
-x,y,z
x,-y,z
x,1/2+y,1/2+z
-x,1/2-y,1/2+z
-x,1/2+y,1/2+z
x,1/2-y,1/2+z
loop_
_atom_site_type_symbol
_atom_site_label
_atom_site_fract_x
_atom_site_fract_y
_atom_site_fract_z
Si Si1 0.317844 0.214304 0.664210
Si Si2 0.818895 0.500000 0.238565
Si Si3 0.816866 0.131560 0.269301
Si Si4 0.818106 0.239056 0.901748
Si Si5 0.317936 0.367662 0.022814
Si Si6 0.680964 0.000000 0.883391
O O1 0.500000 0.200409 0.670486
O O2 0.263094 0.323826 0.703763
O O3 0.280295 0.205199 0.587415
O O4 0.234370 0.109913 0.699296
O O5 0.737891 0.500000 0.308515
O O6 0.000000 0.500000 0.248027
O O7 0.769683 0.208168 0.331563
O O8 0.000000 0.142899 0.262194
O O9 0.782756 0.000000 0.282196
O O10 0.745236 0.116215 0.912920
O O11 0.000000 0.228208 0.900032
O O12 0.767835 0.322395 0.959443
O O13 0.500000 0.359366 0.011910
O O14 0.283049 0.500000 0.035618
O O15 0.500000 0.000000 0.886670
#
# Coordination Sequence:
#
# PCOD9359267 Si02
#       6
#     8   4   8   8   8   4
#     4  11  22  39  63  91 122 160 203 251 302 358
#     4  12  22  36  62  94 124 155 196 251 306 360
#     4  10  22  40  61  88 124 161 200 251 304 360
#     4  11  23  40  63  92 122 159 204 251 303 363
#     4  10  22  41  62  88 123 162 205 251 301 360
#     4  12  24  40  64  92 122 159 200 251 306 362
#
# _framework density 18.895454000000001
#
# number of rings (size 3 to 8) (size 9 to 14) (size 15 to 20)
#    0.000    1.200    3.000    3.600    0.000    4.000 
#    1.800    0.000    0.000    0.000    0.000    0.000 
#    0.000    0.000    0.000    0.000    0.000    0.000 
#
# Total GULP energy -111786.842013 kJ/mol
# GULP energy per Si atom -5589.342101 kJ/mol
# Density = 1.885245 g / cm^3
# Si number density = 18.895454 Si / 1000 Ang^3
#
#
#
# Elastic Constant Matrix: (Units=GPa)
#
#
# Indices 1 2 3 4 5 6 
#
# 1 58.5931 35.3954 35.6653 0.0000 0.0000 0.0000
# 2 35.3954 91.5618 26.4805 0.0000 0.0000 0.0000
# 3 35.6653 26.4805 90.4573 0.0000 0.0000 0.0000
# 4 0.0000 0.0000 0.0000 34.9058 0.0000 0.0000
# 5 0.0000 0.0000 0.0000 0.0000 13.7825 0.0000
# 6 0.0000 0.0000 0.0000 0.0000 0.0000 32.6995
#
#
#
# Elastic Compliance Matrix: (Units=1/GPa)
#
#
# Indices 1 2 3 4 5 6 
#
# 1 0.026954 -0.008026 -0.008278 0.000000 0.000000 0.000000
# 2 -0.008026 0.014321 -0.001028 0.000000 0.000000 0.000000
# 3 -0.008278 -0.001028 0.014620 0.000000 0.000000 0.000000
# 4 0.000000 0.000000 0.000000 0.028649 0.000000 0.000000
# 5 0.000000 0.000000 0.000000 0.000000 0.072556 0.000000
# 6 0.000000 0.000000 0.000000 0.000000 0.000000 0.030582
#
#
# Mechanical properties :
#
#
# Convention : Reuss Voigt Hill
#
# Bulk Modulus (GPa) = 47.09942 48.41051 47.75497
# Shear Modulus (GPa) = 21.79401 25.81563 23.80482
#
# Velocity S-wave (km/s) = 3.39986 3.70027 3.55324
# Velocity P-wave (km/s) = 6.35551 6.62811 6.49324
#
# Compressibility (1/GPa) = 0.02123168
#
# Stress axis : x y z
#
# Youngs Moduli (GPa) = 37.10070 69.82555 68.40094
#
# Poissons Ratio (x) = 0.56039 0.56621
# Poissons Ratio (y) = 0.29775 0.07033
# Poissons Ratio (z) = 0.30711 0.07179
#
# Static dielectric constant tensor:
#      x y z
#    x 1.631640 0.000000 0.000000 
#    y 0.000000 1.652630 0.000000 
#    z 0.000000 0.000000 1.634150 
# 
# From -- ./inp_files/19518.got.cif
#   From: 2010.05.17/outbox.cif.g08.bks.cpg/sg38_10_cif.got.tgz:19518.got - 2010.06.03 18:07:57.
