data_PCOD9359900
_publ_section_title
;
Structure prediction by ZEFSAII (Michael W. Deem and Ramdas Pophale) SiO2 
 PCOD9359900
Probable space group: A B M 2
;
_chemical_formula_sum "Si O2"
_cell_formula_units_Z 60
_cell_length_a 15.721967
_cell_length_b 29.802073
_cell_length_c 5.429690
_cell_angle_alpha 90.000000
_cell_angle_beta 90.000000
_cell_angle_gamma 90.000000
_cell_volume 2544.066091
_symmetry_space_group_name_H-M "A B M 2"
_symmetry_group_IT_number 39
_symmetry_cell_setting 'orthorhombic'
loop_
_space_group_symop_operation_xyz
x,y,z
-x,-y,z
-x,1/2+y,z
x,1/2-y,z
x,1/2+y,1/2+z
-x,1/2-y,1/2+z
-x,y,1/2+z
x,-y,1/2+z
loop_
_atom_site_type_symbol
_atom_site_label
_atom_site_fract_x
_atom_site_fract_y
_atom_site_fract_z
Si Si1 0.557238 0.750000 0.911031
Si Si2 0.874035 0.516686 0.733709
Si Si3 0.682655 0.482014 0.811041
Si Si4 0.945521 0.893311 0.571697
Si Si5 0.338264 0.842413 0.441067
Si Si6 0.944275 0.297498 0.146960
Si Si7 0.506169 0.589251 0.972992
Si Si8 0.321975 0.623069 0.935565
O O1 0.500768 0.750000 0.659893
O O2 0.616008 0.705428 0.915207
O O3 0.911324 0.486283 0.510887
O O4 0.777372 0.502131 0.775444
O O5 0.883288 0.565915 0.624332
O O6 0.643999 0.491214 0.541715
O O7 0.691358 0.429774 0.883212
O O8 0.901518 0.845195 0.607566
O O9 0.985504 0.895916 0.297245
O O10 0.409806 0.881236 0.469508
O O11 0.291194 0.848143 0.702112
O O12 0.290695 0.857257 0.193866
O O13 0.896626 0.250000 0.125755
O O14 0.987854 0.297644 0.418341
O O15 0.501555 0.562781 0.722658
O O16 0.426182 0.624108 0.963411
#
# Coordination Sequence:
#
# PCOD9359900 Si02
#       8
#     4   8   8   8   8   8   8   8
#     4  12  20  30  48  78 116 148 176 208 264 334
#     4  10  21  35  50  72 105 132 174 224 262 318
#     4  10  21  37  55  73  95 125 179 235 270 307
#     4  10  19  30  48  75 107 145 172 200 264 322
#     4  10  19  30  48  74 106 139 169 207 262 323
#     4   8  14  25  41  64  98 135 169 198 229 287
#     4   8  14  25  41  62  88 123 153 188 240 295
#     4  10  18  32  51  69  96 134 175 216 261 317
#
# _framework density 23.584292999999999
#
# number of rings (size 3 to 8) (size 9 to 14) (size 15 to 20)
#    0.000    2.400    0.000    4.800    0.000    1.600 
#    0.000    0.000    0.000   21.600    0.000    0.000 
#   48.000    0.000    0.000    0.000    0.000    0.000 
#
# Total GULP energy -167259.924373 kJ/mol
# GULP energy per Si atom -5575.330812 kJ/mol
# Density = 2.353061 g / cm^3
# Si number density = 23.584293 Si / 1000 Ang^3
#
#
#
# Elastic Constant Matrix: (Units=GPa)
#
#
# Indices 1 2 3 4 5 6 
#
# 1 44.1780 4.7232 0.9831 0.0000 0.0000 0.0000
# 2 4.7232 137.6651 7.0700 0.0000 0.0000 0.0000
# 3 0.9831 7.0700 237.9230 0.0000 0.0000 0.0000
# 4 0.0000 0.0000 0.0000 35.1801 0.0000 0.0000
# 5 0.0000 0.0000 0.0000 0.0000 5.6955 0.0000
# 6 0.0000 0.0000 0.0000 0.0000 0.0000 -10.9543
#
#
#
# Elastic Compliance Matrix: (Units=1/GPa)
#
#
# Indices 1 2 3 4 5 6 
#
# 1 0.022720 -0.000776 -0.000071 0.000000 0.000000 0.000000
# 2 -0.000776 0.007302 -0.000214 0.000000 0.000000 0.000000
# 3 -0.000071 -0.000214 0.004210 0.000000 0.000000 0.000000
# 4 0.000000 0.000000 0.000000 0.028425 0.000000 0.000000
# 5 0.000000 0.000000 0.000000 0.000000 0.175577 0.000000
# 6 0.000000 0.000000 0.000000 0.000000 0.000000 -0.091289
#
#
# Mechanical properties :
#
#
# Convention : Reuss Voigt Hill
#
# Bulk Modulus (GPa) = 31.14237 49.47985 40.31111
# Shear Modulus (GPa) = 31.29515 33.11692 32.20604
#
# Velocity S-wave (km/s) = 3.64668 3.75132 3.69937
# Velocity P-wave (km/s) = 5.56457 6.30783 5.94782
#
# Compressibility (1/GPa) = 0.03211059
#
# Stress axis : x y z
#
# Youngs Moduli (GPa) = 44.01361 136.95623 237.54745
#
# Poissons Ratio (x) = 0.10626 0.01682
# Poissons Ratio (y) = 0.03415 0.05078
# Poissons Ratio (z) = 0.00312 0.02928
#
# Static dielectric constant tensor:
#      x y z
#    x 2.022470 0.000000 0.000000 
#    y 0.000000 1.862390 0.000000 
#    z 0.000000 0.000000 2.066190 
# 
# From -- ./inp_files/875.got.cif
#   From: 2010.05.17/outbox.cif.g08.bks.cpg/sg39_1_cif.got.tgz:875.got - 2010.06.03 18:22:40.
