data_PCOD9359498
_publ_section_title
;
Structure prediction by ZEFSAII (Michael W. Deem and Ramdas Pophale) SiO2 
 PCOD9359498
Probable space group: A M M 2
;
_chemical_formula_sum "Si O2"
_cell_formula_units_Z 40
_cell_length_a 9.436817
_cell_length_b 7.395698
_cell_length_c 27.721066
_cell_angle_alpha 90.000000
_cell_angle_beta 90.000000
_cell_angle_gamma 90.000000
_cell_volume 1934.704442
_symmetry_space_group_name_H-M "A M M 2"
_symmetry_group_IT_number 38
_symmetry_cell_setting 'orthorhombic'
loop_
_space_group_symop_operation_xyz
x,y,z
-x,-y,z
-x,y,z
x,-y,z
x,1/2+y,1/2+z
-x,1/2-y,1/2+z
-x,1/2+y,1/2+z
x,1/2-y,1/2+z
loop_
_atom_site_type_symbol
_atom_site_label
_atom_site_fract_x
_atom_site_fract_y
_atom_site_fract_z
Si Si1 0.172406 0.286779 0.703400
Si Si2 0.163098 0.217124 0.100102
Si Si3 0.835526 0.778933 0.308735
Si Si4 0.337419 0.721263 0.902519
Si Si5 0.161541 0.785068 0.494493
O O1 0.207138 0.500000 0.704180
O O2 0.223390 0.215467 0.651375
O O3 0.215428 0.215038 0.755821
O O4 0.000000 0.272909 0.702402
O O5 0.000000 0.283766 0.097262
O O6 0.157992 0.000000 0.103889
O O7 0.226434 0.257308 0.047808
O O8 0.742278 0.721468 0.353863
O O9 0.000000 0.726637 0.315183
O O10 0.834104 0.000000 0.307685
O O11 0.500000 0.778187 0.903061
O O12 0.336064 0.500000 0.902648
O O13 0.254192 0.783185 0.950154
O O14 0.000000 0.712039 0.493619
O O15 0.150824 0.000000 0.488035
#
# Coordination Sequence:
#
# PCOD9359498 Si02
#       5
#     8   8   8   8   8
#     4   7  10  17  31  52  74  93 116 149 187 223
#     4   8  13  22  37  57  79 101 125 153 185 222
#     4   8  12  19  33  52  72  93 119 153 190 225
#     4   9  16  24  34  50  74 102 128 155 189 226
#     4   9  16  25  38  57  79 101 126 156 187 219
#
# _framework density 20.674994000000002
#
# number of rings (size 3 to 8) (size 9 to 14) (size 15 to 20)
#    0.000    3.800    0.000    3.000    0.000    2.400 
#    0.000    0.000    0.000    1.800    0.000    4.200 
#    0.000    8.000    0.000    0.000    0.000    0.000 
#
# Total GULP energy -111342.397336 kJ/mol
# GULP energy per Si atom -5567.119867 kJ/mol
# Density = 2.062794 g / cm^3
# Si number density = 20.674994 Si / 1000 Ang^3
#
#
#
# Elastic Constant Matrix: (Units=GPa)
#
#
# Indices 1 2 3 4 5 6 
#
# 1 63.6179 3.6718 91.0328 0.0000 0.0000 0.0000
# 2 3.6718 69.2268 7.2368 0.0000 0.0000 0.0000
# 3 91.0328 7.2368 289.0586 0.0000 0.0000 0.0000
# 4 0.0000 0.0000 0.0000 10.8398 0.0000 0.0000
# 5 0.0000 0.0000 0.0000 0.0000 -5.0940 0.0000
# 6 0.0000 0.0000 0.0000 0.0000 0.0000 -7.4655
#
#
#
# Elastic Compliance Matrix: (Units=1/GPa)
#
#
# Indices 1 2 3 4 5 6 
#
# 1 0.028636 -0.000578 -0.009004 0.000000 0.000000 0.000000
# 2 -0.000578 0.014495 -0.000181 0.000000 0.000000 0.000000
# 3 -0.009004 -0.000181 0.006300 0.000000 0.000000 0.000000
# 4 0.000000 0.000000 0.000000 0.092252 0.000000 0.000000
# 5 0.000000 0.000000 0.000000 0.000000 -0.196311 0.000000
# 6 0.000000 0.000000 0.000000 0.000000 0.000000 -0.133949
#
#
# Mechanical properties :
#
#
# Convention : Reuss Voigt Hill
#
# Bulk Modulus (GPa) = 33.43856 69.53177 51.48516
# Shear Modulus (GPa) = -31.42995 20.98687 -5.22154
#
# Velocity S-wave (km/s) = -3.90319 3.18950 -1.59092
# Velocity P-wave (km/s) = 2.02600 6.87515 4.64559
#
# Compressibility (1/GPa) = 0.02990560
#
# Stress axis : x y z
#
# Youngs Moduli (GPa) = 34.92099 68.99008 158.74008
#
# Poissons Ratio (x) = 0.03985 1.42927
# Poissons Ratio (y) = 0.02017 0.02873
# Poissons Ratio (z) = 0.31442 0.01249
#
# Static dielectric constant tensor:
#      x y z
#    x 1.673140 0.000000 0.000000 
#    y 0.000000 1.838580 0.000000 
#    z 0.000000 0.000000 1.798090 
# 
# From -- ./inp_files/19457.got.cif
#   From: 2010.05.17/outbox.cif.g08.bks.cpg/sg38_10_cif.got.tgz:19457.got - 2010.06.03 18:07:57.
