data_PCOD9359180
_publ_section_title
;
Structure prediction by ZEFSAII (Michael W. Deem and Ramdas Pophale) SiO2 
 PCOD9359180
Probable space group: A M M 2
;
_chemical_formula_sum "Si O2"
_cell_formula_units_Z 34
_cell_length_a 7.903279
_cell_length_b 22.989485
_cell_length_c 8.355662
_cell_angle_alpha 90.000000
_cell_angle_beta 90.000000
_cell_angle_gamma 90.000000
_cell_volume 1518.159564
_symmetry_space_group_name_H-M "A M M 2"
_symmetry_group_IT_number 38
_symmetry_cell_setting 'orthorhombic'
loop_
_space_group_symop_operation_xyz
x,y,z
-x,-y,z
-x,y,z
x,-y,z
x,1/2+y,1/2+z
-x,1/2-y,1/2+z
-x,1/2+y,1/2+z
x,1/2-y,1/2+z
loop_
_atom_site_type_symbol
_atom_site_label
_atom_site_fract_x
_atom_site_fract_y
_atom_site_fract_z
Si Si1 0.201602 0.563325 0.678400
Si Si2 0.201181 0.415396 0.301181
Si Si3 0.685148 0.185603 0.302109
Si Si4 0.188569 0.295942 0.141246
Si Si5 0.500000 0.500000 0.192880
O O1 0.269212 0.500000 0.729799
O O2 0.230159 0.570048 0.487992
O O3 0.273837 0.618877 0.766924
O O4 0.000000 0.563479 0.702853
O O5 0.221394 0.346591 0.269803
O O6 0.346256 0.449844 0.205497
O O7 0.000000 0.429362 0.266041
O O8 0.500000 0.198419 0.237237
O O9 0.803166 0.232378 0.216438
O O10 0.692865 0.196801 0.490043
O O11 0.000000 0.306685 0.077001
#
# Coordination Sequence:
#
# PCOD9359180 Si02
#       5
#     8   8   8   8   2
#     4  10  21  42  66  93 130 175 219 260 316 391
#     4  10  23  41  67  99 131 174 224 266 321 395
#     4  12  26  41  67  98 132 162 216 276 328 388
#     4  11  24  46  69  92 127 173 219 265 326 394
#     4  12  22  36  72  92 144 168 216 270 332 382
#
# _framework density 22.395537999999998
#
# number of rings (size 3 to 8) (size 9 to 14) (size 15 to 20)
#    0.000    1.176    1.176    4.588    4.941    2.353 
#    2.118    0.000    0.000    0.000    0.000    0.000 
#    0.000    0.000    0.000    0.000    0.000    0.000 
#
# Total GULP energy -94742.236240 kJ/mol
# GULP energy per Si atom -5573.072720 kJ/mol
# Density = 2.234457 g / cm^3
# Si number density = 22.395538 Si / 1000 Ang^3
#
#
#
# Elastic Constant Matrix: (Units=GPa)
#
#
# Indices 1 2 3 4 5 6 
#
# 1 86.9515 30.0216 5.9347 0.0000 0.0000 0.0000
# 2 30.0216 171.4707 44.0790 0.0000 0.0000 0.0000
# 3 5.9347 44.0790 38.0053 0.0000 0.0000 0.0000
# 4 0.0000 0.0000 0.0000 11.1164 0.0000 0.0000
# 5 0.0000 0.0000 0.0000 0.0000 11.2530 0.0000
# 6 0.0000 0.0000 0.0000 0.0000 0.0000 35.9724
#
#
#
# Elastic Compliance Matrix: (Units=1/GPa)
#
#
# Indices 1 2 3 4 5 6 
#
# 1 0.012259 -0.002357 0.000819 0.000000 0.000000 0.000000
# 2 -0.002357 0.008762 -0.009795 0.000000 0.000000 0.000000
# 3 0.000819 -0.009795 0.037544 0.000000 0.000000 0.000000
# 4 0.000000 0.000000 0.000000 0.089957 0.000000 0.000000
# 5 0.000000 0.000000 0.000000 0.000000 0.088865 0.000000
# 6 0.000000 0.000000 0.000000 0.000000 0.000000 0.027799
#
#
# Mechanical properties :
#
#
# Convention : Reuss Voigt Hill
#
# Bulk Modulus (GPa) = 27.85471 50.72202 39.28837
# Shear Modulus (GPa) = 16.67679 26.09450 21.38565
#
# Velocity S-wave (km/s) = 2.73178 3.41715 3.09351
# Velocity P-wave (km/s) = 4.73443 6.18601 5.50824
#
# Compressibility (1/GPa) = 0.03590057
#
# Stress axis : x y z
#
# Youngs Moduli (GPa) = 81.57604 114.12360 26.63523
#
# Poissons Ratio (x) = 0.26897 -0.02182
# Poissons Ratio (y) = 0.19226 0.26089
# Poissons Ratio (z) = -0.06684 1.11781
#
# Static dielectric constant tensor:
#      x y z
#    x 1.818350 0.000000 0.000000 
#    y 0.000000 1.839240 0.000000 
#    z 0.000000 0.000000 1.784700 
# 
# From -- ./inp_files/3134.got.cif
#   From: 2010.05.17/outbox.cif.g08.bks.cpg/sg38_2_cif.got.tgz:3134.got - 2010.06.03 18:07:57.
