data_PCOD9359648
_publ_section_title
;
Structure prediction by ZEFSAII (Michael W. Deem and Ramdas Pophale) SiO2 
 PCOD9359648
Probable space group: A M M 2
;
_chemical_formula_sum "Si O2"
_cell_formula_units_Z 32
_cell_length_a 24.000000
_cell_length_b 9.000000
_cell_length_c 15.000000
_cell_angle_alpha 90.000000
_cell_angle_beta 90.000000
_cell_angle_gamma 90.000000
_cell_volume 3240.000000
_symmetry_space_group_name_H-M "A M M 2"
_symmetry_group_IT_number 38
_symmetry_cell_setting 'orthorhombic'
loop_
_space_group_symop_operation_xyz
x,y,z
-x,-y,z
-x,y,z
x,-y,z
x,1/2+y,1/2+z
-x,1/2-y,1/2+z
-x,1/2+y,1/2+z
x,1/2-y,1/2+z
loop_
_atom_site_type_symbol
_atom_site_label
_atom_site_fract_x
_atom_site_fract_y
_atom_site_fract_z
Si Si1 0.247260 0.324552 0.242210
Si Si2 0.434921 0.825151 0.329186
Si Si3 0.063665 0.321454 0.327074
Si Si4 0.133781 0.173818 0.180226
Si Si5 0.368454 0.674349 0.172376
Si Si6 0.380814 0.676439 0.492504
Si Si7 0.152140 0.174235 0.979169
Si Si8 0.265657 0.323328 0.932136
O O1 0.241829 0.500000 0.264137
O O2 0.190215 0.263650 0.201770
O O3 0.301522 0.308884 0.180142
O O4 0.259327 0.229001 0.330138
O O5 0.500000 0.809341 0.306572
O O6 0.396411 0.731411 0.262786
O O7 0.422611 0.759998 0.426471
O O8 0.420268 0.000000 0.325805
O O9 0.066459 0.500000 0.315948
O O10 0.084311 0.241220 0.238202
O O11 0.108690 0.281454 0.402796
O O12 0.000000 0.282983 0.350012
O O13 0.142267 0.000000 0.202336
O O14 0.123835 0.185856 0.075177
O O15 0.379996 0.500000 0.158055
O O16 0.391589 0.774479 0.093227
O O17 0.383207 0.500000 0.480534
O O18 0.319180 0.737941 0.469753
O O19 0.208148 0.270374 0.976813
O O20 0.167376 0.000000 0.965340
O O21 0.273192 0.500000 0.940236
#
# Coordination Sequence:
#
# PCOD9359648 Si02
#       8
#     8   8   8   8   8   8   8   8
#     4  11  22  38  62  92 127 165 202 247 311 378
#     4  11  25  45  68  94 126 166 214 266 317 372
#     4  10  22  41  63  85 116 163 210 255 308 365
#     4  11  23  38  61  93 123 159 203 253 306 362
#     4  11  24  42  67  97 129 167 209 258 316 376
#     4  12  25  42  66  95 130 170 211 258 314 374
#     4  10  22  40  62  89 125 162 202 248 308 376
#     4  12  23  37  63  95 128 162 204 254 311 373
#
# _framework density 9.8765429999999999
#
# number of rings (size 3 to 8) (size 9 to 14) (size 15 to 20)
#    0.000    1.000    2.500    4.500    0.000    6.750 
#    0.000    1.250    0.000    0.000    0.000    0.000 
#    0.000    0.000    0.000    0.000    0.000    0.000 
#
# Total GULP energy -178955.869656 kJ/mol
# GULP energy per Si atom -5592.370927 kJ/mol
# Density = 0.985406 g / cm^3
# Si number density = 9.876543 Si / 1000 Ang^3
#
#
#
# Elastic Constant Matrix: (Units=GPa)
#
#
# Indices 1 2 3 4 5 6 
#
# 1 57.1436 17.1934 -12.3452 0.0000 0.0000 0.0000
# 2 17.1934 72.5702 -8.5082 0.0000 0.0000 0.0000
# 3 -12.3452 -8.5082 47.3488 0.0000 0.0000 0.0000
# 4 0.0000 0.0000 0.0000 31.8022 0.0000 0.0000
# 5 0.0000 0.0000 0.0000 0.0000 4.0874 0.0000
# 6 0.0000 0.0000 0.0000 0.0000 0.0000 30.0636
#
#
#
# Elastic Compliance Matrix: (Units=1/GPa)
#
#
# Indices 1 2 3 4 5 6 
#
# 1 0.019697 -0.004152 0.004390 0.000000 0.000000 0.000000
# 2 -0.004152 0.014952 0.001604 0.000000 0.000000 0.000000
# 3 0.004390 0.001604 0.022553 0.000000 0.000000 0.000000
# 4 0.000000 0.000000 0.000000 0.031444 0.000000 0.000000
# 5 0.000000 0.000000 0.000000 0.000000 0.244655 0.000000
# 6 0.000000 0.000000 0.000000 0.000000 0.000000 0.033263
#
#
# Mechanical properties :
#
#
# Convention : Reuss Voigt Hill
#
# Bulk Modulus (GPa) = 16.42448 18.86029 17.64238
# Shear Modulus (GPa) = 13.04884 25.23881 19.14383
#
# Velocity S-wave (km/s) = 2.57300 3.57839 3.11650
# Velocity P-wave (km/s) = 4.14247 5.16158 4.67985
#
# Compressibility (1/GPa) = 0.06088474
#
# Stress axis : x y z
#
# Youngs Moduli (GPa) = 50.76822 66.88276 44.34075
#
# Poissons Ratio (x) = 0.27770 -0.19464
# Poissons Ratio (y) = 0.21079 -0.07113
# Poissons Ratio (z) = -0.22285 -0.10729
#
# Static dielectric constant tensor:
#      x y z
#    x 1.672470 0.000000 0.000000 
#    y 0.000000 1.656330 0.000000 
#    z 0.000000 0.000000 1.711860 
# 
# From -- ./inp_files/15888.got.cif
#   From: 2010.05.17/outbox.ucp.g08.bks.cvg/sg38_8_cif.got.tgz:15888.got - 2010.06.11 10:39:43.
