data_PCOD9359461
_publ_section_title
;
Structure prediction by ZEFSAII (Michael W. Deem and Ramdas Pophale) SiO2 
 PCOD9359461
Probable space group: A M M 2
;
_chemical_formula_sum "Si O2"
_cell_formula_units_Z 40
_cell_length_a 9.182387
_cell_length_b 7.662742
_cell_length_c 30.863913
_cell_angle_alpha 90.000000
_cell_angle_beta 90.000000
_cell_angle_gamma 90.000000
_cell_volume 2171.654749
_symmetry_space_group_name_H-M "A M M 2"
_symmetry_group_IT_number 38
_symmetry_cell_setting 'orthorhombic'
loop_
_space_group_symop_operation_xyz
x,y,z
-x,-y,z
-x,y,z
x,-y,z
x,1/2+y,1/2+z
-x,1/2-y,1/2+z
-x,1/2+y,1/2+z
x,1/2-y,1/2+z
loop_
_atom_site_type_symbol
_atom_site_label
_atom_site_fract_x
_atom_site_fract_y
_atom_site_fract_z
Si Si1 0.677018 0.500000 0.297320
Si Si2 0.676000 0.000000 0.897930
Si Si3 0.163757 0.709321 0.051455
Si Si4 0.823645 0.206877 0.455154
Si Si5 0.321894 0.701047 0.732302
Si Si6 0.663696 0.209096 0.137974
O O1 0.500000 0.500000 0.296686
O O2 0.719365 0.500000 0.347349
O O3 0.724369 0.670148 0.270355
O O4 0.742898 0.830402 0.921426
O O5 0.500000 0.000000 0.901067
O O6 0.155859 0.500000 0.048791
O O7 0.251587 0.752883 0.094274
O O8 0.000000 0.778693 0.056005
O O9 0.221148 0.762873 0.004152
O O10 0.000000 0.226898 0.452634
O O11 0.792474 0.000000 0.449211
O O12 0.500000 0.701831 0.730600
O O13 0.277155 0.500000 0.739159
O O14 0.273737 0.766419 0.684548
O O15 0.500000 0.279397 0.133689
O O16 0.655309 0.000000 0.142212
#
# Coordination Sequence:
#
# PCOD9359461 Si02
#       6
#     4   4   8   8   8   8
#     4   9  18  31  49  75 105 141 177 211 270 333
#     4  11  23  35  55  89 117 137 177 241 296 327
#     4   9  19  34  51  73 100 135 179 217 255 312
#     4   9  20  40  60  76 104 150 195 226 265 335
#     4   8  15  29  47  69 102 140 175 209 249 314
#     4   9  18  30  47  76 107 134 169 212 258 308
#
# _framework density 18.419132999999999
#
# number of rings (size 3 to 8) (size 9 to 14) (size 15 to 20)
#    0.000    3.000    0.000    2.700    2.800    2.800 
#    0.000    4.000    0.000    2.400    0.000    0.000 
#    0.000    0.000    0.000    0.000    0.000    0.000 
#
# Total GULP energy -111427.260028 kJ/mol
# GULP energy per Si atom -5571.363001 kJ/mol
# Density = 1.837721 g / cm^3
# Si number density = 18.419133 Si / 1000 Ang^3
#
#
#
# Elastic Constant Matrix: (Units=GPa)
#
#
# Indices 1 2 3 4 5 6 
#
# 1 26.3690 26.4053 53.7374 0.0000 0.0000 0.0000
# 2 26.4053 90.1177 82.9668 0.0000 0.0000 0.0000
# 3 53.7374 82.9668 222.9476 0.0000 0.0000 0.0000
# 4 0.0000 0.0000 0.0000 35.9475 0.0000 0.0000
# 5 0.0000 0.0000 0.0000 0.0000 -77.9543 0.0000
# 6 0.0000 0.0000 0.0000 0.0000 0.0000 22.1817
#
#
#
# Elastic Compliance Matrix: (Units=1/GPa)
#
#
# Indices 1 2 3 4 5 6 
#
# 1 0.078594 -0.008501 -0.015780 0.000000 0.000000 0.000000
# 2 -0.008501 0.017799 -0.004575 0.000000 0.000000 0.000000
# 3 -0.015780 -0.004575 0.009991 0.000000 0.000000 0.000000
# 4 0.000000 0.000000 0.000000 0.027818 0.000000 0.000000
# 5 0.000000 0.000000 0.000000 0.000000 -0.012828 0.000000
# 6 0.000000 0.000000 0.000000 0.000000 0.000000 0.045082
#
#
# Mechanical properties :
#
#
# Convention : Reuss Voigt Hill
#
# Bulk Modulus (GPa) = 20.54515 73.96149 47.25332
# Shear Modulus (GPa) = 20.79927 7.78999 14.29463
#
# Velocity S-wave (km/s) = 3.36403 2.05876 2.78883
# Velocity P-wave (km/s) = 5.12518 6.77445 6.00669
#
# Compressibility (1/GPa) = 0.04867328
#
# Stress axis : x y z
#
# Youngs Moduli (GPa) = 12.72358 56.18259 100.08665
#
# Poissons Ratio (x) = 0.47759 1.57940
# Poissons Ratio (y) = 0.10816 0.45787
# Poissons Ratio (z) = 0.20078 0.25702
#
# Static dielectric constant tensor:
#      x y z
#    x 1.641170 0.000000 0.000000 
#    y 0.000000 1.647780 0.000000 
#    z 0.000000 0.000000 1.651110 
# 
# From -- ./inp_files/23200.got.cif
#   From: 2010.05.17/outbox.cif.g08.bks.cpg/sg38_12_cif.got.tgz:23200.got - 2010.06.03 18:07:57.
