data_PCOD9359145
_publ_section_title
;
Structure prediction by ZEFSAII (Michael W. Deem and Ramdas Pophale) SiO2 
 PCOD9359145
Probable space group: A M M 2
;
_chemical_formula_sum "Si O2"
_cell_formula_units_Z 48
_cell_length_a 17.703429
_cell_length_b 8.748686
_cell_length_c 15.607467
_cell_angle_alpha 90.000000
_cell_angle_beta 90.000000
_cell_angle_gamma 90.000000
_cell_volume 2417.311668
_symmetry_space_group_name_H-M "A M M 2"
_symmetry_group_IT_number 38
_symmetry_cell_setting 'orthorhombic'
loop_
_space_group_symop_operation_xyz
x,y,z
-x,-y,z
-x,y,z
x,-y,z
x,1/2+y,1/2+z
-x,1/2-y,1/2+z
-x,1/2+y,1/2+z
x,1/2-y,1/2+z
loop_
_atom_site_type_symbol
_atom_site_label
_atom_site_fract_x
_atom_site_fract_y
_atom_site_fract_z
Si Si1 0.343271 0.328180 0.888070
Si Si2 0.645806 0.327107 0.683859
Si Si3 0.500000 0.175819 0.941227
Si Si4 0.500000 0.824214 0.618183
Si Si5 0.814359 0.818002 0.876409
Si Si6 0.813393 0.815688 0.184260
Si Si7 0.089298 0.317430 0.030376
O O1 0.337158 0.500000 0.924046
O O2 0.343824 0.338893 0.785504
O O3 0.423021 0.255267 0.911460
O O4 0.269237 0.230790 0.909133
O O5 0.629451 0.500000 0.651571
O O6 0.576984 0.213628 0.667591
O O7 0.728189 0.275463 0.652235
O O8 0.500000 0.000000 0.915609
O O9 0.500000 0.203339 0.041950
O O10 0.500000 0.000000 0.589073
O O11 0.824937 0.751112 0.780080
O O12 0.819756 0.000000 0.872678
O O13 0.873081 0.750947 0.944754
O O14 0.871724 0.753787 0.114562
O O15 0.816379 0.000000 0.189703
O O16 0.100806 0.500000 0.030997
O O17 0.000000 0.286221 0.031146
#
# Coordination Sequence:
#
# PCOD9359145 Si02
#       7
#     8   8   4   4   8   8   8
#     4  10  21  40  63  87 119 159 205 254 309 367
#     4   9  20  39  61  84 116 156 198 249 305 363
#     4  12  25  38  55  83 121 161 207 256 307 364
#     4  12  25  36  53  83 119 161 205 252 303 358
#     4  11  23  41  67  97 130 169 213 261 318 381
#     4  10  22  42  68  96 128 167 212 263 321 379
#     4  11  25  44  67  96 130 168 210 260 319 383
#
# _framework density 19.856769
#
# number of rings (size 3 to 8) (size 9 to 14) (size 15 to 20)
#    0.000    1.500    0.000    6.000    2.333    8.000 
#    0.000    0.000    0.000    0.000    0.000    0.000 
#    0.000    0.000    0.000    0.000    0.000    0.000 
#
# Total GULP energy -134069.928883 kJ/mol
# GULP energy per Si atom -5586.247037 kJ/mol
# Density = 1.981157 g / cm^3
# Si number density = 19.856769 Si / 1000 Ang^3
#
#
#
# Elastic Constant Matrix: (Units=GPa)
#
#
# Indices 1 2 3 4 5 6 
#
# 1 167.7535 87.0868 69.0554 0.0000 0.0000 0.0000
# 2 87.0868 118.9009 43.7501 0.0000 0.0000 0.0000
# 3 69.0554 43.7501 79.8036 0.0000 0.0000 0.0000
# 4 0.0000 0.0000 0.0000 37.5664 0.0000 0.0000
# 5 0.0000 0.0000 0.0000 0.0000 38.8042 0.0000
# 6 0.0000 0.0000 0.0000 0.0000 0.0000 32.8418
#
#
#
# Elastic Compliance Matrix: (Units=1/GPa)
#
#
# Indices 1 2 3 4 5 6 
#
# 1 0.012126 -0.006289 -0.007045 0.000000 0.000000 0.000000
# 2 -0.006289 0.013798 -0.002122 0.000000 0.000000 0.000000
# 3 -0.007045 -0.002122 0.019790 0.000000 0.000000 0.000000
# 4 0.000000 0.000000 0.000000 0.026620 0.000000 0.000000
# 5 0.000000 0.000000 0.000000 0.000000 0.025770 0.000000
# 6 0.000000 0.000000 0.000000 0.000000 0.000000 0.030449
#
#
# Mechanical properties :
#
#
# Convention : Reuss Voigt Hill
#
# Bulk Modulus (GPa) = 67.56074 85.13809 76.34941
# Shear Modulus (GPa) = 30.41369 32.94687 31.68028
#
# Velocity S-wave (km/s) = 3.91788 4.07778 3.99863
# Velocity P-wave (km/s) = 7.38676 8.07095 7.73642
#
# Compressibility (1/GPa) = 0.01480150
#
# Stress axis : x y z
#
# Youngs Moduli (GPa) = 82.46556 72.47599 50.52993
#
# Poissons Ratio (x) = 0.45583 0.35599
# Poissons Ratio (y) = 0.51866 0.10722
# Poissons Ratio (z) = 0.58098 0.15378
#
# Static dielectric constant tensor:
#      x y z
#    x 1.790480 0.000000 0.000000 
#    y 0.000000 1.664750 0.000000 
#    z 0.000000 0.000000 1.702290 
# 
# From -- ./inp_files/15068.got.cif
#   From: 2010.05.17/outbox.cif.g08.bks.cpg/sg38_8_cif.got.tgz:15068.got - 2010.06.03 18:07:57.
