data_PCOD9359120
_publ_section_title
;
Structure prediction by ZEFSAII (Michael W. Deem and Ramdas Pophale) SiO2 
 PCOD9359120
Probable space group: A M M 2
;
_chemical_formula_sum "Si O2"
_cell_formula_units_Z 56
_cell_length_a 9.022255
_cell_length_b 21.132110
_cell_length_c 15.390254
_cell_angle_alpha 90.000000
_cell_angle_beta 90.000000
_cell_angle_gamma 90.000000
_cell_volume 2934.294825
_symmetry_space_group_name_H-M "A M M 2"
_symmetry_group_IT_number 38
_symmetry_cell_setting 'orthorhombic'
loop_
_space_group_symop_operation_xyz
x,y,z
-x,-y,z
-x,y,z
x,-y,z
x,1/2+y,1/2+z
-x,1/2-y,1/2+z
-x,1/2+y,1/2+z
x,1/2-y,1/2+z
loop_
_atom_site_type_symbol
_atom_site_label
_atom_site_fract_x
_atom_site_fract_y
_atom_site_fract_z
Si Si1 0.678109 0.290363 0.857480
Si Si2 0.332219 0.428185 0.279207
Si Si3 0.322279 0.072895 0.281079
Si Si4 0.676632 0.238288 0.557377
Si Si5 0.341144 0.571767 0.486602
Si Si6 0.174062 0.307238 0.219720
Si Si7 0.829992 0.364918 0.617851
O O1 0.500000 0.282336 0.848594
O O2 0.711016 0.365385 0.841763
O O3 0.753915 0.245618 0.784676
O O4 0.719087 0.269220 0.955838
O O5 0.500000 0.410839 0.249270
O O6 0.301121 0.500000 0.250281
O O7 0.338366 0.428342 0.383579
O O8 0.213887 0.375975 0.255836
O O9 0.500000 0.073835 0.267384
O O10 0.239054 0.091127 0.192225
O O11 0.284488 0.000000 0.307987
O O12 0.500000 0.232649 0.562092
O O13 0.755346 0.190880 0.623449
O O14 0.732363 0.303049 0.601415
O O15 0.500000 0.602809 0.513040
O O16 0.347371 0.500000 0.517531
O O17 0.195143 0.600746 0.526580
O O18 0.000000 0.295318 0.215433
O O19 0.000000 0.350285 0.636278
#
# Coordination Sequence:
#
# PCOD9359120 Si02
#       7
#     8   8   8   8   8   8   8
#     4  10  22  41  65  90 119 161 211 261 309 367
#     4   9  19  37  60  84 113 155 204 249 296 356
#     4  10  21  39  63  88 118 160 207 258 315 374
#     4  11  23  40  62  86 115 157 209 256 303 363
#     4   9  18  33  53  78 110 151 195 236 285 349
#     4  12  24  38  60  91 125 159 195 248 314 374
#     4  12  23  34  52  85 120 154 195 246 311 370
#
# _framework density 19.084654
#
# number of rings (size 3 to 8) (size 9 to 14) (size 15 to 20)
#    0.000    1.571    1.429    5.143    0.000    7.714 
#    0.000    2.143    0.000    2.571    0.000    0.000 
#    0.000    0.000    0.000    0.000    0.000    0.000 
#
# Total GULP energy -156044.243711 kJ/mol
# GULP energy per Si atom -5573.008704 kJ/mol
# Density = 1.904122 g / cm^3
# Si number density = 19.084654 Si / 1000 Ang^3
#
#
#
# Elastic Constant Matrix: (Units=GPa)
#
#
# Indices 1 2 3 4 5 6 
#
# 1 71.1046 32.7011 40.4209 0.0000 0.0000 0.0000
# 2 32.7011 76.1317 22.8329 0.0000 0.0000 0.0000
# 3 40.4209 22.8329 85.9684 0.0000 0.0000 0.0000
# 4 0.0000 0.0000 0.0000 30.6668 0.0000 0.0000
# 5 0.0000 0.0000 0.0000 0.0000 -10.2357 0.0000
# 6 0.0000 0.0000 0.0000 0.0000 0.0000 -5.5001
#
#
#
# Elastic Compliance Matrix: (Units=1/GPa)
#
#
# Indices 1 2 3 4 5 6 
#
# 1 0.022117 -0.006934 -0.008558 0.000000 0.000000 0.000000
# 2 -0.006934 0.016446 -0.001108 0.000000 0.000000 0.000000
# 3 -0.008558 -0.001108 0.015950 0.000000 0.000000 0.000000
# 4 0.000000 0.000000 0.000000 0.032609 0.000000 0.000000
# 5 0.000000 0.000000 0.000000 0.000000 -0.097697 0.000000
# 6 0.000000 0.000000 0.000000 0.000000 0.000000 -0.181815
#
#
# Mechanical properties :
#
#
# Convention : Reuss Voigt Hill
#
# Bulk Modulus (GPa) = 46.91566 47.23496 47.07531
# Shear Modulus (GPa) = -32.87595 12.13618 -10.36989
#
# Velocity S-wave (km/s) = -4.15497 2.52447 -2.33354
# Velocity P-wave (km/s) = 1.27198 5.77072 4.17846
#
# Compressibility (1/GPa) = 0.02131485
#
# Stress axis : x y z
#
# Youngs Moduli (GPa) = 45.21338 60.80660 62.69549
#
# Poissons Ratio (x) = 0.42161 0.53653
# Poissons Ratio (y) = 0.31349 0.06946
# Poissons Ratio (z) = 0.38692 0.06736
#
# Static dielectric constant tensor:
#      x y z
#    x 1.669940 0.000000 0.000000 
#    y 0.000000 1.848850 0.000000 
#    z 0.000000 0.000000 1.683570 
# 
# From -- ./inp_files/12412.got.cif
#   From: 2010.05.17/outbox.cif.g08.bks.cpg/sg38_7_cif.got.tgz:12412.got - 2010.06.03 18:07:57.
