data_PCOD9359636
_publ_section_title
;
Structure prediction by ZEFSAII (Michael W. Deem and Ramdas Pophale) SiO2 
 PCOD9359636
Probable space group: A M M 2
;
_chemical_formula_sum "Si O2"
_cell_formula_units_Z 32
_cell_length_a 21.000000
_cell_length_b 9.000000
_cell_length_c 18.000000
_cell_angle_alpha 90.000000
_cell_angle_beta 90.000000
_cell_angle_gamma 90.000000
_cell_volume 3402.000000
_symmetry_space_group_name_H-M "A M M 2"
_symmetry_group_IT_number 38
_symmetry_cell_setting 'orthorhombic'
loop_
_space_group_symop_operation_xyz
x,y,z
-x,-y,z
-x,y,z
x,-y,z
x,1/2+y,1/2+z
-x,1/2-y,1/2+z
-x,1/2+y,1/2+z
x,1/2-y,1/2+z
loop_
_atom_site_type_symbol
_atom_site_label
_atom_site_fract_x
_atom_site_fract_y
_atom_site_fract_z
Si Si1 0.804668 0.325917 0.988150
Si Si2 0.205082 0.672746 0.166648
Si Si3 0.677386 0.332036 0.737611
Si Si4 0.573220 0.676031 0.151641
Si Si5 0.678117 0.671513 0.911886
Si Si6 0.931394 0.176977 0.994555
Si Si7 0.068282 0.322367 0.157567
Si Si8 0.426630 0.323647 0.498734
O O1 0.809682 0.500000 0.969850
O O2 0.740159 0.266582 0.952788
O O3 0.799166 0.314366 0.077327
O O4 0.868101 0.245726 0.960658
O O5 0.218729 0.500000 0.184287
O O6 0.260222 0.774846 0.196571
O O7 0.134724 0.713686 0.196657
O O8 0.661881 0.500000 0.714892
O O9 0.618551 0.228835 0.716568
O O10 0.689277 0.328245 0.824810
O O11 0.500000 0.721786 0.163801
O O12 0.575487 0.500000 0.142987
O O13 0.596412 0.751192 0.075572
O O14 0.668595 0.500000 0.936569
O O15 0.616785 0.764105 0.933501
O O16 0.932537 0.236689 0.079370
O O17 0.000000 0.220050 0.961078
O O18 0.926978 0.000000 0.995125
O O19 0.071782 0.500000 0.141308
O O20 0.000000 0.294302 0.195184
O O21 0.500000 0.278089 0.488559
O O22 0.423799 0.500000 0.504479
#
# Coordination Sequence:
#
# PCOD9359636 Si02
#       8
#     8   8   8   8   8   8   8   8
#     4   9  18  33  52  72  96 131 174 213 251 303
#     4   9  17  30  51  76 100 131 172 216 260 309
#     4  11  23  36  52  76 107 141 176 216 257 300
#     4  10  21  38  60  82 105 136 172 210 254 305
#     4  10  22  38  54  75 105 141 178 214 255 304
#     4   9  16  25  41  70 103 128 156 202 258 308
#     4   8  14  26  45  69  96 127 165 207 252 304
#     4  10  21  37  59  86 110 132 165 210 257 307
#
# _framework density 9.4062319999999993
#
# number of rings (size 3 to 8) (size 9 to 14) (size 15 to 20)
#    0.000    2.500    0.000    3.000    0.000    7.250 
#    0.000    2.500    0.000    0.750    0.000    3.500 
#    0.000    0.000    0.000    0.000    0.000    0.000 
#
# Total GULP energy -178308.183980 kJ/mol
# GULP energy per Si atom -5572.130749 kJ/mol
# Density = 0.938482 g / cm^3
# Si number density = 9.406232 Si / 1000 Ang^3
#
#
#
# Elastic Constant Matrix: (Units=GPa)
#
#
# Indices 1 2 3 4 5 6 
#
# 1 77.5203 29.6964 25.1657 0.0000 0.0000 0.0000
# 2 29.6964 26.4546 12.6655 0.0000 0.0000 0.0000
# 3 25.1657 12.6655 11.5663 0.0000 0.0000 0.0000
# 4 0.0000 0.0000 0.0000 16.9732 0.0000 0.0000
# 5 0.0000 0.0000 0.0000 0.0000 -48.4785 0.0000
# 6 0.0000 0.0000 0.0000 0.0000 0.0000 15.8987
#
#
#
# Elastic Compliance Matrix: (Units=1/GPa)
#
#
# Indices 1 2 3 4 5 6 
#
# 1 0.044640 -0.007587 -0.088818 0.000000 0.000000 0.000000
# 2 -0.007587 0.080747 -0.071914 0.000000 0.000000 0.000000
# 3 -0.088818 -0.071914 0.358455 0.000000 0.000000 0.000000
# 4 0.000000 0.000000 0.000000 0.058917 0.000000 0.000000
# 5 0.000000 0.000000 0.000000 0.000000 -0.020628 0.000000
# 6 0.000000 0.000000 0.000000 0.000000 0.000000 0.062898
#
#
# Mechanical properties :
#
#
# Convention : Reuss Voigt Hill
#
# Bulk Modulus (GPa) = 6.79327 27.84405 17.31866
# Shear Modulus (GPa) = 5.15074 0.07956 2.61515
#
# Velocity S-wave (km/s) = 1.65647 0.20587 1.18031
# Velocity P-wave (km/s) = 2.69767 3.85869 3.32918
#
# Compressibility (1/GPa) = 0.14720449
#
# Stress axis : x y z
#
# Youngs Moduli (GPa) = 22.40168 12.38437 2.78975
#
# Poissons Ratio (x) = 0.09396 0.24778
# Poissons Ratio (y) = 0.16996 0.20062
# Poissons Ratio (z) = 1.98967 0.89061
#
# Static dielectric constant tensor:
#      x y z
#    x 1.697840 0.000000 0.000000 
#    y 0.000000 1.639690 0.000000 
#    z 0.000000 0.000000 1.631880 
# 
# From -- ./inp_files/18983.got.cif
#   From: 2010.05.17/outbox.ucp.g08.bks.cvg/sg38_10_cif.got.tgz:18983.got - 2010.06.11 10:39:43.
