data_PCOD9359778
_publ_section_title
;
Structure prediction by ZEFSAII (Michael W. Deem and Ramdas Pophale) SiO2 
 PCOD9359778
Probable space group: A B M 2
;
_chemical_formula_sum "Si O2"
_cell_formula_units_Z 44
_cell_length_a 8.978674
_cell_length_b 14.093161
_cell_length_c 18.139451
_cell_angle_alpha 90.000000
_cell_angle_beta 90.000000
_cell_angle_gamma 90.000000
_cell_volume 2295.328005
_symmetry_space_group_name_H-M "A B M 2"
_symmetry_group_IT_number 39
_symmetry_cell_setting 'orthorhombic'
loop_
_space_group_symop_operation_xyz
x,y,z
-x,-y,z
-x,1/2+y,z
x,1/2-y,z
x,1/2+y,1/2+z
-x,1/2-y,1/2+z
-x,y,1/2+z
x,-y,1/2+z
loop_
_atom_site_type_symbol
_atom_site_label
_atom_site_fract_x
_atom_site_fract_y
_atom_site_fract_z
Si Si1 0.000776 0.250000 0.341501
Si Si2 0.645068 0.445810 0.905982
Si Si3 0.343727 0.750000 0.302978
Si Si4 0.906384 0.584432 0.944834
Si Si5 0.760387 0.750000 0.037652
Si Si6 0.779351 0.250000 0.700380
Si Si7 0.545989 0.597087 0.240221
Si Si8 0.538729 0.750000 0.455652
O O1 0.830572 0.250000 0.313825
O O2 0.004562 0.153125 0.390910
O O3 0.114459 0.250000 0.272468
O O4 0.500000 0.500000 0.936395
O O5 0.779110 0.520710 0.906540
O O6 0.613906 0.424982 0.820522
O O7 0.641162 0.344045 0.947512
O O8 0.401746 0.659802 0.258028
O O9 0.430263 0.750000 0.382221
O O10 0.000000 0.500000 0.982279
O O11 0.822468 0.657289 0.996969
O O12 0.837014 0.750000 0.117721
O O13 0.579942 0.750000 0.023419
O O14 0.670175 0.159699 0.702323
O O15 0.500000 0.500000 0.202231
#
# Coordination Sequence:
#
# PCOD9359778 Si02
#       8
#     4   8   4   8   4   4   8   4
#     4  11  20  37  61  88 119 159 199 249 301 356
#     4  10  17  32  63  95 113 144 200 256 308 348
#     4   9  16  31  58  88 114 142 185 255 307 330
#     4  11  22  37  61  90 119 155 204 257 299 357
#     4  11  23  43  56  79 131 163 199 247 302 371
#     4  11  24  39  58  84 120 170 197 235 311 372
#     4   9  18  34  57  87 117 142 196 257 292 350
#     4  10  17  34  61  91 122 154 196 258 303 357
#
# _framework density 19.169374000000001
#
# number of rings (size 3 to 8) (size 9 to 14) (size 15 to 20)
#    0.000    1.818    3.636    3.818    0.000    1.455 
#    3.273    4.545    4.000    0.000    0.000    0.000 
#    0.000    0.000    0.000    0.000    0.000    0.000 
#
# Total GULP energy -122520.093618 kJ/mol
# GULP energy per Si atom -5569.095164 kJ/mol
# Density = 1.912574 g / cm^3
# Si number density = 19.169374 Si / 1000 Ang^3
#
#
#
# Elastic Constant Matrix: (Units=GPa)
#
#
# Indices 1 2 3 4 5 6 
#
# 1 47.7487 31.0661 5.9478 0.0000 0.0000 0.0000
# 2 31.0661 159.5745 25.6731 0.0000 0.0000 0.0000
# 3 5.9478 25.6731 40.5602 0.0000 0.0000 0.0000
# 4 0.0000 0.0000 0.0000 -0.0111 0.0000 0.0000
# 5 0.0000 0.0000 0.0000 0.0000 11.5727 0.0000
# 6 0.0000 0.0000 0.0000 0.0000 0.0000 9.5768
#
#
#
# Elastic Compliance Matrix: (Units=1/GPa)
#
#
# Indices 1 2 3 4 5 6 
#
# 1 0.023995 -0.004571 -0.000626 0.000000 0.000000 0.000000
# 2 -0.004571 0.007848 -0.004297 0.000000 0.000000 0.000000
# 3 -0.000626 -0.004297 0.027466 0.000000 0.000000 0.000000
# 4 0.000000 0.000000 0.000000-90.425733 0.000000 0.000000
# 5 0.000000 0.000000 0.000000 0.000000 0.086411 0.000000
# 6 0.000000 0.000000 0.000000 0.000000 0.000000 0.104420
#
#
# Mechanical properties :
#
#
# Convention : Reuss Voigt Hill
#
# Bulk Modulus (GPa) = 24.80027 41.47303 33.13665
# Shear Modulus (GPa) = -0.05547 16.57409 8.25931
#
# Velocity S-wave (km/s) = -0.17029 2.94362 2.07797
# Velocity P-wave (km/s) = 3.59539 5.76500 4.80427
#
# Compressibility (1/GPa) = 0.04032214
#
# Stress axis : x y z
#
# Youngs Moduli (GPa) = 41.67597 127.42383 36.40813
#
# Poissons Ratio (x) = 0.58241 0.02278
# Poissons Ratio (y) = 0.19049 0.15645
# Poissons Ratio (z) = 0.02607 0.54756
#
# Static dielectric constant tensor:
#      x y z
#    x 1.722370 0.000000 0.000000 
#    y 0.000000 1.753080 0.000000 
#    z 0.000000 0.000000 1.659450 
# 
# From -- ./inp_files/11578.got.cif
#   From: 2010.05.17/outbox.cif.g08.bks.cpg/sg39_6_cif.got.tgz:11578.got - 2010.06.03 18:22:40.
