data_PCOD9359146
_publ_section_title
;
Structure prediction by ZEFSAII (Michael W. Deem and Ramdas Pophale) SiO2 
 PCOD9359146
Probable space group: A M M 2
;
_chemical_formula_sum "Si O2"
_cell_formula_units_Z 56
_cell_length_a 8.712820
_cell_length_b 20.870702
_cell_length_c 15.865864
_cell_angle_alpha 90.000000
_cell_angle_beta 90.000000
_cell_angle_gamma 90.000000
_cell_volume 2885.091068
_symmetry_space_group_name_H-M "A M M 2"
_symmetry_group_IT_number 38
_symmetry_cell_setting 'orthorhombic'
loop_
_space_group_symop_operation_xyz
x,y,z
-x,-y,z
-x,y,z
x,-y,z
x,1/2+y,1/2+z
-x,1/2-y,1/2+z
-x,1/2+y,1/2+z
x,1/2-y,1/2+z
loop_
_atom_site_type_symbol
_atom_site_label
_atom_site_fract_x
_atom_site_fract_y
_atom_site_fract_z
Si Si1 0.185587 0.785920 0.480600
Si Si2 0.670994 0.573950 0.594621
Si Si3 0.176600 0.624190 0.743435
Si Si4 0.181804 0.693531 0.323041
Si Si5 0.315345 0.925266 0.910774
Si Si6 0.319066 0.750234 0.161590
Si Si7 0.186568 0.427089 0.925087
O O1 0.233246 0.745064 0.396485
O O2 0.245440 0.757684 0.569075
O O3 0.233063 0.861464 0.473365
O O4 0.000000 0.783967 0.481586
O O5 0.500000 0.597005 0.621018
O O6 0.651693 0.500000 0.573735
O O7 0.798576 0.577937 0.665071
O O8 0.715122 0.602324 0.504980
O O9 0.270544 0.684186 0.708454
O O10 0.229670 0.589795 0.828379
O O11 0.000000 0.643165 0.756057
O O12 0.224912 0.622667 0.352196
O O13 0.257821 0.701503 0.231747
O O14 0.000000 0.702115 0.314913
O O15 0.500000 0.921366 0.898703
O O16 0.271143 0.000000 0.901388
O O17 0.500000 0.745658 0.152132
O O18 0.239333 0.500000 0.947282
O O19 0.000000 0.429129 0.928981
#
# Coordination Sequence:
#
# PCOD9359146 Si02
#       7
#     8   8   8   8   8   8   8
#     4  10  21  40  63  89 122 159 203 257 308 363
#     4   9  18  32  50  78 117 156 191 229 284 354
#     4  11  20  34  55  85 118 151 197 249 304 362
#     4  11  22  39  62  89 118 153 198 252 307 359
#     4   9  19  36  56  80 115 157 196 240 297 359
#     4  12  25  39  59  86 117 157 203 250 309 372
#     4   9  18  35  60  88 120 158 199 249 310 366
#
# _framework density 19.410132999999998
#
# number of rings (size 3 to 8) (size 9 to 14) (size 15 to 20)
#    0.000    1.857    1.429    4.286    0.000    5.143 
#    0.000    2.143    0.000    4.714    0.000    0.000 
#    0.000    0.000    0.000    0.000    0.000    0.000 
#
# Total GULP energy -155957.506283 kJ/mol
# GULP energy per Si atom -5569.910939 kJ/mol
# Density = 1.936595 g / cm^3
# Si number density = 19.410133 Si / 1000 Ang^3
#
#
#
# Elastic Constant Matrix: (Units=GPa)
#
#
# Indices 1 2 3 4 5 6 
#
# 1 30.9188 15.6613 27.7517 0.0000 0.0000 0.0000
# 2 15.6613 96.5275 19.7047 0.0000 0.0000 0.0000
# 3 27.7517 19.7047 73.4549 0.0000 0.0000 0.0000
# 4 0.0000 0.0000 0.0000 32.4783 0.0000 0.0000
# 5 0.0000 0.0000 0.0000 0.0000 10.1758 0.0000
# 6 0.0000 0.0000 0.0000 0.0000 0.0000 19.0477
#
#
#
# Elastic Compliance Matrix: (Units=1/GPa)
#
#
# Indices 1 2 3 4 5 6 
#
# 1 0.050777 -0.004573 -0.017957 0.000000 0.000000 0.000000
# 2 -0.004573 0.011372 -0.001323 0.000000 0.000000 0.000000
# 3 -0.017957 -0.001323 0.020753 0.000000 0.000000 0.000000
# 4 0.000000 0.000000 0.000000 0.030790 0.000000 0.000000
# 5 0.000000 0.000000 0.000000 0.000000 0.098272 0.000000
# 6 0.000000 0.000000 0.000000 0.000000 0.000000 0.052500
#
#
# Mechanical properties :
#
#
# Convention : Reuss Voigt Hill
#
# Bulk Modulus (GPa) = 28.41234 36.34851 32.38043
# Shear Modulus (GPa) = 15.43683 21.52594 18.48138
#
# Velocity S-wave (km/s) = 2.82316 3.33379 3.08904
# Velocity P-wave (km/s) = 5.02958 5.79535 5.42599
#
# Compressibility (1/GPa) = 0.03519597
#
# Stress axis : x y z
#
# Youngs Moduli (GPa) = 19.69403 87.93754 48.18583
#
# Poissons Ratio (x) = 0.40211 0.86528
# Poissons Ratio (y) = 0.09006 0.06375
# Poissons Ratio (z) = 0.35365 0.11633
#
# Static dielectric constant tensor:
#      x y z
#    x 1.704820 0.000000 0.000000 
#    y 0.000000 1.684520 0.000000 
#    z 0.000000 0.000000 1.733650 
# 
# From -- ./inp_files/12358.got.cif
#   From: 2010.05.17/outbox.cif.g08.bks.cpg/sg38_7_cif.got.tgz:12358.got - 2010.06.03 18:07:57.
