data_PCOD9359406
_publ_section_title
;
Structure prediction by ZEFSAII (Michael W. Deem and Ramdas Pophale) SiO2 
 PCOD9359406
Probable space group: A M M 2
;
_chemical_formula_sum "Si O2"
_cell_formula_units_Z 56
_cell_length_a 18.578933
_cell_length_b 8.795920
_cell_length_c 19.165486
_cell_angle_alpha 90.000000
_cell_angle_beta 90.000000
_cell_angle_gamma 90.000000
_cell_volume 3132.000884
_symmetry_space_group_name_H-M "A M M 2"
_symmetry_group_IT_number 38
_symmetry_cell_setting 'orthorhombic'
loop_
_space_group_symop_operation_xyz
x,y,z
-x,-y,z
-x,y,z
x,-y,z
x,1/2+y,1/2+z
-x,1/2-y,1/2+z
-x,1/2+y,1/2+z
x,1/2-y,1/2+z
loop_
_atom_site_type_symbol
_atom_site_label
_atom_site_fract_x
_atom_site_fract_y
_atom_site_fract_z
Si Si1 0.916248 0.683907 0.038180
Si Si2 0.417765 0.681601 0.309228
Si Si3 0.806856 0.325412 0.924814
Si Si4 0.298757 0.174062 0.557839
Si Si5 0.257388 0.318120 0.286075
Si Si6 0.583701 0.674507 0.958720
Si Si7 0.188621 0.322142 0.653450
O O1 0.909150 0.500000 0.040477
O O2 0.873194 0.749305 0.104572
O O3 0.000000 0.724048 0.040072
O O4 0.877987 0.732828 0.965506
O O5 0.500000 0.738622 0.290828
O O6 0.420264 0.500000 0.300466
O O7 0.341444 0.734671 0.275681
O O8 0.406225 0.723611 0.390621
O O9 0.818781 0.500000 0.901763
O O10 0.749898 0.327802 0.988155
O O11 0.773495 0.233430 0.861033
O O12 0.375034 0.222663 0.527944
O O13 0.261789 0.285448 0.611358
O O14 0.300578 0.000000 0.585618
O O15 0.258137 0.500000 0.282392
O O16 0.203580 0.253095 0.227903
O O17 0.500000 0.670795 0.973253
O O18 0.607368 0.500000 0.942402
O O19 0.175803 0.500000 0.660438
#
# Coordination Sequence:
#
# PCOD9359406 Si02
#       7
#     8   8   8   8   8   8   8
#     4   9  19  39  64  86 110 140 171 209 263 324
#     4   9  18  31  48  73 104 139 181 229 277 319
#     4   9  17  31  54  82 107 133 168 213 261 312
#     4   9  17  32  51  73 103 137 174 217 264 318
#     4  11  21  34  53  77 108 146 186 226 270 318
#     4   9  16  27  47  74 101 133 174 220 271 322
#     4  11  23  36  54  78 107 143 182 221 265 316
#
# _framework density 17.879943999999998
#
# number of rings (size 3 to 8) (size 9 to 14) (size 15 to 20)
#    0.000    2.429    1.429    2.571    0.000    3.714 
#    0.000    1.429    0.000    6.857    0.000    0.000 
#    0.000    0.000    0.000    0.000    0.000    0.000 
#
# Total GULP energy -155894.890676 kJ/mol
# GULP energy per Si atom -5567.674667 kJ/mol
# Density = 1.783925 g / cm^3
# Si number density = 17.879944 Si / 1000 Ang^3
#
#
#
# Elastic Constant Matrix: (Units=GPa)
#
#
# Indices 1 2 3 4 5 6 
#
# 1 103.6045 24.1302 34.1910 0.0000 0.0000 0.0000
# 2 24.1302 32.0469 20.4001 0.0000 0.0000 0.0000
# 3 34.1910 20.4001 61.7213 0.0000 0.0000 0.0000
# 4 0.0000 0.0000 0.0000 23.3912 0.0000 0.0000
# 5 0.0000 0.0000 0.0000 0.0000 21.9471 0.0000
# 6 0.0000 0.0000 0.0000 0.0000 0.0000 18.6720
#
#
#
# Elastic Compliance Matrix: (Units=1/GPa)
#
#
# Indices 1 2 3 4 5 6 
#
# 1 0.012794 -0.006487 -0.004943 0.000000 0.000000 0.000000
# 2 -0.006487 0.042808 -0.010555 0.000000 0.000000 0.000000
# 3 -0.004943 -0.010555 0.022429 0.000000 0.000000 0.000000
# 4 0.000000 0.000000 0.000000 0.042751 0.000000 0.000000
# 5 0.000000 0.000000 0.000000 0.000000 0.045564 0.000000
# 6 0.000000 0.000000 0.000000 0.000000 0.000000 0.053556
#
#
# Mechanical properties :
#
#
# Convention : Reuss Voigt Hill
#
# Bulk Modulus (GPa) = 29.36006 39.42391 34.39199
# Shear Modulus (GPa) = 18.16679 20.71216 19.43948
#
# Velocity S-wave (km/s) = 3.19100 3.40722 3.30088
# Velocity P-wave (km/s) = 5.48023 6.12993 5.81416
#
# Compressibility (1/GPa) = 0.03405988
#
# Stress axis : x y z
#
# Youngs Moduli (GPa) = 78.15960 23.36016 44.58490
#
# Poissons Ratio (x) = 0.15153 0.22041
# Poissons Ratio (y) = 0.50701 0.47061
# Poissons Ratio (z) = 0.38638 0.24658
#
# Static dielectric constant tensor:
#      x y z
#    x 1.672690 0.000000 0.000000 
#    y 0.000000 1.621710 0.000000 
#    z 0.000000 0.000000 1.605720 
# 
# From -- ./inp_files/15484.got.cif
#   From: 2010.05.17/outbox.cif.g08.bks.cpg/sg38_8_cif.got.tgz:15484.got - 2010.06.03 18:07:57.
