data_PCOD9359489
_publ_section_title
;
Structure prediction by ZEFSAII (Michael W. Deem and Ramdas Pophale) SiO2 
 PCOD9359489
Probable space group: A M M 2
;
_chemical_formula_sum "Si O2"
_cell_formula_units_Z 26
_cell_length_a 10.682837
_cell_length_b 16.091030
_cell_length_c 7.148662
_cell_angle_alpha 90.000000
_cell_angle_beta 90.000000
_cell_angle_gamma 90.000000
_cell_volume 1228.839633
_symmetry_space_group_name_H-M "A M M 2"
_symmetry_group_IT_number 38
_symmetry_cell_setting 'orthorhombic'
loop_
_space_group_symop_operation_xyz
x,y,z
-x,-y,z
-x,y,z
x,-y,z
x,1/2+y,1/2+z
-x,1/2-y,1/2+z
-x,1/2+y,1/2+z
x,1/2-y,1/2+z
loop_
_atom_site_type_symbol
_atom_site_label
_atom_site_fract_x
_atom_site_fract_y
_atom_site_fract_z
Si Si1 0.860999 0.900370 0.221320
Si Si2 0.500000 0.500000 0.530518
Si Si3 0.357775 0.663460 0.992031
Si Si4 0.310212 0.855131 0.925455
O O1 0.750464 0.868480 0.355795
O O2 0.000000 0.872139 0.277985
O O3 0.860232 0.000000 0.222622
O O4 0.826164 0.867382 0.014696
O O5 0.392718 0.427144 0.516003
O O6 0.500000 0.633792 0.947876
O O7 0.356588 0.763351 0.980054
O O8 0.324713 0.637209 0.203055
#
# Coordination Sequence:
#
# PCOD9359489 Si02
#       4
#     8   2   8   8
#     4  11  28  48  69 101 143 190 232 279 347 416
#     4  12  24  40  72 108 138 182 222 292 358 396
#     4  12  25  43  73 105 139 179 230 293 345 412
#     4  12  25  44  70 103 145 174 233 284 351 408
#
# _framework density 21.158172
#
# number of rings (size 3 to 8) (size 9 to 14) (size 15 to 20)
#    0.000    0.308    7.692    0.000    4.308    3.077 
#    0.000    3.077    0.000    0.000    0.000    0.000 
#    0.000    0.000    0.000    0.000    0.000    0.000 
#
# Total GULP energy -72424.751442 kJ/mol
# GULP energy per Si atom -5571.134726 kJ/mol
# Density = 2.111002 g / cm^3
# Si number density = 21.158172 Si / 1000 Ang^3
#
#
#
# Elastic Constant Matrix: (Units=GPa)
#
#
# Indices 1 2 3 4 5 6 
#
# 1 196.2121 49.7735 80.9047 0.0000 0.0000 0.0000
# 2 49.7735 65.5899 19.7356 0.0000 0.0000 0.0000
# 3 80.9047 19.7356 97.8097 0.0000 0.0000 0.0000
# 4 0.0000 0.0000 0.0000 3.9220 0.0000 0.0000
# 5 0.0000 0.0000 0.0000 0.0000 24.5629 0.0000
# 6 0.0000 0.0000 0.0000 0.0000 0.0000 21.6557
#
#
#
# Elastic Compliance Matrix: (Units=1/GPa)
#
#
# Indices 1 2 3 4 5 6 
#
# 1 0.008998 -0.004886 -0.006457 0.000000 0.000000 0.000000
# 2 -0.004886 0.018884 0.000231 0.000000 0.000000 0.000000
# 3 -0.006457 0.000231 0.015519 0.000000 0.000000 0.000000
# 4 0.000000 0.000000 0.000000 0.254974 0.000000 0.000000
# 5 0.000000 0.000000 0.000000 0.000000 0.040712 0.000000
# 6 0.000000 0.000000 0.000000 0.000000 0.000000 0.046177
#
#
# Mechanical properties :
#
#
# Convention : Reuss Voigt Hill
#
# Bulk Modulus (GPa) = 47.22099 73.38216 60.30157
# Shear Modulus (GPa) = 12.06133 23.97463 18.01798
#
# Velocity S-wave (km/s) = 2.39017 3.36983 2.92136
# Velocity P-wave (km/s) = 5.47574 7.06392 6.31992
#
# Compressibility (1/GPa) = 0.02117703
#
# Stress axis : x y z
#
# Youngs Moduli (GPa) = 111.13000 52.95417 64.43829
#
# Poissons Ratio (x) = 0.25871 0.41611
# Poissons Ratio (y) = 0.54293 -0.01487
# Poissons Ratio (z) = 0.71761 -0.01222
#
# Static dielectric constant tensor:
#      x y z
#    x 1.889120 0.000000 0.000000 
#    y 0.000000 1.727730 0.000000 
#    z 0.000000 0.000000 1.806410 
# 
# From -- ./inp_files/2900.got.cif
#   From: 2010.05.17/outbox.cif.g08.bks.cpg/sg38_2_cif.got.tgz:2900.got - 2010.06.03 18:07:57.
