data_PCOD9359951
_publ_section_title
;
Structure prediction by ZEFSAII (Michael W. Deem and Ramdas Pophale) SiO2 
 PCOD9359951
Probable space group: A B M 2
;
_chemical_formula_sum "Si O2"
_cell_formula_units_Z 64
_cell_length_a 10.177854
_cell_length_b 14.448230
_cell_length_c 20.192226
_cell_angle_alpha 90.000000
_cell_angle_beta 90.000000
_cell_angle_gamma 90.000000
_cell_volume 2969.306723
_symmetry_space_group_name_H-M "A B M 2"
_symmetry_group_IT_number 39
_symmetry_cell_setting 'orthorhombic'
loop_
_space_group_symop_operation_xyz
x,y,z
-x,-y,z
-x,1/2+y,z
x,1/2-y,z
x,1/2+y,1/2+z
-x,1/2-y,1/2+z
-x,y,1/2+z
x,-y,1/2+z
loop_
_atom_site_type_symbol
_atom_site_label
_atom_site_fract_x
_atom_site_fract_y
_atom_site_fract_z
Si Si1 0.001064 0.389481 0.545860
Si Si2 0.052195 0.104381 0.401759
Si Si3 0.729069 0.136118 0.694243
Si Si4 0.691030 0.856686 0.051439
Si Si5 0.811287 0.353781 0.311929
Si Si6 0.408378 0.635767 0.411271
Si Si7 0.669144 0.362069 0.838075
Si Si8 0.967890 0.142347 0.192342
O O1 0.066519 0.360504 0.614867
O O2 0.000000 0.500000 0.548262
O O3 0.064359 0.359533 0.476751
O O4 0.849554 0.357129 0.544056
O O5 0.938843 0.152184 0.359033
O O6 0.189423 0.109408 0.365006
O O7 0.000000 0.000000 0.406440
O O8 0.730682 0.250000 0.690965
O O9 0.668922 0.102295 0.624637
O O10 0.657159 0.108381 0.761490
O O11 0.882684 0.106392 0.697619
O O12 0.646380 0.750000 0.053906
O O13 0.629775 0.898026 0.984721
O O14 0.762832 0.250000 0.295431
O O15 0.697618 0.397174 0.356761
O O16 0.864476 0.399115 0.244304
O O17 0.399509 0.750000 0.413100
O O18 0.551291 0.608789 0.385662
O O19 0.667768 0.250000 0.837539
O O20 0.977336 0.250000 0.212057
#
# Coordination Sequence:
#
# PCOD9359951 Si02
#       8
#     8   8   8   8   8   8   8   8
#     4  10  20  32  49  75 107 140 179 222 267 314
#     4  11  22  34  51  78 108 137 180 221 266 321
#     4   8  14  26  47  74 103 133 168 211 263 319
#     4   9  16  30  52  76 102 139 181 217 263 330
#     4  10  18  33  55  78 105 138 175 221 272 321
#     4   9  18  31  53  80 105 139 179 219 270 321
#     4  10  19  34  53  79 110 138 175 226 273 313
#     4   9  17  30  50  77 103 136 177 219 272 318
#
# _framework density 21.553853
#
# number of rings (size 3 to 8) (size 9 to 14) (size 15 to 20)
#    0.000    2.500    2.500    1.500    0.000    2.000 
#    0.000    1.875    0.000    4.500    0.000    0.000 
#    0.000    0.000    0.000    0.000    0.000    0.000 
#
# Total GULP energy -178531.429158 kJ/mol
# GULP energy per Si atom -5579.107161 kJ/mol
# Density = 2.150480 g / cm^3
# Si number density = 21.553853 Si / 1000 Ang^3
#
#
#
# Elastic Constant Matrix: (Units=GPa)
#
#
# Indices 1 2 3 4 5 6 
#
# 1 88.4579 -7.9725 54.8472 0.0000 0.0000 0.0000
# 2 -7.9725 46.6917 -2.3426 0.0000 0.0000 0.0000
# 3 54.8472 -2.3426 197.1013 0.0000 0.0000 0.0000
# 4 0.0000 0.0000 0.0000 1.9420 0.0000 0.0000
# 5 0.0000 0.0000 0.0000 0.0000 27.8444 0.0000
# 6 0.0000 0.0000 0.0000 0.0000 0.0000 8.0173
#
#
#
# Elastic Compliance Matrix: (Units=1/GPa)
#
#
# Indices 1 2 3 4 5 6 
#
# 1 0.013880 0.002177 -0.003836 0.000000 0.000000 0.000000
# 2 0.002177 0.021771 -0.000347 0.000000 0.000000 0.000000
# 3 -0.003836 -0.000347 0.006137 0.000000 0.000000 0.000000
# 4 0.000000 0.000000 0.000000 0.514945 0.000000 0.000000
# 5 0.000000 0.000000 0.000000 0.000000 0.035914 0.000000
# 6 0.000000 0.000000 0.000000 0.000000 0.000000 0.124730
#
#
# Mechanical properties :
#
#
# Convention : Reuss Voigt Hill
#
# Bulk Modulus (GPa) = 26.47189 46.81280 36.64234
# Shear Modulus (GPa) = 6.81216 26.74198 16.77707
#
# Velocity S-wave (km/s) = 1.77972 3.52619 2.79297
# Velocity P-wave (km/s) = 4.06591 6.19232 5.23815
#
# Compressibility (1/GPa) = 0.03777592
#
# Stress axis : x y z
#
# Youngs Moduli (GPa) = 72.04717 45.93172 162.94683
#
# Poissons Ratio (x) = -0.10001 0.62514
# Poissons Ratio (y) = -0.15688 0.05657
# Poissons Ratio (z) = 0.27640 0.01595
#
# Static dielectric constant tensor:
#      x y z
#    x 1.727170 0.000000 0.000000 
#    y 0.000000 1.932390 0.000000 
#    z 0.000000 0.000000 1.828770 
# 
# From -- ./inp_files/14238.got.cif
#   From: 2010.05.17/outbox.cif.g08.bks.cpg/sg39_8_cif.got.tgz:14238.got - 2010.06.03 18:22:40.
