data_PCOD9359307
_publ_section_title
;
Structure prediction by ZEFSAII (Michael W. Deem and Ramdas Pophale) SiO2 
 PCOD9359307
Probable space group: A M M 2
;
_chemical_formula_sum "Si O2"
_cell_formula_units_Z 56
_cell_length_a 14.828636
_cell_length_b 16.456009
_cell_length_c 11.234285
_cell_angle_alpha 90.000000
_cell_angle_beta 90.000000
_cell_angle_gamma 90.000000
_cell_volume 2741.392107
_symmetry_space_group_name_H-M "A M M 2"
_symmetry_group_IT_number 38
_symmetry_cell_setting 'orthorhombic'
loop_
_space_group_symop_operation_xyz
x,y,z
-x,-y,z
-x,y,z
x,-y,z
x,1/2+y,1/2+z
-x,1/2-y,1/2+z
-x,1/2+y,1/2+z
x,1/2-y,1/2+z
loop_
_atom_site_type_symbol
_atom_site_label
_atom_site_fract_x
_atom_site_fract_y
_atom_site_fract_z
Si Si1 0.104322 0.873134 0.711830
Si Si2 0.603248 0.205578 0.620341
Si Si3 0.783734 0.592620 0.444969
Si Si4 0.902423 0.597420 0.858010
Si Si5 0.900072 0.310015 0.618528
Si Si6 0.754543 0.910174 0.520139
Si Si7 0.603485 0.677270 0.390499
O O1 0.147955 0.896807 0.835875
O O2 0.112849 0.777095 0.680864
O O3 0.163957 0.915886 0.613041
O O4 0.000000 0.894797 0.707986
O O5 0.500000 0.175629 0.612947
O O6 0.675589 0.139246 0.580734
O O7 0.610284 0.272407 0.514664
O O8 0.617478 0.224297 0.762416
O O9 0.789096 0.500000 0.491257
O O10 0.819023 0.661225 0.535808
O O11 0.683078 0.611876 0.399948
O O12 0.899112 0.500000 0.870035
O O13 0.904184 0.623693 0.722380
O O14 0.000000 0.625285 0.910490
O O15 0.809857 0.631642 0.912860
O O16 0.000000 0.308721 0.558721
O O17 0.722429 0.000000 0.485673
O O18 0.500000 0.646372 0.386087
#
# Coordination Sequence:
#
# PCOD9359307 Si02
#       7
#     8   8   8   8   8   8   8
#     4  11  24  38  57  86 122 164 209 255 305 365
#     4  10  22  41  66  94 123 161 211 267 324 387
#     4  12  25  40  63  95 128 166 208 264 329 384
#     4   9  19  36  58  84 118 161 206 255 313 378
#     4  10  23  40  61  88 123 168 216 261 312 379
#     4  11  22  36  57  86 119 159 203 253 315 378
#     4  10  23  43  67  94 125 165 213 268 329 394
#
# _framework density 20.427579000000001
#
# number of rings (size 3 to 8) (size 9 to 14) (size 15 to 20)
#    0.000    1.571    1.429    2.571    4.000    3.714 
#    0.000    1.429    0.000    0.000    0.000    6.000 
#    0.000    0.000    0.000    0.000    0.000    0.000 
#
# Total GULP energy -156091.895229 kJ/mol
# GULP energy per Si atom -5574.710544 kJ/mol
# Density = 2.038108 g / cm^3
# Si number density = 20.427579 Si / 1000 Ang^3
#
#
#
# Elastic Constant Matrix: (Units=GPa)
#
#
# Indices 1 2 3 4 5 6 
#
# 1 121.4036 37.6051 22.0736 0.0000 0.0000 0.0000
# 2 37.6051 51.7563 4.5178 0.0000 0.0000 0.0000
# 3 22.0736 4.5178 56.9520 0.0000 0.0000 0.0000
# 4 0.0000 0.0000 0.0000 24.9848 0.0000 0.0000
# 5 0.0000 0.0000 0.0000 0.0000 52.0273 0.0000
# 6 0.0000 0.0000 0.0000 0.0000 0.0000 25.7341
#
#
#
# Elastic Compliance Matrix: (Units=1/GPa)
#
#
# Indices 1 2 3 4 5 6 
#
# 1 0.011385 -0.007942 -0.003783 0.000000 0.000000 0.000000
# 2 -0.007942 0.024996 0.001095 0.000000 0.000000 0.000000
# 3 -0.003783 0.001095 0.018938 0.000000 0.000000 0.000000
# 4 0.000000 0.000000 0.000000 0.040024 0.000000 0.000000
# 5 0.000000 0.000000 0.000000 0.000000 0.019221 0.000000
# 6 0.000000 0.000000 0.000000 0.000000 0.000000 0.038859
#
#
# Mechanical properties :
#
#
# Convention : Reuss Voigt Hill
#
# Bulk Modulus (GPa) = 29.35953 39.83388 34.59670
# Shear Modulus (GPa) = 26.87682 31.61027 29.24354
#
# Velocity S-wave (km/s) = 3.63121 3.93801 3.78772
# Velocity P-wave (km/s) = 5.65549 6.34189 6.00850
#
# Compressibility (1/GPa) = 0.03406049
#
# Stress axis : x y z
#
# Youngs Moduli (GPa) = 87.83720 40.00643 52.80439
#
# Poissons Ratio (x) = 0.31772 0.19973
# Poissons Ratio (y) = 0.69758 -0.05783
# Poissons Ratio (z) = 0.33225 -0.04382
#
# Static dielectric constant tensor:
#      x y z
#    x 1.731020 0.000000 0.000000 
#    y 0.000000 1.736930 0.000000 
#    z 0.000000 0.000000 1.814810 
# 
# From -- ./inp_files/10095.got.cif
#   From: 2010.05.17/outbox.cif.g08.bks.cpg/sg38_6_cif.got.tgz:10095.got - 2010.06.03 18:07:57.
