data_PCOD9359022
_publ_section_title
;
Structure prediction by ZEFSAII (Michael W. Deem and Ramdas Pophale) SiO2 
 PCOD9359022
Probable space group: A M M 2
;
_chemical_formula_sum "Si O2"
_cell_formula_units_Z 48
_cell_length_a 14.194192
_cell_length_b 7.908295
_cell_length_c 21.063049
_cell_angle_alpha 90.000000
_cell_angle_beta 90.000000
_cell_angle_gamma 90.000000
_cell_volume 2364.366377
_symmetry_space_group_name_H-M "A M M 2"
_symmetry_group_IT_number 38
_symmetry_cell_setting 'orthorhombic'
loop_
_space_group_symop_operation_xyz
x,y,z
-x,-y,z
-x,y,z
x,-y,z
x,1/2+y,1/2+z
-x,1/2-y,1/2+z
-x,1/2+y,1/2+z
x,1/2-y,1/2+z
loop_
_atom_site_type_symbol
_atom_site_label
_atom_site_fract_x
_atom_site_fract_y
_atom_site_fract_z
Si Si1 0.271282 0.200649 0.149460
Si Si2 0.761052 0.186789 0.513644
Si Si3 0.113395 0.000000 0.978059
Si Si4 0.609199 0.704000 0.770949
Si Si5 0.390733 0.199453 0.912563
Si Si6 0.112209 0.808108 0.241900
Si Si7 0.885764 0.000000 0.830586
O O1 0.333812 0.259458 0.209018
O O2 0.165189 0.221284 0.175813
O O3 0.289044 0.000000 0.139791
O O4 0.284137 0.292631 0.083313
O O5 0.838689 0.333738 0.507273
O O6 0.680869 0.213452 0.460643
O O7 0.802396 0.000000 0.506507
O O8 0.142184 0.000000 0.903624
O O9 0.000000 0.000000 0.983730
O O10 0.500000 0.749871 0.762683
O O11 0.616690 0.500000 0.774240
O O12 0.638835 0.773655 0.839395
O O13 0.500000 0.259155 0.918126
O O14 0.389574 0.000000 0.926612
O O15 0.142697 0.667741 0.292504
O O16 0.000000 0.798442 0.234509
O O17 0.136897 0.000000 0.262570
O O18 0.000000 0.000000 0.830735
#
# Coordination Sequence:
#
# PCOD9359022 Si02
#       7
#     8   8   4   8   8   8   4
#     4  10  21  38  58  87 126 165 207 259 317 378
#     4  12  26  43  65  95 129 175 228 268 327 395
#     4  11  26  48  67  91 135 172 216 281 332 389
#     4   9  19  36  61  93 126 164 210 260 320 384
#     4  10  21  40  66  95 132 175 217 267 328 392
#     4   9  19  35  58  90 122 152 195 251 313 378
#     4   9  20  38  62  89 115 154 199 251 317 377
#
# _framework density 20.301421999999999
#
# number of rings (size 3 to 8) (size 9 to 14) (size 15 to 20)
#    0.000    2.000    1.667    0.500    3.500    4.000 
#    0.000    3.333    0.000    0.000    0.000    0.000 
#    0.000    0.000    0.000    0.000    0.000    0.000 
#
# Total GULP energy -134075.927977 kJ/mol
# GULP energy per Si atom -5586.496999 kJ/mol
# Density = 2.025522 g / cm^3
# Si number density = 20.301422 Si / 1000 Ang^3
#
#
#
# Elastic Constant Matrix: (Units=GPa)
#
#
# Indices 1 2 3 4 5 6 
#
# 1 88.0274 32.3110 45.7516 0.0000 0.0000 0.0000
# 2 32.3110 100.2374 48.9533 0.0000 0.0000 0.0000
# 3 45.7516 48.9533 130.5394 0.0000 0.0000 0.0000
# 4 0.0000 0.0000 0.0000 33.3992 0.0000 0.0000
# 5 0.0000 0.0000 0.0000 0.0000 17.1438 0.0000
# 6 0.0000 0.0000 0.0000 0.0000 0.0000 6.0174
#
#
#
# Elastic Compliance Matrix: (Units=1/GPa)
#
#
# Indices 1 2 3 4 5 6 
#
# 1 0.014453 -0.002675 -0.004063 0.000000 0.000000 0.000000
# 2 -0.002675 0.012708 -0.003828 0.000000 0.000000 0.000000
# 3 -0.004063 -0.003828 0.010520 0.000000 0.000000 0.000000
# 4 0.000000 0.000000 0.000000 0.029941 0.000000 0.000000
# 5 0.000000 0.000000 0.000000 0.000000 0.058330 0.000000
# 6 0.000000 0.000000 0.000000 0.000000 0.000000 0.166185
#
#
# Mechanical properties :
#
#
# Convention : Reuss Voigt Hill
#
# Bulk Modulus (GPa) = 60.42194 63.64845 62.03519
# Shear Modulus (GPa) = 15.68452 24.09797 19.89125
#
# Velocity S-wave (km/s) = 2.78255 3.44904 3.13356
# Velocity P-wave (km/s) = 6.33644 6.87611 6.61179
#
# Compressibility (1/GPa) = 0.01655028
#
# Stress axis : x y z
#
# Youngs Moduli (GPa) = 69.18776 78.68975 95.05756
#
# Poissons Ratio (x) = 0.21049 0.38617
# Poissons Ratio (y) = 0.18507 0.36389
# Poissons Ratio (z) = 0.28108 0.30123
#
# Static dielectric constant tensor:
#      x y z
#    x 1.725870 0.000000 0.000000 
#    y 0.000000 1.741360 0.000000 
#    z 0.000000 0.000000 1.690640 
# 
# From -- ./inp_files/18201.got.cif
#   From: 2010.05.17/outbox.cif.g08.bks.cpg/sg38_10_cif.got.tgz:18201.got - 2010.06.03 18:07:57.
