data_PCOD9359483
_publ_section_title
;
Structure prediction by ZEFSAII (Michael W. Deem and Ramdas Pophale) SiO2 
 PCOD9359483
Probable space group: A M M 2
;
_chemical_formula_sum "Si O2"
_cell_formula_units_Z 64
_cell_length_a 22.469528
_cell_length_b 14.547790
_cell_length_c 9.332883
_cell_angle_alpha 90.000000
_cell_angle_beta 90.000000
_cell_angle_gamma 90.000000
_cell_volume 3050.751225
_symmetry_space_group_name_H-M "A M M 2"
_symmetry_group_IT_number 38
_symmetry_cell_setting 'orthorhombic'
loop_
_space_group_symop_operation_xyz
x,y,z
-x,-y,z
-x,y,z
x,-y,z
x,1/2+y,1/2+z
-x,1/2-y,1/2+z
-x,1/2+y,1/2+z
x,1/2-y,1/2+z
loop_
_atom_site_type_symbol
_atom_site_label
_atom_site_fract_x
_atom_site_fract_y
_atom_site_fract_z
Si Si1 0.571213 0.887060 0.465010
Si Si2 0.183397 0.657133 0.133748
Si Si3 0.816603 0.842865 0.296271
Si Si4 0.933292 0.389813 0.303423
Si Si5 0.933292 0.889813 0.126595
Si Si6 0.711854 0.098133 0.120584
Si Si7 0.711854 0.401867 0.309434
Si Si8 0.622622 0.750000 0.715009
O O1 0.500000 0.891820 0.465008
O O2 0.590441 0.821728 0.602799
O O3 0.590442 0.821728 0.327221
O O4 0.590892 0.000000 0.465011
O O5 0.198469 0.749999 0.215011
O O6 0.118470 0.631962 0.193123
O O7 0.238084 0.596837 0.188362
O O8 0.182682 0.663982 0.965010
O O9 0.881530 0.868037 0.236894
O O10 0.761916 0.903162 0.241655
O O11 0.935555 0.500000 0.312099
O O12 0.919468 0.355101 0.465009
O O13 0.000000 0.358184 0.264321
O O14 0.000000 0.858184 0.165697
O O15 0.935554 0.000000 0.117921
O O16 0.666265 0.180909 0.131413
O O17 0.679324 0.000000 0.126585
O O18 0.743030 0.103823 0.965009
O O19 0.679324 0.500000 0.303433
O O20 0.666265 0.319090 0.298604
#
# Coordination Sequence:
#
# PCOD9359483 Si02
#       8
#     8   8   8   8   8   8   8   8
#     4  11  26  48  77 113 153 197 241 292 352 412
#     4  12  25  39  58  87 124 168 218 279 346 414
#     4  12  25  39  58  87 124 168 218 279 346 414
#     4   9  19  38  62  85 114 156 207 268 341 419
#     4   9  19  38  62  85 114 156 207 268 341 419
#     4  11  24  42  66  97 135 179 226 283 349 411
#     4  11  24  42  66  97 135 179 226 283 349 411
#     4  12  23  46  72 106 145 188 238 290 342 412
#
# _framework density 20.978439999999999
#
# number of rings (size 3 to 8) (size 9 to 14) (size 15 to 20)
#    0.000    1.125    2.500    4.875    1.750    5.000 
#    0.000    1.250    0.000    3.000    0.000    0.000 
#    0.000    0.000    0.000    0.000    0.000    0.000 
#
# Total GULP energy -178256.338969 kJ/mol
# GULP energy per Si atom -5570.510593 kJ/mol
# Density = 2.093069 g / cm^3
# Si number density = 20.978440 Si / 1000 Ang^3
#
#
#
# Elastic Constant Matrix: (Units=GPa)
#
#
# Indices 1 2 3 4 5 6 
#
# 1 92.4354 44.8727 65.7419 0.0000 0.0000 0.0000
# 2 44.8727 155.6669 51.4450 0.0000 0.0000 0.0000
# 3 65.7419 51.4450 166.2559 0.0000 0.0000 0.0000
# 4 0.0000 0.0000 0.0000 25.0529 0.0000 0.0000
# 5 0.0000 0.0000 0.0000 0.0000 53.6298 0.0000
# 6 0.0000 0.0000 0.0000 0.0000 0.0000 32.4495
#
#
#
# Elastic Compliance Matrix: (Units=1/GPa)
#
#
# Indices 1 2 3 4 5 6 
#
# 1 0.016094 -0.002825 -0.005490 0.000000 0.000000 0.000000
# 2 -0.002825 0.007652 -0.001251 0.000000 0.000000 0.000000
# 3 -0.005490 -0.001251 0.008573 0.000000 0.000000 0.000000
# 4 0.000000 0.000000 0.000000 0.039916 0.000000 0.000000
# 5 0.000000 0.000000 0.000000 0.000000 0.018646 0.000000
# 6 0.000000 0.000000 0.000000 0.000000 0.000000 0.030817
#
#
# Mechanical properties :
#
#
# Convention : Reuss Voigt Hill
#
# Bulk Modulus (GPa) = 75.82944 82.05303 78.94124
# Shear Modulus (GPa) = 34.42940 39.04633 36.73786
#
# Velocity S-wave (km/s) = 4.05554 4.31891 4.18930
# Velocity P-wave (km/s) = 7.62593 8.00429 7.81740
#
# Compressibility (1/GPa) = 0.01318749
#
# Stress axis : x y z
#
# Youngs Moduli (GPa) = 62.13355 130.69147 116.64975
#
# Poissons Ratio (x) = 0.36921 0.64040
# Poissons Ratio (y) = 0.17553 0.14588
# Poissons Ratio (z) = 0.34111 0.16344
#
# Static dielectric constant tensor:
#      x y z
#    x 1.765460 0.000000 0.000000 
#    y 0.000000 1.920390 0.000000 
#    z 0.000000 0.000000 1.787900 
# 
# From -- ./inp_files/6986.got.cif
#   From: 2010.05.17/outbox.cif.g08.bks.cpg/sg38_4_cif.got.tgz:6986.got - 2010.06.03 18:07:57.
