data_PCOD9359842
_publ_section_title
;
Structure prediction by ZEFSAII (Michael W. Deem and Ramdas Pophale) SiO2 
 PCOD9359842
Probable space group: A B M 2
;
_chemical_formula_sum "Si O2"
_cell_formula_units_Z 64
_cell_length_a 8.736638
_cell_length_b 18.078181
_cell_length_c 20.961216
_cell_angle_alpha 90.000000
_cell_angle_beta 90.000000
_cell_angle_gamma 90.000000
_cell_volume 3310.667342
_symmetry_space_group_name_H-M "A B M 2"
_symmetry_group_IT_number 39
_symmetry_cell_setting 'orthorhombic'
loop_
_space_group_symop_operation_xyz
x,y,z
-x,-y,z
-x,1/2+y,z
x,1/2-y,z
x,1/2+y,1/2+z
-x,1/2-y,1/2+z
-x,y,1/2+z
x,-y,1/2+z
loop_
_atom_site_type_symbol
_atom_site_label
_atom_site_fract_x
_atom_site_fract_y
_atom_site_fract_z
Si Si1 0.314614 0.832108 0.720650
Si Si2 0.937670 0.915321 0.530918
Si Si3 0.828922 0.532648 0.707303
Si Si4 0.357799 0.547242 0.815447
Si Si5 0.041160 0.834162 0.264192
Si Si6 0.679767 0.494206 0.572749
Si Si7 0.212527 0.163346 0.076784
Si Si8 0.938688 0.916332 0.386991
O O1 0.369434 0.750000 0.735319
O O2 0.405594 0.890134 0.763817
O O3 0.300556 0.840072 0.644601
O O4 0.135698 0.838145 0.740979
O O5 0.759780 0.934588 0.540095
O O6 0.962143 0.888887 0.458786
O O7 0.031764 0.860222 0.576848
O O8 0.000000 0.000000 0.540571
O O9 0.745221 0.504690 0.770337
O O10 0.853618 0.619423 0.716469
O O11 0.742539 0.503428 0.645256
O O12 0.000000 0.500000 0.706041
O O13 0.500000 0.500000 0.840584
O O14 0.240634 0.580788 0.867008
O O15 0.088261 0.750000 0.267619
O O16 0.030673 0.870922 0.333927
O O17 0.500000 0.500000 0.572058
O O18 0.723671 0.412725 0.544092
O O19 0.225494 0.250000 0.055271
O O20 0.000000 0.000000 0.385960
#
# Coordination Sequence:
#
# PCOD9359842 Si02
#       8
#     8   8   8   8   8   8   8   8
#     4   9  17  30  50  76 107 141 176 220 280 342
#     4   9  20  35  57  80 104 143 200 246 286 346
#     4  12  18  34  55  77 112 147 190 238 286 342
#     4  11  20  31  53  80 109 150 183 226 290 357
#     4  10  18  30  52  80 106 136 180 234 285 329
#     4  11  22  36  56  85 119 156 194 240 300 368
#     4  10  19  35  57  84 112 148 194 249 301 344
#     4  10  18  36  55  77 104 142 189 238 282 340
#
# _framework density 19.331448999999999
#
# number of rings (size 3 to 8) (size 9 to 14) (size 15 to 20)
#    0.000    1.750    5.000    2.250    0.000    1.000 
#    0.000    1.875    0.000    0.000    0.000    3.500 
#    0.000    0.000    0.000    0.000    0.000    0.000 
#
# Total GULP energy -178140.211882 kJ/mol
# GULP energy per Si atom -5566.881621 kJ/mol
# Density = 1.928745 g / cm^3
# Si number density = 19.331449 Si / 1000 Ang^3
#
#
#
# Elastic Constant Matrix: (Units=GPa)
#
#
# Indices 1 2 3 4 5 6 
#
# 1 69.1789 22.2109 -1.8192 0.0000 0.0000 0.0000
# 2 22.2109 117.9192 -1.3353 0.0000 0.0000 0.0000
# 3 -1.8192 -1.3353 30.5231 0.0000 0.0000 0.0000
# 4 0.0000 0.0000 0.0000 15.2342 0.0000 0.0000
# 5 0.0000 0.0000 0.0000 0.0000 11.4214 0.0000
# 6 0.0000 0.0000 0.0000 0.0000 0.0000 16.9000
#
#
#
# Elastic Compliance Matrix: (Units=1/GPa)
#
#
# Indices 1 2 3 4 5 6 
#
# 1 0.015405 -0.002893 0.000792 0.000000 0.000000 0.000000
# 2 -0.002893 0.009028 0.000223 0.000000 0.000000 0.000000
# 3 0.000792 0.000223 0.032819 0.000000 0.000000 0.000000
# 4 0.000000 0.000000 0.000000 0.065642 0.000000 0.000000
# 5 0.000000 0.000000 0.000000 0.000000 0.087555 0.000000
# 6 0.000000 0.000000 0.000000 0.000000 0.000000 0.059171
#
#
# Mechanical properties :
#
#
# Convention : Reuss Voigt Hill
#
# Bulk Modulus (GPa) = 18.69348 28.41488 23.55418
# Shear Modulus (GPa) = 17.16983 21.94878 19.55930
#
# Velocity S-wave (km/s) = 2.98347 3.37321 3.18431
# Velocity P-wave (km/s) = 4.64318 5.46828 5.07254
#
# Compressibility (1/GPa) = 0.05349458
#
# Stress axis : x y z
#
# Youngs Moduli (GPa) = 64.91477 110.76960 30.47013
#
# Poissons Ratio (x) = 0.32042 -0.02412
# Poissons Ratio (y) = 0.18777 -0.00678
# Poissons Ratio (z) = -0.05139 -0.02465
#
# Static dielectric constant tensor:
#      x y z
#    x 1.718720 0.000000 0.000000 
#    y 0.000000 1.719560 0.000000 
#    z 0.000000 0.000000 1.712170 
# 
# From -- ./inp_files/14231.got.cif
#   From: 2010.05.17/outbox.cif.g08.bks.cpg/sg39_8_cif.got.tgz:14231.got - 2010.06.03 18:22:40.
