data_PCOD9359280
_publ_section_title
;
Structure prediction by ZEFSAII (Michael W. Deem and Ramdas Pophale) SiO2 
 PCOD9359280
Probable space group: A M M 2
;
_chemical_formula_sum "Si O2"
_cell_formula_units_Z 64
_cell_length_a 15.794168
_cell_length_b 8.916451
_cell_length_c 24.148497
_cell_angle_alpha 90.000000
_cell_angle_beta 90.000000
_cell_angle_gamma 90.000000
_cell_volume 3400.782726
_symmetry_space_group_name_H-M "A M M 2"
_symmetry_group_IT_number 38
_symmetry_cell_setting 'orthorhombic'
loop_
_space_group_symop_operation_xyz
x,y,z
-x,-y,z
-x,y,z
x,-y,z
x,1/2+y,1/2+z
-x,1/2-y,1/2+z
-x,1/2+y,1/2+z
x,1/2-y,1/2+z
loop_
_atom_site_type_symbol
_atom_site_label
_atom_site_fract_x
_atom_site_fract_y
_atom_site_fract_z
Si Si1 0.095620 0.820318 0.643450
Si Si2 0.095894 0.178967 0.379868
Si Si3 0.752307 0.678976 0.449069
Si Si4 0.843406 0.679274 0.267026
Si Si5 0.404380 0.679682 0.884763
Si Si6 0.343406 0.320726 0.761187
Si Si7 0.252307 0.321024 0.579144
Si Si8 0.404106 0.678967 0.148345
O O1 0.111125 0.790937 0.708606
O O2 0.167862 0.738857 0.608752
O O3 0.000000 0.776170 0.628202
O O4 0.103981 0.000000 0.635703
O O5 0.166864 0.246809 0.419737
O O6 0.109649 0.249193 0.319217
O O7 0.000000 0.210445 0.398791
O O8 0.107189 0.000000 0.376378
O O9 0.757478 0.500000 0.442500
O O10 0.667862 0.738857 0.419461
O O11 0.750000 0.715131 0.514107
O O12 0.837435 0.500000 0.274247
O O13 0.750000 0.750000 0.264107
O O14 0.500000 0.723830 0.900011
O O15 0.396019 0.500000 0.892510
O O16 0.388875 0.709063 0.819607
O O17 0.337435 0.500000 0.753966
O O18 0.390351 0.249192 0.708996
O O19 0.257477 0.500000 0.585713
O O20 0.333136 0.246809 0.608477
O O21 0.500000 0.710445 0.129423
O O22 0.392811 0.500000 0.151835
#
# Coordination Sequence:
#
# PCOD9359280 Si02
#       8
#     8   8   8   8   8   8   8   8
#     4  10  22  40  63  91 123 160 200 244 300 363
#     4  11  24  41  63  92 124 162 206 250 301 362
#     4  11  25  43  63  88 119 159 206 256 309 362
#     4  11  21  36  62  94 127 162 199 243 302 364
#     4  10  22  40  63  91 123 160 200 244 300 363
#     4  11  21  36  62  94 127 162 199 243 302 364
#     4  11  25  43  63  88 119 159 206 256 309 362
#     4  11  24  41  63  92 124 162 206 250 301 362
#
# _framework density 18.819196999999999
#
# number of rings (size 3 to 8) (size 9 to 14) (size 15 to 20)
#    0.000    1.250    2.500    3.000    0.000    7.500 
#    0.000    5.000    0.000    0.000    0.000    0.000 
#    0.000    0.000    0.000    0.000    0.000    0.000 
#
# Total GULP energy -178950.450045 kJ/mol
# GULP energy per Si atom -5592.201564 kJ/mol
# Density = 1.877636 g / cm^3
# Si number density = 18.819197 Si / 1000 Ang^3
#
#
#
# Elastic Constant Matrix: (Units=GPa)
#
#
# Indices 1 2 3 4 5 6 
#
# 1 187.1756 81.5978 94.6185 0.0000 0.0000 0.0000
# 2 81.5978 74.9908 79.1660 0.0000 0.0000 0.0000
# 3 94.6185 79.1660 140.8723 0.0000 0.0000 0.0000
# 4 0.0000 0.0000 0.0000 30.1361 0.0000 0.0000
# 5 0.0000 0.0000 0.0000 0.0000 -7.6220 0.0000
# 6 0.0000 0.0000 0.0000 0.0000 0.0000 20.3766
#
#
#
# Elastic Compliance Matrix: (Units=1/GPa)
#
#
# Indices 1 2 3 4 5 6 
#
# 1 0.010295 -0.009594 -0.001523 0.000000 0.000000 0.000000
# 2 -0.009594 0.041726 -0.017005 0.000000 0.000000 0.000000
# 3 -0.001523 -0.017005 0.017678 0.000000 0.000000 0.000000
# 4 0.000000 0.000000 0.000000 0.033183 0.000000 0.000000
# 5 0.000000 0.000000 0.000000 0.000000 -0.131198 0.000000
# 6 0.000000 0.000000 0.000000 0.000000 0.000000 0.049076
#
#
# Mechanical properties :
#
#
# Convention : Reuss Voigt Hill
#
# Bulk Modulus (GPa) = 74.32330 101.53371 87.92850
# Shear Modulus (GPa) = 61.35920 18.42190 39.89055
#
# Velocity S-wave (km/s) = 5.71624 3.13211 4.60899
# Velocity P-wave (km/s) = 9.11846 8.19448 8.66879
#
# Compressibility (1/GPa) = 0.01345473
#
# Stress axis : x y z
#
# Youngs Moduli (GPa) = 97.13445 23.96608 56.56816
#
# Poissons Ratio (x) = 0.22993 0.08616
# Poissons Ratio (y) = 0.93191 0.96192
# Poissons Ratio (z) = 0.14796 0.40753
#
# Static dielectric constant tensor:
#      x y z
#    x 1.634430 0.000000 0.000000 
#    y 0.000000 1.627610 0.000000 
#    z 0.000000 0.000000 1.627310 
# 
# From -- ./inp_files/22910.got.cif
#   From: 2010.05.17/outbox.cif.g08.bks.cpg/sg38_12_cif.got.tgz:22910.got - 2010.06.03 18:07:57.
