data_PCOD9359099
_publ_section_title
;
Structure prediction by ZEFSAII (Michael W. Deem and Ramdas Pophale) SiO2 
 PCOD9359099
Probable space group: A M M 2
;
_chemical_formula_sum "Si O2"
_cell_formula_units_Z 40
_cell_length_a 21.648452
_cell_length_b 10.202747
_cell_length_c 10.112778
_cell_angle_alpha 90.000000
_cell_angle_beta 90.000000
_cell_angle_gamma 90.000000
_cell_volume 2233.646479
_symmetry_space_group_name_H-M "A M M 2"
_symmetry_group_IT_number 38
_symmetry_cell_setting 'orthorhombic'
loop_
_space_group_symop_operation_xyz
x,y,z
-x,-y,z
-x,y,z
x,-y,z
x,1/2+y,1/2+z
-x,1/2-y,1/2+z
-x,1/2+y,1/2+z
x,1/2-y,1/2+z
loop_
_atom_site_type_symbol
_atom_site_label
_atom_site_fract_x
_atom_site_fract_y
_atom_site_fract_z
Si Si1 0.851055 0.755560 0.779630
Si Si2 0.223752 0.656515 0.022701
Si Si3 0.072279 0.000000 0.206267
Si Si4 0.367203 0.154557 0.582884
Si Si5 0.573757 0.652391 0.795830
Si Si6 0.072209 0.500000 0.387868
O O1 0.818547 0.794120 0.642819
O O2 0.893133 0.627801 0.759933
O O3 0.893514 0.873444 0.830584
O O4 0.799192 0.724696 0.889069
O O5 0.216631 0.500000 0.008435
O O6 0.295222 0.682708 0.055127
O O7 0.000000 0.000000 0.242722
O O8 0.076590 0.000000 0.046892
O O9 0.393441 0.248214 0.696090
O O10 0.403806 0.175243 0.445772
O O11 0.373134 0.000000 0.618466
O O12 0.500000 0.668093 0.787795
O O13 0.588862 0.500000 0.763630
O O14 0.000000 0.500000 0.351659
#
# Coordination Sequence:
#
# PCOD9359099 Si02
#       6
#     8   8   4   8   8   4
#     4  12  22  42  62  89 118 162 196 250 301 355
#     4  11  23  39  62  88 124 153 203 246 296 355
#     4  11  24  41  63  91 119 155 202 248 301 360
#     4  10  22  40  60  89 119 162 199 244 293 352
#     4  10  21  39  61  89 123 155 197 246 297 348
#     4  11  24  41  61  91 125 155 198 252 301 356
#
# _framework density 17.907935999999999
#
# number of rings (size 3 to 8) (size 9 to 14) (size 15 to 20)
#    0.000    1.200    4.000    2.400    0.000    2.000 
#    3.600    1.000    0.000    0.000    0.000    0.000 
#    0.000    0.000    0.000    0.000    0.000    0.000 
#
# Total GULP energy -111790.997890 kJ/mol
# GULP energy per Si atom -5589.549894 kJ/mol
# Density = 1.786718 g / cm^3
# Si number density = 17.907936 Si / 1000 Ang^3
#
#
#
# Elastic Constant Matrix: (Units=GPa)
#
#
# Indices 1 2 3 4 5 6 
#
# 1 56.1804 27.3671 -7.9162 0.0000 0.0000 0.0000
# 2 27.3671 91.5083 8.8917 0.0000 0.0000 0.0000
# 3 -7.9162 8.8917 32.4379 0.0000 0.0000 0.0000
# 4 0.0000 0.0000 0.0000 11.4612 0.0000 0.0000
# 5 0.0000 0.0000 0.0000 0.0000 18.6874 0.0000
# 6 0.0000 0.0000 0.0000 0.0000 0.0000 38.1503
#
#
#
# Elastic Compliance Matrix: (Units=1/GPa)
#
#
# Indices 1 2 3 4 5 6 
#
# 1 0.022495 -0.007460 0.007535 0.000000 0.000000 0.000000
# 2 -0.007460 0.013701 -0.005576 0.000000 0.000000 0.000000
# 3 0.007535 -0.005576 0.034195 0.000000 0.000000 0.000000
# 4 0.000000 0.000000 0.000000 0.087251 0.000000 0.000000
# 5 0.000000 0.000000 0.000000 0.000000 0.053512 0.000000
# 6 0.000000 0.000000 0.000000 0.000000 0.000000 0.026212
#
#
# Mechanical properties :
#
#
# Convention : Reuss Voigt Hill
#
# Bulk Modulus (GPa) = 16.83808 26.31242 21.57525
# Shear Modulus (GPa) = 18.64520 23.77871 21.21196
#
# Velocity S-wave (km/s) = 3.23022 3.64789 3.44539
# Velocity P-wave (km/s) = 4.83067 5.69806 5.28220
#
# Compressibility (1/GPa) = 0.05938920
#
# Stress axis : x y z
#
# Youngs Moduli (GPa) = 44.45363 72.98874 29.24368
#
# Poissons Ratio (x) = 0.54448 -0.22034
# Poissons Ratio (y) = 0.33161 0.16306
# Poissons Ratio (z) = -0.33494 0.40699
#
# Static dielectric constant tensor:
#      x y z
#    x 1.588710 0.000000 0.000000 
#    y 0.000000 1.587780 0.000000 
#    z 0.000000 0.000000 1.574730 
# 
# From -- ./inp_files/6652.got.cif
#   From: 2010.05.17/outbox.cif.g08.bks.cpg/sg38_4_cif.got.tgz:6652.got - 2010.06.03 18:07:57.
