data_PCOD9359814
_publ_section_title
;
Structure prediction by ZEFSAII (Michael W. Deem and Ramdas Pophale) SiO2 
 PCOD9359814
Probable space group: A B M 2
;
_chemical_formula_sum "Si O2"
_cell_formula_units_Z 64
_cell_length_a 14.671928
_cell_length_b 8.625348
_cell_length_c 32.067366
_cell_angle_alpha 90.000000
_cell_angle_beta 90.000000
_cell_angle_gamma 90.000000
_cell_volume 4058.140715
_symmetry_space_group_name_H-M "A B M 2"
_symmetry_group_IT_number 39
_symmetry_cell_setting 'orthorhombic'
loop_
_space_group_symop_operation_xyz
x,y,z
-x,-y,z
-x,1/2+y,z
x,1/2-y,z
x,1/2+y,1/2+z
-x,1/2-y,1/2+z
-x,y,1/2+z
x,-y,1/2+z
loop_
_atom_site_type_symbol
_atom_site_label
_atom_site_fract_x
_atom_site_fract_y
_atom_site_fract_z
Si Si1 0.896587 0.564859 0.043190
Si Si2 0.897144 0.436134 0.956115
Si Si3 0.215037 0.064323 0.373742
Si Si4 0.896831 0.563242 0.630368
Si Si5 0.789132 0.561243 0.712722
Si Si6 0.898000 0.436311 0.295576
Si Si7 0.402047 0.563349 0.246859
Si Si8 0.598514 0.435755 0.344445
O O1 0.897793 0.750000 0.043760
O O2 0.858008 0.499855 0.086539
O O3 0.000000 0.500000 0.042957
O O4 0.858087 0.503374 0.999470
O O5 0.902297 0.250000 0.959258
O O6 0.835800 0.479296 0.916534
O O7 0.000000 0.500000 0.950300
O O8 0.214767 0.250000 0.370769
O O9 0.159407 0.995696 0.334815
O O10 0.317740 0.002953 0.370369
O O11 0.900942 0.750000 0.628746
O O12 0.836135 0.513084 0.669720
O O13 0.000000 0.500000 0.635495
O O14 0.788260 0.750000 0.712662
O O15 0.849247 0.513650 0.752616
O O16 0.685312 0.509821 0.720563
O O17 0.899446 0.250000 0.296475
O O18 0.000000 0.500000 0.297423
O O19 0.500000 0.500000 0.233328
O O20 0.404990 0.750000 0.245577
O O21 0.388018 0.519074 0.295557
O O22 0.500000 0.500000 0.357232
O O23 0.598968 0.250000 0.346505
#
# Coordination Sequence:
#
# PCOD9359814 Si02
#       8
#     8   8   8   8   8   8   8   8
#     4  10  18  30  48  69  94 122 157 199 242 287
#     4  10  20  33  49  70  97 128 164 202 240 289
#     4  11  22  34  49  72  98 129 167 202 242 293
#     4  10  18  30  48  68  95 128 160 197 237 283
#     4   9  18  32  48  67  95 129 163 196 239 286
#     4  11  21  34  47  65  96 134 169 202 237 282
#     4   9  17  32  49  69  92 122 159 200 243 283
#     4  10  19  33  53  72  97 127 162 207 248 290
#
# _framework density 15.770769
#
# number of rings (size 3 to 8) (size 9 to 14) (size 15 to 20)
#    0.000    2.000    1.250    5.250    0.000    3.500 
#    0.000    3.125    0.000    0.000    0.000    0.875 
#    0.000    2.000    0.000    0.000    0.000    0.000 
#
# Total GULP energy -178528.457861 kJ/mol
# GULP energy per Si atom -5579.014308 kJ/mol
# Density = 1.573487 g / cm^3
# Si number density = 15.770769 Si / 1000 Ang^3
#
#
#
# Elastic Constant Matrix: (Units=GPa)
#
#
# Indices 1 2 3 4 5 6 
#
# 1 120.2829 32.2655 74.1498 0.0000 0.0000 0.0000
# 2 32.2655 55.2993 45.3454 0.0000 0.0000 0.0000
# 3 74.1498 45.3454 149.6154 0.0000 0.0000 0.0000
# 4 0.0000 0.0000 0.0000 20.8838 0.0000 0.0000
# 5 0.0000 0.0000 0.0000 0.0000 33.4741 0.0000
# 6 0.0000 0.0000 0.0000 0.0000 0.0000 24.6323
#
#
#
# Elastic Compliance Matrix: (Units=1/GPa)
#
#
# Indices 1 2 3 4 5 6 
#
# 1 0.012311 -0.002901 -0.005222 0.000000 0.000000 0.000000
# 2 -0.002901 0.024747 -0.006063 0.000000 0.000000 0.000000
# 3 -0.005222 -0.006063 0.011109 0.000000 0.000000 0.000000
# 4 0.000000 0.000000 0.000000 0.047884 0.000000 0.000000
# 5 0.000000 0.000000 0.000000 0.000000 0.029874 0.000000
# 6 0.000000 0.000000 0.000000 0.000000 0.000000 0.040597
#
#
# Mechanical properties :
#
#
# Convention : Reuss Voigt Hill
#
# Bulk Modulus (GPa) = 50.51463 69.85766 60.18615
# Shear Modulus (GPa) = 24.81466 27.36051 26.08758
#
# Velocity S-wave (km/s) = 3.97099 4.16972 4.07157
# Velocity P-wave (km/s) = 7.28870 8.22033 7.76849
#
# Compressibility (1/GPa) = 0.01979624
#
# Stress axis : x y z
#
# Youngs Moduli (GPa) = 81.22667 40.40816 90.01351
#
# Poissons Ratio (x) = 0.11722 0.47007
# Poissons Ratio (y) = 0.23564 0.54573
# Poissons Ratio (z) = 0.42419 0.24498
#
# Static dielectric constant tensor:
#      x y z
#    x 1.483110 0.000000 0.000000 
#    y 0.000000 1.535830 0.000000 
#    z 0.000000 0.000000 1.541480 
# 
# From -- ./inp_files/17985.got.cif
#   From: 2010.05.17/outbox.cif.g08.bks.cpg/sg39_9_cif.got.tgz:17985.got - 2010.06.03 18:22:40.
