data_PCOD9359726
_publ_section_title
;
Structure prediction by ZEFSAII (Michael W. Deem and Ramdas Pophale) SiO2 
 PCOD9359726
Probable space group: A B M 2
;
_chemical_formula_sum "Si O2"
_cell_formula_units_Z 48
_cell_length_a 16.361416
_cell_length_b 8.562660
_cell_length_c 19.349265
_cell_angle_alpha 90.000000
_cell_angle_beta 90.000000
_cell_angle_gamma 90.000000
_cell_volume 2710.778668
_symmetry_space_group_name_H-M "A B M 2"
_symmetry_group_IT_number 39
_symmetry_cell_setting 'orthorhombic'
loop_
_space_group_symop_operation_xyz
x,y,z
-x,-y,z
-x,1/2+y,z
x,1/2-y,z
x,1/2+y,1/2+z
-x,1/2-y,1/2+z
-x,y,1/2+z
x,-y,1/2+z
loop_
_atom_site_type_symbol
_atom_site_label
_atom_site_fract_x
_atom_site_fract_y
_atom_site_fract_z
Si Si1 0.083720 0.063280 0.389440
Si Si2 0.256306 0.061297 0.549687
Si Si3 0.915811 0.935971 0.046987
Si Si4 0.738028 0.060106 0.889114
Si Si5 0.587428 0.562506 0.640315
Si Si6 0.412442 0.437880 0.295844
O O1 0.079809 0.250000 0.389907
O O2 0.172272 0.013505 0.360941
O O3 0.085174 0.005020 0.468936
O O4 0.000000 0.000000 0.357123
O O5 0.249097 0.250000 0.550626
O O6 0.267916 0.012446 0.469487
O O7 0.335498 0.015998 0.593643
O O8 0.170932 0.991335 0.577102
O O9 0.919417 0.750000 0.044067
O O10 0.000000 0.000000 0.079626
O O11 0.736439 0.250000 0.888833
O O12 0.662260 0.006703 0.843436
O O13 0.500000 0.500000 0.614093
O O14 0.583770 0.750000 0.642809
O O15 0.598081 0.497781 0.717712
O O16 0.500000 0.500000 0.321093
O O17 0.414214 0.250000 0.295280
#
# Coordination Sequence:
#
# PCOD9359726 Si02
#       6
#     8   8   8   8   8   8
#     4   9  15  26  43  65  94 125 157 190 230 278
#     4   9  18  33  50  70  97 126 159 198 238 278
#     4  10  17  26  43  68  97 127 158 192 233 280
#     4   8  16  30  48  69  94 124 154 190 235 276
#     4  10  20  34  52  71  94 125 159 196 237 284
#     4  10  19  33  51  69  92 123 159 194 233 284
#
# _framework density 17.707089
#
# number of rings (size 3 to 8) (size 9 to 14) (size 15 to 20)
#    0.000    2.667    0.000    6.000    0.000    2.000 
#    0.000    8.333    0.000    1.000    0.000    4.667 
#    0.000    0.000    0.000    0.000    0.000    0.000 
#
# Total GULP energy -133696.267268 kJ/mol
# GULP energy per Si atom -5570.677803 kJ/mol
# Density = 1.766679 g / cm^3
# Si number density = 17.707089 Si / 1000 Ang^3
#
#
#
# Elastic Constant Matrix: (Units=GPa)
#
#
# Indices 1 2 3 4 5 6 
#
# 1 234.2765 49.9194 65.9020 0.0000 0.0000 0.0000
# 2 49.9194 56.5713 14.2685 0.0000 0.0000 0.0000
# 3 65.9020 14.2685 32.3398 0.0000 0.0000 0.0000
# 4 0.0000 0.0000 0.0000 10.9550 0.0000 0.0000
# 5 0.0000 0.0000 0.0000 0.0000 -22.2048 0.0000
# 6 0.0000 0.0000 0.0000 0.0000 0.0000 31.0969
#
#
#
# Elastic Compliance Matrix: (Units=1/GPa)
#
#
# Indices 1 2 3 4 5 6 
#
# 1 0.010948 -0.004539 -0.020307 0.000000 0.000000 0.000000
# 2 -0.004539 0.021772 -0.000357 0.000000 0.000000 0.000000
# 3 -0.020307 -0.000357 0.072461 0.000000 0.000000 0.000000
# 4 0.000000 0.000000 0.000000 0.091283 0.000000 0.000000
# 5 0.000000 0.000000 0.000000 0.000000 -0.045035 0.000000
# 6 0.000000 0.000000 0.000000 0.000000 0.000000 0.032158
#
#
# Mechanical properties :
#
#
# Convention : Reuss Voigt Hill
#
# Bulk Modulus (GPa) = 18.25633 64.81859 41.53746
# Shear Modulus (GPa) = 19.82157 16.84259 18.33208
#
# Velocity S-wave (km/s) = 3.34939 3.08746 3.22109
# Velocity P-wave (km/s) = 5.02896 7.02819 6.11089
#
# Compressibility (1/GPa) = 0.05477553
#
# Stress axis : x y z
#
# Youngs Moduli (GPa) = 91.34051 45.93083 13.80046
#
# Poissons Ratio (x) = 0.20847 0.28025
# Poissons Ratio (y) = 0.41457 0.00492
# Poissons Ratio (z) = 1.85489 0.01638
#
# Static dielectric constant tensor:
#      x y z
#    x 1.665380 0.000000 0.000000 
#    y 0.000000 1.600580 0.000000 
#    z 0.000000 0.000000 1.577250 
# 
# From -- ./inp_files/14599.got.cif
#   From: 2010.05.17/outbox.cif.g08.bks.cpg/sg39_8_cif.got.tgz:14599.got - 2010.06.03 18:22:40.
