data_PCOD9359795
_publ_section_title
;
Structure prediction by ZEFSAII (Michael W. Deem and Ramdas Pophale) SiO2 
 PCOD9359795
Probable space group: A B M 2
;
_chemical_formula_sum "Si O2"
_cell_formula_units_Z 64
_cell_length_a 12.910962
_cell_length_b 22.628061
_cell_length_c 12.153003
_cell_angle_alpha 90.000000
_cell_angle_beta 90.000000
_cell_angle_gamma 90.000000
_cell_volume 3550.500260
_symmetry_space_group_name_H-M "A B M 2"
_symmetry_group_IT_number 39
_symmetry_cell_setting 'orthorhombic'
loop_
_space_group_symop_operation_xyz
x,y,z
-x,-y,z
-x,1/2+y,z
x,1/2-y,z
x,1/2+y,1/2+z
-x,1/2-y,1/2+z
-x,y,1/2+z
x,-y,1/2+z
loop_
_atom_site_type_symbol
_atom_site_label
_atom_site_fract_x
_atom_site_fract_y
_atom_site_fract_z
Si Si1 0.390631 0.080240 0.438470
Si Si2 0.102789 0.141232 0.312776
Si Si3 0.020232 0.564008 0.479433
Si Si4 0.925429 0.643556 0.663034
Si Si5 0.278974 0.570597 0.714039
Si Si6 0.242507 0.186083 0.503011
Si Si7 0.204547 0.445183 0.810002
Si Si8 0.371218 0.059565 0.974241
O O1 0.363126 0.085515 0.308888
O O2 0.320177 0.129919 0.497999
O O3 0.512042 0.083034 0.464026
O O4 0.363871 0.012374 0.469454
O O5 0.059624 0.085302 0.384112
O O6 0.184191 0.115393 0.226874
O O7 0.168926 0.180237 0.396003
O O8 0.003582 0.169521 0.253784
O O9 0.999438 0.612892 0.571749
O O10 0.000000 0.500000 0.530495
O O11 0.127680 0.553932 0.415690
O O12 0.839761 0.682104 0.602120
O O13 0.856762 0.593926 0.723001
O O14 0.235003 0.506248 0.750118
O O15 0.324559 0.574444 0.592773
O O16 0.295673 0.250000 0.503785
O O17 0.307865 0.419627 0.866789
#
# Coordination Sequence:
#
# PCOD9359795 Si02
#       8
#     8   8   8   8   8   8   8   8
#     4   9  21  36  50  79 104 134 186 224 274 336
#     4   9  19  33  47  79 107 142 183 222 256 330
#     4  10  18  28  46  75 117 150 178 205 266 334
#     4  10  21  30  51  79 111 142 181 225 272 325
#     4  10  18  31  51  73 109 147 172 210 271 334
#     4  10  21  39  58  74 103 146 193 237 268 323
#     4  10  20  30  47  78 111 147 179 211 267 333
#     4  10  20  33  55  78 109 140 169 226 284 341
#
# _framework density 18.025628000000001
#
# number of rings (size 3 to 8) (size 9 to 14) (size 15 to 20)
#    0.000    2.250    1.250    1.500    5.250    5.500 
#    0.000    0.000    0.000    6.750    0.000    0.000 
#    0.000    0.000    0.000    0.000    0.000    0.000 
#
# Total GULP energy -178156.955192 kJ/mol
# GULP energy per Si atom -5567.404850 kJ/mol
# Density = 1.798460 g / cm^3
# Si number density = 18.025628 Si / 1000 Ang^3
#
#
#
# Elastic Constant Matrix: (Units=GPa)
#
#
# Indices 1 2 3 4 5 6 
#
# 1 91.6584 28.8067 36.0659 0.0000 0.0000 0.0000
# 2 28.8067 50.5233 7.7742 0.0000 0.0000 0.0000
# 3 36.0659 7.7742 66.9365 0.0000 0.0000 0.0000
# 4 0.0000 0.0000 0.0000 0.2096 0.0000 0.0000
# 5 0.0000 0.0000 0.0000 0.0000 33.5362 0.0000
# 6 0.0000 0.0000 0.0000 0.0000 0.0000 10.5294
#
#
#
# Elastic Compliance Matrix: (Units=1/GPa)
#
#
# Indices 1 2 3 4 5 6 
#
# 1 0.016663 -0.008267 -0.008018 0.000000 0.000000 0.000000
# 2 -0.008267 0.024254 0.001637 0.000000 0.000000 0.000000
# 3 -0.008018 0.001637 0.019070 0.000000 0.000000 0.000000
# 4 0.000000 0.000000 0.000000 4.769875 0.000000 0.000000
# 5 0.000000 0.000000 0.000000 0.000000 0.029819 0.000000
# 6 0.000000 0.000000 0.000000 0.000000 0.000000 0.094972
#
#
# Mechanical properties :
#
#
# Convention : Reuss Voigt Hill
#
# Bulk Modulus (GPa) = 32.58208 39.37907 35.98058
# Shear Modulus (GPa) = 1.00117 17.95316 9.47716
#
# Velocity S-wave (km/s) = 0.74607 3.15934 2.29543
# Velocity P-wave (km/s) = 4.34244 5.93314 5.19899
#
# Compressibility (1/GPa) = 0.03069172
#
# Stress axis : x y z
#
# Youngs Moduli (GPa) = 60.01233 41.22947 52.43956
#
# Poissons Ratio (x) = 0.34085 0.42047
# Poissons Ratio (y) = 0.49612 -0.08586
# Poissons Ratio (z) = 0.48119 -0.06751
#
# Static dielectric constant tensor:
#      x y z
#    x 1.643370 0.000000 0.000000 
#    y 0.000000 1.620570 0.000000 
#    z 0.000000 0.000000 1.636680 
# 
# From -- ./inp_files/6100.got.cif
#   From: 2010.05.17/outbox.cif.g08.bks.cpg/sg39_4_cif.got.tgz:6100.got - 2010.06.03 18:22:40.
