data_PCOD9359227
_publ_section_title
;
Structure prediction by ZEFSAII (Michael W. Deem and Ramdas Pophale) SiO2 
 PCOD9359227
Probable space group: A M M 2
;
_chemical_formula_sum "Si O2"
_cell_formula_units_Z 56
_cell_length_a 8.111130
_cell_length_b 24.583090
_cell_length_c 14.086648
_cell_angle_alpha 90.000000
_cell_angle_beta 90.000000
_cell_angle_gamma 90.000000
_cell_volume 2808.830263
_symmetry_space_group_name_H-M "A M M 2"
_symmetry_group_IT_number 38
_symmetry_cell_setting 'orthorhombic'
loop_
_space_group_symop_operation_xyz
x,y,z
-x,-y,z
-x,y,z
x,-y,z
x,1/2+y,1/2+z
-x,1/2-y,1/2+z
-x,1/2+y,1/2+z
x,1/2-y,1/2+z
loop_
_atom_site_type_symbol
_atom_site_label
_atom_site_fract_x
_atom_site_fract_y
_atom_site_fract_z
Si Si1 0.693831 0.166687 0.710010
Si Si2 0.799152 0.437876 0.743625
Si Si3 0.201553 0.938373 0.026823
Si Si4 0.197630 0.560863 0.110177
Si Si5 0.304671 0.766633 0.531138
Si Si6 0.806350 0.665827 0.417213
Si Si7 0.799575 0.627685 0.924956
O O1 0.500000 0.164385 0.693207
O O2 0.760108 0.106385 0.687640
O O3 0.760655 0.208588 0.630699
O O4 0.727720 0.182478 0.817603
O O5 0.750073 0.500000 0.767169
O O6 0.747600 0.426387 0.635583
O O7 0.744738 0.395892 0.823892
O O8 0.000000 0.437243 0.744387
O O9 0.000000 0.937625 0.026114
O O10 0.252165 0.000000 0.002947
O O11 0.259766 0.891609 0.956316
O O12 0.262734 0.500000 0.126614
O O13 0.000000 0.557428 0.106690
O O14 0.250554 0.585761 0.008634
O O15 0.500000 0.756808 0.538066
O O16 0.221203 0.711739 0.496021
O O17 0.270894 0.814132 0.454465
O O18 0.000000 0.659645 0.399412
O O19 0.000000 0.631286 0.925518
#
# Coordination Sequence:
#
# PCOD9359227 Si02
#       7
#     8   8   8   8   8   8   8
#     4  10  22  39  56  76 106 143 181 221 267 323
#     4   8  13  24  46  77 110 139 168 208 259 311
#     4   8  16  31  50  76 108 135 163 206 259 311
#     4   9  17  30  50  78 111 144 180 225 273 318
#     4  10  22  39  55  74 105 142 177 217 266 319
#     4  11  22  36  58  83 105 135 175 219 267 319
#     4   9  16  28  50  80 109 139 178 221 263 311
#
# _framework density 19.937125999999999
#
# number of rings (size 3 to 8) (size 9 to 14) (size 15 to 20)
#    0.000    2.714    0.000    2.571    0.000    5.429 
#    0.000    2.857    0.000    3.429    0.000    4.000 
#    0.000    0.000    0.000    0.000    0.000    0.000 
#
# Total GULP energy -156197.763808 kJ/mol
# GULP energy per Si atom -5578.491565 kJ/mol
# Density = 1.989175 g / cm^3
# Si number density = 19.937126 Si / 1000 Ang^3
#
#
#
# Elastic Constant Matrix: (Units=GPa)
#
#
# Indices 1 2 3 4 5 6 
#
# 1 5.5030 -6.0057 -6.5268 0.0000 0.0000 0.0000
# 2 -6.0057 86.5063 43.4362 0.0000 0.0000 0.0000
# 3 -6.5268 43.4362 77.8281 0.0000 0.0000 0.0000
# 4 0.0000 0.0000 0.0000 21.4404 0.0000 0.0000
# 5 0.0000 0.0000 0.0000 0.0000 13.9000 0.0000
# 6 0.0000 0.0000 0.0000 0.0000 0.0000 -25.7624
#
#
#
# Elastic Compliance Matrix: (Units=1/GPa)
#
#
# Indices 1 2 3 4 5 6 
#
# 1 0.205510 0.007800 0.012881 0.000000 0.000000 0.000000
# 2 0.007800 0.016357 -0.008475 0.000000 0.000000 0.000000
# 3 0.012881 -0.008475 0.018659 0.000000 0.000000 0.000000
# 4 0.000000 0.000000 0.000000 0.046641 0.000000 0.000000
# 5 0.000000 0.000000 0.000000 0.000000 0.071943 0.000000
# 6 0.000000 0.000000 0.000000 0.000000 0.000000 -0.038816
#
#
# Mechanical properties :
#
#
# Convention : Reuss Voigt Hill
#
# Bulk Modulus (GPa) = 3.77447 25.73831 14.75639
# Shear Modulus (GPa) = 13.01433 11.17784 12.09608
#
# Velocity S-wave (km/s) = 2.55770 2.37038 2.46582
# Velocity P-wave (km/s) = 3.25880 4.51989 3.94012
#
# Compressibility (1/GPa) = 0.26493772
#
# Stress axis : x y z
#
# Youngs Moduli (GPa) = 4.86595 61.13748 53.59405
#
# Poissons Ratio (x) = -0.47686 -0.69036
# Poissons Ratio (y) = -0.03795 0.45419
# Poissons Ratio (z) = -0.06268 0.51812
#
# Static dielectric constant tensor:
#      x y z
#    x 1.705460 0.000000 0.000000 
#    y 0.000000 1.692930 0.000000 
#    z 0.000000 0.000000 1.697640 
# 
# From -- ./inp_files/12443.got.cif
#   From: 2010.05.17/outbox.cif.g08.bks.cpg/sg38_7_cif.got.tgz:12443.got - 2010.06.03 18:07:57.
