data_PCOD9359825
_publ_section_title
;
Structure prediction by ZEFSAII (Michael W. Deem and Ramdas Pophale) SiO2 
 PCOD9359825
Probable space group: A B M 2
;
_chemical_formula_sum "Si O2"
_cell_formula_units_Z 64
_cell_length_a 18.889713
_cell_length_b 8.082288
_cell_length_c 21.911708
_cell_angle_alpha 90.000000
_cell_angle_beta 90.000000
_cell_angle_gamma 90.000000
_cell_volume 3345.306490
_symmetry_space_group_name_H-M "A B M 2"
_symmetry_group_IT_number 39
_symmetry_cell_setting 'orthorhombic'
loop_
_space_group_symop_operation_xyz
x,y,z
-x,-y,z
-x,1/2+y,z
x,1/2-y,z
x,1/2+y,1/2+z
-x,1/2-y,1/2+z
-x,y,1/2+z
x,-y,1/2+z
loop_
_atom_site_type_symbol
_atom_site_label
_atom_site_fract_x
_atom_site_fract_y
_atom_site_fract_z
Si Si1 0.917556 0.449365 0.145210
Si Si2 0.582392 0.947349 0.643717
Si Si3 0.082210 0.450363 0.512153
Si Si4 0.417997 0.053671 0.274899
Si Si5 0.668457 0.453351 0.892174
Si Si6 0.082192 0.948319 0.278185
Si Si7 0.830157 0.551368 0.395860
Si Si8 0.417918 0.449873 0.510570
O O1 0.912479 0.250000 0.145401
O O2 0.890509 0.507808 0.211324
O O3 0.000000 0.500000 0.145028
O O4 0.890325 0.507151 0.079067
O O5 0.586216 0.750000 0.644455
O O6 0.609156 0.006884 0.577513
O O7 0.500000 0.000000 0.644457
O O8 0.612132 0.007468 0.708222
O O9 0.084362 0.250000 0.511981
O O10 0.127822 0.512414 0.455225
O O11 0.000000 0.500000 0.505524
O O12 0.417989 0.250000 0.278515
O O13 0.372761 0.988782 0.331739
O O14 0.500000 0.000000 0.279331
O O15 0.667874 0.250000 0.891754
O O16 0.749610 0.508791 0.892715
O O17 0.627595 0.507643 0.953188
O O18 0.084548 0.750000 0.278698
O O19 0.127458 0.012181 0.334466
O O20 0.000000 0.000000 0.284592
O O21 0.827137 0.750000 0.401798
O O22 0.500000 0.500000 0.503896
O O23 0.415579 0.250000 0.510867
#
# Coordination Sequence:
#
# PCOD9359825 Si02
#       8
#     8   8   8   8   8   8   8   8
#     4   8  15  28  46  70  95 118 148 188 232 273
#     4   9  16  27  46  72  98 121 151 194 240 284
#     4   9  17  30  50  72  92 118 153 191 230 273
#     4  10  18  30  50  72  95 123 157 197 238 284
#     4   9  19  34  49  67  94 129 164 195 233 282
#     4  10  19  32  51  74  99 125 157 196 236 281
#     4  10  20  34  50  68  95 130 163 195 234 281
#     4   9  17  31  51  73  95 122 158 198 239 284
#
# _framework density 19.131281000000001
#
# number of rings (size 3 to 8) (size 9 to 14) (size 15 to 20)
#    0.000    2.750    0.000    2.625    0.000    2.500 
#    0.000    3.750    0.000    3.000    0.000    0.000 
#    0.000    0.000    0.000    0.000    0.000    0.000 
#
# Total GULP energy -178282.405388 kJ/mol
# GULP energy per Si atom -5571.325168 kJ/mol
# Density = 1.908774 g / cm^3
# Si number density = 19.131281 Si / 1000 Ang^3
#
#
#
# Elastic Constant Matrix: (Units=GPa)
#
#
# Indices 1 2 3 4 5 6 
#
# 1 83.5887 4.7938 93.5965 0.0000 0.0000 0.0000
# 2 4.7938 14.3839 12.1937 0.0000 0.0000 0.0000
# 3 93.5965 12.1937 247.4002 0.0000 0.0000 0.0000
# 4 0.0000 0.0000 0.0000 35.1056 0.0000 0.0000
# 5 0.0000 0.0000 0.0000 0.0000 -4.8658 0.0000
# 6 0.0000 0.0000 0.0000 0.0000 0.0000 12.2133
#
#
#
# Elastic Compliance Matrix: (Units=1/GPa)
#
#
# Indices 1 2 3 4 5 6 
#
# 1 0.020757 -0.000272 -0.007839 0.000000 0.000000 0.000000
# 2 -0.000272 0.072557 -0.003473 0.000000 0.000000 0.000000
# 3 -0.007839 -0.003473 0.007179 0.000000 0.000000 0.000000
# 4 0.000000 0.000000 0.000000 0.028486 0.000000 0.000000
# 5 0.000000 0.000000 0.000000 0.000000 -0.205516 0.000000
# 6 0.000000 0.000000 0.000000 0.000000 0.000000 0.081878
#
#
# Mechanical properties :
#
#
# Convention : Reuss Voigt Hill
#
# Bulk Modulus (GPa) = 12.93263 62.94897 37.94080
# Shear Modulus (GPa) = 92.10668 24.14319 58.12494
#
# Velocity S-wave (km/s) = 6.94615 3.55628 5.51798
# Velocity P-wave (km/s) = 8.43248 7.05960 7.77640
#
# Compressibility (1/GPa) = 0.07732379
#
# Stress axis : x y z
#
# Youngs Moduli (GPa) = 48.17690 13.78224 139.29531
#
# Poissons Ratio (x) = 0.00375 1.09198
# Poissons Ratio (y) = 0.01311 0.48380
# Poissons Ratio (z) = 0.37767 0.04787
#
# Static dielectric constant tensor:
#      x y z
#    x 1.616200 0.000000 0.000000 
#    y 0.000000 1.677540 0.000000 
#    z 0.000000 0.000000 1.731270 
# 
# From -- ./inp_files/15044.got.cif
#   From: 2010.05.17/outbox.cif.g08.bks.cpg/sg39_8_cif.got.tgz:15044.got - 2010.06.03 18:22:40.
