data_PCOD9359503
_publ_section_title
;
Structure prediction by ZEFSAII (Michael W. Deem and Ramdas Pophale) SiO2 
 PCOD9359503
Probable space group: A M M 2
;
_chemical_formula_sum "Si O2"
_cell_formula_units_Z 64
_cell_length_a 23.042770
_cell_length_b 14.668162
_cell_length_c 7.198130
_cell_angle_alpha 90.000000
_cell_angle_beta 90.000000
_cell_angle_gamma 90.000000
_cell_volume 2432.932549
_symmetry_space_group_name_H-M "A M M 2"
_symmetry_group_IT_number 38
_symmetry_cell_setting 'orthorhombic'
loop_
_space_group_symop_operation_xyz
x,y,z
-x,-y,z
-x,y,z
x,-y,z
x,1/2+y,1/2+z
-x,1/2-y,1/2+z
-x,1/2+y,1/2+z
x,1/2-y,1/2+z
loop_
_atom_site_type_symbol
_atom_site_label
_atom_site_fract_x
_atom_site_fract_y
_atom_site_fract_z
Si Si1 0.185602 0.391376 0.740480
Si Si2 0.562550 0.140179 0.251295
Si Si3 0.437446 0.640157 0.308694
Si Si4 0.062206 0.607846 0.755763
Si Si5 0.937797 0.107846 0.804644
Si Si6 0.687285 0.857778 0.810053
Si Si7 0.312723 0.357782 0.750131
Si Si8 0.185596 0.891373 0.819833
O O1 0.177460 0.500000 0.727284
O O2 0.124719 0.356139 0.822186
O O3 0.249226 0.381181 0.826390
O O4 0.190028 0.353169 0.530157
O O5 0.500000 0.106927 0.321934
O O6 0.562094 0.250013 0.279961
O O7 0.625144 0.106265 0.321184
O O8 0.562814 0.124004 0.030000
O O9 0.500000 0.606898 0.238080
O O10 0.374835 0.606254 0.238911
O O11 0.060247 0.500000 0.802218
O O12 0.063794 0.613237 0.530203
O O13 0.000000 0.646783 0.817547
O O14 0.000000 0.146789 0.742858
O O15 0.939757 0.000000 0.758201
O O16 0.875293 0.143862 0.738174
O O17 0.683573 0.749997 0.780105
O O18 0.750792 0.881159 0.733853
O O19 0.688840 0.880700 0.030091
O O20 0.177466 0.000000 0.833026
#
# Coordination Sequence:
#
# PCOD9359503 Si02
#       8
#     8   8   8   8   8   8   8   8
#     4   8  13  21  34  52  72  94 120 148 178 212
#     4   8  13  21  33  49  68  89 115 146 175 203
#     4   8  13  21  33  49  68  89 115 146 175 203
#     4   7   9  14  26  45  67  88 112 145 179 204
#     4   7   9  14  26  45  67  88 112 145 179 204
#     4   9  16  25  38  55  74  96 120 147 179 213
#     4   9  16  25  38  55  74  96 120 147 179 213
#     4   8  13  21  34  52  72  94 120 148 178 212
#
# _framework density 26.305702
#
# number of rings (size 3 to 8) (size 9 to 14) (size 15 to 20)
#    0.000    4.000    0.000    2.250    0.000    0.000 
#    0.000    0.000    0.000    2.250    0.000    5.250 
#    0.000    0.000    0.000   46.750    0.000   24.000 
#
# Total GULP energy -178225.596034 kJ/mol
# GULP energy per Si atom -5569.549876 kJ/mol
# Density = 2.624583 g / cm^3
# Si number density = 26.305702 Si / 1000 Ang^3
#
#
#
# Elastic Constant Matrix: (Units=GPa)
#
#
# Indices 1 2 3 4 5 6 
#
# 1 443.1294 17.2804 25.7138 0.0000 0.0000 0.0000
# 2 17.2804 75.9375 -11.2414 0.0000 0.0000 0.0000
# 3 25.7138 -11.2414 139.7829 0.0000 0.0000 0.0000
# 4 0.0000 0.0000 0.0000 -10.6511 0.0000 0.0000
# 5 0.0000 0.0000 0.0000 0.0000 -41.0153 0.0000
# 6 0.0000 0.0000 0.0000 0.0000 0.0000 21.2330
#
#
#
# Elastic Compliance Matrix: (Units=1/GPa)
#
#
# Indices 1 2 3 4 5 6 
#
# 1 0.002307 -0.000595 -0.000472 0.000000 0.000000 0.000000
# 2 -0.000595 0.013481 0.001194 0.000000 0.000000 0.000000
# 3 -0.000472 0.001194 0.007337 0.000000 0.000000 0.000000
# 4 0.000000 0.000000 0.000000 -0.093887 0.000000 0.000000
# 5 0.000000 0.000000 0.000000 0.000000 -0.024381 0.000000
# 6 0.000000 0.000000 0.000000 0.000000 0.000000 0.047096
#
#
# Mechanical properties :
#
#
# Convention : Reuss Voigt Hill
#
# Bulk Modulus (GPa) = 42.77608 80.26173 61.51890
# Shear Modulus (GPa) = -123.43665 35.71979 -43.85843
#
# Velocity S-wave (km/s) = -6.85753 3.68893 -4.08764
# Velocity P-wave (km/s) = 6.81209 6.98009 1.07635
#
# Compressibility (1/GPa) = 0.02337755
#
# Stress axis : x y z
#
# Youngs Moduli (GPa) = 433.40995 74.17959 136.29888
#
# Poissons Ratio (x) = 0.04413 0.06437
# Poissons Ratio (y) = 0.25786 -0.16268
# Poissons Ratio (z) = 0.20469 -0.08854
#
# Static dielectric constant tensor:
#      x y z
#    x 2.175050 0.000000 0.000000 
#    y 0.000000 2.040240 0.000000 
#    z 0.000000 0.000000 2.005070 
# 
# From -- ./inp_files/10828.got.cif
#   From: 2010.05.17/outbox.cif.g08.bks.cpg/sg38_6_cif.got.tgz:10828.got - 2010.06.03 18:07:57.
