data_PCOD9359758
_publ_section_title
;
Structure prediction by ZEFSAII (Michael W. Deem and Ramdas Pophale) SiO2 
 PCOD9359758
Probable space group: A B M 2
;
_chemical_formula_sum "Si O2"
_cell_formula_units_Z 64
_cell_length_a 20.115393
_cell_length_b 8.926924
_cell_length_c 21.021175
_cell_angle_alpha 90.000000
_cell_angle_beta 90.000000
_cell_angle_gamma 90.000000
_cell_volume 3774.742640
_symmetry_space_group_name_H-M "A B M 2"
_symmetry_group_IT_number 39
_symmetry_cell_setting 'orthorhombic'
loop_
_space_group_symop_operation_xyz
x,y,z
-x,-y,z
-x,1/2+y,z
x,1/2-y,z
x,1/2+y,1/2+z
-x,1/2-y,1/2+z
-x,y,1/2+z
x,-y,1/2+z
loop_
_atom_site_type_symbol
_atom_site_label
_atom_site_fract_x
_atom_site_fract_y
_atom_site_fract_z
Si Si1 0.288169 0.568706 0.074840
Si Si2 0.568192 0.076863 0.931422
Si Si3 0.073559 0.931333 0.255731
Si Si4 0.432692 0.421901 0.586412
Si Si5 0.145619 0.070233 0.624134
Si Si6 0.927345 0.429778 0.503703
Si Si7 0.155701 0.568309 0.378984
Si Si8 0.293288 0.430150 0.934551
O O1 0.292401 0.750000 0.066158
O O2 0.359345 0.517615 0.103049
O O3 0.223997 0.536023 0.117498
O O4 0.279853 0.494942 0.005363
O O5 0.570600 0.250000 0.912455
O O6 0.500000 0.000000 0.909554
O O7 0.635434 0.991969 0.912722
O O8 0.567028 0.072960 0.008983
O O9 0.067946 0.750000 0.258142
O O10 0.112088 0.970817 0.190866
O O11 0.117354 0.982508 0.316082
O O12 0.000000 0.000000 0.257047
O O13 0.500000 0.500000 0.608670
O O14 0.435954 0.250000 0.606449
O O15 0.138376 0.250000 0.616171
O O16 0.108491 0.988654 0.566743
O O17 0.931438 0.250000 0.505137
O O18 0.885036 0.475631 0.441857
O O19 0.000000 0.500000 0.499727
O O20 0.155968 0.750000 0.376923
O O21 0.232099 0.522774 0.389552
O O22 0.295337 0.250000 0.938407
#
# Coordination Sequence:
#
# PCOD9359758 Si02
#       8
#     8   8   8   8   8   8   8   8
#     4   9  17  29  44  67  97 126 160 200 243 292
#     4   9  16  26  40  64  97 133 166 201 241 289
#     4  10  21  38  55  72  96 127 165 207 252 303
#     4   8  14  23  36  57  89 123 153 186 225 274
#     4  10  20  34  53  74  97 128 163 206 252 297
#     4  11  21  34  51  73  98 125 158 200 248 302
#     4   9  19  34  51  72  98 128 164 204 249 298
#     4  10  17  28  46  69  96 129 163 203 247 289
#
# _framework density 16.954799000000001
#
# number of rings (size 3 to 8) (size 9 to 14) (size 15 to 20)
#    0.000    2.500    1.250    2.625    0.000    4.500 
#    0.000    1.875    0.000    0.000    0.000    0.875 
#    0.000    2.000    0.000    0.000    0.000    1.000 
#
# Total GULP energy -178341.818498 kJ/mol
# GULP energy per Si atom -5573.181828 kJ/mol
# Density = 1.691621 g / cm^3
# Si number density = 16.954799 Si / 1000 Ang^3
#
#
#
# Elastic Constant Matrix: (Units=GPa)
#
#
# Indices 1 2 3 4 5 6 
#
# 1 202.0800 52.4675 70.9570 0.0000 0.0000 0.0000
# 2 52.4675 37.9657 28.8407 0.0000 0.0000 0.0000
# 3 70.9570 28.8407 93.2385 0.0000 0.0000 0.0000
# 4 0.0000 0.0000 0.0000 13.7128 0.0000 0.0000
# 5 0.0000 0.0000 0.0000 0.0000 17.7843 0.0000
# 6 0.0000 0.0000 0.0000 0.0000 0.0000 28.7963
#
#
#
# Elastic Compliance Matrix: (Units=1/GPa)
#
#
# Indices 1 2 3 4 5 6 
#
# 1 0.008620 -0.009057 -0.003758 0.000000 0.000000 0.000000
# 2 -0.009057 0.043947 -0.006701 0.000000 0.000000 0.000000
# 3 -0.003758 -0.006701 0.015658 0.000000 0.000000 0.000000
# 4 0.000000 0.000000 0.000000 0.072924 0.000000 0.000000
# 5 0.000000 0.000000 0.000000 0.000000 0.056229 0.000000
# 6 0.000000 0.000000 0.000000 0.000000 0.000000 0.034727
#
#
# Mechanical properties :
#
#
# Convention : Reuss Voigt Hill
#
# Bulk Modulus (GPa) = 34.25616 70.86828 52.56222
# Shear Modulus (GPa) = 17.80190 24.12661 20.96425
#
# Velocity S-wave (km/s) = 3.24383 3.77635 3.52018
# Velocity P-wave (km/s) = 5.85475 7.80407 6.89861
#
# Compressibility (1/GPa) = 0.02919183
#
# Stress axis : x y z
#
# Youngs Moduli (GPa) = 116.01174 22.75474 63.86497
#
# Poissons Ratio (x) = 0.20610 0.24002
# Poissons Ratio (y) = 1.05076 0.42795
# Poissons Ratio (z) = 0.43600 0.15248
#
# Static dielectric constant tensor:
#      x y z
#    x 1.598070 0.000000 0.000000 
#    y 0.000000 1.576960 0.000000 
#    z 0.000000 0.000000 1.549330 
# 
# From -- ./inp_files/13203.got.cif
#   From: 2010.05.17/outbox.cif.g08.bks.cpg/sg39_7_cif.got.tgz:13203.got - 2010.06.03 18:22:40.
