data_PCOD9359612
_publ_section_title
;
Structure prediction by ZEFSAII (Michael W. Deem and Ramdas Pophale) SiO2 
 PCOD9359612
Probable space group: A M M 2
;
_chemical_formula_sum "Si O2"
_cell_formula_units_Z 32
_cell_length_a 9.000000
_cell_length_b 24.000000
_cell_length_c 15.000000
_cell_angle_alpha 90.000000
_cell_angle_beta 90.000000
_cell_angle_gamma 90.000000
_cell_volume 3240.000000
_symmetry_space_group_name_H-M "A M M 2"
_symmetry_group_IT_number 38
_symmetry_cell_setting 'orthorhombic'
loop_
_space_group_symop_operation_xyz
x,y,z
-x,-y,z
-x,y,z
x,-y,z
x,1/2+y,1/2+z
-x,1/2-y,1/2+z
-x,1/2+y,1/2+z
x,1/2-y,1/2+z
loop_
_atom_site_type_symbol
_atom_site_label
_atom_site_fract_x
_atom_site_fract_y
_atom_site_fract_z
Si Si1 0.175914 0.562472 0.055760
Si Si2 0.677726 0.657176 0.174840
Si Si3 0.325647 0.773830 0.367382
Si Si4 0.174780 0.729963 0.677840
Si Si5 0.325244 0.100783 0.381337
Si Si6 0.678281 0.846267 0.882997
Si Si7 0.675764 0.561865 0.518278
Si Si8 0.177497 0.105105 0.187143
O O1 0.202724 0.500000 0.090105
O O2 0.255055 0.607988 0.116732
O O3 0.000000 0.572742 0.053731
O O4 0.239954 0.566598 0.955870
O O5 0.500000 0.656190 0.170868
O O6 0.735200 0.717422 0.141940
O O7 0.725115 0.650813 0.279216
O O8 0.500000 0.770127 0.336979
O O9 0.218201 0.772878 0.282483
O O10 0.310603 0.834021 0.410622
O O11 0.293440 0.716522 0.418000
O O12 0.213660 0.667290 0.649434
O O13 0.000000 0.739170 0.665587
O O14 0.500000 0.087184 0.378549
O O15 0.256235 0.096297 0.282520
O O16 0.500000 0.853709 0.880942
O O17 0.737199 0.893277 0.948273
O O18 0.500000 0.572718 0.535370
O O19 0.687866 0.500000 0.479839
O O20 0.760775 0.565155 0.611481
O O21 0.000000 0.101512 0.198828
#
# Coordination Sequence:
#
# PCOD9359612 Si02
#       8
#     8   8   8   8   8   8   8   8
#     4  11  25  42  57  78 112 151 190 233 281 335
#     4  10  20  36  60  86 112 145 184 229 279 330
#     4   8  15  30  53  82 111 139 176 222 274 330
#     4   9  17  31  53  82 114 145 178 219 273 336
#     4  10  20  36  60  86 110 140 182 231 280 333
#     4   8  16  33  56  81 110 142 177 221 273 326
#     4  10  21  36  54  78 108 145 190 234 275 324
#     4  10  21  37  57  82 113 149 185 226 281 336
#
# _framework density 9.8765429999999999
#
# number of rings (size 3 to 8) (size 9 to 14) (size 15 to 20)
#    0.000    2.500    0.000    2.625    0.000    5.250 
#    0.000    5.625    0.000    0.000    0.000    0.000 
#    0.000    0.000    0.000    0.000    0.000    0.000 
#
# Total GULP energy -178440.012593 kJ/mol
# GULP energy per Si atom -5576.250394 kJ/mol
# Density = 0.985406 g / cm^3
# Si number density = 9.876543 Si / 1000 Ang^3
#
#
#
# Elastic Constant Matrix: (Units=GPa)
#
#
# Indices 1 2 3 4 5 6 
#
# 1 49.2198 38.2981 10.7349 0.0000 0.0000 0.0000
# 2 38.2981 84.0740 29.9125 0.0000 0.0000 0.0000
# 3 10.7349 29.9125 48.8690 0.0000 0.0000 0.0000
# 4 0.0000 0.0000 0.0000 -87.3988 0.0000 0.0000
# 5 0.0000 0.0000 0.0000 0.0000 19.3782 0.0000
# 6 0.0000 0.0000 0.0000 0.0000 0.0000 12.9943
#
#
#
# Elastic Compliance Matrix: (Units=1/GPa)
#
#
# Indices 1 2 3 4 5 6 
#
# 1 0.031690 -0.015289 0.002397 0.000000 0.000000 0.000000
# 2 -0.015289 0.022582 -0.010464 0.000000 0.000000 0.000000
# 3 0.002397 -0.010464 0.026341 0.000000 0.000000 0.000000
# 4 0.000000 0.000000 0.000000 -0.011442 0.000000 0.000000
# 5 0.000000 0.000000 0.000000 0.000000 0.051604 0.000000
# 6 0.000000 0.000000 0.000000 0.000000 0.000000 0.076957
#
#
# Mechanical properties :
#
#
# Convention : Reuss Voigt Hill
#
# Bulk Modulus (GPa) = 29.49673 37.78376 33.64025
# Shear Modulus (GPa) = 19.55076 -4.12411 7.71332
#
# Velocity S-wave (km/s) = 3.14945 -1.44650 1.97822
# Velocity P-wave (km/s) = 5.30948 4.04719 4.72071
#
# Compressibility (1/GPa) = 0.03390206
#
# Stress axis : x y z
#
# Youngs Moduli (GPa) = 31.55523 44.28394 37.96342
#
# Poissons Ratio (x) = 0.67704 -0.09099
# Poissons Ratio (y) = 0.48244 0.39724
# Poissons Ratio (z) = -0.07563 0.46337
#
# Static dielectric constant tensor:
#      x y z
#    x 1.658930 0.000000 0.000000 
#    y 0.000000 1.752670 0.000000 
#    z 0.000000 0.000000 1.675520 
# 
# From -- ./inp_files/12799.got.cif
#   From: 2010.05.17/outbox.ucp.g08.bks.cvg/sg38_7_cif.got.tgz:12799.got - 2010.06.11 10:39:43.
