data_PCOD9359985
_publ_section_title
;
Structure prediction by ZEFSAII (Michael W. Deem and Ramdas Pophale) SiO2 
 PCOD9359985
Probable space group: A B M 2
;
_chemical_formula_sum "Si O2"
_cell_formula_units_Z 28
_cell_length_a 4.876730
_cell_length_b 14.809663
_cell_length_c 13.924033
_cell_angle_alpha 90.000000
_cell_angle_beta 90.000000
_cell_angle_gamma 90.000000
_cell_volume 1005.631646
_symmetry_space_group_name_H-M "A B M 2"
_symmetry_group_IT_number 39
_symmetry_cell_setting 'orthorhombic'
loop_
_space_group_symop_operation_xyz
x,y,z
-x,-y,z
-x,1/2+y,z
x,1/2-y,z
x,1/2+y,1/2+z
-x,1/2-y,1/2+z
-x,y,1/2+z
x,-y,1/2+z
loop_
_atom_site_type_symbol
_atom_site_label
_atom_site_fract_x
_atom_site_fract_y
_atom_site_fract_z
Si Si1 0.787304 0.750000 0.929490
Si Si2 0.000000 0.000000 0.799763
Si Si3 0.868641 0.586627 0.489453
Si Si4 0.280765 0.250000 0.292163
Si Si5 0.337568 0.646214 0.174166
O O1 0.984259 0.750000 0.835969
O O2 0.483313 0.750000 0.886465
O O3 0.898786 0.662557 0.982610
O O4 0.812404 0.053397 0.880620
O O5 0.174964 0.071811 0.737439
O O6 0.640651 0.616700 0.563948
O O7 0.000000 0.500000 0.538129
O O8 0.374906 0.333796 0.226366
O O9 0.221164 0.750000 0.166668
#
# Coordination Sequence:
#
# PCOD9359985 Si02
#       5
#     4   4   8   4   8
#     4  12  21  46  67 105 135 192 229 302 361 425
#     4  10  18  34  66 100 144 184 234 298 364 430
#     4  10  20  35  70 101 144 185 242 296 360 433
#     4  10  23  40  75  91 143 184 237 284 367 421
#     4  10  19  38  63 105 137 189 240 297 357 435
#
# _framework density 27.843195000000001
#
# number of rings (size 3 to 8) (size 9 to 14) (size 15 to 20)
#    1.714    0.000    5.714    0.000    0.000    0.000 
#    0.000   11.429    0.000    6.857    0.000    0.000 
#    0.000    0.000    0.000    0.000    0.000    0.000 
#
# Total GULP energy -78220.302834 kJ/mol
# GULP energy per Si atom -5587.164488 kJ/mol
# Density = 2.777982 g / cm^3
# Si number density = 27.843195 Si / 1000 Ang^3
#
#
#
# Elastic Constant Matrix: (Units=GPa)
#
#
# Indices 1 2 3 4 5 6 
#
# 1 64.8723 28.2263 45.6409 0.0000 0.0000 0.0000
# 2 28.2263 169.8105 54.8590 0.0000 0.0000 0.0000
# 3 45.6409 54.8590 194.2000 0.0000 0.0000 0.0000
# 4 0.0000 0.0000 0.0000 -37.2652 0.0000 0.0000
# 5 0.0000 0.0000 0.0000 0.0000 29.0544 0.0000
# 6 0.0000 0.0000 0.0000 0.0000 0.0000 20.6080
#
#
#
# Elastic Compliance Matrix: (Units=1/GPa)
#
#
# Indices 1 2 3 4 5 6 
#
# 1 0.019003 -0.001888 -0.003933 0.000000 0.000000 0.000000
# 2 -0.001888 0.006668 -0.001440 0.000000 0.000000 0.000000
# 3 -0.003933 -0.001440 0.006480 0.000000 0.000000 0.000000
# 4 0.000000 0.000000 0.000000 -0.026835 0.000000 0.000000
# 5 0.000000 0.000000 0.000000 0.000000 0.034418 0.000000
# 6 0.000000 0.000000 0.000000 0.000000 0.000000 0.048525
#
#
# Mechanical properties :
#
#
# Convention : Reuss Voigt Hill
#
# Bulk Modulus (GPa) = 56.72162 76.25945 66.49054
# Shear Modulus (GPa) = 46.01579 22.48988 34.25284
#
# Velocity S-wave (km/s) = 4.06972 2.84515 3.51123
# Velocity P-wave (km/s) = 6.51917 6.18397 6.35378
#
# Compressibility (1/GPa) = 0.01762996
#
# Stress axis : x y z
#
# Youngs Moduli (GPa) = 52.62215 149.97130 154.31289
#
# Poissons Ratio (x) = 0.28319 0.60688
# Poissons Ratio (y) = 0.09936 0.22218
# Poissons Ratio (z) = 0.20695 0.21593
#
# Static dielectric constant tensor:
#      x y z
#    x 2.164200 0.000000 0.000000 
#    y 0.000000 2.340670 0.000000 
#    z 0.000000 0.000000 2.164930 
# 
# From -- ./inp_files/4350.got.cif
#   From: 2010.05.17/outbox.cif.g08.bks.cpg/sg39_3_cif.got.tgz:4350.got - 2010.06.03 18:22:40.
