data_PCOD9359108
_publ_section_title
;
Structure prediction by ZEFSAII (Michael W. Deem and Ramdas Pophale) SiO2 
 PCOD9359108
Probable space group: A M M 2
;
_chemical_formula_sum "Si O2"
_cell_formula_units_Z 64
_cell_length_a 25.956569
_cell_length_b 13.687474
_cell_length_c 9.717153
_cell_angle_alpha 90.000000
_cell_angle_beta 90.000000
_cell_angle_gamma 90.000000
_cell_volume 3452.308790
_symmetry_space_group_name_H-M "A M M 2"
_symmetry_group_IT_number 38
_symmetry_cell_setting 'orthorhombic'
loop_
_space_group_symop_operation_xyz
x,y,z
-x,-y,z
-x,y,z
x,-y,z
x,1/2+y,1/2+z
-x,1/2-y,1/2+z
-x,1/2+y,1/2+z
x,1/2-y,1/2+z
loop_
_atom_site_type_symbol
_atom_site_label
_atom_site_fract_x
_atom_site_fract_y
_atom_site_fract_z
Si Si1 0.608921 0.250403 0.605920
Si Si2 0.942169 0.116274 0.770105
Si Si3 0.143175 0.756507 0.330492
Si Si4 0.697555 0.390002 0.515408
Si Si5 0.561838 0.881652 0.357106
Si Si6 0.300264 0.110105 0.694497
Si Si7 0.057036 0.883471 0.449820
Si Si8 0.783573 0.251900 0.080659
O O1 0.645656 0.327653 0.528181
O O2 0.579286 0.181932 0.493068
O O3 0.580290 0.316599 0.723358
O O4 0.649462 0.176599 0.676477
O O5 0.894955 0.164631 0.848565
O O6 0.938679 0.148347 0.609712
O O7 0.000000 0.140180 0.819814
O O8 0.937552 0.000000 0.773024
O O9 0.104227 0.844006 0.362521
O O10 0.168473 0.756091 0.181853
O O11 0.191453 0.756555 0.431665
O O12 0.689048 0.500000 0.563418
O O13 0.712974 0.390813 0.355549
O O14 0.743863 0.337649 0.595129
O O15 0.500000 0.883649 0.355338
O O16 0.578167 0.000000 0.356785
O O17 0.252201 0.155268 0.613300
O O18 0.311138 0.000000 0.648902
O O19 0.000000 0.854536 0.398840
O O20 0.058425 0.000000 0.451496
#
# Coordination Sequence:
#
# PCOD9359108 Si02
#       8
#     8   8   8   8   8   8   8   8
#     4  11  21  42  65  95 125 168 221 260 308 375
#     4   9  19  36  58  81 105 144 192 229 278 354
#     4  12  21  37  56  82 113 145 183 229 292 350
#     4  10  21  39  62  86 117 157 203 256 305 355
#     4  11  24  41  64  98 139 176 212 264 323 373
#     4  10  21  39  63  86 115 158 206 253 300 358
#     4   9  19  36  57  80 106 140 183 228 278 345
#     4  11  24  36  55  85 116 147 186 239 294 361
#
# _framework density 18.538319999999999
#
# number of rings (size 3 to 8) (size 9 to 14) (size 15 to 20)
#    0.000    1.625    3.750    2.250    0.000    2.000 
#    0.000    1.250    0.000    4.500    0.000    0.000 
#    0.000    0.000    0.000    0.000    0.000    0.000 
#
# Total GULP energy -178248.837978 kJ/mol
# GULP energy per Si atom -5570.276187 kJ/mol
# Density = 1.849613 g / cm^3
# Si number density = 18.538320 Si / 1000 Ang^3
#
#
#
# Elastic Constant Matrix: (Units=GPa)
#
#
# Indices 1 2 3 4 5 6 
#
# 1 95.8736 49.7908 11.6532 0.0000 0.0000 0.0000
# 2 49.7908 130.1272 24.5559 0.0000 0.0000 0.0000
# 3 11.6532 24.5559 34.8031 0.0000 0.0000 0.0000
# 4 0.0000 0.0000 0.0000 22.1069 0.0000 0.0000
# 5 0.0000 0.0000 0.0000 0.0000 26.9447 0.0000
# 6 0.0000 0.0000 0.0000 0.0000 0.0000 27.7626
#
#
#
# Elastic Compliance Matrix: (Units=1/GPa)
#
#
# Indices 1 2 3 4 5 6 
#
# 1 0.013046 -0.004808 -0.000976 0.000000 0.000000 0.000000
# 2 -0.004808 0.010637 -0.005895 0.000000 0.000000 0.000000
# 3 -0.000976 -0.005895 0.033219 0.000000 0.000000 0.000000
# 4 0.000000 0.000000 0.000000 0.045235 0.000000 0.000000
# 5 0.000000 0.000000 0.000000 0.000000 0.037113 0.000000
# 6 0.000000 0.000000 0.000000 0.000000 0.000000 0.036020
#
#
# Mechanical properties :
#
#
# Convention : Reuss Voigt Hill
#
# Bulk Modulus (GPa) = 29.81143 48.08930 38.95036
# Shear Modulus (GPa) = 23.83124 27.01643 25.42384
#
# Velocity S-wave (km/s) = 3.58929 3.82164 3.70729
# Velocity P-wave (km/s) = 5.77003 6.74315 6.27548
#
# Compressibility (1/GPa) = 0.03354418
#
# Stress axis : x y z
#
# Youngs Moduli (GPa) = 76.65316 94.01346 30.10293
#
# Poissons Ratio (x) = 0.45197 0.02938
# Poissons Ratio (y) = 0.36851 0.17746
# Poissons Ratio (z) = 0.07482 0.55423
#
# Static dielectric constant tensor:
#      x y z
#    x 1.618300 0.000000 0.000000 
#    y 0.000000 1.663810 0.000000 
#    z 0.000000 0.000000 1.651680 
# 
# From -- ./inp_files/6981.got.cif
#   From: 2010.05.17/outbox.cif.g08.bks.cpg/sg38_4_cif.got.tgz:6981.got - 2010.06.03 18:07:57.
