data_PCOD9359692
_publ_section_title
;
Structure prediction by ZEFSAII (Michael W. Deem and Ramdas Pophale) SiO2 
 PCOD9359692
Probable space group: A B M 2
;
_chemical_formula_sum "Si O2"
_cell_formula_units_Z 64
_cell_length_a 28.852405
_cell_length_b 23.170182
_cell_length_c 5.285577
_cell_angle_alpha 90.000000
_cell_angle_beta 90.000000
_cell_angle_gamma 90.000000
_cell_volume 3533.490019
_symmetry_space_group_name_H-M "A B M 2"
_symmetry_group_IT_number 39
_symmetry_cell_setting 'orthorhombic'
loop_
_space_group_symop_operation_xyz
x,y,z
-x,-y,z
-x,1/2+y,z
x,1/2-y,z
x,1/2+y,1/2+z
-x,1/2-y,1/2+z
-x,y,1/2+z
x,-y,1/2+z
loop_
_atom_site_type_symbol
_atom_site_label
_atom_site_fract_x
_atom_site_fract_y
_atom_site_fract_z
Si Si1 0.883260 0.613848 0.508800
Si Si2 0.019166 0.565679 0.899059
Si Si3 0.140090 0.681175 0.500383
Si Si4 0.204241 0.966153 0.113294
Si Si5 0.713750 0.380864 0.008161
Si Si6 0.479901 0.934543 0.943302
Si Si7 0.749007 0.681517 0.001552
Si Si8 0.627740 0.460995 0.996668
O O1 0.927601 0.572414 0.474863
O O2 0.877204 0.652841 0.260306
O O3 0.837788 0.575360 0.541700
O O4 0.885211 0.652706 0.760273
O O5 0.000000 0.500000 0.871644
O O6 0.010041 0.593030 0.626598
O O7 0.133865 0.750000 0.503364
O O8 0.195674 0.669804 0.476855
O O9 0.252285 0.934831 0.056595
O O10 0.201157 0.017582 0.908368
O O11 0.729070 0.350796 0.747247
O O12 0.723592 0.339557 0.247093
O O13 0.662622 0.407278 0.995510
O O14 0.493436 0.906644 0.677757
O O15 0.500000 0.000000 0.919490
O O16 0.425515 0.940074 0.990620
O O17 0.743660 0.750000 0.033697
O O18 0.635179 0.499450 0.248109
#
# Coordination Sequence:
#
# PCOD9359692 Si02
#       8
#     8   8   8   8   8   8   8   8
#     4  12  23  40  66  88 121 153 194 242 282 341
#     4  10  23  40  59  86 117 152 189 229 280 336
#     4  11  22  41  67  94 113 147 199 250 296 333
#     4  12  24  36  54  82 124 161 185 224 270 343
#     4  12  23  39  52  86 120 153 200 224 292 360
#     4  10  16  30  49  72 105 151 200 245 276 323
#     4  11  22  41  62  82 114 151 193 254 293 330
#     4  12  21  33  53  78 119 170 187 232 290 340
#
# _framework density 18.112404999999999
#
# number of rings (size 3 to 8) (size 9 to 14) (size 15 to 20)
#    0.000    0.750    5.000    4.500    3.500    2.000 
#    0.000    0.000    0.000    7.500    0.000    0.000 
#    0.000   10.000    0.000    0.000    0.000    0.000 
#
# Total GULP energy -178716.284862 kJ/mol
# GULP energy per Si atom -5584.883902 kJ/mol
# Density = 1.807118 g / cm^3
# Si number density = 18.112405 Si / 1000 Ang^3
#
#
#
# Elastic Constant Matrix: (Units=GPa)
#
#
# Indices 1 2 3 4 5 6 
#
# 1 79.0404 23.8556 -8.3316 0.0000 0.0000 0.0000
# 2 23.8556 55.4499 10.4649 0.0000 0.0000 0.0000
# 3 -8.3316 10.4649 94.1482 0.0000 0.0000 0.0000
# 4 0.0000 0.0000 0.0000 28.5783 0.0000 0.0000
# 5 0.0000 0.0000 0.0000 0.0000 19.9714 0.0000
# 6 0.0000 0.0000 0.0000 0.0000 0.0000 10.0347
#
#
#
# Elastic Compliance Matrix: (Units=1/GPa)
#
#
# Indices 1 2 3 4 5 6 
#
# 1 0.014928 -0.006814 0.002078 0.000000 0.000000 0.000000
# 2 -0.006814 0.021531 -0.002996 0.000000 0.000000 0.000000
# 3 0.002078 -0.002996 0.011139 0.000000 0.000000 0.000000
# 4 0.000000 0.000000 0.000000 0.034992 0.000000 0.000000
# 5 0.000000 0.000000 0.000000 0.000000 0.050072 0.000000
# 6 0.000000 0.000000 0.000000 0.000000 0.000000 0.099654
#
#
# Mechanical properties :
#
#
# Convention : Reuss Voigt Hill
#
# Bulk Modulus (GPa) = 31.12062 31.17957 31.15009
# Shear Modulus (GPa) = 19.34311 25.22687 22.28499
#
# Velocity S-wave (km/s) = 3.27149 3.73607 3.51147
# Velocity P-wave (km/s) = 5.61155 5.98855 5.80311
#
# Compressibility (1/GPa) = 0.03213304
#
# Stress axis : x y z
#
# Youngs Moduli (GPa) = 66.99036 46.44370 89.77839
#
# Poissons Ratio (x) = 0.31648 -0.18660
# Poissons Ratio (y) = 0.45650 0.26901
# Poissons Ratio (z) = -0.13924 0.13916
#
# Static dielectric constant tensor:
#      x y z
#    x 1.619120 0.000000 0.000000 
#    y 0.000000 1.301840 0.000000 
#    z 0.000000 0.000000 1.689200 
# 
# From -- ./inp_files/1457.got.cif
#   From: 2010.05.17/outbox.cif.g08.bks.cpg/sg39_1_cif.got.tgz:1457.got - 2010.06.03 18:22:40.
