data_PCOD9359020
_publ_section_title
;
Structure prediction by ZEFSAII (Michael W. Deem and Ramdas Pophale) SiO2 
 PCOD9359020
Probable space group: A M M 2
;
_chemical_formula_sum "Si O2"
_cell_formula_units_Z 48
_cell_length_a 9.093354
_cell_length_b 18.656787
_cell_length_c 15.143525
_cell_angle_alpha 90.000000
_cell_angle_beta 90.000000
_cell_angle_gamma 90.000000
_cell_volume 2569.140944
_symmetry_space_group_name_H-M "A M M 2"
_symmetry_group_IT_number 38
_symmetry_cell_setting 'orthorhombic'
loop_
_space_group_symop_operation_xyz
x,y,z
-x,-y,z
-x,y,z
x,-y,z
x,1/2+y,1/2+z
-x,1/2-y,1/2+z
-x,1/2+y,1/2+z
x,1/2-y,1/2+z
loop_
_atom_site_type_symbol
_atom_site_label
_atom_site_fract_x
_atom_site_fract_y
_atom_site_fract_z
Si Si1 0.175634 0.500000 0.164611
Si Si2 0.830196 0.609022 0.479004
Si Si3 0.674518 0.146343 0.611079
Si Si4 0.326295 0.500000 0.354609
Si Si5 0.670951 0.747997 0.950004
Si Si6 0.326034 0.224204 0.241804
Si Si7 0.173169 0.921948 0.183728
O O1 0.238319 0.427225 0.121706
O O2 0.238620 0.500000 0.263800
O O3 0.000000 0.500000 0.163692
O O4 0.724498 0.568029 0.411858
O O5 0.781449 0.691003 0.481317
O O6 0.814616 0.579346 0.577581
O O7 0.000000 0.600076 0.451667
O O8 0.500000 0.133126 0.626848
O O9 0.691028 0.179853 0.513453
O O10 0.722990 0.207824 0.681948
O O11 0.500000 0.500000 0.339068
O O12 0.500000 0.771100 0.962491
O O13 0.694585 0.736678 0.846070
O O14 0.500000 0.217288 0.224377
O O15 0.251263 0.149271 0.217446
O O16 0.000000 0.917550 0.205213
O O17 0.229089 0.000000 0.215400
#
# Coordination Sequence:
#
# PCOD9359020 Si02
#       7
#     4   8   8   4   8   8   8
#     4  12  26  42  62  89 120 157 206 255 308 366
#     4  11  21  36  59  89 123 155 195 247 304 365
#     4  10  21  40  63  87 123 162 200 251 307 363
#     4  12  24  38  60  89 122 159 198 247 310 372
#     4  10  21  38  61  90 119 157 206 250 301 363
#     4  10  21  38  62  90 117 152 202 251 295 356
#     4  10  21  38  58  84 123 160 191 239 301 357
#
# _framework density 18.683288000000001
#
# number of rings (size 3 to 8) (size 9 to 14) (size 15 to 20)
#    0.000    1.500    2.500    3.000    0.000    4.333 
#    1.500    0.000    0.000    0.000    0.000    0.000 
#    0.000    0.000    0.000    0.000    0.000    0.000 
#
# Total GULP energy -134021.993392 kJ/mol
# GULP energy per Si atom -5584.249725 kJ/mol
# Density = 1.864076 g / cm^3
# Si number density = 18.683288 Si / 1000 Ang^3
#
#
#
# Elastic Constant Matrix: (Units=GPa)
#
#
# Indices 1 2 3 4 5 6 
#
# 1 69.8652 64.9356 30.7584 0.0000 0.0000 0.0000
# 2 64.9356 146.1706 29.7015 0.0000 0.0000 0.0000
# 3 30.7584 29.7015 58.0752 0.0000 0.0000 0.0000
# 4 0.0000 0.0000 0.0000-2021.8400 0.0000 0.0000
# 5 0.0000 0.0000 0.0000 0.0000 21.8373 0.0000
# 6 0.0000 0.0000 0.0000 0.0000 0.0000 96.7336
#
#
#
# Elastic Compliance Matrix: (Units=1/GPa)
#
#
# Indices 1 2 3 4 5 6 
#
# 1 0.028498 -0.010706 -0.009618 0.000000 0.000000 0.000000
# 2 -0.010706 0.011657 -0.000291 0.000000 0.000000 0.000000
# 3 -0.009618 -0.000291 0.022462 0.000000 0.000000 0.000000
# 4 0.000000 0.000000 0.000000 -0.000495 0.000000 0.000000
# 5 0.000000 0.000000 0.000000 0.000000 0.045793 0.000000
# 6 0.000000 0.000000 0.000000 0.000000 0.000000 0.010338
#
#
# Mechanical properties :
#
#
# Convention : Reuss Voigt Hill
#
# Bulk Modulus (GPa) = 46.75944 58.32246 52.54095
# Shear Modulus (GPa) = 30.00972 -370.73947 -170.36488
#
# Velocity S-wave (km/s) = 4.01213 -14.10193 -9.55948
# Velocity P-wave (km/s) = 6.82237 15.29276 9.67791
#
# Compressibility (1/GPa) = 0.02138606
#
# Stress axis : x y z
#
# Youngs Moduli (GPa) = 35.09001 85.78890 44.51918
#
# Poissons Ratio (x) = 0.91844 0.42820
# Poissons Ratio (y) = 0.37567 0.01297
# Poissons Ratio (z) = 0.33750 0.02500
#
# Static dielectric constant tensor:
#      x y z
#    x 1.628730 0.000000 0.000000 
#    y 0.000000 3.427270 0.000000 
#    z 0.000000 0.000000 1.642800 
# 
# From -- ./inp_files/12106.got.cif
#   From: 2010.05.17/outbox.cif.g08.bks.cpg/sg38_7_cif.got.tgz:12106.got - 2010.06.03 18:07:57.
