data_PCOD9359627
_publ_section_title
;
Structure prediction by ZEFSAII (Michael W. Deem and Ramdas Pophale) SiO2 
 PCOD9359627
Probable space group: A M M 2
;
_chemical_formula_sum "Si O2"
_cell_formula_units_Z 32
_cell_length_a 9.000000
_cell_length_b 15.000000
_cell_length_c 24.000000
_cell_angle_alpha 90.000000
_cell_angle_beta 90.000000
_cell_angle_gamma 90.000000
_cell_volume 3240.000000
_symmetry_space_group_name_H-M "A M M 2"
_symmetry_group_IT_number 38
_symmetry_cell_setting 'orthorhombic'
loop_
_space_group_symop_operation_xyz
x,y,z
-x,-y,z
-x,y,z
x,-y,z
x,1/2+y,1/2+z
-x,1/2-y,1/2+z
-x,1/2+y,1/2+z
x,1/2-y,1/2+z
loop_
_atom_site_type_symbol
_atom_site_label
_atom_site_fract_x
_atom_site_fract_y
_atom_site_fract_z
Si Si1 0.820103 0.397337 0.815730
Si Si2 0.678685 0.399720 0.022661
Si Si3 0.169076 0.608409 0.690865
Si Si4 0.319186 0.217409 0.975635
Si Si5 0.831508 0.391682 0.138013
Si Si6 0.321974 0.894429 0.751066
Si Si7 0.678328 0.603989 0.579631
Si Si8 0.679088 0.276731 0.355779
O O1 0.777290 0.500000 0.827799
O O2 0.772298 0.372822 0.752439
O O3 0.747143 0.321616 0.852441
O O4 0.000000 0.393762 0.817307
O O5 0.500000 0.402842 0.022576
O O6 0.733551 0.500000 0.009838
O O7 0.733365 0.372562 0.084060
O O8 0.727357 0.320198 0.982729
O O9 0.165828 0.500000 0.688748
O O10 0.261490 0.639572 0.638221
O O11 0.000000 0.640175 0.686536
O O12 0.500000 0.216045 0.978289
O O13 0.277195 0.182265 0.915166
O O14 0.264896 0.159789 0.027358
O O15 0.834682 0.500000 0.141201
O O16 0.759060 0.361241 0.195506
O O17 0.000000 0.360085 0.131292
O O18 0.500000 0.886009 0.743969
O O19 0.273829 0.837652 0.804277
O O20 0.291132 0.000000 0.758940
O O21 0.500000 0.607917 0.580828
O O22 0.720385 0.500000 0.573726
O O23 0.500000 0.269813 0.353905
#
# Coordination Sequence:
#
# PCOD9359627 Si02
#       8
#     8   8   8   8   8   8   8   8
#     4   9  19  36  55  75 103 137 166 199 252 308
#     4   9  17  31  51  71  95 129 161 193 241 297
#     4   8  15  30  51  73  98 127 158 193 239 298
#     4   9  19  34  49  70  99 128 164 205 242 286
#     4   9  17  30  50  76 102 126 158 203 251 298
#     4   9  18  33  52  74 102 135 168 204 250 302
#     4   9  17  30  50  74  99 127 158 197 244 289
#     4  10  21  35  52  75 100 131 175 217 247 286
#
# _framework density 9.8765429999999999
#
# number of rings (size 3 to 8) (size 9 to 14) (size 15 to 20)
#    0.000    3.000    0.000    1.125    0.000    4.750 
#    0.000   10.625    0.000    1.500    0.000    3.500 
#    0.000    0.000    0.000    0.000    0.000    0.000 
#
# Total GULP energy -178380.078339 kJ/mol
# GULP energy per Si atom -5574.377448 kJ/mol
# Density = 0.985406 g / cm^3
# Si number density = 9.876543 Si / 1000 Ang^3
#
#
#
# Elastic Constant Matrix: (Units=GPa)
#
#
# Indices 1 2 3 4 5 6 
#
# 1 -4.2244 8.5955 5.3558 0.0000 0.0000 0.0000
# 2 8.5955 36.7618 19.0024 0.0000 0.0000 0.0000
# 3 5.3558 19.0024 83.3428 0.0000 0.0000 0.0000
# 4 0.0000 0.0000 0.0000 88.0456 0.0000 0.0000
# 5 0.0000 0.0000 0.0000 0.0000 71.0726 0.0000
# 6 0.0000 0.0000 0.0000 0.0000 0.0000 13.9684
#
#
#
# Elastic Compliance Matrix: (Units=1/GPa)
#
#
# Indices 1 2 3 4 5 6 
#
# 1 -0.160114 0.036410 0.001988 0.000000 0.000000 0.000000
# 2 0.036410 0.022557 -0.007483 0.000000 0.000000 0.000000
# 3 0.001988 -0.007483 0.013577 0.000000 0.000000 0.000000
# 4 0.000000 0.000000 0.000000 0.011358 0.000000 0.000000
# 5 0.000000 0.000000 0.000000 0.000000 0.014070 0.000000
# 6 0.000000 0.000000 0.000000 0.000000 0.000000 0.071590
#
#
# Mechanical properties :
#
#
# Convention : Reuss Voigt Hill
#
# Bulk Modulus (GPa) = -16.08995 20.19862 2.05434
# Shear Modulus (GPa) = -45.65861 40.14575 -2.75643
#
# Velocity S-wave (km/s) = -4.81299 4.51308 -1.18257
# Velocity P-wave (km/s) = 6.24897 6.11596 0.90684
#
# Compressibility (1/GPa) = -0.06215060
#
# Stress axis : x y z
#
# Youngs Moduli (GPa) = -6.24555 44.33232 73.65388
#
# Poissons Ratio (x) = -1.61413 -0.14641
# Poissons Ratio (y) = 0.22740 0.55114
# Poissons Ratio (z) = 0.01241 0.33173
#
# Static dielectric constant tensor:
#      x y z
#    x 1.661440 0.000000 0.000000 
#    y 0.000000 1.698390 0.000000 
#    z 0.000000 0.000000 1.702560 
# 
# From -- ./inp_files/22157.got.cif
#   From: 2010.05.17/outbox.ucp.g08.bks.cvg/sg38_12_cif.got.tgz:22157.got - 2010.06.11 10:39:43.
