data_PCOD9359514
_publ_section_title
;
Structure prediction by ZEFSAII (Michael W. Deem and Ramdas Pophale) SiO2 
 PCOD9359514
Probable space group: A M M 2
;
_chemical_formula_sum "Si O2"
_cell_formula_units_Z 64
_cell_length_a 22.047257
_cell_length_b 7.385760
_cell_length_c 18.850103
_cell_angle_alpha 90.000000
_cell_angle_beta 90.000000
_cell_angle_gamma 90.000000
_cell_volume 3069.470638
_symmetry_space_group_name_H-M "A M M 2"
_symmetry_group_IT_number 38
_symmetry_cell_setting 'orthorhombic'
loop_
_space_group_symop_operation_xyz
x,y,z
-x,-y,z
-x,y,z
x,-y,z
x,1/2+y,1/2+z
-x,1/2-y,1/2+z
-x,1/2+y,1/2+z
x,1/2-y,1/2+z
loop_
_atom_site_type_symbol
_atom_site_label
_atom_site_fract_x
_atom_site_fract_y
_atom_site_fract_z
Si Si1 0.303099 0.785625 0.287850
Si Si2 0.067558 0.216376 0.290329
Si Si3 0.932444 0.216315 0.956826
Si Si4 0.434655 0.287078 0.464189
Si Si5 0.815180 0.721835 0.705378
Si Si6 0.565222 0.218968 0.295091
Si Si7 0.697268 0.718411 0.455924
Si Si8 0.815180 0.221408 0.041664
O O1 0.244687 0.714423 0.246854
O O2 0.369986 0.714790 0.266545
O O3 0.296273 0.762227 0.372580
O O4 0.304512 0.000000 0.273863
O O5 0.078697 0.250292 0.373567
O O6 0.123430 0.284133 0.243929
O O7 0.000000 0.286654 0.273047
O O8 0.065541 0.000000 0.280608
O O9 0.000000 0.286687 0.974036
O O10 0.934425 0.000000 0.966801
O O11 0.876539 0.284154 0.003156
O O12 0.500000 0.211349 0.488711
O O13 0.435088 0.500000 0.482099
O O14 0.434808 0.269219 0.378472
O O15 0.368260 0.214013 0.484104
O O16 0.815444 0.500000 0.707848
O O17 0.813655 0.774808 0.623488
O O18 0.500000 0.280431 0.265235
O O19 0.565720 0.000000 0.291298
O O20 0.695449 0.500000 0.460496
O O21 0.755354 0.781566 0.499550
O O22 0.815181 0.000000 0.039537
#
# Coordination Sequence:
#
# PCOD9359514 Si02
#       8
#     8   8   8   8   8   8   8   8
#     4   9  16  26  42  61  80 105 135 167 202 238
#     4   9  17  29  46  66  85 106 133 166 202 238
#     4   9  17  29  46  66  85 106 133 166 202 238
#     4   8  13  21  34  54  78 100 125 160 199 236
#     4   9  17  28  42  61  84 109 137 167 198 235
#     4   8  13  21  34  54  78 100 125 160 199 236
#     4   9  16  26  42  61  80 105 135 167 202 238
#     4   9  17  28  42  61  84 109 137 167 198 235
#
# _framework density 20.850501000000001
#
# number of rings (size 3 to 8) (size 9 to 14) (size 15 to 20)
#    0.000    3.250    0.000    0.750    0.000    0.500 
#    0.000    2.500    0.000    3.750    0.000    8.750 
#    0.000    0.000    0.000   40.500    0.000   19.000 
#
# Total GULP energy -178348.162358 kJ/mol
# GULP energy per Si atom -5573.380074 kJ/mol
# Density = 2.080304 g / cm^3
# Si number density = 20.850501 Si / 1000 Ang^3
#
#
#
# Elastic Constant Matrix: (Units=GPa)
#
#
# Indices 1 2 3 4 5 6 
#
# 1 275.8888 7.3507 113.4067 0.0000 0.0000 0.0000
# 2 7.3507 74.6325 -6.2700 0.0000 0.0000 0.0000
# 3 113.4067 -6.2700 75.0131 0.0000 0.0000 0.0000
# 4 0.0000 0.0000 0.0000 10.7168 0.0000 0.0000
# 5 0.0000 0.0000 0.0000 0.0000 -0.4969 0.0000
# 6 0.0000 0.0000 0.0000 0.0000 0.0000 84.5188
#
#
#
# Elastic Compliance Matrix: (Units=1/GPa)
#
#
# Indices 1 2 3 4 5 6 
#
# 1 0.009939 -0.002257 -0.015214 0.000000 0.000000 0.000000
# 2 -0.002257 0.014006 0.004583 0.000000 0.000000 0.000000
# 3 -0.015214 0.004583 0.036716 0.000000 0.000000 0.000000
# 4 0.000000 0.000000 0.000000 0.093312 0.000000 0.000000
# 5 0.000000 0.000000 0.000000 0.000000 -2.012677 0.000000
# 6 0.000000 0.000000 0.000000 0.000000 0.000000 0.011832
#
#
# Mechanical properties :
#
#
# Convention : Reuss Voigt Hill
#
# Bulk Modulus (GPa) = 28.66658 72.72323 50.69491
# Shear Modulus (GPa) = -2.76324 39.68421 18.46048
#
# Velocity S-wave (km/s) = -1.15245 4.36739 2.97875
# Velocity P-wave (km/s) = 3.46520 7.77086 6.01639
#
# Compressibility (1/GPa) = 0.03488382
#
# Stress axis : x y z
#
# Youngs Moduli (GPa) = 100.61570 71.39636 27.23638
#
# Poissons Ratio (x) = 0.16115 0.41439
# Poissons Ratio (y) = 0.22710 -0.12483
# Poissons Ratio (z) = 1.53081 -0.32721
#
# Static dielectric constant tensor:
#      x y z
#    x 1.803440 0.000000 0.000000 
#    y 0.000000 1.781420 0.000000 
#    z 0.000000 0.000000 1.668480 
# 
# From -- ./inp_files/6838.got.cif
#   From: 2010.05.17/outbox.cif.g08.bks.cpg/sg38_4_cif.got.tgz:6838.got - 2010.06.03 18:07:57.
