data_PCOD9359623
_publ_section_title
;
Structure prediction by ZEFSAII (Michael W. Deem and Ramdas Pophale) SiO2 
 PCOD9359623
Probable space group: A M M 2
;
_chemical_formula_sum "Si O2"
_cell_formula_units_Z 24
_cell_length_a 15.000000
_cell_length_b 9.000000
_cell_length_c 18.000000
_cell_angle_alpha 90.000000
_cell_angle_beta 90.000000
_cell_angle_gamma 90.000000
_cell_volume 2430.000000
_symmetry_space_group_name_H-M "A M M 2"
_symmetry_group_IT_number 38
_symmetry_cell_setting 'orthorhombic'
loop_
_space_group_symop_operation_xyz
x,y,z
-x,-y,z
-x,y,z
x,-y,z
x,1/2+y,1/2+z
-x,1/2-y,1/2+z
-x,1/2+y,1/2+z
x,1/2-y,1/2+z
loop_
_atom_site_type_symbol
_atom_site_label
_atom_site_fract_x
_atom_site_fract_y
_atom_site_fract_z
Si Si1 0.500000 0.679738 0.408051
Si Si2 0.684372 0.670708 0.897655
Si Si3 0.000000 0.320018 0.452343
Si Si4 0.799966 0.669497 0.754001
Si Si5 0.500000 0.180492 0.572910
Si Si6 0.000000 0.820522 0.288959
Si Si7 0.306465 0.675364 0.138189
Si Si8 0.192342 0.677265 0.516618
O O1 0.500000 0.500000 0.402911
O O2 0.408723 0.750889 0.375313
O O3 0.500000 0.735738 0.494036
O O4 0.664070 0.500000 0.921111
O O5 0.763365 0.661811 0.837641
O O6 0.730669 0.765966 0.961536
O O7 0.907589 0.275713 0.492919
O O8 0.000000 0.500000 0.447260
O O9 0.000000 0.252041 0.370205
O O10 0.794823 0.500000 0.723692
O O11 0.725676 0.776074 0.718816
O O12 0.904059 0.718124 0.751616
O O13 0.407362 0.220005 0.615287
O O14 0.500000 0.000000 0.562826
O O15 0.000000 0.000000 0.295487
O O16 0.301815 0.500000 0.127453
O O17 0.227604 0.753479 0.092152
O O18 0.192559 0.500000 0.519449
#
# Coordination Sequence:
#
# PCOD9359623 Si02
#       8
#     4   8   4   8   4   4   8   8
#     4  12  24  37  62  95 125 163 205 253 308 367
#     4  11  22  39  63  91 123 160 205 255 304 359
#     4  10  22  37  60  93 127 161 203 259 306 357
#     4  10  23  41  63  90 124 163 204 254 308 367
#     4  10  22  41  62  85 119 161 205 255 312 367
#     4  10  20  39  64  89 119 163 207 249 310 373
#     4  11  24  41  63  89 123 164 205 257 311 367
#     4  11  22  38  61  91 124 160 205 254 306 363
#
# _framework density 9.8765429999999999
#
# number of rings (size 3 to 8) (size 9 to 14) (size 15 to 20)
#    0.000    1.333    3.333    2.250    0.000    4.667 
#    0.000    5.000    0.000    0.000    0.000    0.000 
#    0.000    0.000    0.000    0.000    0.000    0.000 
#
# Total GULP energy -133816.665527 kJ/mol
# GULP energy per Si atom -5575.694397 kJ/mol
# Density = 0.985406 g / cm^3
# Si number density = 9.876543 Si / 1000 Ang^3
#
#
#
# Elastic Constant Matrix: (Units=GPa)
#
#
# Indices 1 2 3 4 5 6 
#
# 1 150.2235 32.6781 2.9715 0.0000 0.0000 0.0000
# 2 32.6781 61.7936 5.8544 0.0000 0.0000 0.0000
# 3 2.9715 5.8544 25.2466 0.0000 0.0000 0.0000
# 4 0.0000 0.0000 0.0000 28.0360 0.0000 0.0000
# 5 0.0000 0.0000 0.0000 0.0000 25.2229 0.0000
# 6 0.0000 0.0000 0.0000 0.0000 0.0000 33.8399
#
#
#
# Elastic Compliance Matrix: (Units=1/GPa)
#
#
# Indices 1 2 3 4 5 6 
#
# 1 0.007522 -0.003981 0.000038 0.000000 0.000000 0.000000
# 2 -0.003981 0.018654 -0.003857 0.000000 0.000000 0.000000
# 3 0.000038 -0.003857 0.040499 0.000000 0.000000 0.000000
# 4 0.000000 0.000000 0.000000 0.035668 0.000000 0.000000
# 5 0.000000 0.000000 0.000000 0.000000 0.039646 0.000000
# 6 0.000000 0.000000 0.000000 0.000000 0.000000 0.029551
#
#
# Mechanical properties :
#
#
# Convention : Reuss Voigt Hill
#
# Bulk Modulus (GPa) = 19.57944 35.58573 27.58259
# Shear Modulus (GPa) = 24.48980 30.47042 27.48011
#
# Velocity S-wave (km/s) = 3.52489 3.93181 3.73390
# Velocity P-wave (km/s) = 5.14783 6.21825 5.70818
#
# Compressibility (1/GPa) = 0.05107399
#
# Stress axis : x y z
#
# Youngs Moduli (GPa) = 132.94186 53.60834 24.69187
#
# Poissons Ratio (x) = 0.21344 -0.00094
# Poissons Ratio (y) = 0.52930 0.09524
# Poissons Ratio (z) = -0.00504 0.20677
#
# Static dielectric constant tensor:
#      x y z
#    x 1.675620 0.000000 0.000000 
#    y 0.000000 1.714980 0.000000 
#    z 0.000000 0.000000 1.811570 
# 
# From -- ./inp_files/18239.got.cif
#   From: 2010.05.17/outbox.ucp.g08.bks.cvg/sg38_10_cif.got.tgz:18239.got - 2010.06.11 10:39:43.
