data_PCOD9359522
_publ_section_title
;
Structure prediction by ZEFSAII (Michael W. Deem and Ramdas Pophale) SiO2 
 PCOD9359522
Probable space group: A M M 2
;
_chemical_formula_sum "Si O2"
_cell_formula_units_Z 48
_cell_length_a 7.677077
_cell_length_b 7.684039
_cell_length_c 37.084246
_cell_angle_alpha 90.000000
_cell_angle_beta 90.000000
_cell_angle_gamma 90.000000
_cell_volume 2187.635238
_symmetry_space_group_name_H-M "A M M 2"
_symmetry_group_IT_number 38
_symmetry_cell_setting 'orthorhombic'
loop_
_space_group_symop_operation_xyz
x,y,z
-x,-y,z
-x,y,z
x,-y,z
x,1/2+y,1/2+z
-x,1/2-y,1/2+z
-x,1/2+y,1/2+z
x,1/2-y,1/2+z
loop_
_atom_site_type_symbol
_atom_site_label
_atom_site_fract_x
_atom_site_fract_y
_atom_site_fract_z
Si Si1 0.714525 0.000000 0.659880
Si Si2 0.712733 0.500000 0.242683
Si Si3 0.297923 0.708619 0.452185
Si Si4 0.286392 0.299362 0.796692
Si Si5 0.698691 0.292055 0.874836
Si Si6 0.205390 0.801599 0.030333
Si Si7 0.294432 0.197771 0.108134
O O1 0.769676 0.000000 0.701354
O O2 0.774748 0.169909 0.637894
O O3 0.500000 0.000000 0.659397
O O4 0.500000 0.500000 0.242421
O O5 0.767350 0.330202 0.265198
O O6 0.500000 0.760417 0.450289
O O7 0.282492 0.500000 0.453797
O O8 0.216499 0.757684 0.413658
O O9 0.235671 0.777849 0.490852
O O10 0.500000 0.298527 0.798234
O O11 0.233552 0.500000 0.790915
O O12 0.225733 0.235577 0.836386
O O13 0.500000 0.220032 0.876648
O O14 0.687188 0.500000 0.871542
O O15 0.274258 0.726112 0.067673
O O16 0.000000 0.811747 0.034683
O O17 0.279169 0.000000 0.029150
O O18 0.500000 0.182949 0.114679
O O19 0.221371 0.000000 0.108962
#
# Coordination Sequence:
#
# PCOD9359522 Si02
#       7
#     4   4   8   8   8   8   8
#     4   9  18  30  43  67  93 117 157 197 229 279
#     4   9  16  24  38  59  87 119 149 185 229 273
#     4   9  16  25  41  64  87 115 153 192 226 267
#     4   8  14  23  35  54  83 119 153 183 219 267
#     4   8  14  24  36  54  83 117 152 185 218 261
#     4   9  17  30  47  66  90 119 152 190 233 279
#     4   9  17  31  50  67  89 123 156 189 230 276
#
# _framework density 21.941500999999999
#
# number of rings (size 3 to 8) (size 9 to 14) (size 15 to 20)
#    0.000    3.333    0.000    1.500    1.167    2.667 
#    1.500    3.750    0.000    0.000    0.000    0.000 
#    0.000    2.667    0.000    2.000    0.000    0.667 
#
# Total GULP energy -133708.675640 kJ/mol
# GULP energy per Si atom -5571.194818 kJ/mol
# Density = 2.189156 g / cm^3
# Si number density = 21.941501 Si / 1000 Ang^3
#
#
#
# Elastic Constant Matrix: (Units=GPa)
#
#
# Indices 1 2 3 4 5 6 
#
# 1 32.5188 9.2789 8.3594 0.0000 0.0000 0.0000
# 2 9.2789 83.7167 87.0912 0.0000 0.0000 0.0000
# 3 8.3594 87.0912 258.1065 0.0000 0.0000 0.0000
# 4 0.0000 0.0000 0.0000 47.5802 0.0000 0.0000
# 5 0.0000 0.0000 0.0000 0.0000 -37.2401 0.0000
# 6 0.0000 0.0000 0.0000 0.0000 0.0000 -3.5758
#
#
#
# Elastic Compliance Matrix: (Units=1/GPa)
#
#
# Indices 1 2 3 4 5 6 
#
# 1 0.031766 -0.003776 0.000245 0.000000 0.000000 0.000000
# 2 -0.003776 0.018855 -0.006240 0.000000 0.000000 0.000000
# 3 0.000245 -0.006240 0.005972 0.000000 0.000000 0.000000
# 4 0.000000 0.000000 0.000000 0.021017 0.000000 0.000000
# 5 0.000000 0.000000 0.000000 0.000000 -0.026853 0.000000
# 6 0.000000 0.000000 0.000000 0.000000 0.000000 -0.279661
#
#
# Mechanical properties :
#
#
# Convention : Reuss Voigt Hill
#
# Bulk Modulus (GPa) = 26.98942 64.86677 45.92810
# Shear Modulus (GPa) = -25.37906 19.32705 -3.02601
#
# Velocity S-wave (km/s) = -3.40467 2.97112 -1.17564
# Velocity P-wave (km/s) = 1.76873 6.43411 4.37432
#
# Compressibility (1/GPa) = 0.03705156
#
# Stress axis : x y z
#
# Youngs Moduli (GPa) = 31.48041 53.03674 167.45170
#
# Poissons Ratio (x) = 0.20027 -0.04108
# Poissons Ratio (y) = 0.11887 1.04486
# Poissons Ratio (z) = -0.00772 0.33094
#
# Static dielectric constant tensor:
#      x y z
#    x 1.795260 0.000000 0.000000 
#    y 0.000000 1.817690 0.000000 
#    z 0.000000 0.000000 1.832510 
# 
# From -- ./inp_files/24361.got.cif
#   From: 2010.05.17/outbox.cif.g08.bks.cpg/sg38_13_cif.got.tgz:24361.got - 2010.06.03 18:07:57.
