data_PCOD9359281
_publ_section_title
;
Structure prediction by ZEFSAII (Michael W. Deem and Ramdas Pophale) SiO2 
 PCOD9359281
Probable space group: A M M 2
;
_chemical_formula_sum "Si O2"
_cell_formula_units_Z 32
_cell_length_a 13.261112
_cell_length_b 17.435762
_cell_length_c 7.051967
_cell_angle_alpha 90.000000
_cell_angle_beta 90.000000
_cell_angle_gamma 90.000000
_cell_volume 1630.538833
_symmetry_space_group_name_H-M "A M M 2"
_symmetry_group_IT_number 38
_symmetry_cell_setting 'orthorhombic'
loop_
_space_group_symop_operation_xyz
x,y,z
-x,-y,z
-x,y,z
x,-y,z
x,1/2+y,1/2+z
-x,1/2-y,1/2+z
-x,1/2+y,1/2+z
x,1/2-y,1/2+z
loop_
_atom_site_type_symbol
_atom_site_label
_atom_site_fract_x
_atom_site_fract_y
_atom_site_fract_z
Si Si1 0.249990 0.086142 0.673720
Si Si2 0.726153 0.678958 0.556643
Si Si3 0.384643 0.168614 0.424683
Si Si4 0.880219 0.909761 0.309736
O O1 0.350786 0.096481 0.548329
O O2 0.160534 0.102968 0.523712
O O3 0.236214 0.000000 0.740458
O O4 0.261279 0.138105 0.856567
O O5 0.691291 0.764765 0.500112
O O6 0.639058 0.653843 0.704482
O O7 0.824927 0.652313 0.675354
O O8 0.500000 0.190845 0.453617
O O9 0.000000 0.902408 0.298889
O O10 0.854071 0.000000 0.262834
#
# Coordination Sequence:
#
# PCOD9359281 Si02
#       4
#     8   8   8   8
#     4  10  22  40  63  91 123 160 207 259 306 366
#     4  11  21  37  63  91 121 162 209 253 303 371
#     4  11  23  39  61  87 123 168 208 255 314 370
#     4   9  20  40  65  93 125 162 204 254 315 375
#
# _framework density 19.625413999999999
#
# number of rings (size 3 to 8) (size 9 to 14) (size 15 to 20)
#    0.000    1.750    2.500    1.500    0.000    3.500 
#    0.000    7.500    0.000    6.750    0.000    0.000 
#    0.000    0.000    0.000    0.000    0.000    0.000 
#
# Total GULP energy -89094.561661 kJ/mol
# GULP energy per Si atom -5568.410104 kJ/mol
# Density = 1.958075 g / cm^3
# Si number density = 19.625414 Si / 1000 Ang^3
#
#
#
# Elastic Constant Matrix: (Units=GPa)
#
#
# Indices 1 2 3 4 5 6 
#
# 1 119.0762 49.5347 31.6461 0.0000 0.0000 0.0000
# 2 49.5347 30.8727 9.7969 0.0000 0.0000 0.0000
# 3 31.6461 9.7969 100.9080 0.0000 0.0000 0.0000
# 4 0.0000 0.0000 0.0000 9.3863 0.0000 0.0000
# 5 0.0000 0.0000 0.0000 0.0000 8.0750 0.0000
# 6 0.0000 0.0000 0.0000 0.0000 0.0000 18.9805
#
#
#
# Elastic Compliance Matrix: (Units=1/GPa)
#
#
# Indices 1 2 3 4 5 6 
#
# 1 0.027024 -0.041962 -0.004401 0.000000 0.000000 0.000000
# 2 -0.041962 0.098580 0.003589 0.000000 0.000000 0.000000
# 3 -0.004401 0.003589 0.010942 0.000000 0.000000 0.000000
# 4 0.000000 0.000000 0.000000 0.106538 0.000000 0.000000
# 5 0.000000 0.000000 0.000000 0.000000 0.123839 0.000000
# 6 0.000000 0.000000 0.000000 0.000000 0.000000 0.052686
#
#
# Mechanical properties :
#
#
# Convention : Reuss Voigt Hill
#
# Bulk Modulus (GPa) = 19.60901 48.09024 33.84962
# Shear Modulus (GPa) = 9.57571 17.94698 13.76134
#
# Velocity S-wave (km/s) = 2.21130 3.02731 2.65089
# Velocity P-wave (km/s) = 4.06609 6.06438 5.16284
#
# Compressibility (1/GPa) = 0.05099697
#
# Stress axis : x y z
#
# Youngs Moduli (GPa) = 37.00476 10.14405 91.39292
#
# Poissons Ratio (x) = 0.42567 0.40222
# Poissons Ratio (y) = 1.55280 -0.32802
# Poissons Ratio (z) = 0.16286 -0.03641
#
# Static dielectric constant tensor:
#      x y z
#    x 1.669020 0.000000 0.000000 
#    y 0.000000 1.741260 0.000000 
#    z 0.000000 0.000000 1.684910 
# 
# From -- ./inp_files/726.got.cif
#   From: 2010.05.17/outbox.cif.g08.bks.cpg/sg38_1_cif.got.tgz:726.got - 2010.06.03 18:07:57.
