data_PCOD9359756
_publ_section_title
;
Structure prediction by ZEFSAII (Michael W. Deem and Ramdas Pophale) SiO2 
 PCOD9359756
Probable space group: A B M 2
;
_chemical_formula_sum "Si O2"
_cell_formula_units_Z 64
_cell_length_a 15.425743
_cell_length_b 8.729564
_cell_length_c 31.323651
_cell_angle_alpha 90.000000
_cell_angle_beta 90.000000
_cell_angle_gamma 90.000000
_cell_volume 4218.043181
_symmetry_space_group_name_H-M "A B M 2"
_symmetry_group_IT_number 39
_symmetry_cell_setting 'orthorhombic'
loop_
_space_group_symop_operation_xyz
x,y,z
-x,-y,z
-x,1/2+y,z
x,1/2-y,z
x,1/2+y,1/2+z
-x,1/2-y,1/2+z
-x,y,1/2+z
x,-y,1/2+z
loop_
_atom_site_type_symbol
_atom_site_label
_atom_site_fract_x
_atom_site_fract_y
_atom_site_fract_z
Si Si1 0.090136 0.426089 0.168470
Si Si2 0.403375 0.567689 0.602369
Si Si3 0.273660 0.068340 0.770873
Si Si4 0.273660 0.568340 0.169822
Si Si5 0.598209 0.933495 0.513955
Si Si6 0.596625 0.932311 0.338325
Si Si7 0.401791 0.566505 0.426739
Si Si8 0.090136 0.573911 0.772224
O O1 0.097341 0.250000 0.154666
O O2 0.176385 0.518930 0.156985
O O3 0.086991 0.426580 0.220347
O O4 0.000000 0.500000 0.153541
O O5 0.500000 0.500000 0.608735
O O6 0.409515 0.750000 0.597391
O O7 0.342977 0.521580 0.641689
O O8 0.365284 0.493947 0.558773
O O9 0.284852 0.250000 0.776779
O O10 0.283800 0.034443 0.720347
O O11 0.342976 0.978420 0.799005
O O12 0.176384 0.018931 0.783709
O O13 0.284852 0.750000 0.163915
O O14 0.595990 0.750000 0.512698
O O15 0.500000 0.000000 0.514591
O O16 0.638511 1.000000 0.470347
O O17 0.590484 0.750000 0.343303
O O18 0.500000 0.000000 0.331959
O O19 0.634716 0.006053 0.381921
O O20 0.500000 0.500000 0.426103
O O21 0.404011 0.750000 0.427996
O O22 0.097342 0.750000 0.786028
O O23 0.000000 0.500000 0.787153
#
# Coordination Sequence:
#
# PCOD9359756 Si02
#       8
#     8   8   8   8   8   8   8   8
#     4   9  16  27  44  65  87 112 143 181 225 269
#     4  11  21  33  47  64  88 119 154 189 225 265
#     4  10  20  33  47  64  88 119 154 190 226 265
#     4  10  20  33  47  64  88 119 154 190 226 265
#     4  10  17  28  45  65  87 111 142 180 224 268
#     4  11  21  33  47  64  88 119 154 189 225 265
#     4  10  17  28  45  65  87 111 142 180 224 268
#     4   9  16  27  44  65  87 112 143 181 225 269
#
# _framework density 15.172912
#
# number of rings (size 3 to 8) (size 9 to 14) (size 15 to 20)
#    0.000    2.000    0.000    8.250    0.000    5.000 
#    0.000    0.000    0.000    0.000    0.000    0.000 
#    0.000    1.000    0.000   10.000    0.000    6.500 
#
# Total GULP energy -178396.995397 kJ/mol
# GULP energy per Si atom -5574.906106 kJ/mol
# Density = 1.513838 g / cm^3
# Si number density = 15.172912 Si / 1000 Ang^3
#
#
#
# Elastic Constant Matrix: (Units=GPa)
#
#
# Indices 1 2 3 4 5 6 
#
# 1 64.0482 33.4580 34.6551 0.0000 0.0000 0.0000
# 2 33.4580 137.7990 46.4936 0.0000 0.0000 0.0000
# 3 34.6551 46.4936 63.1814 0.0000 0.0000 0.0000
# 4 0.0000 0.0000 0.0000 34.1548 0.0000 0.0000
# 5 0.0000 0.0000 0.0000 0.0000 -1.3510 0.0000
# 6 0.0000 0.0000 0.0000 0.0000 0.0000 25.1702
#
#
#
# Elastic Compliance Matrix: (Units=1/GPa)
#
#
# Indices 1 2 3 4 5 6 
#
# 1 0.022508 -0.001729 -0.011074 0.000000 0.000000 0.000000
# 2 -0.001729 0.009787 -0.006254 0.000000 0.000000 0.000000
# 3 -0.011074 -0.006254 0.026503 0.000000 0.000000 0.000000
# 4 0.000000 0.000000 0.000000 0.029278 0.000000 0.000000
# 5 0.000000 0.000000 0.000000 0.000000 -0.740180 0.000000
# 6 0.000000 0.000000 0.000000 0.000000 0.000000 0.039730
#
#
# Mechanical properties :
#
#
# Convention : Reuss Voigt Hill
#
# Bulk Modulus (GPa) = 48.34160 54.91579 51.62869
# Shear Modulus (GPa) = -8.81263 21.62292 6.40515
#
# Velocity S-wave (km/s) = -2.41262 3.77915 2.05684
# Velocity P-wave (km/s) = 4.91616 7.43737 6.30409
#
# Compressibility (1/GPa) = 0.02068612
#
# Stress axis : x y z
#
# Youngs Moduli (GPa) = 44.42868 102.18005 37.73143
#
# Poissons Ratio (x) = 0.17665 0.41782
# Poissons Ratio (y) = 0.07681 0.23595
# Poissons Ratio (z) = 0.49198 0.63898
#
# Static dielectric constant tensor:
#      x y z
#    x 1.486870 0.000000 0.000000 
#    y 0.000000 1.511330 0.000000 
#    z 0.000000 0.000000 1.537220 
# 
# From -- ./inp_files/17989.got.cif
#   From: 2010.05.17/outbox.cif.g08.bks.cpg/sg39_9_cif.got.tgz:17989.got - 2010.06.03 18:22:40.
