data_PCOD9359063
_publ_section_title
;
Structure prediction by ZEFSAII (Michael W. Deem and Ramdas Pophale) SiO2 
 PCOD9359063
Probable space group: A M M 2
;
_chemical_formula_sum "Si O2"
_cell_formula_units_Z 48
_cell_length_a 8.702036
_cell_length_b 14.764712
_cell_length_c 20.853532
_cell_angle_alpha 90.000000
_cell_angle_beta 90.000000
_cell_angle_gamma 90.000000
_cell_volume 2679.325506
_symmetry_space_group_name_H-M "A M M 2"
_symmetry_group_IT_number 38
_symmetry_cell_setting 'orthorhombic'
loop_
_space_group_symop_operation_xyz
x,y,z
-x,-y,z
-x,y,z
x,-y,z
x,1/2+y,1/2+z
-x,1/2-y,1/2+z
-x,1/2+y,1/2+z
x,1/2-y,1/2+z
loop_
_atom_site_type_symbol
_atom_site_label
_atom_site_fract_x
_atom_site_fract_y
_atom_site_fract_z
Si Si1 0.185442 0.307173 0.392200
Si Si2 0.316546 0.685026 0.529354
Si Si3 0.684257 0.191564 0.650782
Si Si4 0.184473 0.309963 0.767891
Si Si5 0.316467 0.000000 0.227032
Si Si6 0.816933 0.500000 0.583013
Si Si7 0.186639 0.000000 0.835251
Si Si8 0.184823 0.000000 0.685544
O O1 0.260855 0.284175 0.459724
O O2 0.223687 0.238196 0.334989
O O3 0.235793 0.407967 0.370079
O O4 0.000000 0.308414 0.399047
O O5 0.500000 0.672855 0.530042
O O6 0.276159 0.756047 0.585292
O O7 0.237763 0.589645 0.546358
O O8 0.500000 0.188954 0.656553
O O9 0.752472 0.248352 0.710069
O O10 0.751256 0.090902 0.653849
O O11 0.253987 0.409503 0.760357
O O12 0.000000 0.314201 0.762744
O O13 0.256852 0.000000 0.153739
O O14 0.500000 0.000000 0.226466
O O15 0.000000 0.500000 0.588867
O O16 0.233041 0.000000 0.760715
O O17 0.000000 0.000000 0.835497
O O18 0.000000 0.000000 0.683620
#
# Coordination Sequence:
#
# PCOD9359063 Si02
#       8
#     8   8   8   8   4   4   4   4
#     4  10  21  38  61  89 123 158 199 246 298 360
#     4  11  24  40  59  88 126 161 199 248 304 365
#     4  11  23  39  60  88 124 159 197 249 303 358
#     4  11  22  39  64  91 119 158 205 252 299 359
#     4  12  24  39  60  91 126 158 200 254 307 360
#     4  12  23  37  62  90 122 161 202 251 304 360
#     4   9  17  34  57  87 120 150 185 243 300 346
#     4  11  21  38  63  90 120 153 201 250 293 354
#
# _framework density 17.914957000000001
#
# number of rings (size 3 to 8) (size 9 to 14) (size 15 to 20)
#    0.000    1.167    3.333    3.750    0.000    4.000 
#    0.000    0.833    0.000    0.000    0.000    0.000 
#    0.000    0.000    0.000    0.000    0.000    0.000 
#
# Total GULP energy -134190.666345 kJ/mol
# GULP energy per Si atom -5591.277764 kJ/mol
# Density = 1.787418 g / cm^3
# Si number density = 17.914957 Si / 1000 Ang^3
#
#
#
# Elastic Constant Matrix: (Units=GPa)
#
#
# Indices 1 2 3 4 5 6 
#
# 1 75.8413 61.1667 67.1122 0.0000 0.0000 0.0000
# 2 61.1667 162.0794 86.0367 0.0000 0.0000 0.0000
# 3 67.1122 86.0367 161.4403 0.0000 0.0000 0.0000
# 4 0.0000 0.0000 0.0000 11.3151 0.0000 0.0000
# 5 0.0000 0.0000 0.0000 0.0000 40.3016 0.0000
# 6 0.0000 0.0000 0.0000 0.0000 0.0000 27.3319
#
#
#
# Elastic Compliance Matrix: (Units=1/GPa)
#
#
# Indices 1 2 3 4 5 6 
#
# 1 0.023590 -0.005155 -0.007059 0.000000 0.000000 0.000000
# 2 -0.005155 0.009730 -0.003043 0.000000 0.000000 0.000000
# 3 -0.007059 -0.003043 0.010750 0.000000 0.000000 0.000000
# 4 0.000000 0.000000 0.000000 0.088378 0.000000 0.000000
# 5 0.000000 0.000000 0.000000 0.000000 0.024813 0.000000
# 6 0.000000 0.000000 0.000000 0.000000 0.000000 0.036587
#
#
# Mechanical properties :
#
#
# Convention : Reuss Voigt Hill
#
# Bulk Modulus (GPa) = 73.76473 91.99914 82.88193
# Shear Modulus (GPa) = 21.84539 28.12608 24.98573
#
# Velocity S-wave (km/s) = 3.49577 3.96659 3.73860
# Velocity P-wave (km/s) = 7.58671 8.51136 8.06230
#
# Compressibility (1/GPa) = 0.01355661
#
# Stress axis : x y z
#
# Youngs Moduli (GPa) = 42.39114 102.77014 93.02126
#
# Poissons Ratio (x) = 0.52982 0.65664
# Poissons Ratio (y) = 0.21854 0.28302
# Poissons Ratio (z) = 0.29924 0.31268
#
# Static dielectric constant tensor:
#      x y z
#    x 1.603340 0.000000 0.000000 
#    y 0.000000 1.590990 0.000000 
#    z 0.000000 0.000000 1.593330 
# 
# From -- ./inp_files/16769.got.cif
#   From: 2010.05.17/outbox.cif.g08.bks.cpg/sg38_9_cif.got.tgz:16769.got - 2010.06.03 18:07:57.
