data_PCOD9359270
_publ_section_title
;
Structure prediction by ZEFSAII (Michael W. Deem and Ramdas Pophale) SiO2 
 PCOD9359270
Probable space group: A M M 2
;
_chemical_formula_sum "Si O2"
_cell_formula_units_Z 56
_cell_length_a 20.091222
_cell_length_b 7.725614
_cell_length_c 16.312031
_cell_angle_alpha 90.000000
_cell_angle_beta 90.000000
_cell_angle_gamma 90.000000
_cell_volume 2531.904939
_symmetry_space_group_name_H-M "A M M 2"
_symmetry_group_IT_number 38
_symmetry_cell_setting 'orthorhombic'
loop_
_space_group_symop_operation_xyz
x,y,z
-x,-y,z
-x,y,z
x,-y,z
x,1/2+y,1/2+z
-x,1/2-y,1/2+z
-x,1/2+y,1/2+z
x,1/2-y,1/2+z
loop_
_atom_site_type_symbol
_atom_site_label
_atom_site_fract_x
_atom_site_fract_y
_atom_site_fract_z
Si Si1 0.283923 0.199368 0.073060
Si Si2 0.925192 0.204463 0.965972
Si Si3 0.572267 0.210411 0.317945
Si Si4 0.290815 0.794801 0.392726
Si Si5 0.855064 0.197863 0.632959
Si Si6 0.841194 0.210210 0.810915
Si Si7 0.572632 0.210392 0.125198
O O1 0.224532 0.293914 0.119205
O O2 0.358773 0.270498 0.084549
O O3 0.283293 0.000000 0.101458
O O4 0.268639 0.206785 0.976712
O O5 0.882235 0.274984 0.889830
O O6 0.000000 0.276516 0.968845
O O7 0.930154 0.000000 0.950196
O O8 0.889261 0.222177 0.053385
O O9 0.500000 0.269293 0.349200
O O10 0.637033 0.272183 0.365338
O O11 0.576699 0.254105 0.221687
O O12 0.573102 0.000000 0.321450
O O13 0.235192 0.763404 0.324527
O O14 0.295108 0.000000 0.407992
O O15 0.868068 0.273199 0.723173
O O16 0.877415 0.000000 0.633596
O O17 0.842593 0.000000 0.809183
O O18 0.500000 0.271681 0.094238
O O19 0.571822 0.000000 0.118641
#
# Coordination Sequence:
#
# PCOD9359270 Si02
#       7
#     8   8   8   8   8   8   8
#     4  11  21  34  54  80 114 154 196 245 299 348
#     4  10  22  42  66  91 122 160 196 232 284 350
#     4   8  15  29  48  72 104 142 187 240 295 347
#     4  11  21  33  54  83 113 149 197 246 292 347
#     4  11  23  39  62  92 122 156 200 245 290 345
#     4  10  22  40  62  88 121 159 195 237 292 349
#     4   8  15  29  49  73 102 142 193 243 292 349
#
# _framework density 22.117732
#
# number of rings (size 3 to 8) (size 9 to 14) (size 15 to 20)
#    0.000    2.143    1.429    3.000    0.000    3.714 
#    0.000    1.429    0.000    2.571    0.000   10.000 
#    0.000    0.000    0.000    0.000    0.000    0.000 
#
# Total GULP energy -156347.519423 kJ/mol
# GULP energy per Si atom -5583.839979 kJ/mol
# Density = 2.206739 g / cm^3
# Si number density = 22.117732 Si / 1000 Ang^3
#
#
#
# Elastic Constant Matrix: (Units=GPa)
#
#
# Indices 1 2 3 4 5 6 
#
# 1 121.5414 0.9840 46.0304 0.0000 0.0000 0.0000
# 2 0.9840 40.0841 -2.1720 0.0000 0.0000 0.0000
# 3 46.0304 -2.1720 112.5351 0.0000 0.0000 0.0000
# 4 0.0000 0.0000 0.0000 10.4609 0.0000 0.0000
# 5 0.0000 0.0000 0.0000 0.0000 11.2888 0.0000
# 6 0.0000 0.0000 0.0000 0.0000 0.0000 8.0299
#
#
#
# Elastic Compliance Matrix: (Units=1/GPa)
#
#
# Indices 1 2 3 4 5 6 
#
# 1 0.009744 -0.000456 -0.003994 0.000000 0.000000 0.000000
# 2 -0.000456 0.024995 0.000669 0.000000 0.000000 0.000000
# 3 -0.003994 0.000669 0.010533 0.000000 0.000000 0.000000
# 4 0.000000 0.000000 0.000000 0.095594 0.000000 0.000000
# 5 0.000000 0.000000 0.000000 0.000000 0.088584 0.000000
# 6 0.000000 0.000000 0.000000 0.000000 0.000000 0.124535
#
#
# Mechanical properties :
#
#
# Convention : Reuss Voigt Hill
#
# Bulk Modulus (GPa) = 26.51862 40.42727 33.47294
# Shear Modulus (GPa) = 13.36481 21.24379 17.30430
#
# Velocity S-wave (km/s) = 2.46083 3.10253 2.80013
# Velocity P-wave (km/s) = 4.48219 5.58141 5.06173
#
# Compressibility (1/GPa) = 0.03770936
#
# Stress axis : x y z
#
# Youngs Moduli (GPa) = 102.62592 40.00808 94.94082
#
# Poissons Ratio (x) = 0.01823 0.37924
# Poissons Ratio (y) = 0.04676 -0.06350
# Poissons Ratio (z) = 0.40993 -0.02676
#
# Static dielectric constant tensor:
#      x y z
#    x 1.819490 0.000000 0.000000 
#    y 0.000000 1.815940 0.000000 
#    z 0.000000 0.000000 1.799120 
# 
# From -- ./inp_files/15424.got.cif
#   From: 2010.05.17/outbox.cif.g08.bks.cpg/sg38_8_cif.got.tgz:15424.got - 2010.06.03 18:07:57.
