data_PCOD9359362
_publ_section_title
;
Structure prediction by ZEFSAII (Michael W. Deem and Ramdas Pophale) SiO2 
 PCOD9359362
Probable space group: A M M 2
;
_chemical_formula_sum "Si O2"
_cell_formula_units_Z 36
_cell_length_a 10.281999
_cell_length_b 27.377053
_cell_length_c 5.332350
_cell_angle_alpha 90.000000
_cell_angle_beta 90.000000
_cell_angle_gamma 90.000000
_cell_volume 1501.007636
_symmetry_space_group_name_H-M "A M M 2"
_symmetry_group_IT_number 38
_symmetry_cell_setting 'orthorhombic'
loop_
_space_group_symop_operation_xyz
x,y,z
-x,-y,z
-x,y,z
x,-y,z
x,1/2+y,1/2+z
-x,1/2-y,1/2+z
-x,1/2+y,1/2+z
x,1/2-y,1/2+z
loop_
_atom_site_type_symbol
_atom_site_label
_atom_site_fract_x
_atom_site_fract_y
_atom_site_fract_z
Si Si1 0.848005 0.224756 0.046970
Si Si2 0.648525 0.942827 0.985546
Si Si3 0.500000 0.218601 0.065725
Si Si4 0.149375 0.128131 0.748905
Si Si5 0.358243 0.643387 0.853758
O O1 0.792409 0.247254 0.303942
O O2 0.000000 0.240150 0.068291
O O3 0.856530 0.167504 0.973607
O O4 0.500000 0.937192 0.882769
O O5 0.650047 0.910477 0.237508
O O6 0.669750 0.000000 0.026850
O O7 0.763720 0.918517 0.825225
O O8 0.500000 0.257107 0.295501
O O9 0.381666 0.181348 0.123541
O O10 0.235162 0.151493 0.527000
O O11 0.000000 0.117399 0.677076
O O12 0.500000 0.647964 0.988535
#
# Coordination Sequence:
#
# PCOD9359362 Si02
#       5
#     8   8   4   8   8
#     4   9  20  38  60  92 137 189 233 271 336 424
#     4  10  23  46  72  96 131 184 245 307 369 439
#     4  10  24  42  73 110 149 198 244 312 364 426
#     4  11  24  40  67 103 143 185 234 301 367 444
#     4   9  23  42  68  97 140 184 250 288 368 435
#
# _framework density 23.983889000000001
#
# number of rings (size 3 to 8) (size 9 to 14) (size 15 to 20)
#    0.667    1.556    0.000    0.667    6.222    4.000 
#    0.000    2.222    0.000    0.000    0.000    0.000 
#    0.000    0.000    0.000    0.000    0.000    0.000 
#
# Total GULP energy -100516.495007 kJ/mol
# GULP energy per Si atom -5584.249723 kJ/mol
# Density = 2.392930 g / cm^3
# Si number density = 23.983889 Si / 1000 Ang^3
#
#
#
# Elastic Constant Matrix: (Units=GPa)
#
#
# Indices 1 2 3 4 5 6 
#
# 1 203.4722 29.8935 29.6254 0.0000 0.0000 0.0000
# 2 29.8935 167.1457 49.9523 0.0000 0.0000 0.0000
# 3 29.6254 49.9523 92.4506 0.0000 0.0000 0.0000
# 4 0.0000 0.0000 0.0000 27.5856 0.0000 0.0000
# 5 0.0000 0.0000 0.0000 0.0000 26.5759 0.0000
# 6 0.0000 0.0000 0.0000 0.0000 0.0000 7.4918
#
#
#
# Elastic Compliance Matrix: (Units=1/GPa)
#
#
# Indices 1 2 3 4 5 6 
#
# 1 0.005192 -0.000514 -0.001386 0.000000 0.000000 0.000000
# 2 -0.000514 0.007186 -0.003718 0.000000 0.000000 0.000000
# 3 -0.001386 -0.003718 0.013269 0.000000 0.000000 0.000000
# 4 0.000000 0.000000 0.000000 0.036251 0.000000 0.000000
# 5 0.000000 0.000000 0.000000 0.000000 0.037628 0.000000
# 6 0.000000 0.000000 0.000000 0.000000 0.000000 0.133479
#
#
# Mechanical properties :
#
#
# Convention : Reuss Voigt Hill
#
# Bulk Modulus (GPa) = 69.38997 75.77899 72.58448
# Shear Modulus (GPa) = 20.07672 35.90382 27.99027
#
# Velocity S-wave (km/s) = 2.89639 3.87330 3.41991
# Velocity P-wave (km/s) = 6.33878 7.18802 6.77672
#
# Compressibility (1/GPa) = 0.01441130
#
# Stress axis : x y z
#
# Youngs Moduli (GPa) = 192.60304 139.16169 75.36117
#
# Poissons Ratio (x) = 0.07159 0.10444
# Poissons Ratio (y) = 0.09908 0.28018
# Poissons Ratio (z) = 0.26691 0.51737
#
# Static dielectric constant tensor:
#      x y z
#    x 2.155050 0.000000 0.000000 
#    y 0.000000 1.905990 0.000000 
#    z 0.000000 0.000000 2.002270 
# 
# From -- ./inp_files/899.got.cif
#   From: 2010.05.17/outbox.cif.g08.bks.cpg/sg38_1_cif.got.tgz:899.got - 2010.06.03 18:07:57.
