data_PCOD9359902
_publ_section_title
;
Structure prediction by ZEFSAII (Michael W. Deem and Ramdas Pophale) SiO2 
 PCOD9359902
Probable space group: A B M 2
;
_chemical_formula_sum "Si O2"
_cell_formula_units_Z 60
_cell_length_a 15.523704
_cell_length_b 9.963728
_cell_length_c 22.239553
_cell_angle_alpha 90.000000
_cell_angle_beta 90.000000
_cell_angle_gamma 90.000000
_cell_volume 3439.879825
_symmetry_space_group_name_H-M "A B M 2"
_symmetry_group_IT_number 39
_symmetry_cell_setting 'orthorhombic'
loop_
_space_group_symop_operation_xyz
x,y,z
-x,-y,z
-x,1/2+y,z
x,1/2-y,z
x,1/2+y,1/2+z
-x,1/2-y,1/2+z
-x,y,1/2+z
x,-y,1/2+z
loop_
_atom_site_type_symbol
_atom_site_label
_atom_site_fract_x
_atom_site_fract_y
_atom_site_fract_z
Si Si1 0.753399 0.090113 0.936260
Si Si2 0.073561 0.098690 0.116963
Si Si3 0.249637 0.412606 0.182325
Si Si4 0.585063 0.089052 0.145892
Si Si5 0.895066 0.108314 0.477667
Si Si6 0.826630 0.589924 0.311926
Si Si7 0.000000 0.500000 0.374865
Si Si8 0.421564 0.094631 0.501238
O O1 0.763666 0.250000 0.942517
O O2 0.760808 0.055579 0.865804
O O3 0.832205 0.015122 0.967377
O O4 0.664692 0.051849 0.967294
O O5 0.058614 0.250000 0.139762
O O6 0.171115 0.063039 0.135671
O O7 0.067853 0.101379 0.044572
O O8 0.000000 0.000000 0.140550
O O9 0.269697 0.250000 0.180703
O O10 0.331729 0.506615 0.169455
O O11 0.209578 0.448927 0.247303
O O12 0.581084 0.250000 0.162874
O O13 0.590784 0.087008 0.073152
O O14 0.500000 0.000000 0.162246
O O15 0.846154 0.250000 0.473588
O O16 0.964576 0.106063 0.424029
O O17 0.835366 0.750000 0.310429
O O18 0.919187 0.535863 0.333226
O O19 0.439299 0.250000 0.486128
O O20 0.500000 0.000000 0.484384
#
# Coordination Sequence:
#
# PCOD9359902 Si02
#       8
#     8   8   8   8   8   8   4   8
#     4   9  18  33  52  74 102 137 172 209 258 312
#     4  10  21  34  50  75 107 142 179 222 271 319
#     4  10  21  37  54  76 109 145 184 225 268 314
#     4  10  20  36  59  85 109 136 174 217 271 326
#     4  10  19  31  49  75 102 130 170 219 266 311
#     4   9  19  34  52  72 100 142 182 217 259 308
#     4  10  18  32  52  74 100 138 176 222 262 318
#     4   9  18  32  53  81 108 133 164 207 260 318
#
# _framework density 17.442468999999999
#
# number of rings (size 3 to 8) (size 9 to 14) (size 15 to 20)
#    0.000    2.400    0.667    1.600    0.933    2.667 
#    0.000    4.000    0.000    1.600    0.000    0.000 
#    0.000    0.000    0.000    0.000    0.000    0.000 
#
# Total GULP energy -167027.570697 kJ/mol
# GULP energy per Si atom -5567.585690 kJ/mol
# Density = 1.740277 g / cm^3
# Si number density = 17.442469 Si / 1000 Ang^3
#
#
#
# Elastic Constant Matrix: (Units=GPa)
#
#
# Indices 1 2 3 4 5 6 
#
# 1 134.2855 74.4358 40.1033 0.0000 0.0000 0.0000
# 2 74.4358 72.8428 31.6296 0.0000 0.0000 0.0000
# 3 40.1033 31.6296 43.8074 0.0000 0.0000 0.0000
# 4 0.0000 0.0000 0.0000 15.1237 0.0000 0.0000
# 5 0.0000 0.0000 0.0000 0.0000 25.3184 0.0000
# 6 0.0000 0.0000 0.0000 0.0000 0.0000 30.6685
#
#
#
# Elastic Compliance Matrix: (Units=1/GPa)
#
#
# Indices 1 2 3 4 5 6 
#
# 1 0.017791 -0.016181 -0.004604 0.000000 0.000000 0.000000
# 2 -0.016181 0.034715 -0.010251 0.000000 0.000000 0.000000
# 3 -0.004604 -0.010251 0.034443 0.000000 0.000000 0.000000
# 4 0.000000 0.000000 0.000000 0.066121 0.000000 0.000000
# 5 0.000000 0.000000 0.000000 0.000000 0.039497 0.000000
# 6 0.000000 0.000000 0.000000 0.000000 0.000000 0.032607
#
#
# Mechanical properties :
#
#
# Convention : Reuss Voigt Hill
#
# Bulk Modulus (GPa) = 40.19891 60.36368 50.28129
# Shear Modulus (GPa) = 16.91826 21.20660 19.06243
#
# Velocity S-wave (km/s) = 3.11778 3.49062 3.30945
# Velocity P-wave (km/s) = 6.00477 7.13641 6.59491
#
# Compressibility (1/GPa) = 0.02487630
#
# Stress axis : x y z
#
# Youngs Moduli (GPa) = 56.20810 28.80637 29.03321
#
# Poissons Ratio (x) = 0.46612 0.13366
# Poissons Ratio (y) = 0.90951 0.29763
# Poissons Ratio (z) = 0.25877 0.29531
#
# Static dielectric constant tensor:
#      x y z
#    x 1.585510 0.000000 0.000000 
#    y 0.000000 1.626940 0.000000 
#    z 0.000000 0.000000 1.600500 
# 
# From -- ./inp_files/16079.got.cif
#   From: 2010.05.17/outbox.cif.g08.bks.cpg/sg39_9_cif.got.tgz:16079.got - 2010.06.03 18:22:40.
