data_PCOD9359159
_publ_section_title
;
Structure prediction by ZEFSAII (Michael W. Deem and Ramdas Pophale) SiO2 
 PCOD9359159
Probable space group: A M M 2
;
_chemical_formula_sum "Si O2"
_cell_formula_units_Z 40
_cell_length_a 11.093849
_cell_length_b 20.714863
_cell_length_c 8.859743
_cell_angle_alpha 90.000000
_cell_angle_beta 90.000000
_cell_angle_gamma 90.000000
_cell_volume 2036.035940
_symmetry_space_group_name_H-M "A M M 2"
_symmetry_group_IT_number 38
_symmetry_cell_setting 'orthorhombic'
loop_
_space_group_symop_operation_xyz
x,y,z
-x,-y,z
-x,y,z
x,-y,z
x,1/2+y,1/2+z
-x,1/2-y,1/2+z
-x,1/2+y,1/2+z
x,1/2-y,1/2+z
loop_
_atom_site_type_symbol
_atom_site_label
_atom_site_fract_x
_atom_site_fract_y
_atom_site_fract_z
Si Si1 0.356755 0.928464 0.890780
Si Si2 0.248106 0.424616 0.056365
Si Si3 0.000000 0.281388 0.399836
Si Si4 0.000000 0.153490 0.566882
Si Si5 0.745719 0.194243 0.053758
Si Si6 0.359531 0.812924 0.373171
O O1 0.500000 0.925694 0.873662
O O2 0.298693 0.920551 0.726226
O O3 0.323726 0.000000 0.948448
O O4 0.314752 0.871298 0.996816
O O5 0.242502 0.500000 0.013672
O O6 0.118064 0.390569 0.057655
O O7 0.332634 0.381625 0.949511
O O8 0.000000 0.306754 0.226858
O O9 0.120030 0.304724 0.486510
O O10 0.000000 0.204538 0.429665
O O11 0.729554 0.196725 0.232372
O O12 0.674836 0.256168 0.988870
O O13 0.500000 0.807823 0.328579
#
# Coordination Sequence:
#
# PCOD9359159 Si02
#       6
#     8   8   4   4   8   8
#     4  10  21  40  65  93 128 170 216 267 327 393
#     4  11  24  42  66  95 131 174 219 268 324 390
#     4  12  24  42  69  97 129 168 213 278 318 388
#     4  12  23  44  67  99 130 170 219 270 333 382
#     4  12  24  43  65  97 132 171 222 273 333 384
#     4  12  25  41  66  96 133 174 220 276 329 390
#
# _framework density 19.646018999999999
#
# number of rings (size 3 to 8) (size 9 to 14) (size 15 to 20)
#    0.000    0.600    4.000    5.100    0.000    2.000 
#    0.000    0.500    0.000    0.000    0.000    0.000 
#    0.000    0.000    0.000    0.000    0.000    0.000 
#
# Total GULP energy -111870.568353 kJ/mol
# GULP energy per Si atom -5593.528418 kJ/mol
# Density = 1.960130 g / cm^3
# Si number density = 19.646019 Si / 1000 Ang^3
#
#
#
# Elastic Constant Matrix: (Units=GPa)
#
#
# Indices 1 2 3 4 5 6 
#
# 1 85.6576 17.2031 -8.6905 0.0000 0.0000 0.0000
# 2 17.2031 141.9971 37.6699 0.0000 0.0000 0.0000
# 3 -8.6905 37.6699 55.5249 0.0000 0.0000 0.0000
# 4 0.0000 0.0000 0.0000 34.1178 0.0000 0.0000
# 5 0.0000 0.0000 0.0000 0.0000 27.3405 0.0000
# 6 0.0000 0.0000 0.0000 0.0000 0.0000 36.3144
#
#
#
# Elastic Compliance Matrix: (Units=1/GPa)
#
#
# Indices 1 2 3 4 5 6 
#
# 1 0.012545 -0.002489 0.003652 0.000000 0.000000 0.000000
# 2 -0.002489 0.009082 -0.006551 0.000000 0.000000 0.000000
# 3 0.003652 -0.006551 0.023026 0.000000 0.000000 0.000000
# 4 0.000000 0.000000 0.000000 0.029310 0.000000 0.000000
# 5 0.000000 0.000000 0.000000 0.000000 0.036576 0.000000
# 6 0.000000 0.000000 0.000000 0.000000 0.000000 0.027537
#
#
# Mechanical properties :
#
#
# Convention : Reuss Voigt Hill
#
# Bulk Modulus (GPa) = 29.51862 41.72717 35.62289
# Shear Modulus (GPa) = 31.22208 35.35436 33.28822
#
# Velocity S-wave (km/s) = 3.99084 4.24673 4.12077
# Velocity P-wave (km/s) = 6.02442 6.73290 6.38849
#
# Compressibility (1/GPa) = 0.03387692
#
# Stress axis : x y z
#
# Youngs Moduli (GPa) = 79.71516 110.11102 43.42950
#
# Poissons Ratio (x) = 0.27402 -0.15859
# Poissons Ratio (y) = 0.19838 0.28450
# Poissons Ratio (z) = -0.29110 0.72132
#
# Static dielectric constant tensor:
#      x y z
#    x 1.687620 0.000000 0.000000 
#    y 0.000000 1.673120 0.000000 
#    z 0.000000 0.000000 1.668990 
# 
# From -- ./inp_files/4479.got.cif
#   From: 2010.05.17/outbox.cif.g08.bks.cpg/sg38_3_cif.got.tgz:4479.got - 2010.06.03 18:07:57.
