data_PCOD9359235
_publ_section_title
;
Structure prediction by ZEFSAII (Michael W. Deem and Ramdas Pophale) SiO2 
 PCOD9359235
Probable space group: A M M 2
;
_chemical_formula_sum "Si O2"
_cell_formula_units_Z 42
_cell_length_a 7.754728
_cell_length_b 10.757491
_cell_length_c 23.972925
_cell_angle_alpha 90.000000
_cell_angle_beta 90.000000
_cell_angle_gamma 90.000000
_cell_volume 1999.855365
_symmetry_space_group_name_H-M "A M M 2"
_symmetry_group_IT_number 38
_symmetry_cell_setting 'orthorhombic'
loop_
_space_group_symop_operation_xyz
x,y,z
-x,-y,z
-x,y,z
x,-y,z
x,1/2+y,1/2+z
-x,1/2-y,1/2+z
-x,1/2+y,1/2+z
x,1/2-y,1/2+z
loop_
_atom_site_type_symbol
_atom_site_label
_atom_site_fract_x
_atom_site_fract_y
_atom_site_fract_z
Si Si1 0.794319 0.137761 0.498280
Si Si2 0.706767 0.139579 0.627656
Si Si3 0.692184 0.686706 0.836523
Si Si4 0.203835 0.359014 0.711745
Si Si5 0.000000 0.500000 0.866539
Si Si6 0.790990 0.362623 0.421802
O O1 0.767304 0.157364 0.564031
O O2 0.727786 0.254104 0.463325
O O3 0.000000 0.130478 0.487509
O O4 0.723679 0.000000 0.484450
O O5 0.500000 0.139255 0.627853
O O6 0.765785 0.252635 0.666358
O O7 0.765320 0.000000 0.645272
O O8 0.500000 0.646835 0.852762
O O9 0.707360 0.674691 0.770031
O O10 0.847206 0.606181 0.862006
O O11 0.725083 0.823511 0.860922
O O12 0.256228 0.500000 0.694713
O O13 0.000000 0.364156 0.723925
O O14 0.733339 0.500000 0.438088
O O15 0.000000 0.362811 0.422441
#
# Coordination Sequence:
#
# PCOD9359235 Si02
#       6
#     8   8   8   8   2   8
#     4   9  19  36  61  86 117 164 213 257 310 373
#     4  10  22  39  58  87 125 162 206 258 312 375
#     4  12  24  40  66  94 127 168 211 262 317 373
#     4  11  22  40  63  90 122 157 206 261 310 371
#     4  12  22  44  62  94 132 164 208 268 304 384
#     4  10  22  40  62  90 129 168 207 260 322 382
#
# _framework density 21.001519999999999
#
# number of rings (size 3 to 8) (size 9 to 14) (size 15 to 20)
#    0.000    1.524    2.857    1.429    1.333    4.952 
#    0.000    1.905    0.000    0.000    0.000    0.000 
#    0.000    0.000    0.000    0.000    0.000    0.000 
#
# Total GULP energy -117057.875204 kJ/mol
# GULP energy per Si atom -5574.184534 kJ/mol
# Density = 2.095372 g / cm^3
# Si number density = 21.001520 Si / 1000 Ang^3
#
#
#
# Elastic Constant Matrix: (Units=GPa)
#
#
# Indices 1 2 3 4 5 6 
#
# 1 101.5157 31.5185 14.7086 0.0000 0.0000 0.0000
# 2 31.5185 209.8077 92.9819 0.0000 0.0000 0.0000
# 3 14.7086 92.9819 90.2979 0.0000 0.0000 0.0000
# 4 0.0000 0.0000 0.0000 17.1536 0.0000 0.0000
# 5 0.0000 0.0000 0.0000 0.0000 -13.3975 0.0000
# 6 0.0000 0.0000 0.0000 0.0000 0.0000 -0.4308
#
#
#
# Elastic Compliance Matrix: (Units=1/GPa)
#
#
# Indices 1 2 3 4 5 6 
#
# 1 0.010334 -0.001483 -0.000156 0.000000 0.000000 0.000000
# 2 -0.001483 0.008980 -0.009005 0.000000 0.000000 0.000000
# 3 -0.000156 -0.009005 0.020373 0.000000 0.000000 0.000000
# 4 0.000000 0.000000 0.000000 0.058297 0.000000 0.000000
# 5 0.000000 0.000000 0.000000 0.000000 -0.074641 0.000000
# 6 0.000000 0.000000 0.000000 0.000000 0.000000 -2.321159
#
#
# Mechanical properties :
#
#
# Convention : Reuss Voigt Hill
#
# Bulk Modulus (GPa) = 54.35473 75.55992 64.95733
# Shear Modulus (GPa) = -2.20226 18.15921 7.97847
#
# Velocity S-wave (km/s) = -1.02513 2.94370 1.95122
# Velocity P-wave (km/s) = 4.95342 6.90002 6.00610
#
# Compressibility (1/GPa) = 0.01839766
#
# Stress axis : x y z
#
# Youngs Moduli (GPa) = 96.76969 111.35757 49.08480
#
# Poissons Ratio (x) = 0.16518 0.00765
# Poissons Ratio (y) = 0.14354 0.44203
# Poissons Ratio (z) = 0.01508 1.00282
#
# Static dielectric constant tensor:
#      x y z
#    x 1.752330 0.000000 0.000000 
#    y 0.000000 1.748380 0.000000 
#    z 0.000000 0.000000 1.774140 
# 
# From -- ./inp_files/23209.got.cif
#   From: 2010.05.17/outbox.cif.g08.bks.cpg/sg38_12_cif.got.tgz:23209.got - 2010.06.03 18:07:57.
