data_PCOD9359245
_publ_section_title
;
Structure prediction by ZEFSAII (Michael W. Deem and Ramdas Pophale) SiO2 
 PCOD9359245
Probable space group: A M M 2
;
_chemical_formula_sum "Si O2"
_cell_formula_units_Z 64
_cell_length_a 15.114930
_cell_length_b 18.243891
_cell_length_c 10.623534
_cell_angle_alpha 90.000000
_cell_angle_beta 90.000000
_cell_angle_gamma 90.000000
_cell_volume 2929.494057
_symmetry_space_group_name_H-M "A M M 2"
_symmetry_group_IT_number 38
_symmetry_cell_setting 'orthorhombic'
loop_
_space_group_symop_operation_xyz
x,y,z
-x,-y,z
-x,y,z
x,-y,z
x,1/2+y,1/2+z
-x,1/2-y,1/2+z
-x,1/2+y,1/2+z
x,1/2-y,1/2+z
loop_
_atom_site_type_symbol
_atom_site_label
_atom_site_fract_x
_atom_site_fract_y
_atom_site_fract_z
Si Si1 0.236047 0.080214 0.855890
Si Si2 0.597222 0.816991 0.904841
Si Si3 0.099270 0.920353 0.634701
Si Si4 0.282816 0.585465 0.860654
Si Si5 0.346076 0.210546 0.188478
Si Si6 0.905840 0.582307 0.741813
Si Si7 0.209427 0.300548 0.040379
Si Si8 0.899128 0.330539 0.494402
O O1 0.319371 0.132001 0.874169
O O2 0.187213 0.079804 0.721621
O O3 0.151303 0.099972 0.939264
O O4 0.268525 0.000000 0.887479
O O5 0.500000 0.851259 0.890774
O O6 0.604666 0.752339 0.801385
O O7 0.608151 0.793286 0.051295
O O8 0.119823 0.845448 0.565857
O O9 0.000000 0.916840 0.691397
O O10 0.102084 0.000000 0.568472
O O11 0.311478 0.500000 0.880196
O O12 0.327073 0.629187 0.743828
O O13 0.179625 0.583880 0.826100
O O14 0.279642 0.643321 0.976995
O O15 0.257741 0.257897 0.154527
O O16 0.905591 0.500000 0.682195
O O17 0.901969 0.648108 0.641643
O O18 0.000000 0.588381 0.810658
O O19 0.168791 0.234197 0.958638
O O20 0.000000 0.319479 0.452273
#
# Coordination Sequence:
#
# PCOD9359245 Si02
#       8
#     8   8   8   8   8   8   8   8
#     4  11  22  39  62  92 134 180 231 290 349 418
#     4  12  26  47  76 107 138 180 234 299 372 445
#     4  10  22  39  60  91 135 188 238 287 349 419
#     4  11  23  41  67  97 136 189 235 285 360 427
#     4  12  23  46  73 107 140 179 235 296 363 434
#     4   9  18  32  50  79 122 171 227 285 339 401
#     4  12  22  39  64  95 139 183 237 291 344 412
#     4  11  21  33  56  91 130 176 227 283 341 405
#
# _framework density 21.846775999999998
#
# number of rings (size 3 to 8) (size 9 to 14) (size 15 to 20)
#    0.000    1.000    5.000    1.875    0.000    4.000 
#    0.000    1.250    0.000    1.125    0.000    0.000 
#    0.000    0.000    0.000    0.000    0.000    0.000 
#
# Total GULP energy -178164.610249 kJ/mol
# GULP energy per Si atom -5567.644070 kJ/mol
# Density = 2.179705 g / cm^3
# Si number density = 21.846776 Si / 1000 Ang^3
#
#
#
# Elastic Constant Matrix: (Units=GPa)
#
#
# Indices 1 2 3 4 5 6 
#
# 1 97.1540 42.4400 25.2183 0.0000 0.0000 0.0000
# 2 42.4400 104.9633 31.6801 0.0000 0.0000 0.0000
# 3 25.2183 31.6801 67.9860 0.0000 0.0000 0.0000
# 4 0.0000 0.0000 0.0000 28.7210 0.0000 0.0000
# 5 0.0000 0.0000 0.0000 0.0000 9.0835 0.0000
# 6 0.0000 0.0000 0.0000 0.0000 0.0000 13.5676
#
#
#
# Elastic Compliance Matrix: (Units=1/GPa)
#
#
# Indices 1 2 3 4 5 6 
#
# 1 0.012927 -0.004398 -0.002746 0.000000 0.000000 0.000000
# 2 -0.004398 0.012583 -0.004232 0.000000 0.000000 0.000000
# 3 -0.002746 -0.004232 0.017699 0.000000 0.000000 0.000000
# 4 0.000000 0.000000 0.000000 0.034818 0.000000 0.000000
# 5 0.000000 0.000000 0.000000 0.000000 0.110089 0.000000
# 6 0.000000 0.000000 0.000000 0.000000 0.000000 0.073705
#
#
# Mechanical properties :
#
#
# Convention : Reuss Voigt Hill
#
# Bulk Modulus (GPa) = 48.88119 52.08668 50.48393
# Shear Modulus (GPa) = 17.15904 21.65873 19.40889
#
# Velocity S-wave (km/s) = 2.80559 3.15205 2.98385
# Velocity P-wave (km/s) = 5.73744 6.09433 5.91857
#
# Compressibility (1/GPa) = 0.02045777
#
# Stress axis : x y z
#
# Youngs Moduli (GPa) = 77.35856 79.47423 56.49931
#
# Poissons Ratio (x) = 0.34953 0.15512
# Poissons Ratio (y) = 0.34023 0.23910
# Poissons Ratio (z) = 0.21239 0.33633
#
# Static dielectric constant tensor:
#      x y z
#    x 1.764620 0.000000 0.000000 
#    y 0.000000 1.877200 0.000000 
#    z 0.000000 0.000000 1.998000 
# 
# From -- ./inp_files/10250.got.cif
#   From: 2010.05.17/outbox.cif.g08.bks.cpg/sg38_6_cif.got.tgz:10250.got - 2010.06.03 18:07:57.
