data_PCOD9359587
_publ_section_title
;
Structure prediction by ZEFSAII (Michael W. Deem and Ramdas Pophale) SiO2 
 PCOD9359587
Probable space group: A M M 2
;
_chemical_formula_sum "Si O2"
_cell_formula_units_Z 28
_cell_length_a 15.000000
_cell_length_b 9.000000
_cell_length_c 21.000000
_cell_angle_alpha 90.000000
_cell_angle_beta 90.000000
_cell_angle_gamma 90.000000
_cell_volume 2835.000000
_symmetry_space_group_name_H-M "A M M 2"
_symmetry_group_IT_number 38
_symmetry_cell_setting 'orthorhombic'
loop_
_space_group_symop_operation_xyz
x,y,z
-x,-y,z
-x,y,z
x,-y,z
x,1/2+y,1/2+z
-x,1/2-y,1/2+z
-x,1/2+y,1/2+z
x,1/2-y,1/2+z
loop_
_atom_site_type_symbol
_atom_site_label
_atom_site_fract_x
_atom_site_fract_y
_atom_site_fract_z
Si Si1 0.598462 0.823268 0.784760
Si Si2 0.784797 0.822049 0.614213
Si Si3 0.597292 0.319453 0.060672
Si Si4 0.634544 0.328326 0.914979
Si Si5 0.897471 0.169870 0.005683
Si Si6 0.843673 0.670468 0.882463
Si Si7 0.782875 0.678282 0.744700
O O1 0.500000 0.786803 0.758477
O O2 0.599091 0.775094 0.858908
O O3 0.682358 0.739262 0.754630
O O4 0.611761 0.000000 0.778378
O O5 0.682733 0.772089 0.600786
O O6 0.840382 0.771544 0.552825
O O7 0.817763 0.746689 0.679135
O O8 0.786890 0.000000 0.620240
O O9 0.500000 0.268348 0.082682
O O10 0.597905 0.500000 0.062384
O O11 0.610036 0.280290 0.986176
O O12 0.604689 0.500000 0.905866
O O13 0.741101 0.329979 0.906531
O O14 0.892503 0.227552 0.933268
O O15 0.000000 0.173878 0.026414
O O16 0.864811 0.000000 0.008866
O O17 0.876490 0.500000 0.885146
O O18 0.837924 0.719361 0.808726
O O19 0.781019 0.500000 0.742306
#
# Coordination Sequence:
#
# PCOD9359587 Si02
#       7
#     8   8   8   8   8   8   8
#     4  10  20  32  48  76 113 153 202 254 298 345
#     4  11  22  39  61  88 123 161 202 245 296 355
#     4   9  17  30  51  80 115 155 197 240 289 346
#     4   9  16  30  52  78 110 149 193 241 296 353
#     4  11  24  41  64  93 122 153 192 241 298 359
#     4   9  18  36  61  88 114 145 191 242 293 353
#     4  10  22  39  59  83 115 157 201 244 299 359
#
# _framework density 9.8765429999999999
#
# number of rings (size 3 to 8) (size 9 to 14) (size 15 to 20)
#    0.000    2.143    1.429    3.000    0.000    6.286 
#    0.000    2.143    0.000    3.000    0.000    0.000 
#    0.000    0.000    0.000    0.000    0.000    0.000 
#
# Total GULP energy -156284.883841 kJ/mol
# GULP energy per Si atom -5581.602994 kJ/mol
# Density = 0.985406 g / cm^3
# Si number density = 9.876543 Si / 1000 Ang^3
#
#
#
# Elastic Constant Matrix: (Units=GPa)
#
#
# Indices 1 2 3 4 5 6 
#
# 1 42.7346 12.0747 17.2137 0.0000 0.0000 0.0000
# 2 12.0747 53.2531 31.9037 0.0000 0.0000 0.0000
# 3 17.2137 31.9037 116.4508 0.0000 0.0000 0.0000
# 4 0.0000 0.0000 0.0000 29.9179 0.0000 0.0000
# 5 0.0000 0.0000 0.0000 0.0000 -0.3993 0.0000
# 6 0.0000 0.0000 0.0000 0.0000 0.0000 17.6092
#
#
#
# Elastic Compliance Matrix: (Units=1/GPa)
#
#
# Indices 1 2 3 4 5 6 
#
# 1 0.025658 -0.004242 -0.002631 0.000000 0.000000 0.000000
# 2 -0.004242 0.023167 -0.005720 0.000000 0.000000 0.000000
# 3 -0.002631 -0.005720 0.010543 0.000000 0.000000 0.000000
# 4 0.000000 0.000000 0.000000 0.033425 0.000000 0.000000
# 5 0.000000 0.000000 0.000000 0.000000 -2.504353 0.000000
# 6 0.000000 0.000000 0.000000 0.000000 0.000000 0.056788
#
#
# Mechanical properties :
#
#
# Convention : Reuss Voigt Hill
#
# Bulk Modulus (GPa) = 29.25375 37.20254 33.22815
# Shear Modulus (GPa) = -2.15685 19.50865 8.67590
#
# Velocity S-wave (km/s) = -1.04608 3.14606 2.09802
# Velocity P-wave (km/s) = 3.65825 5.66318 4.76731
#
# Compressibility (1/GPa) = 0.03418365
#
# Stress axis : x y z
#
# Youngs Moduli (GPa) = 38.97352 43.16515 94.84722
#
# Poissons Ratio (x) = 0.18310 0.24952
# Poissons Ratio (y) = 0.16532 0.54252
# Poissons Ratio (z) = 0.10253 0.24690
#
# Static dielectric constant tensor:
#      x y z
#    x 1.715650 0.000000 0.000000 
#    y 0.000000 1.661190 0.000000 
#    z 0.000000 0.000000 1.690710 
# 
# From -- ./inp_files/21025.got.cif
#   From: 2010.05.17/outbox.ucp.g08.bks.cvg/sg38_11_cif.got.tgz:21025.got - 2010.06.11 10:39:43.
