data_PCOD9359342
_publ_section_title
;
Structure prediction by ZEFSAII (Michael W. Deem and Ramdas Pophale) SiO2 
 PCOD9359342
Probable space group: A M M 2
;
_chemical_formula_sum "Si O2"
_cell_formula_units_Z 56
_cell_length_a 14.141929
_cell_length_b 8.942495
_cell_length_c 23.112445
_cell_angle_alpha 90.000000
_cell_angle_beta 90.000000
_cell_angle_gamma 90.000000
_cell_volume 2922.895235
_symmetry_space_group_name_H-M "A M M 2"
_symmetry_group_IT_number 38
_symmetry_cell_setting 'orthorhombic'
loop_
_space_group_symop_operation_xyz
x,y,z
-x,-y,z
-x,y,z
x,-y,z
x,1/2+y,1/2+z
-x,1/2-y,1/2+z
-x,1/2+y,1/2+z
x,1/2-y,1/2+z
loop_
_atom_site_type_symbol
_atom_site_label
_atom_site_fract_x
_atom_site_fract_y
_atom_site_fract_z
Si Si1 0.761460 0.828150 0.183780
Si Si2 0.112271 0.818807 0.073471
Si Si3 0.765585 0.171858 0.470747
Si Si4 0.893049 0.836100 0.895189
Si Si5 0.388384 0.179596 0.893835
Si Si6 0.893065 0.163524 0.757516
Si Si7 0.610124 0.820206 0.762248
O O1 0.824391 0.773241 0.129377
O O2 0.834352 0.801942 0.235850
O O3 0.670126 0.743669 0.208902
O O4 0.737531 0.000000 0.173440
O O5 0.000000 0.772231 0.074607
O O6 0.111034 0.000000 0.071372
O O7 0.174045 0.755260 0.020369
O O8 0.834492 0.196997 0.416384
O O9 0.670060 0.246535 0.445965
O O10 0.750747 0.000000 0.485984
O O11 0.895656 0.838398 0.826387
O O12 0.000000 0.828909 0.917536
O O13 0.853421 0.000000 0.913608
O O14 0.500000 0.213859 0.898104
O O15 0.357277 0.224165 0.827898
O O16 0.377962 0.000000 0.897005
O O17 0.000000 0.172046 0.735770
O O18 0.852927 0.000000 0.739201
O O19 0.500000 0.776971 0.757439
O O20 0.615183 0.000000 0.761132
#
# Coordination Sequence:
#
# PCOD9359342 Si02
#       7
#     8   8   8   8   8   8   8
#     4  11  22  35  55  83 111 142 184 233 284 332
#     4  10  23  43  61  76 104 152 202 239 274 327
#     4  12  24  35  53  83 113 141 180 234 291 336
#     4   9  18  33  52  74 104 144 184 219 264 331
#     4   9  19  38  63  87 113 150 191 225 266 332
#     4   9  18  32  51  76 106 142 181 219 267 332
#     4   9  19  37  61  88 117 150 187 225 270 331
#
# _framework density 19.159087
#
# number of rings (size 3 to 8) (size 9 to 14) (size 15 to 20)
#    0.000    2.143    0.000    5.143    0.000    9.429 
#    0.000    3.571    0.000    0.857    0.000    0.000 
#    0.000    0.000    0.000    0.000    0.000    0.000 
#
# Total GULP energy -155931.717254 kJ/mol
# GULP energy per Si atom -5568.989902 kJ/mol
# Density = 1.911548 g / cm^3
# Si number density = 19.159087 Si / 1000 Ang^3
#
#
#
# Elastic Constant Matrix: (Units=GPa)
#
#
# Indices 1 2 3 4 5 6 
#
# 1 117.8386 28.8003 59.0367 0.0000 0.0000 0.0000
# 2 28.8003 31.9050 26.8278 0.0000 0.0000 0.0000
# 3 59.0367 26.8278 86.2365 0.0000 0.0000 0.0000
# 4 0.0000 0.0000 0.0000 24.0589 0.0000 0.0000
# 5 0.0000 0.0000 0.0000 0.0000 12.5871 0.0000
# 6 0.0000 0.0000 0.0000 0.0000 0.0000 9.1152
#
#
#
# Elastic Compliance Matrix: (Units=1/GPa)
#
#
# Indices 1 2 3 4 5 6 
#
# 1 0.013736 -0.006084 -0.007511 0.000000 0.000000 0.000000
# 2 -0.006084 0.045141 -0.009878 0.000000 0.000000 0.000000
# 3 -0.007511 -0.009878 0.019811 0.000000 0.000000 0.000000
# 4 0.000000 0.000000 0.000000 0.041565 0.000000 0.000000
# 5 0.000000 0.000000 0.000000 0.000000 0.079447 0.000000
# 6 0.000000 0.000000 0.000000 0.000000 0.000000 0.109707
#
#
# Mechanical properties :
#
#
# Convention : Reuss Voigt Hill
#
# Bulk Modulus (GPa) = 31.50385 51.70111 41.60248
# Shear Modulus (GPa) = 13.62646 17.23992 15.43319
#
# Velocity S-wave (km/s) = 2.66978 3.00297 2.84126
# Velocity P-wave (km/s) = 5.09731 6.25040 5.70307
#
# Compressibility (1/GPa) = 0.03174216
#
# Stress axis : x y z
#
# Youngs Moduli (GPa) = 72.80133 22.15278 50.47688
#
# Poissons Ratio (x) = 0.13477 0.37913
# Poissons Ratio (y) = 0.44290 0.49863
# Poissons Ratio (z) = 0.54681 0.21883
#
# Static dielectric constant tensor:
#      x y z
#    x 1.704650 0.000000 0.000000 
#    y 0.000000 1.695540 0.000000 
#    z 0.000000 0.000000 1.707620 
# 
# From -- ./inp_files/21044.got.cif
#   From: 2010.05.17/outbox.cif.g08.bks.cpg/sg38_11_cif.got.tgz:21044.got - 2010.06.03 18:07:57.
