data_PCOD9359536
_publ_section_title
;
Structure prediction by ZEFSAII (Michael W. Deem and Ramdas Pophale) SiO2 
 PCOD9359536
Probable space group: A M M 2
;
_chemical_formula_sum "Si O2"
_cell_formula_units_Z 40
_cell_length_a 9.073336
_cell_length_b 7.776265
_cell_length_c 30.676194
_cell_angle_alpha 90.000000
_cell_angle_beta 90.000000
_cell_angle_gamma 90.000000
_cell_volume 2164.409949
_symmetry_space_group_name_H-M "A M M 2"
_symmetry_group_IT_number 38
_symmetry_cell_setting 'orthorhombic'
loop_
_space_group_symop_operation_xyz
x,y,z
-x,-y,z
-x,y,z
x,-y,z
x,1/2+y,1/2+z
-x,1/2-y,1/2+z
-x,1/2+y,1/2+z
x,1/2-y,1/2+z
loop_
_atom_site_type_symbol
_atom_site_label
_atom_site_fract_x
_atom_site_fract_y
_atom_site_fract_z
Si Si1 0.671274 0.708279 0.189750
Si Si2 0.322425 0.199519 0.512355
Si Si3 0.680380 0.500000 0.347738
Si Si4 0.168455 0.790292 0.602128
Si Si5 0.679553 0.191268 0.285979
Si Si6 0.320379 0.500000 0.447642
O O1 0.500000 0.759105 0.185224
O O2 0.675571 0.500000 0.191334
O O3 0.758769 0.767894 0.147285
O O4 0.728071 0.772925 0.236385
O O5 0.500000 0.203684 0.515194
O O6 0.257210 0.257187 0.558770
O O7 0.275597 0.330389 0.474530
O O8 0.279228 0.000000 0.504367
O O9 0.500000 0.500000 0.348309
O O10 0.728225 0.334237 0.320146
O O11 0.729969 0.500000 0.397689
O O12 0.000000 0.734171 0.599003
O O13 0.170888 0.000000 0.603369
O O14 0.500000 0.200518 0.284565
O O15 0.721785 0.000000 0.299345
O O16 0.500000 0.500000 0.446841
#
# Coordination Sequence:
#
# PCOD9359536 Si02
#       6
#     8   8   4   8   8   4
#     4   9  15  26  45  67  95 131 164 195 234 282
#     4   9  17  31  49  69  96 128 161 197 238 286
#     4   9  16  28  44  67  99 127 155 199 244 283
#     4   9  17  29  47  71  97 128 163 198 241 287
#     4   9  16  26  42  66  96 128 159 191 234 286
#     4   9  18  30  47  71  97 127 163 201 244 287
#
# _framework density 18.480786999999999
#
# number of rings (size 3 to 8) (size 9 to 14) (size 15 to 20)
#    0.000    3.000    1.000    0.600    0.000    3.200 
#    1.800    4.500    0.000    0.000    0.000    2.800 
#    0.000    0.000    0.000    0.000    0.000    0.000 
#
# Total GULP energy -111495.237808 kJ/mol
# GULP energy per Si atom -5574.761890 kJ/mol
# Density = 1.843872 g / cm^3
# Si number density = 18.480787 Si / 1000 Ang^3
#
#
#
# Elastic Constant Matrix: (Units=GPa)
#
#
# Indices 1 2 3 4 5 6 
#
# 1 15.5944 20.2929 30.2629 0.0000 0.0000 0.0000
# 2 20.2929 105.1260 93.0681 0.0000 0.0000 0.0000
# 3 30.2629 93.0681 200.1466 0.0000 0.0000 0.0000
# 4 0.0000 0.0000 0.0000 -2.4258 0.0000 0.0000
# 5 0.0000 0.0000 0.0000 0.0000 -4.3910 0.0000
# 6 0.0000 0.0000 0.0000 0.0000 0.0000 3.1933
#
#
#
# Elastic Compliance Matrix: (Units=1/GPa)
#
#
# Indices 1 2 3 4 5 6 
#
# 1 0.096220 -0.009678 -0.010049 0.000000 0.000000 0.000000
# 2 -0.009678 0.017142 -0.006508 0.000000 0.000000 0.000000
# 3 -0.010049 -0.006508 0.009542 0.000000 0.000000 0.000000
# 4 0.000000 0.000000 0.000000 -0.412229 0.000000 0.000000
# 5 0.000000 0.000000 0.000000 0.000000 -0.227737 0.000000
# 6 0.000000 0.000000 0.000000 0.000000 0.000000 0.313157
#
#
# Mechanical properties :
#
#
# Convention : Reuss Voigt Hill
#
# Bulk Modulus (GPa) = 14.19739 67.56830 40.88284
# Shear Modulus (GPa) = -39.07494 11.09149 -13.99173
#
# Velocity S-wave (km/s) = -4.60320 2.45248 -2.75452
# Velocity P-wave (km/s) = 4.53362 6.68284 3.47179
#
# Compressibility (1/GPa) = 0.07043548
#
# Stress axis : x y z
#
# Youngs Moduli (GPa) = 10.39288 58.33737 104.80230
#
# Poissons Ratio (x) = 0.56456 1.05313
# Poissons Ratio (y) = 0.10058 0.68201
# Poissons Ratio (z) = 0.10444 0.37964
#
# Static dielectric constant tensor:
#      x y z
#    x 1.606030 0.000000 0.000000 
#    y 0.000000 1.665720 0.000000 
#    z 0.000000 0.000000 1.612620 
# 
# From -- ./inp_files/23216.got.cif
#   From: 2010.05.17/outbox.cif.g08.bks.cpg/sg38_12_cif.got.tgz:23216.got - 2010.06.03 18:07:57.
