data_PCOD9359578
_publ_section_title
;
Structure prediction by ZEFSAII (Michael W. Deem and Ramdas Pophale) SiO2 
 PCOD9359578
Probable space group: A M M 2
;
_chemical_formula_sum "Si O2"
_cell_formula_units_Z 28
_cell_length_a 15.000000
_cell_length_b 15.000000
_cell_length_c 12.000000
_cell_angle_alpha 90.000000
_cell_angle_beta 90.000000
_cell_angle_gamma 90.000000
_cell_volume 2700.000000
_symmetry_space_group_name_H-M "A M M 2"
_symmetry_group_IT_number 38
_symmetry_cell_setting 'orthorhombic'
loop_
_space_group_symop_operation_xyz
x,y,z
-x,-y,z
-x,y,z
x,-y,z
x,1/2+y,1/2+z
-x,1/2-y,1/2+z
-x,1/2+y,1/2+z
x,1/2-y,1/2+z
loop_
_atom_site_type_symbol
_atom_site_label
_atom_site_fract_x
_atom_site_fract_y
_atom_site_fract_z
Si Si1 0.902295 0.107004 0.845980
Si Si2 0.893564 0.103712 0.435877
Si Si3 0.611153 0.696742 0.579653
Si Si4 0.393576 0.099298 0.628943
Si Si5 0.235950 0.608149 0.720467
Si Si6 0.900959 0.720466 0.571819
Si Si7 0.700284 0.396531 0.362847
O O1 0.799076 0.130034 0.813936
O O2 0.000000 0.126146 0.788741
O O3 0.902251 0.000000 0.859716
O O4 0.906781 0.161007 0.960569
O O5 0.816077 0.115966 0.341130
O O6 0.879862 0.178767 0.531021
O O7 0.000000 0.115539 0.399056
O O8 0.887554 0.000000 0.473511
O O9 0.500000 0.684790 0.583398
O O10 0.630885 0.803730 0.578373
O O11 0.665901 0.648924 0.683791
O O12 0.657533 0.656441 0.467322
O O13 0.500000 0.095191 0.618980
O O14 0.365239 0.106802 0.757847
O O15 0.359222 0.000000 0.589288
O O16 0.236342 0.500000 0.697221
O O17 0.170742 0.669152 0.645424
O O18 0.000000 0.719007 0.623625
O O19 0.708040 0.500000 0.399600
#
# Coordination Sequence:
#
# PCOD9359578 Si02
#       7
#     8   8   8   8   8   8   8
#     4   9  17  29  49  81 115 144 180 228 275 318
#     4   9  20  38  58  82 114 152 190 226 271 331
#     4  11  23  36  56  86 115 142 182 238 287 327
#     4   9  20  39  61  83 109 146 189 229 275 336
#     4  11  22  36  57  85 115 149 188 230 277 334
#     4  10  19  33  57  83 110 147 188 229 271 323
#     4  10  19  35  60  85 112 149 187 227 276 333
#
# _framework density 10.370369999999999
#
# number of rings (size 3 to 8) (size 9 to 14) (size 15 to 20)
#    0.000    2.143    1.429    1.714    2.000    3.143 
#    0.000    0.714    0.000    4.286    0.000   10.000 
#    0.000    0.000    0.000    0.000    0.000    0.000 
#
# Total GULP energy -155908.797106 kJ/mol
# GULP energy per Si atom -5568.171325 kJ/mol
# Density = 1.034677 g / cm^3
# Si number density = 10.370370 Si / 1000 Ang^3
#
#
#
# Elastic Constant Matrix: (Units=GPa)
#
#
# Indices 1 2 3 4 5 6 
#
# 1 111.0698 48.1147 12.4203 0.0000 0.0000 0.0000
# 2 48.1147 129.2694 33.6256 0.0000 0.0000 0.0000
# 3 12.4203 33.6256 20.8782 0.0000 0.0000 0.0000
# 4 0.0000 0.0000 0.0000 39.9114 0.0000 0.0000
# 5 0.0000 0.0000 0.0000 0.0000 19.2562 0.0000
# 6 0.0000 0.0000 0.0000 0.0000 0.0000 32.9478
#
#
#
# Elastic Compliance Matrix: (Units=1/GPa)
#
#
# Indices 1 2 3 4 5 6 
#
# 1 0.010734 -0.004017 0.000084 0.000000 0.000000 0.000000
# 2 -0.004017 0.014817 -0.021473 0.000000 0.000000 0.000000
# 3 0.000084 -0.021473 0.082430 0.000000 0.000000 0.000000
# 4 0.000000 0.000000 0.000000 0.025055 0.000000 0.000000
# 5 0.000000 0.000000 0.000000 0.000000 0.051931 0.000000
# 6 0.000000 0.000000 0.000000 0.000000 0.000000 0.030351
#
#
# Mechanical properties :
#
#
# Convention : Reuss Voigt Hill
#
# Bulk Modulus (GPa) = 17.49200 49.94873 33.72036
# Shear Modulus (GPa) = 17.53231 29.56020 23.54626
#
# Velocity S-wave (km/s) = 2.91057 3.77931 3.37303
# Velocity P-wave (km/s) = 4.44378 6.57107 5.60919
#
# Compressibility (1/GPa) = 0.05716899
#
# Stress axis : x y z
#
# Youngs Moduli (GPa) = 93.16060 67.49170 12.13144
#
# Poissons Ratio (x) = 0.27113 -0.00102
# Poissons Ratio (y) = 0.37425 0.26050
# Poissons Ratio (z) = -0.00786 1.44926
#
# Static dielectric constant tensor:
#      x y z
#    x 1.810130 0.000000 0.000000 
#    y 0.000000 1.763600 0.000000 
#    z 0.000000 0.000000 1.753410 
# 
# From -- ./inp_files/10126.got.cif
#   From: 2010.05.17/outbox.ucp.g08.bks.cvg/sg38_6_cif.got.tgz:10126.got - 2010.06.11 10:39:43.
