data_PCOD9359840
_publ_section_title
;
Structure prediction by ZEFSAII (Michael W. Deem and Ramdas Pophale) SiO2 
 PCOD9359840
Probable space group: A B M 2
;
_chemical_formula_sum "Si O2"
_cell_formula_units_Z 64
_cell_length_a 10.199332
_cell_length_b 19.311551
_cell_length_c 19.114141
_cell_angle_alpha 90.000000
_cell_angle_beta 90.000000
_cell_angle_gamma 90.000000
_cell_volume 3764.815255
_symmetry_space_group_name_H-M "A B M 2"
_symmetry_group_IT_number 39
_symmetry_cell_setting 'orthorhombic'
loop_
_space_group_symop_operation_xyz
x,y,z
-x,-y,z
-x,1/2+y,z
x,1/2-y,z
x,1/2+y,1/2+z
-x,1/2-y,1/2+z
-x,y,1/2+z
x,-y,1/2+z
loop_
_atom_site_type_symbol
_atom_site_label
_atom_site_fract_x
_atom_site_fract_y
_atom_site_fract_z
Si Si1 0.851171 0.477115 0.311330
Si Si2 0.397680 0.670018 0.832073
Si Si3 0.143560 0.672588 0.357544
Si Si4 0.143235 0.327416 0.426892
Si Si5 0.625090 0.550246 0.060516
Si Si6 0.625103 0.949761 0.223909
Si Si7 0.851162 0.977126 0.473085
Si Si8 0.601833 0.170022 0.452361
O O1 0.839358 0.393885 0.308576
O O2 0.748245 0.513808 0.261193
O O3 0.825222 0.499990 0.392208
O O4 0.000000 0.500000 0.295938
O O5 0.427968 0.750000 0.814907
O O6 0.253951 0.667565 0.867080
O O7 0.403623 0.620265 0.766207
O O8 0.499633 0.647248 0.892278
O O9 0.155059 0.750000 0.326109
O O10 0.254577 0.667575 0.417190
O O11 0.000243 0.666583 0.392317
O O12 0.154939 0.250000 0.458302
O O13 0.160617 0.393892 0.475829
O O14 0.500000 0.500000 0.054065
O O15 0.650398 0.562777 0.142213
O O16 0.748234 0.513828 0.023218
O O17 0.596253 0.620268 0.018235
O O18 0.500000 0.000000 0.230368
O O19 0.000000 0.000000 0.488483
O O20 0.571615 0.250000 0.469572
#
# Coordination Sequence:
#
# PCOD9359840 Si02
#       8
#     8   8   8   8   8   8   8   8
#     4  11  19  34  57  83 107 141 185 226 268 321
#     4  10  20  34  55  81 105 140 183 223 270 320
#     4  10  18  30  51  81 110 134 174 227 269 310
#     4  10  18  30  51  81 110 134 174 227 269 310
#     4  11  24  37  53  80 111 145 181 222 277 333
#     4  11  24  37  53  80 111 145 181 222 277 333
#     4  11  19  34  57  83 107 141 185 226 268 321
#     4  10  20  34  55  81 105 140 183 223 270 320
#
# _framework density 16.999506
#
# number of rings (size 3 to 8) (size 9 to 14) (size 15 to 20)
#    0.000    1.500    5.000    1.500    0.000    1.000 
#    0.000    0.000    0.000    2.250    0.000    0.000 
#    0.000    0.000    0.000    0.000    0.000    0.000 
#
# Total GULP energy -178602.079070 kJ/mol
# GULP energy per Si atom -5581.314971 kJ/mol
# Density = 1.696081 g / cm^3
# Si number density = 16.999506 Si / 1000 Ang^3
#
#
#
# Elastic Constant Matrix: (Units=GPa)
#
#
# Indices 1 2 3 4 5 6 
#
# 1 99.8292 23.7357 75.4287 0.0000 0.0000 0.0000
# 2 23.7357 135.0160 71.3671 0.0000 0.0000 0.0000
# 3 75.4287 71.3671 119.6123 0.0000 0.0000 0.0000
# 4 0.0000 0.0000 0.0000 11.5182 0.0000 0.0000
# 5 0.0000 0.0000 0.0000 0.0000 15.6904 0.0000
# 6 0.0000 0.0000 0.0000 0.0000 0.0000 60.9104
#
#
#
# Elastic Compliance Matrix: (Units=1/GPa)
#
#
# Indices 1 2 3 4 5 6 
#
# 1 0.021111 0.004858 -0.016211 0.000000 0.000000 0.000000
# 2 0.004858 0.011936 -0.010185 0.000000 0.000000 0.000000
# 3 -0.016211 -0.010185 0.024660 0.000000 0.000000 0.000000
# 4 0.000000 0.000000 0.000000 0.086819 0.000000 0.000000
# 5 0.000000 0.000000 0.000000 0.000000 0.063733 0.000000
# 6 0.000000 0.000000 0.000000 0.000000 0.000000 0.016418
#
#
# Mechanical properties :
#
#
# Convention : Reuss Voigt Hill
#
# Bulk Modulus (GPa) = 68.35151 77.28006 72.81578
# Shear Modulus (GPa) = 18.33983 29.88553 24.11268
#
# Velocity S-wave (km/s) = 3.28814 4.19743 3.77030
# Velocity P-wave (km/s) = 7.39669 8.30964 7.86642
#
# Compressibility (1/GPa) = 0.01463026
#
# Stress axis : x y z
#
# Youngs Moduli (GPa) = 47.36904 83.77883 40.55133
#
# Poissons Ratio (x) = -0.40696 0.65738
# Poissons Ratio (y) = -0.23010 0.41302
# Poissons Ratio (z) = 0.76790 0.85329
#
# Static dielectric constant tensor:
#      x y z
#    x 1.570890 0.000000 0.000000 
#    y 0.000000 1.612920 0.000000 
#    z 0.000000 0.000000 1.526930 
# 
# From -- ./inp_files/11935.got.cif
#   From: 2010.05.17/outbox.cif.g08.bks.cpg/sg39_6_cif.got.tgz:11935.got - 2010.06.03 18:22:40.
