data_PCOD9359629
_publ_section_title
;
Structure prediction by ZEFSAII (Michael W. Deem and Ramdas Pophale) SiO2 
 PCOD9359629
Probable space group: A M M 2
;
_chemical_formula_sum "Si O2"
_cell_formula_units_Z 32
_cell_length_a 9.000000
_cell_length_b 15.000000
_cell_length_c 24.000000
_cell_angle_alpha 90.000000
_cell_angle_beta 90.000000
_cell_angle_gamma 90.000000
_cell_volume 3240.000000
_symmetry_space_group_name_H-M "A M M 2"
_symmetry_group_IT_number 38
_symmetry_cell_setting 'orthorhombic'
loop_
_space_group_symop_operation_xyz
x,y,z
-x,-y,z
-x,y,z
x,-y,z
x,1/2+y,1/2+z
-x,1/2-y,1/2+z
-x,1/2+y,1/2+z
x,1/2-y,1/2+z
loop_
_atom_site_type_symbol
_atom_site_label
_atom_site_fract_x
_atom_site_fract_y
_atom_site_fract_z
Si Si1 0.823199 0.598635 0.982510
Si Si2 0.329016 0.901961 0.666740
Si Si3 0.169439 0.606617 0.861627
Si Si4 0.669563 0.776551 0.565247
Si Si5 0.175584 0.401902 0.283653
Si Si6 0.168348 0.400310 0.568190
Si Si7 0.170035 0.098581 0.201906
Si Si8 0.672036 0.224114 0.278598
O O1 0.760320 0.500000 0.991974
O O2 0.777346 0.633963 0.922532
O O3 0.000000 0.590961 0.979480
O O4 0.778178 0.665086 0.029156
O O5 0.500000 0.900012 0.687713
O O6 0.311191 0.818793 0.626373
O O7 0.217744 0.899871 0.718165
O O8 0.310874 0.000000 0.638584
O O9 0.163178 0.500000 0.861219
O O10 0.284841 0.643819 0.818642
O O11 0.000000 0.638929 0.851407
O O12 0.500000 0.792743 0.549348
O O13 0.713427 0.675008 0.555932
O O14 0.224380 0.500000 0.304514
O O15 0.255692 0.313076 0.303863
O O16 0.000000 0.394858 0.291370
O O17 0.203418 0.500000 0.548276
O O18 0.164734 0.402900 0.635398
O O19 0.000000 0.377283 0.549695
O O20 0.256330 0.185062 0.222343
O O21 0.000000 0.104195 0.222688
O O22 0.228549 0.000000 0.219275
O O23 0.500000 0.237733 0.271126
#
# Coordination Sequence:
#
# PCOD9359629 Si02
#       8
#     8   8   8   8   8   8   8   8
#     4   9  19  36  57  79 102 131 167 205 246 294
#     4   9  18  32  48  71 106 140 167 200 247 301
#     4   9  19  37  58  78 102 132 166 205 247 292
#     4  11  21  31  49  77 106 136 167 203 253 306
#     4  10  21  36  53  72  96 132 177 218 252 289
#     4   9  19  35  52  70  96 134 178 218 252 288
#     4   9  18  33  52  74 102 136 173 212 250 290
#     4  12  23  32  49  77 106 136 167 202 251 307
#
# _framework density 9.8765429999999999
#
# number of rings (size 3 to 8) (size 9 to 14) (size 15 to 20)
#    0.000    2.250    0.000    4.875    0.000    7.750 
#    0.000    3.750    0.000    0.750    0.000    5.250 
#    0.000    0.000    0.000    0.000    0.000    0.000 
#
# Total GULP energy -178160.474242 kJ/mol
# GULP energy per Si atom -5567.514820 kJ/mol
# Density = 0.985406 g / cm^3
# Si number density = 9.876543 Si / 1000 Ang^3
#
#
#
# Elastic Constant Matrix: (Units=GPa)
#
#
# Indices 1 2 3 4 5 6 
#
# 1 17.2089 18.7638 5.6798 0.0000 0.0000 0.0000
# 2 18.7638 37.5453 -8.4845 0.0000 0.0000 0.0000
# 3 5.6798 -8.4845 9.7618 0.0000 0.0000 0.0000
# 4 0.0000 0.0000 0.0000 -71.6642 0.0000 0.0000
# 5 0.0000 0.0000 0.0000 0.0000 11.6280 0.0000
# 6 0.0000 0.0000 0.0000 0.0000 0.0000 -84.0088
#
#
#
# Elastic Compliance Matrix: (Units=1/GPa)
#
#
# Indices 1 2 3 4 5 6 
#
# 1 -0.212167 0.166664 0.268303 0.000000 0.000000 0.000000
# 2 0.166664 -0.097776 -0.181954 0.000000 0.000000 0.000000
# 3 0.268303 -0.181954 -0.211814 0.000000 0.000000 0.000000
# 4 0.000000 0.000000 0.000000 -0.013954 0.000000 0.000000
# 5 0.000000 0.000000 0.000000 0.000000 0.085999 0.000000
# 6 0.000000 0.000000 0.000000 0.000000 0.000000 -0.011904
#
#
# Mechanical properties :
#
#
# Convention : Reuss Voigt Hill
#
# Bulk Modulus (GPa) = -63.57369 10.71492 -26.42939
# Shear Modulus (GPa) = -5.13935 -25.57189 -15.35562
#
# Velocity S-wave (km/s) = -1.61476 -3.60193 -2.79117
# Velocity P-wave (km/s) = 5.97751 3.44417 4.87816
#
# Compressibility (1/GPa) = -0.01572978
#
# Stress axis : x y z
#
# Youngs Moduli (GPa) = -4.71327 -10.22743 -4.72112
#
# Poissons Ratio (x) = 1.70455 1.26669
# Poissons Ratio (y) = 0.78553 -0.85903
# Poissons Ratio (z) = 1.26458 -1.86092
#
# Static dielectric constant tensor:
#      x y z
#    x 1.679420 0.000000 0.000000 
#    y 0.000000 1.794740 0.000000 
#    z 0.000000 0.000000 1.734800 
# 
# From -- ./inp_files/22215.got.cif
#   From: 2010.05.17/outbox.ucp.g08.bks.cvg/sg38_12_cif.got.tgz:22215.got - 2010.06.11 10:39:43.
