data_PCOD9359335
_publ_section_title
;
Structure prediction by ZEFSAII (Michael W. Deem and Ramdas Pophale) SiO2 
 PCOD9359335
Probable space group: A M M 2
;
_chemical_formula_sum "Si O2"
_cell_formula_units_Z 48
_cell_length_a 15.989320
_cell_length_b 8.725519
_cell_length_c 18.471233
_cell_angle_alpha 90.000000
_cell_angle_beta 90.000000
_cell_angle_gamma 90.000000
_cell_volume 2577.016205
_symmetry_space_group_name_H-M "A M M 2"
_symmetry_group_IT_number 38
_symmetry_cell_setting 'orthorhombic'
loop_
_space_group_symop_operation_xyz
x,y,z
-x,-y,z
-x,y,z
x,-y,z
x,1/2+y,1/2+z
-x,1/2-y,1/2+z
-x,1/2+y,1/2+z
x,1/2-y,1/2+z
loop_
_atom_site_type_symbol
_atom_site_label
_atom_site_fract_x
_atom_site_fract_y
_atom_site_fract_z
Si Si1 0.500000 0.682574 0.274420
Si Si2 0.000000 0.176543 0.444022
Si Si3 0.656392 0.316183 0.687365
Si Si4 0.000000 0.675858 0.767755
Si Si5 0.822137 0.182884 0.940864
Si Si6 0.334687 0.183868 0.526814
Si Si7 0.819999 0.313872 0.779364
Si Si8 0.500000 0.815573 0.434773
O O1 0.500000 0.500000 0.269100
O O2 0.581040 0.749806 0.234562
O O3 0.500000 0.734790 0.357533
O O4 0.913743 0.258094 0.465387
O O5 0.000000 0.175918 0.355757
O O6 0.000000 0.000000 0.467613
O O7 0.649408 0.500000 0.683795
O O8 0.654711 0.247203 0.607415
O O9 0.743329 0.277815 0.727402
O O10 0.090360 0.742626 0.748477
O O11 0.000000 0.500000 0.741788
O O12 0.808131 0.244644 0.859125
O O13 0.821287 0.000000 0.940819
O O14 0.748106 0.247338 0.990338
O O15 0.416711 0.224290 0.479676
O O16 0.328405 0.000000 0.528220
O O17 0.824905 0.500000 0.787304
O O18 0.500000 0.000000 0.423759
#
# Coordination Sequence:
#
# PCOD9359335 Si02
#       8
#     4   4   8   4   8   8   8   4
#     4  12  25  40  61  87 113 145 185 232 287 344
#     4   9  17  33  56  81 112 151 193 239 291 339
#     4  11  23  39  59  84 116 152 191 235 283 338
#     4   7  12  27  52  79 106 139 181 225 273 331
#     4  11  21  34  56  87 118 150 194 242 286 339
#     4  11  23  40  60  83 116 155 193 235 289 346
#     4   9  18  34  57  83 112 150 191 233 286 341
#     4  10  23  42  63  85 109 145 193 240 283 334
#
# _framework density 18.626193000000001
#
# number of rings (size 3 to 8) (size 9 to 14) (size 15 to 20)
#    0.000    1.833    0.000    6.000    0.000    7.333 
#    0.000    0.833    0.000    2.000    0.000    0.000 
#    0.000    0.000    0.000    0.000    0.000    0.000 
#
# Total GULP energy -134048.124196 kJ/mol
# GULP energy per Si atom -5585.338508 kJ/mol
# Density = 1.858380 g / cm^3
# Si number density = 18.626193 Si / 1000 Ang^3
#
#
#
# Elastic Constant Matrix: (Units=GPa)
#
#
# Indices 1 2 3 4 5 6 
#
# 1 209.4218 77.8374 99.5145 0.0000 0.0000 0.0000
# 2 77.8374 81.8961 58.6286 0.0000 0.0000 0.0000
# 3 99.5145 58.6286 125.1960 0.0000 0.0000 0.0000
# 4 0.0000 0.0000 0.0000 26.0455 0.0000 0.0000
# 5 0.0000 0.0000 0.0000 0.0000 -35.6893 0.0000
# 6 0.0000 0.0000 0.0000 0.0000 0.0000 20.6011
#
#
#
# Elastic Compliance Matrix: (Units=1/GPa)
#
#
# Indices 1 2 3 4 5 6 
#
# 1 0.008897 -0.005105 -0.004681 0.000000 0.000000 0.000000
# 2 -0.005105 0.021297 -0.005916 0.000000 0.000000 0.000000
# 3 -0.004681 -0.005916 0.014479 0.000000 0.000000 0.000000
# 4 0.000000 0.000000 0.000000 0.038394 0.000000 0.000000
# 5 0.000000 0.000000 0.000000 0.000000 -0.028020 0.000000
# 6 0.000000 0.000000 0.000000 0.000000 0.000000 0.048541
#
#
# Mechanical properties :
#
#
# Convention : Reuss Voigt Hill
#
# Bulk Modulus (GPa) = 75.36171 98.71941 87.04056
# Shear Modulus (GPa) = 35.86389 14.22702 25.04546
#
# Velocity S-wave (km/s) = 4.39276 2.76672 3.67091
# Velocity P-wave (km/s) = 8.14103 7.95749 8.04979
#
# Compressibility (1/GPa) = 0.01326934
#
# Stress axis : x y z
#
# Youngs Moduli (GPa) = 112.39955 46.95417 69.06560
#
# Poissons Ratio (x) = 0.23968 0.32332
# Poissons Ratio (y) = 0.57375 0.40859
# Poissons Ratio (z) = 0.52619 0.27778
#
# Static dielectric constant tensor:
#      x y z
#    x 1.658810 0.000000 0.000000 
#    y 0.000000 1.628660 0.000000 
#    z 0.000000 0.000000 1.599250 
# 
# From -- ./inp_files/18224.got.cif
#   From: 2010.05.17/outbox.cif.g08.bks.cpg/sg38_10_cif.got.tgz:18224.got - 2010.06.03 18:07:57.
