data_PCOD9359929
_publ_section_title
;
Structure prediction by ZEFSAII (Michael W. Deem and Ramdas Pophale) SiO2 
 PCOD9359929
Probable space group: A B M 2
;
_chemical_formula_sum "Si O2"
_cell_formula_units_Z 64
_cell_length_a 9.287237
_cell_length_b 18.979608
_cell_length_c 20.278335
_cell_angle_alpha 90.000000
_cell_angle_beta 90.000000
_cell_angle_gamma 90.000000
_cell_volume 3574.423940
_symmetry_space_group_name_H-M "A B M 2"
_symmetry_group_IT_number 39
_symmetry_cell_setting 'orthorhombic'
loop_
_space_group_symop_operation_xyz
x,y,z
-x,-y,z
-x,1/2+y,z
x,1/2-y,z
x,1/2+y,1/2+z
-x,1/2-y,1/2+z
-x,y,1/2+z
x,-y,1/2+z
loop_
_atom_site_type_symbol
_atom_site_label
_atom_site_fract_x
_atom_site_fract_y
_atom_site_fract_z
Si Si1 0.218967 0.893704 0.580580
Si Si2 0.303354 0.873304 0.113506
Si Si3 0.166230 0.491394 0.692648
Si Si4 0.578017 0.674541 0.183303
Si Si5 0.502751 0.422622 0.001596
Si Si6 0.061523 0.669898 0.014316
Si Si7 0.700186 0.164842 0.909199
Si Si8 0.618246 0.059086 0.792150
O O1 0.192859 0.960476 0.627769
O O2 0.289011 0.838767 0.633160
O O3 0.344516 0.905641 0.527567
O O4 0.073210 0.873500 0.542473
O O5 0.431158 0.826514 0.141836
O O6 0.391101 0.926394 0.065086
O O7 0.185834 0.834284 0.069657
O O8 0.220053 0.914967 0.170354
O O9 0.255788 0.517447 0.754945
O O10 0.000000 0.500000 0.707899
O O11 0.597508 0.750000 0.216776
O O12 0.561129 0.610856 0.234385
O O13 0.500000 0.500000 0.969545
O O14 0.571262 0.361094 0.957492
O O15 0.012106 0.750000 0.005649
O O16 0.149227 0.649159 0.947931
O O17 0.693951 0.250000 0.897579
O O18 0.677864 0.112589 0.847478
O O19 0.500000 0.000000 0.811853
#
# Coordination Sequence:
#
# PCOD9359929 Si02
#       8
#     8   8   8   8   8   8   8   8
#     4  10  20  31  58  89 120 145 183 232 290 350
#     4  10  18  32  55  84 116 147 180 226 291 346
#     4  11  20  35  58  86 119 149 182 238 292 341
#     4  10  20  33  56  86 117 150 188 235 287 341
#     4  10  19  33  58  87 116 146 184 235 284 337
#     4  10  20  35  55  83 118 153 183 228 289 354
#     4  10  23  41  58  78 114 158 198 236 284 339
#     4  11  22  39  61  82 109 152 205 246 279 330
#
# _framework density 17.904983000000001
#
# number of rings (size 3 to 8) (size 9 to 14) (size 15 to 20)
#    0.000    1.750    3.750    1.500    0.000    3.500 
#    0.000    2.500    0.000    0.000    0.000    0.000 
#    0.000    0.000    0.000    0.000    0.000    0.000 
#
# Total GULP energy -178221.812248 kJ/mol
# GULP energy per Si atom -5569.431633 kJ/mol
# Density = 1.786423 g / cm^3
# Si number density = 17.904983 Si / 1000 Ang^3
#
#
#
# Elastic Constant Matrix: (Units=GPa)
#
#
# Indices 1 2 3 4 5 6 
#
# 1 100.5043 20.8791 39.8172 0.0000 0.0000 0.0000
# 2 20.8791 85.6602 33.0564 0.0000 0.0000 0.0000
# 3 39.8172 33.0564 88.1046 0.0000 0.0000 0.0000
# 4 0.0000 0.0000 0.0000 6.6128 0.0000 0.0000
# 5 0.0000 0.0000 0.0000 0.0000 19.3683 0.0000
# 6 0.0000 0.0000 0.0000 0.0000 0.0000 7.8359
#
#
#
# Elastic Compliance Matrix: (Units=1/GPa)
#
#
# Indices 1 2 3 4 5 6 
#
# 1 0.012191 -0.000988 -0.005139 0.000000 0.000000 0.000000
# 2 -0.000988 0.013731 -0.004705 0.000000 0.000000 0.000000
# 3 -0.005139 -0.004705 0.015438 0.000000 0.000000 0.000000
# 4 0.000000 0.000000 0.000000 0.151222 0.000000 0.000000
# 5 0.000000 0.000000 0.000000 0.000000 0.051631 0.000000
# 6 0.000000 0.000000 0.000000 0.000000 0.000000 0.127617
#
#
# Mechanical properties :
#
#
# Convention : Reuss Voigt Hill
#
# Bulk Modulus (GPa) = 50.77365 51.30828 51.04096
# Shear Modulus (GPa) = 12.49819 18.79785 15.64802
#
# Velocity S-wave (km/s) = 2.64489 3.24368 2.95947
# Velocity P-wave (km/s) = 6.14378 6.53810 6.34400
#
# Compressibility (1/GPa) = 0.01969526
#
# Stress axis : x y z
#
# Youngs Moduli (GPa) = 82.02806 72.83003 64.77651
#
# Poissons Ratio (x) = 0.07199 0.33286
# Poissons Ratio (y) = 0.08108 0.30477
# Poissons Ratio (z) = 0.42151 0.34266
#
# Static dielectric constant tensor:
#      x y z
#    x 1.592200 0.000000 0.000000 
#    y 0.000000 1.687260 0.000000 
#    z 0.000000 0.000000 1.630350 
# 
# From -- ./inp_files/11959.got.cif
#   From: 2010.05.17/outbox.cif.g08.bks.cpg/sg39_6_cif.got.tgz:11959.got - 2010.06.03 18:22:40.
