data_PCOD9359217
_publ_section_title
;
Structure prediction by ZEFSAII (Michael W. Deem and Ramdas Pophale) SiO2 
 PCOD9359217
Probable space group: A M M 2
;
_chemical_formula_sum "Si O2"
_cell_formula_units_Z 56
_cell_length_a 13.828805
_cell_length_b 9.403779
_cell_length_c 21.340877
_cell_angle_alpha 90.000000
_cell_angle_beta 90.000000
_cell_angle_gamma 90.000000
_cell_volume 2775.232224
_symmetry_space_group_name_H-M "A M M 2"
_symmetry_group_IT_number 38
_symmetry_cell_setting 'orthorhombic'
loop_
_space_group_symop_operation_xyz
x,y,z
-x,-y,z
-x,y,z
x,-y,z
x,1/2+y,1/2+z
-x,1/2-y,1/2+z
-x,1/2+y,1/2+z
x,1/2-y,1/2+z
loop_
_atom_site_type_symbol
_atom_site_label
_atom_site_fract_x
_atom_site_fract_y
_atom_site_fract_z
Si Si1 0.889532 0.168645 0.535500
Si Si2 0.693046 0.167335 0.847351
Si Si3 0.888841 0.166737 0.784253
Si Si4 0.303241 0.831509 0.470416
Si Si5 0.616612 0.837305 0.228049
Si Si6 0.383427 0.162982 0.606971
Si Si7 0.882507 0.661927 0.659983
O O1 0.810935 0.193995 0.482050
O O2 0.857285 0.250408 0.597995
O O3 0.000000 0.209065 0.519731
O O4 0.888451 0.000000 0.548935
O O5 0.808895 0.185362 0.837561
O O6 0.662048 0.241549 0.911603
O O7 0.646753 0.243668 0.787388
O O8 0.671099 0.000000 0.847220
O O9 0.857927 0.260013 0.724584
O O10 0.000000 0.201688 0.801533
O O11 0.887026 0.000000 0.765866
O O12 0.351933 0.795381 0.537021
O O13 0.318787 0.000000 0.459337
O O14 0.500000 0.839735 0.225951
O O15 0.649883 0.765145 0.162960
O O16 0.650316 0.000000 0.234395
O O17 0.500000 0.161204 0.608447
O O18 0.349358 0.000000 0.617879
O O19 0.848209 0.500000 0.657259
O O20 0.000000 0.659248 0.659884
#
# Coordination Sequence:
#
# PCOD9359217 Si02
#       7
#     8   8   8   8   8   8   8
#     4   9  18  33  52  75 109 153 195 235 283 341
#     4  11  24  39  58  86 119 156 198 242 292 345
#     4   9  19  36  55  76 109 154 198 238 285 343
#     4  10  22  38  56  82 116 154 196 237 286 345
#     4  10  22  41  65  91 118 150 189 236 291 350
#     4   9  19  38  63  88 114 146 186 234 287 343
#     4   9  17  29  48  77 107 137 182 239 291 334
#
# _framework density 20.178491000000001
#
# number of rings (size 3 to 8) (size 9 to 14) (size 15 to 20)
#    0.000    2.429    0.000    1.286    2.000    6.000 
#    0.000    1.429    0.000    0.000    0.000    0.000 
#    0.000    0.000    0.000    0.000    0.000    0.000 
#
# Total GULP energy -156366.933993 kJ/mol
# GULP energy per Si atom -5584.533357 kJ/mol
# Density = 2.013256 g / cm^3
# Si number density = 20.178491 Si / 1000 Ang^3
#
#
#
# Elastic Constant Matrix: (Units=GPa)
#
#
# Indices 1 2 3 4 5 6 
#
# 1 38.4878 18.2002 16.2320 0.0000 0.0000 0.0000
# 2 18.2002 94.6537 94.6817 0.0000 0.0000 0.0000
# 3 16.2320 94.6817 150.3144 0.0000 0.0000 0.0000
# 4 0.0000 0.0000 0.0000 35.6081 0.0000 0.0000
# 5 0.0000 0.0000 0.0000 0.0000 15.4916 0.0000
# 6 0.0000 0.0000 0.0000 0.0000 0.0000 19.9609
#
#
#
# Elastic Compliance Matrix: (Units=1/GPa)
#
#
# Indices 1 2 3 4 5 6 
#
# 1 0.028638 -0.006523 0.001016 0.000000 0.000000 0.000000
# 2 -0.006523 0.030046 -0.018221 0.000000 0.000000 0.000000
# 3 0.001016 -0.018221 0.018020 0.000000 0.000000 0.000000
# 4 0.000000 0.000000 0.000000 0.028084 0.000000 0.000000
# 5 0.000000 0.000000 0.000000 0.000000 0.064551 0.000000
# 6 0.000000 0.000000 0.000000 0.000000 0.000000 0.050098
#
#
# Mechanical properties :
#
#
# Convention : Reuss Voigt Hill
#
# Bulk Modulus (GPa) = 34.19005 60.18709 47.18857
# Shear Modulus (GPa) = 18.07392 24.50159 21.28775
#
# Velocity S-wave (km/s) = 2.99608 3.48838 3.25156
# Velocity P-wave (km/s) = 5.38045 6.79096 6.12643
#
# Compressibility (1/GPa) = 0.02924828
#
# Stress axis : x y z
#
# Youngs Moduli (GPa) = 34.91814 33.28283 55.49329
#
# Poissons Ratio (x) = 0.21712 -0.05641
# Poissons Ratio (y) = 0.22779 1.01114
# Poissons Ratio (z) = -0.03549 0.60645
#
# Static dielectric constant tensor:
#      x y z
#    x 1.778920 0.000000 0.000000 
#    y 0.000000 1.688560 0.000000 
#    z 0.000000 0.000000 1.661390 
# 
# From -- ./inp_files/21018.got.cif
#   From: 2010.05.17/outbox.cif.g08.bks.cpg/sg38_11_cif.got.tgz:21018.got - 2010.06.03 18:07:57.
