data_PCOD9359434
_publ_section_title
;
Structure prediction by ZEFSAII (Michael W. Deem and Ramdas Pophale) SiO2 
 PCOD9359434
Probable space group: A M M 2
;
_chemical_formula_sum "Si O2"
_cell_formula_units_Z 64
_cell_length_a 21.675612
_cell_length_b 8.294353
_cell_length_c 19.122720
_cell_angle_alpha 90.000000
_cell_angle_beta 90.000000
_cell_angle_gamma 90.000000
_cell_volume 3437.981608
_symmetry_space_group_name_H-M "A M M 2"
_symmetry_group_IT_number 38
_symmetry_cell_setting 'orthorhombic'
loop_
_space_group_symop_operation_xyz
x,y,z
-x,-y,z
-x,y,z
x,-y,z
x,1/2+y,1/2+z
-x,1/2-y,1/2+z
-x,1/2+y,1/2+z
x,1/2-y,1/2+z
loop_
_atom_site_type_symbol
_atom_site_label
_atom_site_fract_x
_atom_site_fract_y
_atom_site_fract_z
Si Si1 0.700220 0.302707 0.026890
Si Si2 0.183899 0.307633 0.936131
Si Si3 0.184697 0.807749 0.777468
Si Si4 0.302223 0.305322 0.189595
Si Si5 0.567046 0.307477 0.681108
Si Si6 0.069803 0.194480 0.187470
Si Si7 0.929916 0.194686 0.027098
Si Si8 0.566172 0.307775 0.021288
O O1 0.699992 0.500000 0.026767
O O2 0.705853 0.253447 0.108359
O O3 0.633380 0.247578 0.997742
O O4 0.757663 0.246581 0.981136
O O5 0.187607 0.500000 0.934590
O O6 0.185456 0.245690 0.857416
O O7 0.121295 0.258983 0.975128
O O8 0.245018 0.746498 0.735718
O O9 0.122587 0.752831 0.738873
O O10 0.186690 0.000000 0.774699
O O11 0.302804 0.500000 0.189822
O O12 0.369217 0.247023 0.215771
O O13 0.500000 0.268690 0.714131
O O14 0.569380 0.500000 0.671281
O O15 0.566984 0.224260 0.604762
O O16 0.082660 0.246186 0.107325
O O17 0.000000 0.247779 0.205719
O O18 0.069626 0.000000 0.187864
O O19 0.000000 0.244663 0.009430
O O20 0.928371 0.000000 0.025822
O O21 0.500000 0.241774 0.995124
O O22 0.565413 0.500000 0.009604
#
# Coordination Sequence:
#
# PCOD9359434 Si02
#       8
#     8   8   8   8   8   8   8   8
#     4   8  15  29  49  73  97 124 164 208 247 292
#     4  11  22  35  52  74 104 140 174 211 254 302
#     4  11  23  37  53  75 104 138 177 218 257 301
#     4   9  18  33  52  72  96 130 171 211 252 303
#     4   9  16  25  41  70 103 128 156 201 254 303
#     4   9  19  37  60  84 108 134 166 206 255 310
#     4   9  19  37  59  81 105 131 162 205 253 302
#     4   8  13  24  44  68  95 127 162 201 246 297
#
# _framework density 18.615573000000001
#
# number of rings (size 3 to 8) (size 9 to 14) (size 15 to 20)
#    0.000    2.750    0.000    3.375    0.000    4.250 
#    0.000    7.500    0.000    0.750    0.000    1.750 
#    0.000    0.000    0.000    0.000    0.000    0.000 
#
# Total GULP energy -178316.845943 kJ/mol
# GULP energy per Si atom -5572.401436 kJ/mol
# Density = 1.857320 g / cm^3
# Si number density = 18.615573 Si / 1000 Ang^3
#
#
#
# Elastic Constant Matrix: (Units=GPa)
#
#
# Indices 1 2 3 4 5 6 
#
# 1 202.6686 20.5250 100.4741 0.0000 0.0000 0.0000
# 2 20.5250 14.1439 14.0194 0.0000 0.0000 0.0000
# 3 100.4741 14.0194 88.5544 0.0000 0.0000 0.0000
# 4 0.0000 0.0000 0.0000 -17.5167 0.0000 0.0000
# 5 0.0000 0.0000 0.0000 0.0000 -5.3354 0.0000
# 6 0.0000 0.0000 0.0000 0.0000 0.0000 21.1703
#
#
#
# Elastic Compliance Matrix: (Units=1/GPa)
#
#
# Indices 1 2 3 4 5 6 
#
# 1 0.011510 -0.004458 -0.012353 0.000000 0.000000 0.000000
# 2 -0.004458 0.085588 -0.008492 0.000000 0.000000 0.000000
# 3 -0.012353 -0.008492 0.026653 0.000000 0.000000 0.000000
# 4 0.000000 0.000000 0.000000 -0.057088 0.000000 0.000000
# 5 0.000000 0.000000 0.000000 0.000000 -0.187429 0.000000
# 6 0.000000 0.000000 0.000000 0.000000 0.000000 0.047236
#
#
# Mechanical properties :
#
#
# Convention : Reuss Voigt Hill
#
# Bulk Modulus (GPa) = 13.67149 63.93377 38.80263
# Shear Modulus (GPa) = 3429.79404 11.02020 1720.40712
#
# Velocity S-wave (km/s) = 42.97013 2.43572 30.43325
# Velocity P-wave (km/s) = 49.69175 6.50608 35.43726
#
# Compressibility (1/GPa) = 0.07314491
#
# Stress axis : x y z
#
# Youngs Moduli (GPa) = 86.88153 11.68385 37.51914
#
# Poissons Ratio (x) = 0.05209 0.46349
# Poissons Ratio (y) = 0.38732 0.31860
# Poissons Ratio (z) = 1.07328 0.09922
#
# Static dielectric constant tensor:
#      x y z
#    x 1.692280 0.000000 0.000000 
#    y 0.000000 1.647590 0.000000 
#    z 0.000000 0.000000 1.604580 
# 
# From -- ./inp_files/18929.got.cif
#   From: 2010.05.17/outbox.cif.g08.bks.cpg/sg38_10_cif.got.tgz:18929.got - 2010.06.03 18:07:57.
