data_PCOD9359579
_publ_section_title
;
Structure prediction by ZEFSAII (Michael W. Deem and Ramdas Pophale) SiO2 
 PCOD9359579
Probable space group: A M M 2
;
_chemical_formula_sum "Si O2"
_cell_formula_units_Z 24
_cell_length_a 9.000000
_cell_length_b 15.000000
_cell_length_c 18.000000
_cell_angle_alpha 90.000000
_cell_angle_beta 90.000000
_cell_angle_gamma 90.000000
_cell_volume 2430.000000
_symmetry_space_group_name_H-M "A M M 2"
_symmetry_group_IT_number 38
_symmetry_cell_setting 'orthorhombic'
loop_
_space_group_symop_operation_xyz
x,y,z
-x,-y,z
-x,y,z
x,-y,z
x,1/2+y,1/2+z
-x,1/2-y,1/2+z
-x,1/2+y,1/2+z
x,1/2-y,1/2+z
loop_
_atom_site_type_symbol
_atom_site_label
_atom_site_fract_x
_atom_site_fract_y
_atom_site_fract_z
Si Si1 0.826548 0.688405 0.935810
Si Si2 0.174441 0.500000 0.555463
Si Si3 0.331910 0.000000 0.904331
Si Si4 0.162949 0.315924 0.159317
Si Si5 0.670465 0.500000 0.932390
Si Si6 0.326222 0.690081 0.565076
Si Si7 0.834146 0.000000 0.572353
Si Si8 0.165224 0.650977 0.331177
O O1 0.818996 0.751865 0.865219
O O2 0.000000 0.676490 0.956139
O O3 0.752835 0.593582 0.916008
O O4 0.748185 0.748476 0.000068
O O5 0.209850 0.500000 0.468270
O O6 0.250964 0.593678 0.577611
O O7 0.000000 0.500000 0.572382
O O8 0.295403 0.087309 0.857869
O O9 0.500000 0.000000 0.932735
O O10 0.291887 0.249424 0.136723
O O11 0.171924 0.409222 0.117091
O O12 0.166939 0.341075 0.244167
O O13 0.000000 0.274913 0.141726
O O14 0.500000 0.500000 0.908211
O O15 0.690664 0.500000 0.020999
O O16 0.500000 0.679157 0.549415
O O17 0.000000 0.000000 0.535479
O O18 0.000000 0.617227 0.354205
#
# Coordination Sequence:
#
# PCOD9359579 Si02
#       8
#     8   4   4   8   4   8   4   8
#     4  11  22  39  63  88 119 160 203 247 297 362
#     4  12  24  41  64  89 119 161 209 252 297 361
#     4  12  23  35  59  93 129 160 195 253 314 361
#     4  10  21  39  62  90 122 163 206 247 297 362
#     4  12  24  37  58  89 123 154 200 255 298 348
#     4  12  24  39  61  92 125 157 198 253 307 359
#     4  10  19  33  59  87 121 157 194 242 299 360
#     4  10  22  40  63  89 121 162 207 248 296 364
#
# _framework density 9.8765429999999999
#
# number of rings (size 3 to 8) (size 9 to 14) (size 15 to 20)
#    0.000    1.000    3.333    4.750    0.000    2.667 
#    0.000    1.667    0.000    2.000    0.000    0.000 
#    0.000    0.000    0.000    0.000    0.000    0.000 
#
# Total GULP energy -133780.081341 kJ/mol
# GULP energy per Si atom -5574.170056 kJ/mol
# Density = 0.985406 g / cm^3
# Si number density = 9.876543 Si / 1000 Ang^3
#
#
#
# Elastic Constant Matrix: (Units=GPa)
#
#
# Indices 1 2 3 4 5 6 
#
# 1 110.5047 49.3969 -23.7171 0.0000 0.0000 0.0000
# 2 49.3969 135.3668 -8.3802 0.0000 0.0000 0.0000
# 3 -23.7171 -8.3802 -15.6921 0.0000 0.0000 0.0000
# 4 0.0000 0.0000 0.0000 43.4960 0.0000 0.0000
# 5 0.0000 0.0000 0.0000 0.0000 511.9724 0.0000
# 6 0.0000 0.0000 0.0000 0.0000 0.0000 29.6749
#
#
#
# Elastic Compliance Matrix: (Units=1/GPa)
#
#
# Indices 1 2 3 4 5 6 
#
# 1 0.008417 -0.003736 -0.010727 0.000000 0.000000 0.000000
# 2 -0.003736 0.008809 0.000942 0.000000 0.000000 0.000000
# 3 -0.010727 0.000942 -0.048017 0.000000 0.000000 0.000000
# 4 0.000000 0.000000 0.000000 0.022991 0.000000 0.000000
# 5 0.000000 0.000000 0.000000 0.000000 0.001953 0.000000
# 6 0.000000 0.000000 0.000000 0.000000 0.000000 0.033698
#
#
# Mechanical properties :
#
#
# Convention : Reuss Voigt Hill
#
# Bulk Modulus (GPa) = -17.29146 29.41983 6.06419
# Shear Modulus (GPa) = 140.39127 131.22064 135.80596
#
# Velocity S-wave (km/s) = 8.43963 8.15933 8.30066
# Velocity P-wave (km/s) = 9.28424 10.18294 9.74396
#
# Compressibility (1/GPa) = -0.05783202
#
# Stress axis : x y z
#
# Youngs Moduli (GPa) = 118.80687 113.52337 -20.82599
#
# Poissons Ratio (x) = 0.42407 -0.22339
# Poissons Ratio (y) = 0.44381 0.01961
# Poissons Ratio (z) = 1.27439 -0.10690
#
# Static dielectric constant tensor:
#      x y z
#    x 0.723430 0.000000 0.000000 
#    y 0.000000 1.682270 0.000000 
#    z 0.000000 0.000000 1.756670 
# 
# From -- ./inp_files/16772.got.cif
#   From: 2010.05.17/outbox.ucp.g08.bks.cvg/sg38_9_cif.got.tgz:16772.got - 2010.06.11 10:39:43.
