data_PCOD9359149
_publ_section_title
;
Structure prediction by ZEFSAII (Michael W. Deem and Ramdas Pophale) SiO2 
 PCOD9359149
Probable space group: A M M 2
;
_chemical_formula_sum "Si O2"
_cell_formula_units_Z 56
_cell_length_a 20.859202
_cell_length_b 7.437858
_cell_length_c 15.788750
_cell_angle_alpha 90.000000
_cell_angle_beta 90.000000
_cell_angle_gamma 90.000000
_cell_volume 2449.589550
_symmetry_space_group_name_H-M "A M M 2"
_symmetry_group_IT_number 38
_symmetry_cell_setting 'orthorhombic'
loop_
_space_group_symop_operation_xyz
x,y,z
-x,-y,z
-x,y,z
x,-y,z
x,1/2+y,1/2+z
-x,1/2-y,1/2+z
-x,1/2+y,1/2+z
x,1/2-y,1/2+z
loop_
_atom_site_type_symbol
_atom_site_label
_atom_site_fract_x
_atom_site_fract_y
_atom_site_fract_z
Si Si1 0.349891 0.793232 0.972380
Si Si2 0.342421 0.721351 0.289069
Si Si3 0.206047 0.781214 0.725085
Si Si4 0.069094 0.783552 0.521889
Si Si5 0.571556 0.708793 0.136263
Si Si6 0.208329 0.282623 0.026095
Si Si7 0.068321 0.283469 0.225699
O O1 0.366056 0.717747 0.880490
O O2 0.272999 0.782593 0.982826
O O3 0.369254 0.000000 0.973410
O O4 0.386189 0.711987 0.051721
O O5 0.341122 0.500000 0.289302
O O6 0.269222 0.779079 0.273072
O O7 0.386915 0.786459 0.212968
O O8 0.212075 0.732469 0.625735
O O9 0.136846 0.717363 0.758472
O O10 0.204966 0.000000 0.727163
O O11 0.138944 0.719362 0.491347
O O12 0.069267 0.751525 0.623839
O O13 0.000000 0.715525 0.489076
O O14 0.068687 0.000000 0.511404
O O15 0.500000 0.784291 0.125241
O O16 0.564257 0.500000 0.158369
O O17 0.208919 0.500000 0.022634
O O18 0.067630 0.500000 0.235949
O O19 0.000000 0.214082 0.258896
#
# Coordination Sequence:
#
# PCOD9359149 Si02
#       7
#     8   8   8   8   8   8   8
#     4  11  22  34  53  82 114 142 169 209 260 312
#     4   9  18  33  53  77 104 138 175 207 250 310
#     4   8  12  22  44  67  90 127 172 211 245 292
#     4   7  10  17  34  65  97 124 167 226 270 295
#     4  10  21  40  64  83 101 132 174 213 252 309
#     4   9  15  27  50  73  99 139 183 222 258 305
#     4   7   9  13  26  56  92 118 150 206 262 290
#
# _framework density 22.860973000000001
#
# number of rings (size 3 to 8) (size 9 to 14) (size 15 to 20)
#    0.000    3.286    1.429    3.000    0.000    0.857 
#    0.000    2.857    0.000    1.286    0.000    2.000 
#    0.000    0.000    0.000    0.000    0.000    0.286 
#
# Total GULP energy -156146.366743 kJ/mol
# GULP energy per Si atom -5576.655955 kJ/mol
# Density = 2.280894 g / cm^3
# Si number density = 22.860973 Si / 1000 Ang^3
#
#
#
# Elastic Constant Matrix: (Units=GPa)
#
#
# Indices 1 2 3 4 5 6 
#
# 1 183.9349 0.7597 66.5036 0.0000 0.0000 0.0000
# 2 0.7597 67.5193 -0.0373 0.0000 0.0000 0.0000
# 3 66.5036 -0.0373 99.6324 0.0000 0.0000 0.0000
# 4 0.0000 0.0000 0.0000 -3.3371 0.0000 0.0000
# 5 0.0000 0.0000 0.0000 0.0000 -14.4687 0.0000
# 6 0.0000 0.0000 0.0000 0.0000 0.0000 -18.7766
#
#
#
# Elastic Compliance Matrix: (Units=1/GPa)
#
#
# Indices 1 2 3 4 5 6 
#
# 1 0.007167 -0.000083 -0.004784 0.000000 0.000000 0.000000
# 2 -0.000083 0.014812 0.000061 0.000000 0.000000 0.000000
# 3 -0.004784 0.000061 0.013230 0.000000 0.000000 0.000000
# 4 0.000000 0.000000 0.000000 -0.299660 0.000000 0.000000
# 5 0.000000 0.000000 0.000000 0.000000 -0.069115 0.000000
# 6 0.000000 0.000000 0.000000 0.000000 0.000000 -0.053258
#
#
# Mechanical properties :
#
#
# Convention : Reuss Voigt Hill
#
# Bulk Modulus (GPa) = 39.06785 53.94874 46.50829
# Shear Modulus (GPa) = -13.56187 11.60757 -0.97715
#
# Velocity S-wave (km/s) = -2.43828 2.25577 -0.65449
# Velocity P-wave (km/s) = 3.03307 5.51675 4.45163
#
# Compressibility (1/GPa) = 0.02559649
#
# Stress axis : x y z
#
# Youngs Moduli (GPa) = 139.53531 67.51491 75.58587
#
# Poissons Ratio (x) = 0.00562 0.36158
# Poissons Ratio (y) = 0.01162 -0.00462
# Poissons Ratio (z) = 0.66749 -0.00413
#
# Static dielectric constant tensor:
#      x y z
#    x 1.885250 0.000000 0.000000 
#    y 0.000000 1.858930 0.000000 
#    z 0.000000 0.000000 1.827030 
# 
# From -- ./inp_files/15502.got.cif
#   From: 2010.05.17/outbox.cif.g08.bks.cpg/sg38_8_cif.got.tgz:15502.got - 2010.06.03 18:07:57.
