data_PCOD9359485
_publ_section_title
;
Structure prediction by ZEFSAII (Michael W. Deem and Ramdas Pophale) SiO2 
 PCOD9359485
Probable space group: A M M 2
;
_chemical_formula_sum "Si O2"
_cell_formula_units_Z 40
_cell_length_a 7.866386
_cell_length_b 19.142946
_cell_length_c 10.869196
_cell_angle_alpha 90.000000
_cell_angle_beta 90.000000
_cell_angle_gamma 90.000000
_cell_volume 1636.746601
_symmetry_space_group_name_H-M "A M M 2"
_symmetry_group_IT_number 38
_symmetry_cell_setting 'orthorhombic'
loop_
_space_group_symop_operation_xyz
x,y,z
-x,-y,z
-x,y,z
x,-y,z
x,1/2+y,1/2+z
-x,1/2-y,1/2+z
-x,1/2+y,1/2+z
x,1/2-y,1/2+z
loop_
_atom_site_type_symbol
_atom_site_label
_atom_site_fract_x
_atom_site_fract_y
_atom_site_fract_z
Si Si1 0.193976 0.713196 0.227190
Si Si2 0.193546 0.584935 0.830546
Si Si3 0.209404 0.920393 0.599944
Si Si4 0.793034 0.420203 0.557683
Si Si5 0.308906 0.776033 0.980261
O O1 0.267352 0.636827 0.196420
O O2 0.279232 0.751379 0.342165
O O3 0.000000 0.704752 0.267331
O O4 0.197134 0.749823 0.094106
O O5 0.180727 0.500000 0.834442
O O6 0.269086 0.598295 0.696615
O O7 0.000000 0.613361 0.828693
O O8 0.270075 0.601818 0.963215
O O9 0.000000 0.918954 0.596305
O O10 0.258823 0.000000 0.625418
O O11 0.743745 0.500000 0.528316
O O12 0.725364 0.359084 0.472743
O O13 0.000000 0.418831 0.558685
O O14 0.500000 0.761873 0.018473
#
# Coordination Sequence:
#
# PCOD9359485 Si02
#       5
#     8   8   8   8   8
#     4  11  24  43  68  96 125 169 224 272 318 389
#     4   7  11  23  48  86 124 152 186 245 312 362
#     4   8  15  30  57  94 127 153 196 263 324 370
#     4   9  18  35  63  96 127 164 217 272 318 379
#     4  12  27  45  63  91 134 177 213 267 340 402
#
# _framework density 24.438725000000002
#
# number of rings (size 3 to 8) (size 9 to 14) (size 15 to 20)
#    0.000    2.600    0.000    4.800    2.800    1.200 
#    0.000    2.000    0.000    1.800    0.000    0.000 
#    0.000    0.000    0.000    0.000    0.000    0.000 
#
# Total GULP energy -111693.373511 kJ/mol
# GULP energy per Si atom -5584.668676 kJ/mol
# Density = 2.438310 g / cm^3
# Si number density = 24.438725 Si / 1000 Ang^3
#
#
#
# Elastic Constant Matrix: (Units=GPa)
#
#
# Indices 1 2 3 4 5 6 
#
# 1 42.0296 -8.6558 -2.5780 0.0000 0.0000 0.0000
# 2 -8.6558 92.1757 29.9011 0.0000 0.0000 0.0000
# 3 -2.5780 29.9011 127.7218 0.0000 0.0000 0.0000
# 4 0.0000 0.0000 0.0000 40.7275 0.0000 0.0000
# 5 0.0000 0.0000 0.0000 0.0000 6.6834 0.0000
# 6 0.0000 0.0000 0.0000 0.0000 0.0000 -6.1804
#
#
#
# Elastic Compliance Matrix: (Units=1/GPa)
#
#
# Indices 1 2 3 4 5 6 
#
# 1 0.024262 0.002294 -0.000047 0.000000 0.000000 0.000000
# 2 0.002294 0.011957 -0.002753 0.000000 0.000000 0.000000
# 3 -0.000047 -0.002753 0.008473 0.000000 0.000000 0.000000
# 4 0.000000 0.000000 0.000000 0.024553 0.000000 0.000000
# 5 0.000000 0.000000 0.000000 0.000000 0.149625 0.000000
# 6 0.000000 0.000000 0.000000 0.000000 0.000000 -0.161801
#
#
# Mechanical properties :
#
#
# Convention : Reuss Voigt Hill
#
# Bulk Modulus (GPa) = 22.89407 33.25130 28.07268
# Shear Modulus (GPa) = 68.82973 24.46340 46.64657
#
# Velocity S-wave (km/s) = 5.31275 3.16731 4.37362
# Velocity P-wave (km/s) = 6.85727 5.19724 6.08413
#
# Compressibility (1/GPa) = 0.04367943
#
# Stress axis : x y z
#
# Youngs Moduli (GPa) = 41.21628 83.63092 118.02080
#
# Poissons Ratio (x) = -0.19182 0.00558
# Poissons Ratio (y) = -0.09454 0.32492
# Poissons Ratio (z) = 0.00195 0.23024
#
# Static dielectric constant tensor:
#      x y z
#    x 1.924740 0.000000 0.000000 
#    y 0.000000 1.986590 0.000000 
#    z 0.000000 0.000000 1.965740 
# 
# From -- ./inp_files/7783.got.cif
#   From: 2010.05.17/outbox.cif.g08.bks.cpg/sg38_4_cif.got.tgz:7783.got - 2010.06.03 18:07:57.
