data_PCOD9359981
_publ_section_title
;
Structure prediction by ZEFSAII (Michael W. Deem and Ramdas Pophale) SiO2 
 PCOD9359981
Probable space group: A B M 2
;
_chemical_formula_sum "Si O2"
_cell_formula_units_Z 52
_cell_length_a 5.181219
_cell_length_b 29.184695
_cell_length_c 15.053328
_cell_angle_alpha 90.000000
_cell_angle_beta 90.000000
_cell_angle_gamma 90.000000
_cell_volume 2276.248293
_symmetry_space_group_name_H-M "A B M 2"
_symmetry_group_IT_number 39
_symmetry_cell_setting 'orthorhombic'
loop_
_space_group_symop_operation_xyz
x,y,z
-x,-y,z
-x,1/2+y,z
x,1/2-y,z
x,1/2+y,1/2+z
-x,1/2-y,1/2+z
-x,y,1/2+z
x,-y,1/2+z
loop_
_atom_site_type_symbol
_atom_site_label
_atom_site_fract_x
_atom_site_fract_y
_atom_site_fract_z
Si Si1 0.633011 0.598263 0.134580
Si Si2 0.140596 0.654027 0.094355
Si Si3 0.399216 0.438098 0.956282
Si Si4 0.640331 0.250000 0.453479
Si Si5 0.113157 0.656927 0.406891
Si Si6 0.131877 0.250000 0.578358
Si Si7 0.000000 0.000000 0.352308
Si Si8 0.213457 0.089143 0.315424
O O1 0.422769 0.634027 0.101206
O O2 0.576588 0.591300 0.238190
O O3 0.920179 0.619705 0.128591
O O4 0.605090 0.558011 0.062584
O O5 0.144634 0.704182 0.136400
O O6 0.071966 0.663899 0.991570
O O7 0.231595 0.478470 0.912403
O O8 0.672734 0.428229 0.909626
O O9 0.266801 0.389179 0.932916
O O10 0.363958 0.250000 0.503917
O O11 0.710072 0.297480 0.400593
O O12 0.852059 0.250000 0.532078
O O13 0.935068 0.636947 0.327944
O O14 0.054013 0.043906 0.290442
#
# Coordination Sequence:
#
# PCOD9359981 Si02
#       8
#     8   8   8   4   8   4   4   8
#     4  11  24  39  68  93 129 174 222 260 341 397
#     4  10  20  39  60  97 124 176 220 272 321 392
#     4  10  21  43  65  92 126 171 217 276 333 401
#     4  10  20  32  62 101 123 178 223 266 315 384
#     4   9  20  37  63  90 134 168 224 267 328 380
#     4  10  18  34  62  89 133 166 225 274 317 372
#     4  10  24  42  66  96 124 166 218 280 342 402
#     4  11  23  42  66  92 135 173 216 279 335 404
#
# _framework density 22.844608999999998
#
# number of rings (size 3 to 8) (size 9 to 14) (size 15 to 20)
#    0.000    1.846    1.538    3.231    6.462    0.615 
#    0.000    4.615    0.000    0.000    0.000    0.000 
#    0.000    0.000    0.000    0.000    0.000    0.000 
#
# Total GULP energy -144816.557978 kJ/mol
# GULP energy per Si atom -5569.867615 kJ/mol
# Density = 2.279261 g / cm^3
# Si number density = 22.844609 Si / 1000 Ang^3
#
#
#
# Elastic Constant Matrix: (Units=GPa)
#
#
# Indices 1 2 3 4 5 6 
#
# 1 54.4876 7.1369 -2.5495 0.0000 0.0000 0.0000
# 2 7.1369 119.5277 1.1742 0.0000 0.0000 0.0000
# 3 -2.5495 1.1742 54.7215 0.0000 0.0000 0.0000
# 4 0.0000 0.0000 0.0000 8.0180 0.0000 0.0000
# 5 0.0000 0.0000 0.0000 0.0000 13.7086 0.0000
# 6 0.0000 0.0000 0.0000 0.0000 0.0000 29.4101
#
#
#
# Elastic Compliance Matrix: (Units=1/GPa)
#
#
# Indices 1 2 3 4 5 6 
#
# 1 0.018540 -0.001116 0.000888 0.000000 0.000000 0.000000
# 2 -0.001116 0.008435 -0.000233 0.000000 0.000000 0.000000
# 3 0.000888 -0.000233 0.018321 0.000000 0.000000 0.000000
# 4 0.000000 0.000000 0.000000 0.124720 0.000000 0.000000
# 5 0.000000 0.000000 0.000000 0.000000 0.072947 0.000000
# 6 0.000000 0.000000 0.000000 0.000000 0.000000 0.034002
#
#
# Mechanical properties :
#
#
# Convention : Reuss Voigt Hill
#
# Bulk Modulus (GPa) = 22.53552 26.69556 24.61554
# Shear Modulus (GPa) = 17.08362 25.09235 21.08798
#
# Velocity S-wave (km/s) = 2.73759 3.31780 3.04156
# Velocity P-wave (km/s) = 4.45855 5.13694 4.80972
#
# Compressibility (1/GPa) = 0.04437438
#
# Stress axis : x y z
#
# Youngs Moduli (GPa) = 53.93599 118.55123 54.58303
#
# Poissons Ratio (x) = 0.13227 -0.04846
# Poissons Ratio (y) = 0.06018 0.01272
# Poissons Ratio (z) = -0.04788 0.02762
#
# Static dielectric constant tensor:
#      x y z
#    x 1.917020 0.000000 0.000000 
#    y 0.000000 1.996340 0.000000 
#    z 0.000000 0.000000 1.973150 
# 
# From -- ./inp_files/11132.got.cif
#   From: 2010.05.17/outbox.cif.g08.bks.cpg/sg39_6_cif.got.tgz:11132.got - 2010.06.03 18:22:40.
