data_PCOD9359889
_publ_section_title
;
Structure prediction by ZEFSAII (Michael W. Deem and Ramdas Pophale) SiO2 
 PCOD9359889
Probable space group: A B M 2
;
_chemical_formula_sum "Si O2"
_cell_formula_units_Z 64
_cell_length_a 9.678547
_cell_length_b 14.855693
_cell_length_c 23.419524
_cell_angle_alpha 90.000000
_cell_angle_beta 90.000000
_cell_angle_gamma 90.000000
_cell_volume 3367.294827
_symmetry_space_group_name_H-M "A B M 2"
_symmetry_group_IT_number 39
_symmetry_cell_setting 'orthorhombic'
loop_
_space_group_symop_operation_xyz
x,y,z
-x,-y,z
-x,1/2+y,z
x,1/2-y,z
x,1/2+y,1/2+z
-x,1/2-y,1/2+z
-x,y,1/2+z
x,-y,1/2+z
loop_
_atom_site_type_symbol
_atom_site_label
_atom_site_fract_x
_atom_site_fract_y
_atom_site_fract_z
Si Si1 0.661139 0.494999 0.592620
Si Si2 0.767834 0.848053 0.410692
Si Si3 0.661139 0.494999 0.228765
Si Si4 0.834344 0.356790 0.292662
Si Si5 0.854381 0.351177 0.780969
Si Si6 0.159510 0.537054 0.410692
Si Si7 0.854381 0.351177 0.040416
Si Si8 0.834344 0.143210 0.528723
O O1 0.500000 0.500000 0.577623
O O2 0.675303 0.499999 0.660692
O O3 0.748401 0.575608 0.563713
O O4 0.723592 0.402259 0.569558
O O5 0.688969 0.750000 0.410692
O O6 0.847071 0.846007 0.350210
O O7 0.847071 0.846007 0.471175
O O8 0.729528 0.954287 0.410692
O O9 0.500000 0.500000 0.243762
O O10 0.723593 0.402259 0.251826
O O11 0.748401 0.575608 0.257672
O O12 0.819966 0.250000 0.298246
O O13 0.823091 0.404483 0.354023
O O14 0.987668 0.375634 0.267987
O O15 0.823985 0.250000 0.759677
O O16 0.176909 0.595517 0.467361
O O17 0.000000 0.500000 0.410692
O O18 0.823986 0.250000 0.061708
O O19 0.012332 0.375634 0.053398
O O20 0.819966 0.250000 0.523139
#
# Coordination Sequence:
#
# PCOD9359889 Si02
#       8
#     8   8   8   8   8   8   8   8
#     4  11  25  43  60  80 113 159 205 249 298 351
#     4  10  18  31  58  94 124 152 185 230 292 357
#     4  11  25  43  60  80 113 159 205 249 298 351
#     4  11  22  37  61  94 124 153 194 243 294 352
#     4  10  20  37  62  91 119 150 190 239 293 349
#     4  12  17  31  60  92 129 156 183 232 292 357
#     4  10  20  37  62  91 119 150 190 239 293 349
#     4  11  22  37  61  94 124 153 194 243 294 352
#
# _framework density 19.006354999999999
#
# number of rings (size 3 to 8) (size 9 to 14) (size 15 to 20)
#    0.000    1.250    5.000    1.125    0.000    4.000 
#    0.000    7.500    0.000    3.000    0.000    0.000 
#    0.000    0.000    0.000    0.000    0.000    0.000 
#
# Total GULP energy -178369.734863 kJ/mol
# GULP energy per Si atom -5574.054214 kJ/mol
# Density = 1.896310 g / cm^3
# Si number density = 19.006355 Si / 1000 Ang^3
#
#
#
# Elastic Constant Matrix: (Units=GPa)
#
#
# Indices 1 2 3 4 5 6 
#
# 1 101.5391 71.6704 56.7194 0.0000 0.0000 0.0000
# 2 71.6704 161.4940 42.6810 0.0000 0.0000 0.0000
# 3 56.7194 42.6810 62.7600 0.0000 0.0000 0.0000
# 4 0.0000 0.0000 0.0000 7.0065 0.0000 0.0000
# 5 0.0000 0.0000 0.0000 0.0000 18.6088 0.0000
# 6 0.0000 0.0000 0.0000 0.0000 0.0000 12.8829
#
#
#
# Elastic Compliance Matrix: (Units=1/GPa)
#
#
# Indices 1 2 3 4 5 6 
#
# 1 0.023804 -0.005948 -0.017468 0.000000 0.000000 0.000000
# 2 -0.005948 0.009035 -0.000769 0.000000 0.000000 0.000000
# 3 -0.017468 -0.000769 0.032244 0.000000 0.000000 0.000000
# 4 0.000000 0.000000 0.000000 0.142725 0.000000 0.000000
# 5 0.000000 0.000000 0.000000 0.000000 0.053738 0.000000
# 6 0.000000 0.000000 0.000000 0.000000 0.000000 0.077622
#
#
# Mechanical properties :
#
#
# Convention : Reuss Voigt Hill
#
# Bulk Modulus (GPa) = 59.83456 74.21497 67.02476
# Shear Modulus (GPa) = 12.71908 18.01444 15.36676
#
# Velocity S-wave (km/s) = 2.58970 3.08199 2.84651
# Velocity P-wave (km/s) = 6.36331 7.19702 6.79297
#
# Compressibility (1/GPa) = 0.01671275
#
# Stress axis : x y z
#
# Youngs Moduli (GPa) = 42.00940 110.68079 31.01355
#
# Poissons Ratio (x) = 0.65828 0.54176
# Poissons Ratio (y) = 0.24985 0.02386
# Poissons Ratio (z) = 0.73384 0.08515
#
# Static dielectric constant tensor:
#      x y z
#    x 1.646080 0.000000 0.000000 
#    y 0.000000 1.713890 0.000000 
#    z 0.000000 0.000000 1.645200 
# 
# From -- ./inp_files/15733.got.cif
#   From: 2010.05.17/outbox.cif.g08.bks.cpg/sg39_8_cif.got.tgz:15733.got - 2010.06.03 18:22:40.
