data_PCOD9359631
_publ_section_title
;
Structure prediction by ZEFSAII (Michael W. Deem and Ramdas Pophale) SiO2 
 PCOD9359631
Probable space group: A M M 2
;
_chemical_formula_sum "Si O2"
_cell_formula_units_Z 32
_cell_length_a 9.000000
_cell_length_b 15.000000
_cell_length_c 24.000000
_cell_angle_alpha 90.000000
_cell_angle_beta 90.000000
_cell_angle_gamma 90.000000
_cell_volume 3240.000000
_symmetry_space_group_name_H-M "A M M 2"
_symmetry_group_IT_number 38
_symmetry_cell_setting 'orthorhombic'
loop_
_space_group_symop_operation_xyz
x,y,z
-x,-y,z
-x,y,z
x,-y,z
x,1/2+y,1/2+z
-x,1/2-y,1/2+z
-x,1/2+y,1/2+z
x,1/2-y,1/2+z
loop_
_atom_site_type_symbol
_atom_site_label
_atom_site_fract_x
_atom_site_fract_y
_atom_site_fract_z
Si Si1 0.177240 0.722029 0.313900
Si Si2 0.167382 0.102773 0.167818
Si Si3 0.674470 0.596792 0.970065
Si Si4 0.175782 0.662776 0.552736
Si Si5 0.673707 0.339092 0.092076
Si Si6 0.325409 0.105624 0.278157
Si Si7 0.321691 0.897617 0.718175
Si Si8 0.820368 0.717892 0.436465
O O1 0.231401 0.824702 0.313656
O O2 0.247727 0.667865 0.262829
O O3 0.221334 0.685278 0.375001
O O4 0.000000 0.719465 0.308609
O O5 0.229227 0.106305 0.105242
O O6 0.280234 0.133995 0.214915
O O7 0.000000 0.144472 0.171255
O O8 0.147504 0.000000 0.181193
O O9 0.500000 0.605647 0.955385
O O10 0.727753 0.500000 0.949936
O O11 0.682020 0.598429 0.037734
O O12 0.759838 0.682543 0.947415
O O13 0.214851 0.760544 0.575663
O O14 0.233565 0.659688 0.489584
O O15 0.000000 0.645778 0.549505
O O16 0.500000 0.308385 0.094307
O O17 0.711294 0.376155 0.153074
O O18 0.500000 0.119113 0.286921
O O19 0.295184 0.000000 0.287338
O O20 0.500000 0.890642 0.723756
O O21 0.277699 0.000000 0.729184
O O22 0.000000 0.721064 0.438729
#
# Coordination Sequence:
#
# PCOD9359631 Si02
#       8
#     8   8   8   8   8   8   8   8
#     4  11  23  38  55  75 104 143 183 223 264 306
#     4   9  17  30  50  76 103 129 160 203 256 312
#     4   9  17  30  50  76 103 129 159 198 246 303
#     4   9  17  31  50  72  99 130 165 205 251 304
#     4   9  17  30  50  76 104 132 161 197 249 310
#     4  10  21  36  55  80 109 140 174 214 262 317
#     4  10  21  37  57  80 107 140 177 218 264 313
#     4   9  20  36  50  68  97 133 172 210 250 298
#
# _framework density 9.8765429999999999
#
# number of rings (size 3 to 8) (size 9 to 14) (size 15 to 20)
#    0.000    2.500    0.000    1.875    0.000    7.250 
#    0.000    3.125    0.000    4.500    0.000    1.750 
#    0.000    0.000    0.000    0.000    0.000    0.000 
#
# Total GULP energy -178161.727352 kJ/mol
# GULP energy per Si atom -5567.553980 kJ/mol
# Density = 0.985406 g / cm^3
# Si number density = 9.876543 Si / 1000 Ang^3
#
#
#
# Elastic Constant Matrix: (Units=GPa)
#
#
# Indices 1 2 3 4 5 6 
#
# 1 6.6802 4.5048 15.0858 0.0000 0.0000 0.0000
# 2 4.5048 25.3311 12.9130 0.0000 0.0000 0.0000
# 3 15.0858 12.9130 104.7795 0.0000 0.0000 0.0000
# 4 0.0000 0.0000 0.0000 10.5433 0.0000 0.0000
# 5 0.0000 0.0000 0.0000 0.0000 16.7225 0.0000
# 6 0.0000 0.0000 0.0000 0.0000 0.0000 11.9412
#
#
#
# Elastic Compliance Matrix: (Units=1/GPa)
#
#
# Indices 1 2 3 4 5 6 
#
# 1 0.237342 -0.026451 -0.030912 0.000000 0.000000 0.000000
# 2 -0.026451 0.045071 -0.001746 0.000000 0.000000 0.000000
# 3 -0.030912 -0.001746 0.014210 0.000000 0.000000 0.000000
# 4 0.000000 0.000000 0.000000 0.094847 0.000000 0.000000
# 5 0.000000 0.000000 0.000000 0.000000 0.059800 0.000000
# 6 0.000000 0.000000 0.000000 0.000000 0.000000 0.083744
#
#
# Mechanical properties :
#
#
# Convention : Reuss Voigt Hill
#
# Bulk Modulus (GPa) = 5.60521 22.42199 14.01360
# Shear Modulus (GPa) = 7.01558 14.79389 10.90474
#
# Velocity S-wave (km/s) = 1.88662 2.73965 2.35213
# Velocity P-wave (km/s) = 2.75492 4.62421 3.80611
#
# Compressibility (1/GPa) = 0.17840535
#
# Stress axis : x y z
#
# Youngs Moduli (GPa) = 4.21333 22.18705 70.37467
#
# Poissons Ratio (x) = 0.58686 2.17541
# Poissons Ratio (y) = 0.11145 0.12290
# Poissons Ratio (z) = 0.13024 0.03875
#
# Static dielectric constant tensor:
#      x y z
#    x 1.682760 0.000000 0.000000 
#    y 0.000000 1.743030 0.000000 
#    z 0.000000 0.000000 1.754420 
# 
# From -- ./inp_files/22205.got.cif
#   From: 2010.05.17/outbox.ucp.g08.bks.cvg/sg38_12_cif.got.tgz:22205.got - 2010.06.11 10:39:43.
