data_PCOD9359821
_publ_section_title
;
Structure prediction by ZEFSAII (Michael W. Deem and Ramdas Pophale) SiO2 
 PCOD9359821
Probable space group: A B M 2
;
_chemical_formula_sum "Si O2"
_cell_formula_units_Z 64
_cell_length_a 19.489184
_cell_length_b 14.655959
_cell_length_c 10.757889
_cell_angle_alpha 90.000000
_cell_angle_beta 90.000000
_cell_angle_gamma 90.000000
_cell_volume 3072.804684
_symmetry_space_group_name_H-M "A B M 2"
_symmetry_group_IT_number 39
_symmetry_cell_setting 'orthorhombic'
loop_
_space_group_symop_operation_xyz
x,y,z
-x,-y,z
-x,1/2+y,z
x,1/2-y,z
x,1/2+y,1/2+z
-x,1/2-y,1/2+z
-x,y,1/2+z
x,-y,1/2+z
loop_
_atom_site_type_symbol
_atom_site_label
_atom_site_fract_x
_atom_site_fract_y
_atom_site_fract_z
Si Si1 0.080982 0.111237 0.960800
Si Si2 0.292364 0.859816 0.820615
Si Si3 0.707636 0.359816 0.100986
Si Si4 0.078393 0.111906 0.460800
Si Si5 0.448449 0.638576 0.102950
Si Si6 0.849021 0.393063 0.711407
Si Si7 0.849021 0.106937 0.210193
Si Si8 0.448449 0.361424 0.318651
O O1 0.119569 0.143452 0.837125
O O2 0.001316 0.137331 0.960800
O O3 0.082010 0.999529 0.960800
O O4 0.119570 0.143452 0.084474
O O5 0.294045 0.750000 0.825087
O O6 0.232650 0.884937 0.725959
O O7 0.369874 0.890098 0.792354
O O8 0.274465 0.892741 0.960800
O O9 0.705956 0.250000 0.096514
O O10 0.630126 0.390098 0.129247
O O11 0.767350 0.384936 0.195641
O O12 0.116290 0.144595 0.336411
O O13 0.116290 0.144595 0.585189
O O14 0.449234 0.750000 0.103282
O O15 0.500000 0.608382 0.210800
O O16 0.466045 0.611161 0.960800
O O17 0.865890 0.500000 0.710800
O O18 0.449234 0.250000 0.318319
#
# Coordination Sequence:
#
# PCOD9359821 Si02
#       8
#     8   8   8   8   8   8   8   8
#     4   9  18  28  45  73  96 117 156 206 239 267
#     4   9  17  31  51  71  95 130 162 187 227 288
#     4   9  17  31  51  71  95 130 162 187 227 288
#     4   9  16  30  49  67  92 125 160 196 235 277
#     4   8  14  26  45  68  91 117 154 194 228 267
#     4  10  18  30  49  72  95 123 158 197 237 277
#     4  10  18  30  49  72  95 123 158 197 237 277
#     4   8  14  26  45  68  91 117 154 194 228 267
#
# _framework density 20.827877999999998
#
# number of rings (size 3 to 8) (size 9 to 14) (size 15 to 20)
#    0.000    3.000    1.250    2.250    0.000    3.000 
#    2.250    0.625    0.000    5.250    0.000    3.500 
#    0.000    0.000    0.000    0.000    0.000    0.000 
#
# Total GULP energy -178528.974988 kJ/mol
# GULP energy per Si atom -5579.030468 kJ/mol
# Density = 2.078047 g / cm^3
# Si number density = 20.827878 Si / 1000 Ang^3
#
#
#
# Elastic Constant Matrix: (Units=GPa)
#
#
# Indices 1 2 3 4 5 6 
#
# 1 160.9122 -4.3026 130.0064 0.0000 0.0000 0.0000
# 2 -4.3026 54.4864 9.5260 0.0000 0.0000 0.0000
# 3 130.0064 9.5260 196.0974 0.0000 0.0000 0.0000
# 4 0.0000 0.0000 0.0000 -8.0685 0.0000 0.0000
# 5 0.0000 0.0000 0.0000 0.0000 34.6442 0.0000
# 6 0.0000 0.0000 0.0000 0.0000 0.0000 19.6032
#
#
#
# Elastic Compliance Matrix: (Units=1/GPa)
#
#
# Indices 1 2 3 4 5 6 
#
# 1 0.013767 0.002706 -0.009259 0.000000 0.000000 0.000000
# 2 0.002706 0.019042 -0.002719 0.000000 0.000000 0.000000
# 3 -0.009259 -0.002719 0.011370 0.000000 0.000000 0.000000
# 4 0.000000 0.000000 0.000000 -0.123938 0.000000 0.000000
# 5 0.000000 0.000000 0.000000 0.000000 0.028865 0.000000
# 6 0.000000 0.000000 0.000000 0.000000 0.000000 0.051012
#
#
# Mechanical properties :
#
#
# Convention : Reuss Voigt Hill
#
# Bulk Modulus (GPa) = 39.00791 75.77284 57.39038
# Shear Modulus (GPa) = 183.77404 27.65353 105.71379
#
# Velocity S-wave (km/s) = 9.40352 3.64774 7.13205
# Velocity P-wave (km/s) = 11.69064 7.36212 9.76913
#
# Compressibility (1/GPa) = 0.02563582
#
# Stress axis : x y z
#
# Youngs Moduli (GPa) = 72.63514 52.51483 87.95156
#
# Poissons Ratio (x) = -0.14210 0.81433
# Poissons Ratio (y) = -0.19654 0.23914
# Poissons Ratio (z) = 0.67252 0.14279
#
# Static dielectric constant tensor:
#      x y z
#    x 1.719350 0.000000 0.000000 
#    y 0.000000 1.788420 0.000000 
#    z 0.000000 0.000000 1.741010 
# 
# From -- ./inp_files/4037.got.cif
#   From: 2010.05.17/outbox.cif.g08.bks.cpg/sg39_3_cif.got.tgz:4037.got - 2010.06.03 18:22:40.
