data_PCOD9359474
_publ_section_title
;
Structure prediction by ZEFSAII (Michael W. Deem and Ramdas Pophale) SiO2 
 PCOD9359474
Probable space group: A M M 2
;
_chemical_formula_sum "Si O2"
_cell_formula_units_Z 26
_cell_length_a 7.760388
_cell_length_b 22.759458
_cell_length_c 7.403123
_cell_angle_alpha 90.000000
_cell_angle_beta 90.000000
_cell_angle_gamma 90.000000
_cell_volume 1307.556054
_symmetry_space_group_name_H-M "A M M 2"
_symmetry_group_IT_number 38
_symmetry_cell_setting 'orthorhombic'
loop_
_space_group_symop_operation_xyz
x,y,z
-x,-y,z
-x,y,z
x,-y,z
x,1/2+y,1/2+z
-x,1/2-y,1/2+z
-x,1/2+y,1/2+z
x,1/2-y,1/2+z
loop_
_atom_site_type_symbol
_atom_site_label
_atom_site_fract_x
_atom_site_fract_y
_atom_site_fract_z
Si Si1 0.000000 0.000000 0.798700
Si Si2 0.699006 0.096479 0.858144
Si Si3 0.298246 0.175093 0.194606
Si Si4 0.196137 0.195616 0.591225
O O1 0.845962 0.050805 0.803579
O O2 0.500000 0.074555 0.865217
O O3 0.703624 0.150678 0.718029
O O4 0.745876 0.124129 0.053540
O O5 0.500000 0.170049 0.235867
O O6 0.202593 0.174385 0.384911
O O7 0.267162 0.238362 0.102763
O O8 0.000000 0.197483 0.657274
#
# Coordination Sequence:
#
# PCOD9359474 Si02
#       4
#     2   8   8   8
#     4  12  26  48  70  94 124 186 234 274 314 382
#     4  11  25  46  69  97 134 175 222 274 327 391
#     4  11  23  39  64  99 137 172 209 268 341 402
#     4  12  23  37  65 102 137 170 211 269 338 402
#
# _framework density 19.884423999999999
#
# number of rings (size 3 to 8) (size 9 to 14) (size 15 to 20)
#    0.000    0.615    4.615    4.154    4.308    0.000 
#    0.000    3.077    0.000    3.692    0.000    0.000 
#    0.000    0.000    0.000    0.000    0.000    0.000 
#
# Total GULP energy -72396.725862 kJ/mol
# GULP energy per Si atom -5568.978912 kJ/mol
# Density = 1.983917 g / cm^3
# Si number density = 19.884424 Si / 1000 Ang^3
#
#
#
# Elastic Constant Matrix: (Units=GPa)
#
#
# Indices 1 2 3 4 5 6 
#
# 1 93.6719 23.0086 -9.2152 0.0000 0.0000 0.0000
# 2 23.0086 62.6190 -14.2115 0.0000 0.0000 0.0000
# 3 -9.2152 -14.2115 61.0155 0.0000 0.0000 0.0000
# 4 0.0000 0.0000 0.0000 -6.2867 0.0000 0.0000
# 5 0.0000 0.0000 0.0000 0.0000 25.1409 0.0000
# 6 0.0000 0.0000 0.0000 0.0000 0.0000 81.6702
#
#
#
# Elastic Compliance Matrix: (Units=1/GPa)
#
#
# Indices 1 2 3 4 5 6 
#
# 1 0.011773 -0.004141 0.000814 0.000000 0.000000 0.000000
# 2 -0.004141 0.018318 0.003641 0.000000 0.000000 0.000000
# 3 0.000814 0.003641 0.017360 0.000000 0.000000 0.000000
# 4 0.000000 0.000000 0.000000 -0.159066 0.000000 0.000000
# 5 0.000000 0.000000 0.000000 0.000000 0.039776 0.000000
# 6 0.000000 0.000000 0.000000 0.000000 0.000000 0.012244
#
#
# Mechanical properties :
#
#
# Convention : Reuss Voigt Hill
#
# Bulk Modulus (GPa) = 20.79984 24.05225 22.42604
# Shear Modulus (GPa) = -113.13076 34.61984 -39.25546
#
# Velocity S-wave (km/s) = -7.55100 4.17712 -4.44800
# Velocity P-wave (km/s) = 8.09571 5.94867 3.88290
#
# Compressibility (1/GPa) = 0.04807730
#
# Stress axis : x y z
#
# Youngs Moduli (GPa) = 84.94173 54.59243 57.60301
#
# Poissons Ratio (x) = 0.22608 -0.04686
# Poissons Ratio (y) = 0.35176 -0.20973
# Poissons Ratio (z) = -0.06910 -0.19877
#
# Static dielectric constant tensor:
#      x y z
#    x 1.688740 0.000000 0.000000 
#    y 0.000000 1.673160 0.000000 
#    z 0.000000 0.000000 1.703050 
# 
# From -- ./inp_files/2853.got.cif
#   From: 2010.05.17/outbox.cif.g08.bks.cpg/sg38_2_cif.got.tgz:2853.got - 2010.06.03 18:07:57.
