data_PCOD9359671
_publ_section_title
;
Structure prediction by ZEFSAII (Michael W. Deem and Ramdas Pophale) SiO2 
 PCOD9359671
Probable space group: A B M 2
;
_chemical_formula_sum "Si O2"
_cell_formula_units_Z 64
_cell_length_a 22.095624
_cell_length_b 8.714151
_cell_length_c 14.829211
_cell_angle_alpha 90.000000
_cell_angle_beta 90.000000
_cell_angle_gamma 90.000000
_cell_volume 2855.284559
_symmetry_space_group_name_H-M "A B M 2"
_symmetry_group_IT_number 39
_symmetry_cell_setting 'orthorhombic'
loop_
_space_group_symop_operation_xyz
x,y,z
-x,-y,z
-x,1/2+y,z
x,1/2-y,z
x,1/2+y,1/2+z
-x,1/2-y,1/2+z
-x,y,1/2+z
x,-y,1/2+z
loop_
_atom_site_type_symbol
_atom_site_label
_atom_site_fract_x
_atom_site_fract_y
_atom_site_fract_z
Si Si1 0.182664 0.433640 0.655260
Si Si2 0.308598 0.929021 0.189967
Si Si3 0.940185 0.920986 0.204587
Si Si4 0.060674 0.580340 0.917780
Si Si5 0.562116 0.064718 0.187663
Si Si6 0.439004 0.067196 0.983714
Si Si7 0.188473 0.070602 0.958520
Si Si8 0.314540 0.571609 0.969131
O O1 0.188154 0.250000 0.637634
O O2 0.241275 0.483945 0.713578
O O3 0.118002 0.472147 0.695244
O O4 0.185440 0.531471 0.564411
O O5 0.310302 0.750000 0.214743
O O6 0.372672 0.994439 0.223110
O O7 0.309919 0.938886 0.079563
O O8 0.929856 0.750000 0.166248
O O9 0.949930 0.903348 0.311191
O O10 0.000000 0.000000 0.166024
O O11 0.067973 0.750000 0.958704
O O12 0.124112 0.492430 0.925302
O O13 0.000000 0.500000 0.954309
O O14 0.560750 0.250000 0.190824
O O15 0.500000 0.000000 0.227706
O O16 0.562165 0.010468 0.083133
O O17 0.443773 0.250000 0.991312
O O18 0.500000 0.000000 0.939707
O O19 0.374433 0.021638 0.941937
O O20 0.192994 0.250000 0.939823
O O21 0.251433 0.990473 0.929890
O O22 0.322383 0.750000 0.947680
#
# Coordination Sequence:
#
# PCOD9359671 Si02
#       8
#     8   8   8   8   8   8   8   8
#     4  10  19  33  52  73 100 133 166 201 245 292
#     4   7  13  24  38  56  82 117 152 188 231 279
#     4  10  21  37  56  77 100 127 161 201 245 294
#     4  10  21  38  57  76 100 129 161 200 246 294
#     4   9  14  21  32  49  76 112 153 192 232 279
#     4  10  16  22  33  52  79 115 157 197 238 285
#     4  11  21  33  51  76 103 131 166 204 245 296
#     4   9  16  28  42  59  87 122 158 197 243 289
#
# _framework density 22.414580000000001
#
# number of rings (size 3 to 8) (size 9 to 14) (size 15 to 20)
#    0.000    2.500    0.000    6.375    0.000    2.000 
#    0.000    4.375    0.000    0.000    0.000    0.000 
#    0.000    1.000    0.000    5.250    0.000   13.375 
#
# Total GULP energy -178441.784627 kJ/mol
# GULP energy per Si atom -5576.305770 kJ/mol
# Density = 2.236356 g / cm^3
# Si number density = 22.414580 Si / 1000 Ang^3
#
#
#
# Elastic Constant Matrix: (Units=GPa)
#
#
# Indices 1 2 3 4 5 6 
#
# 1 230.8536 51.0574 -4.2724 0.0000 0.0000 0.0000
# 2 51.0574 98.6915 -14.3105 0.0000 0.0000 0.0000
# 3 -4.2724 -14.3105 35.0576 0.0000 0.0000 0.0000
# 4 0.0000 0.0000 0.0000 107.1905 0.0000 0.0000
# 5 0.0000 0.0000 0.0000 0.0000 20.0304 0.0000
# 6 0.0000 0.0000 0.0000 0.0000 0.0000 36.0392
#
#
#
# Elastic Compliance Matrix: (Units=1/GPa)
#
#
# Indices 1 2 3 4 5 6 
#
# 1 0.004899 -0.002602 -0.000465 0.000000 0.000000 0.000000
# 2 -0.002602 0.012152 0.004643 0.000000 0.000000 0.000000
# 3 -0.000465 0.004643 0.030363 0.000000 0.000000 0.000000
# 4 0.000000 0.000000 0.000000 0.009329 0.000000 0.000000
# 5 0.000000 0.000000 0.000000 0.000000 0.049924 0.000000
# 6 0.000000 0.000000 0.000000 0.000000 0.000000 0.027748
#
#
# Mechanical properties :
#
#
# Convention : Reuss Voigt Hill
#
# Bulk Modulus (GPa) = 19.77583 47.72798 33.75191
# Shear Modulus (GPa) = 33.75716 54.79389 44.27553
#
# Velocity S-wave (km/s) = 3.88498 4.94962 4.44926
# Velocity P-wave (km/s) = 5.38201 7.34877 6.44090
#
# Compressibility (1/GPa) = 0.05056677
#
# Stress axis : x y z
#
# Youngs Moduli (GPa) = 204.14217 82.29219 32.93464
#
# Poissons Ratio (x) = 0.21410 0.01532
# Poissons Ratio (y) = 0.53111 -0.15293
# Poissons Ratio (z) = 0.09493 -0.38211
#
# Static dielectric constant tensor:
#      x y z
#    x 1.901220 0.000000 0.000000 
#    y 0.000000 1.426450 0.000000 
#    z 0.000000 0.000000 1.858040 
# 
# From -- ./inp_files/13190.got.cif
#   From: 2010.05.17/outbox.cif.g08.bks.cpg/sg39_7_cif.got.tgz:13190.got - 2010.06.03 18:22:40.
