data_PCOD9359430
_publ_section_title
;
Structure prediction by ZEFSAII (Michael W. Deem and Ramdas Pophale) SiO2 
 PCOD9359430
Probable space group: A M M 2
;
_chemical_formula_sum "Si O2"
_cell_formula_units_Z 40
_cell_length_a 13.242005
_cell_length_b 7.848482
_cell_length_c 19.005446
_cell_angle_alpha 90.000000
_cell_angle_beta 90.000000
_cell_angle_gamma 90.000000
_cell_volume 1975.229121
_symmetry_space_group_name_H-M "A M M 2"
_symmetry_group_IT_number 38
_symmetry_cell_setting 'orthorhombic'
loop_
_space_group_symop_operation_xyz
x,y,z
-x,-y,z
-x,y,z
x,-y,z
x,1/2+y,1/2+z
-x,1/2-y,1/2+z
-x,1/2+y,1/2+z
x,1/2-y,1/2+z
loop_
_atom_site_type_symbol
_atom_site_label
_atom_site_fract_x
_atom_site_fract_y
_atom_site_fract_z
Si Si1 0.500000 0.200129 0.792440
Si Si2 0.113743 0.794357 0.797008
Si Si3 0.886084 0.207904 0.635466
Si Si4 0.500000 0.291138 0.133384
Si Si5 0.691795 0.298996 0.885512
Si Si6 0.696089 0.709072 0.044988
O O1 0.500000 0.274164 0.713515
O O2 0.599828 0.241565 0.836569
O O3 0.500000 0.000000 0.781944
O O4 0.134333 0.739881 0.716295
O O5 0.201636 0.737864 0.848649
O O6 0.000000 0.737067 0.815954
O O7 0.113191 0.000000 0.796801
O O8 0.799159 0.265097 0.582822
O O9 0.000000 0.261691 0.616767
O O10 0.885559 0.000000 0.635209
O O11 0.500000 0.500000 0.133863
O O12 0.399992 0.239053 0.091303
O O13 0.680627 0.500000 0.892222
O O14 0.687823 0.228809 0.964864
O O15 0.697289 0.500000 0.044299
#
# Coordination Sequence:
#
# PCOD9359430 Si02
#       6
#     4   8   8   4   8   8
#     4  11  22  37  59  79  98 133 178 218 256 305
#     4   9  18  34  56  79 104 138 179 218 253 296
#     4   8  14  27  49  74  97 127 174 222 250 278
#     4   9  17  31  53  75  92 121 172 222 252 285
#     4  11  22  34  52  80 112 139 164 207 267 319
#     4   9  17  29  47  73 102 129 163 211 259 298
#
# _framework density 20.250816
#
# number of rings (size 3 to 8) (size 9 to 14) (size 15 to 20)
#    0.000    2.600    0.000    3.900    0.000    6.000 
#    0.000    2.000    0.000   16.800    0.000    0.000 
#    0.000    0.000    0.000    0.000    0.000    0.000 
#
# Total GULP energy -111643.974402 kJ/mol
# GULP energy per Si atom -5582.198720 kJ/mol
# Density = 2.020472 g / cm^3
# Si number density = 20.250816 Si / 1000 Ang^3
#
#
#
# Elastic Constant Matrix: (Units=GPa)
#
#
# Indices 1 2 3 4 5 6 
#
# 1 177.9082 3.3437 139.6002 0.0000 0.0000 0.0000
# 2 3.3437 20.9039 8.3170 0.0000 0.0000 0.0000
# 3 139.6002 8.3170 202.6965 0.0000 0.0000 0.0000
# 4 0.0000 0.0000 0.0000 18.0612 0.0000 0.0000
# 5 0.0000 0.0000 0.0000 0.0000 -16.6063 0.0000
# 6 0.0000 0.0000 0.0000 0.0000 0.0000 -284.3950
#
#
#
# Elastic Compliance Matrix: (Units=1/GPa)
#
#
# Indices 1 2 3 4 5 6 
#
# 1 0.012272 0.001423 -0.008510 0.000000 0.000000 0.000000
# 2 0.001423 0.048797 -0.002982 0.000000 0.000000 0.000000
# 3 -0.008510 -0.002982 0.010917 0.000000 0.000000 0.000000
# 4 0.000000 0.000000 0.000000 0.055367 0.000000 0.000000
# 5 0.000000 0.000000 0.000000 0.000000 -0.060218 0.000000
# 6 0.000000 0.000000 0.000000 0.000000 0.000000 -0.003516
#
#
# Mechanical properties :
#
#
# Convention : Reuss Voigt Hill
#
# Bulk Modulus (GPa) = 19.28760 78.22560 48.75660
# Shear Modulus (GPa) = 49.48523 -39.90485 4.79019
#
# Velocity S-wave (km/s) = 4.94866 -4.44388 1.53966
# Velocity P-wave (km/s) = 6.49595 3.51873 5.22392
#
# Compressibility (1/GPa) = 0.05184679
#
# Stress axis : x y z
#
# Youngs Moduli (GPa) = 81.48698 20.49310 91.60045
#
# Poissons Ratio (x) = -0.02916 0.77954
# Poissons Ratio (y) = -0.11596 0.27318
# Poissons Ratio (z) = 0.69347 0.06112
#
# Static dielectric constant tensor:
#      x y z
#    x 1.675370 0.000000 0.000000 
#    y 0.000000 1.755470 0.000000 
#    z 0.000000 0.000000 1.718040 
# 
# From -- ./inp_files/14314.got.cif
#   From: 2010.05.17/outbox.cif.g08.bks.cpg/sg38_8_cif.got.tgz:14314.got - 2010.06.03 18:07:57.
