data_PCOD9359311
_publ_section_title
;
Structure prediction by ZEFSAII (Michael W. Deem and Ramdas Pophale) SiO2 
 PCOD9359311
Probable space group: A M M 2
;
_chemical_formula_sum "Si O2"
_cell_formula_units_Z 56
_cell_length_a 20.479084
_cell_length_b 14.908874
_cell_length_c 9.404109
_cell_angle_alpha 90.000000
_cell_angle_beta 90.000000
_cell_angle_gamma 90.000000
_cell_volume 2871.263340
_symmetry_space_group_name_H-M "A M M 2"
_symmetry_group_IT_number 38
_symmetry_cell_setting 'orthorhombic'
loop_
_space_group_symop_operation_xyz
x,y,z
-x,-y,z
-x,y,z
x,-y,z
x,1/2+y,1/2+z
-x,1/2-y,1/2+z
-x,1/2+y,1/2+z
x,1/2-y,1/2+z
loop_
_atom_site_type_symbol
_atom_site_label
_atom_site_fract_x
_atom_site_fract_y
_atom_site_fract_z
Si Si1 0.426545 0.104499 0.313570
Si Si2 0.130877 0.107296 0.727123
Si Si3 0.868942 0.106982 0.065532
Si Si4 0.000000 0.109139 0.233222
Si Si5 0.425856 0.105444 0.970588
Si Si6 0.234258 0.254533 0.109176
Si Si7 0.000000 0.390872 0.059335
Si Si8 0.325832 0.749462 0.359385
O O1 0.500000 0.130546 0.356783
O O2 0.372328 0.165905 0.382641
O O3 0.417371 0.000000 0.346103
O O4 0.422664 0.114297 0.142056
O O5 0.190022 0.162958 0.659864
O O6 0.064835 0.134662 0.645164
O O7 0.140077 0.000000 0.708804
O O8 0.124612 0.123747 0.896218
O O9 0.808987 0.165011 0.123832
O O10 0.934875 0.134218 0.147686
O O11 0.859028 0.000000 0.084903
O O12 0.000000 0.141618 0.396261
O O13 0.000000 0.000000 0.237449
O O14 0.500000 0.132017 0.927244
O O15 0.369247 0.163783 0.900299
O O16 0.417941 0.000000 0.938160
O O17 0.300571 0.252846 0.199077
O O18 0.259544 0.258163 0.948727
O O19 0.000000 0.500000 0.054877
#
# Coordination Sequence:
#
# PCOD9359311 Si02
#       8
#     8   8   8   4   8   8   4   8
#     4   9  19  38  64  91 118 154 200 246 295 352
#     4  10  22  42  63  85 119 159 200 249 301 353
#     4  10  22  42  64  85 117 160 204 246 294 359
#     4   9  19  36  63  94 116 148 200 254 303 349
#     4   9  19  38  65  91 116 155 203 245 291 353
#     4  12  26  39  58  89 124 161 202 242 292 361
#     4   9  19  36  63  94 118 148 196 256 309 343
#     4  12  23  40  59  88 125 159 197 243 298 352
#
# _framework density 19.503610999999999
#
# number of rings (size 3 to 8) (size 9 to 14) (size 15 to 20)
#    0.000    1.857    2.857    1.714    2.000    4.571 
#    0.000    0.000    0.000    1.714    0.000    0.000 
#    0.000    0.000    0.000    0.000    0.000    0.000 
#
# Total GULP energy -156359.339460 kJ/mol
# GULP energy per Si atom -5584.262124 kJ/mol
# Density = 1.945922 g / cm^3
# Si number density = 19.503611 Si / 1000 Ang^3
#
#
#
# Elastic Constant Matrix: (Units=GPa)
#
#
# Indices 1 2 3 4 5 6 
#
# 1 116.6902 60.6877 19.8687 0.0000 0.0000 0.0000
# 2 60.6877 74.7297 28.0082 0.0000 0.0000 0.0000
# 3 19.8687 28.0082 46.6479 0.0000 0.0000 0.0000
# 4 0.0000 0.0000 0.0000 22.6060 0.0000 0.0000
# 5 0.0000 0.0000 0.0000 0.0000 30.7823 0.0000
# 6 0.0000 0.0000 0.0000 0.0000 0.0000 1437.8168
#
#
#
# Elastic Compliance Matrix: (Units=1/GPa)
#
#
# Indices 1 2 3 4 5 6 
#
# 1 0.014886 -0.012533 0.001185 0.000000 0.000000 0.000000
# 2 -0.012533 0.027819 -0.011365 0.000000 0.000000 0.000000
# 3 0.001185 -0.011365 0.027756 0.000000 0.000000 0.000000
# 4 0.000000 0.000000 0.000000 0.044236 0.000000 0.000000
# 5 0.000000 0.000000 0.000000 0.000000 0.032486 0.000000
# 6 0.000000 0.000000 0.000000 0.000000 0.000000 0.000695
#
#
# Mechanical properties :
#
#
# Convention : Reuss Voigt Hill
#
# Bulk Modulus (GPa) = 39.94418 50.57746 45.26082
# Shear Modulus (GPa) = 24.79539 306.87457 165.83498
#
# Velocity S-wave (km/s) = 3.56943 12.55723 9.23106
# Velocity P-wave (km/s) = 6.12476 15.36991 11.69929
#
# Compressibility (1/GPa) = 0.02503494
#
# Stress axis : x y z
#
# Youngs Moduli (GPa) = 67.17703 35.94671 36.02783
#
# Poissons Ratio (x) = 0.45052 -0.04268
# Poissons Ratio (y) = 0.84192 0.40945
# Poissons Ratio (z) = -0.07958 0.40853
#
# Static dielectric constant tensor:
#      x y z
#    x 1.656830 0.000000 0.000000 
#    y 0.000000 1.668540 0.000000 
#    z 0.000000 0.000000 1.654030 
# 
# From -- ./inp_files/6762.got.cif
#   From: 2010.05.17/outbox.cif.g08.bks.cpg/sg38_4_cif.got.tgz:6762.got - 2010.06.03 18:07:57.
