data_PCOD9359268
_publ_section_title
;
Structure prediction by ZEFSAII (Michael W. Deem and Ramdas Pophale) SiO2 
 PCOD9359268
Probable space group: A M M 2
;
_chemical_formula_sum "Si O2"
_cell_formula_units_Z 40
_cell_length_a 17.981293
_cell_length_b 8.733398
_cell_length_c 13.305655
_cell_angle_alpha 90.000000
_cell_angle_beta 90.000000
_cell_angle_gamma 90.000000
_cell_volume 2089.490633
_symmetry_space_group_name_H-M "A M M 2"
_symmetry_group_IT_number 38
_symmetry_cell_setting 'orthorhombic'
loop_
_space_group_symop_operation_xyz
x,y,z
-x,-y,z
-x,y,z
x,-y,z
x,1/2+y,1/2+z
-x,1/2-y,1/2+z
-x,1/2+y,1/2+z
x,1/2-y,1/2+z
loop_
_atom_site_type_symbol
_atom_site_label
_atom_site_fract_x
_atom_site_fract_y
_atom_site_fract_z
Si Si1 0.172465 0.258268 0.733960
Si Si2 0.299648 0.828088 0.384736
Si Si3 0.088611 0.500000 0.597918
Si Si4 0.704159 0.818311 0.092751
Si Si5 0.412375 0.683360 0.227135
Si Si6 0.910225 0.000000 0.860411
O O1 0.225340 0.335419 0.817447
O O2 0.119743 0.358690 0.662739
O O3 0.236957 0.213234 0.654010
O O4 0.123822 0.140945 0.797795
O O5 0.286421 0.715147 0.476619
O O6 0.365908 0.760202 0.317272
O O7 0.317779 0.000000 0.419345
O O8 0.111729 0.500000 0.479550
O O9 0.000000 0.500000 0.598312
O O10 0.623516 0.763698 0.129591
O O11 0.715655 0.000000 0.115212
O O12 0.500000 0.711211 0.235388
O O13 0.400263 0.500000 0.225363
O O14 0.000000 0.000000 0.856915
#
# Coordination Sequence:
#
# PCOD9359268 Si02
#       6
#     8   8   4   8   8   4
#     4  11  22  41  63  92 126 165 210 262 317 381
#     4  11  23  38  63  94 124 165 219 266 322 384
#     4  11  22  44  67  91 130 167 211 265 321 385
#     4  11  23  39  64  93 124 169 219 268 324 382
#     4  10  22  40  61  89 127 169 214 268 325 383
#     4  11  26  42  65  97 128 171 213 261 329 393
#
# _framework density 19.143422999999999
#
# number of rings (size 3 to 8) (size 9 to 14) (size 15 to 20)
#    0.000    1.200    2.000    4.800    8.400    2.400 
#    0.000    0.000    0.000    4.800    0.000    0.000 
#    0.000    0.000    0.000    0.000    0.000    0.000 
#
# Total GULP energy -111491.706392 kJ/mol
# GULP energy per Si atom -5574.585320 kJ/mol
# Density = 1.909985 g / cm^3
# Si number density = 19.143423 Si / 1000 Ang^3
#
#
#
# Elastic Constant Matrix: (Units=GPa)
#
#
# Indices 1 2 3 4 5 6 
#
# 1 128.5509 59.5671 54.7808 0.0000 0.0000 0.0000
# 2 59.5671 98.8476 54.2790 0.0000 0.0000 0.0000
# 3 54.7808 54.2790 130.3295 0.0000 0.0000 0.0000
# 4 0.0000 0.0000 0.0000 30.5639 0.0000 0.0000
# 5 0.0000 0.0000 0.0000 0.0000 16.6954 0.0000
# 6 0.0000 0.0000 0.0000 0.0000 0.0000 20.9272
#
#
#
# Elastic Compliance Matrix: (Units=1/GPa)
#
#
# Indices 1 2 3 4 5 6 
#
# 1 0.011388 -0.005490 -0.002500 0.000000 0.000000 0.000000
# 2 -0.005490 0.015763 -0.004257 0.000000 0.000000 0.000000
# 3 -0.002500 -0.004257 0.010497 0.000000 0.000000 0.000000
# 4 0.000000 0.000000 0.000000 0.032718 0.000000 0.000000
# 5 0.000000 0.000000 0.000000 0.000000 0.059897 0.000000
# 6 0.000000 0.000000 0.000000 0.000000 0.000000 0.047785
#
#
# Mechanical properties :
#
#
# Convention : Reuss Voigt Hill
#
# Bulk Modulus (GPa) = 76.02888 77.22019 76.62454
# Shear Modulus (GPa) = 24.16314 26.24404 25.20359
#
# Velocity S-wave (km/s) = 3.55662 3.70661 3.63239
# Velocity P-wave (km/s) = 7.52780 7.66445 7.59643
#
# Compressibility (1/GPa) = 0.01315290
#
# Stress axis : x y z
#
# Youngs Moduli (GPa) = 87.80875 63.44167 95.26633
#
# Poissons Ratio (x) = 0.34828 0.23821
# Poissons Ratio (y) = 0.48205 0.40557
# Poissons Ratio (z) = 0.21956 0.27008
#
# Static dielectric constant tensor:
#      x y z
#    x 1.660080 0.000000 0.000000 
#    y 0.000000 1.706590 0.000000 
#    z 0.000000 0.000000 1.665920 
# 
# From -- ./inp_files/10395.got.cif
#   From: 2010.05.17/outbox.cif.g08.bks.cpg/sg38_6_cif.got.tgz:10395.got - 2010.06.03 18:07:57.
