data_PCOD9359878
_publ_section_title
;
Structure prediction by ZEFSAII (Michael W. Deem and Ramdas Pophale) SiO2 
 PCOD9359878
Probable space group: A B M 2
;
_chemical_formula_sum "Si O2"
_cell_formula_units_Z 64
_cell_length_a 20.494160
_cell_length_b 7.698802
_cell_length_c 21.008848
_cell_angle_alpha 90.000000
_cell_angle_beta 90.000000
_cell_angle_gamma 90.000000
_cell_volume 3314.786122
_symmetry_space_group_name_H-M "A B M 2"
_symmetry_group_IT_number 39
_symmetry_cell_setting 'orthorhombic'
loop_
_space_group_symop_operation_xyz
x,y,z
-x,-y,z
-x,1/2+y,z
x,1/2-y,z
x,1/2+y,1/2+z
-x,1/2-y,1/2+z
-x,y,1/2+z
x,-y,1/2+z
loop_
_atom_site_type_symbol
_atom_site_label
_atom_site_fract_x
_atom_site_fract_y
_atom_site_fract_z
Si Si1 0.820499 0.958436 0.283360
Si Si2 0.194939 0.461422 0.424400
Si Si3 0.678925 0.457116 0.738449
Si Si4 0.161764 0.962440 0.062064
Si Si5 0.691013 0.541028 0.595979
Si Si6 0.656608 0.461516 0.959283
Si Si7 0.424783 0.958970 0.841473
Si Si8 0.924681 0.044613 0.176346
O O1 0.815090 0.750000 0.287038
O O2 0.829478 0.022530 0.355761
O O3 0.751231 0.025606 0.255986
O O4 0.879199 0.995477 0.235630
O O5 0.192458 0.250000 0.424529
O O6 0.158218 0.519637 0.488508
O O7 0.271330 0.507358 0.433058
O O8 0.681650 0.250000 0.747931
O O9 0.665020 0.487671 0.664412
O O10 0.623455 0.524757 0.786030
O O11 0.160930 0.750000 0.061272
O O12 0.233296 0.014420 0.088138
O O13 0.107413 0.026927 0.111139
O O14 0.691236 0.750000 0.594367
O O15 0.653638 0.479446 0.532554
O O16 0.654524 0.250000 0.960350
O O17 0.602591 0.522777 0.909558
O O18 0.419265 0.750000 0.842262
O O19 0.500000 0.000000 0.831109
O O20 0.920649 0.250000 0.170979
O O21 0.000000 0.000000 0.184502
#
# Coordination Sequence:
#
# PCOD9359878 Si02
#       8
#     8   8   8   8   8   8   8   8
#     4  10  18  31  54  80 103 133 169 211 259 306
#     4   8  13  26  51  78  99 124 163 207 252 300
#     4  10  19  31  50  77 107 135 168 212 260 306
#     4   8  15  28  49  76 100 125 163 209 249 294
#     4   9  16  29  52  78 100 127 166 211 255 299
#     4   8  14  28  51  75  98 127 168 210 250 303
#     4  10  20  35  52  74 103 139 176 213 257 311
#     4  11  22  36  52  74 105 139 172 210 254 309
#
# _framework density 19.30743
#
# number of rings (size 3 to 8) (size 9 to 14) (size 15 to 20)
#    0.000    2.750    2.500    1.875    0.000    0.500 
#    0.000    1.875    0.000    9.000    0.000    0.000 
#    0.000    0.000    0.000    0.000    0.000    0.000 
#
# Total GULP energy -178415.001758 kJ/mol
# GULP energy per Si atom -5575.468805 kJ/mol
# Density = 1.926349 g / cm^3
# Si number density = 19.307430 Si / 1000 Ang^3
#
#
#
# Elastic Constant Matrix: (Units=GPa)
#
#
# Indices 1 2 3 4 5 6 
#
# 1 126.5982 4.1795 106.0108 0.0000 0.0000 0.0000
# 2 4.1795 30.2045 8.5163 0.0000 0.0000 0.0000
# 3 106.0108 8.5163 199.7668 0.0000 0.0000 0.0000
# 4 0.0000 0.0000 0.0000 14.9893 0.0000 0.0000
# 5 0.0000 0.0000 0.0000 0.0000 28.6339 0.0000
# 6 0.0000 0.0000 0.0000 0.0000 0.0000 10.3855
#
#
#
# Elastic Compliance Matrix: (Units=1/GPa)
#
#
# Indices 1 2 3 4 5 6 
#
# 1 0.014217 0.000162 -0.007552 0.000000 0.000000 0.000000
# 2 0.000162 0.033512 -0.001515 0.000000 0.000000 0.000000
# 3 -0.007552 -0.001515 0.009078 0.000000 0.000000 0.000000
# 4 0.000000 0.000000 0.000000 0.066714 0.000000 0.000000
# 5 0.000000 0.000000 0.000000 0.000000 0.034924 0.000000
# 6 0.000000 0.000000 0.000000 0.000000 0.000000 0.096288
#
#
# Mechanical properties :
#
#
# Convention : Reuss Voigt Hill
#
# Bulk Modulus (GPa) = 25.64182 65.99808 45.81995
# Shear Modulus (GPa) = 17.51061 26.65927 22.08494
#
# Velocity S-wave (km/s) = 3.01481 3.71991 3.38576
# Velocity P-wave (km/s) = 5.04266 7.25998 6.25043
#
# Compressibility (1/GPa) = 0.03899880
#
# Stress axis : x y z
#
# Youngs Moduli (GPa) = 70.33732 29.83979 110.15850
#
# Poissons Ratio (x) = -0.00483 0.83187
# Poissons Ratio (y) = -0.01139 0.16685
# Poissons Ratio (z) = 0.53116 0.04520
#
# Static dielectric constant tensor:
#      x y z
#    x 1.607210 0.000000 0.000000 
#    y 0.000000 1.733870 0.000000 
#    z 0.000000 0.000000 1.708120 
# 
# From -- ./inp_files/13039.got.cif
#   From: 2010.05.17/outbox.cif.g08.bks.cpg/sg39_7_cif.got.tgz:13039.got - 2010.06.03 18:22:40.
