data_PCOD9359909
_publ_section_title
;
Structure prediction by ZEFSAII (Michael W. Deem and Ramdas Pophale) SiO2 
 PCOD9359909
Probable space group: A B M 2
;
_chemical_formula_sum "Si O2"
_cell_formula_units_Z 44
_cell_length_a 13.929980
_cell_length_b 25.957726
_cell_length_c 5.327553
_cell_angle_alpha 90.000000
_cell_angle_beta 90.000000
_cell_angle_gamma 90.000000
_cell_volume 1926.393107
_symmetry_space_group_name_H-M "A B M 2"
_symmetry_group_IT_number 39
_symmetry_cell_setting 'orthorhombic'
loop_
_space_group_symop_operation_xyz
x,y,z
-x,-y,z
-x,1/2+y,z
x,1/2-y,z
x,1/2+y,1/2+z
-x,1/2-y,1/2+z
-x,y,1/2+z
x,-y,1/2+z
loop_
_atom_site_type_symbol
_atom_site_label
_atom_site_fract_x
_atom_site_fract_y
_atom_site_fract_z
Si Si1 0.399267 0.853689 0.355750
Si Si2 0.615772 0.310619 0.854988
Si Si3 0.060321 0.857568 0.200108
Si Si4 0.378157 0.529833 0.260785
Si Si5 0.147603 0.969321 0.273072
Si Si6 0.936707 0.250000 0.318568
O O1 0.347344 0.842042 0.616262
O O2 0.501327 0.823789 0.371367
O O3 0.418591 0.913662 0.314973
O O4 0.344703 0.831692 0.115715
O O5 0.628705 0.250000 0.824175
O O6 0.111384 0.911404 0.246731
O O7 0.114870 0.804066 0.262762
O O8 0.975998 0.856252 0.412443
O O9 0.402741 0.490800 0.485350
O O10 0.262925 0.533888 0.270584
O O11 0.117636 0.996285 0.533429
O O12 0.978846 0.250000 0.602140
#
# Coordination Sequence:
#
# PCOD9359909 Si02
#       6
#     8   8   8   8   8   4
#     4  10  18  32  53  75  97 137 168 204 250 305
#     4  10  19  33  53  78 105 130 165 209 266 308
#     4  10  19  32  53  78 102 133 166 212 256 305
#     4  10  21  37  52  71 101 141 176 205 252 308
#     4  10  21  35  52  75 103 138 169 210 260 303
#     4   8  16  30  48  70  96 130 160 188 248 302
#
# _framework density 22.840612
#
# number of rings (size 3 to 8) (size 9 to 14) (size 15 to 20)
#    0.000    2.182    0.000    4.909    0.000    2.182 
#    0.000   10.909    6.000    0.000    4.727    0.000 
#    0.000    0.000    0.000    0.000    0.000    0.000 
#
# Total GULP energy -122908.151155 kJ/mol
# GULP energy per Si atom -5586.734143 kJ/mol
# Density = 2.278863 g / cm^3
# Si number density = 22.840612 Si / 1000 Ang^3
#
#
#
# Elastic Constant Matrix: (Units=GPa)
#
#
# Indices 1 2 3 4 5 6 
#
# 1 33.0112 21.6853 13.3644 0.0000 0.0000 0.0000
# 2 21.6853 130.7516 -18.8041 0.0000 0.0000 0.0000
# 3 13.3644 -18.8041 123.2065 0.0000 0.0000 0.0000
# 4 0.0000 0.0000 0.0000 43.1732 0.0000 0.0000
# 5 0.0000 0.0000 0.0000 0.0000 1.0323 0.0000
# 6 0.0000 0.0000 0.0000 0.0000 0.0000 -15.0679
#
#
#
# Elastic Compliance Matrix: (Units=1/GPa)
#
#
# Indices 1 2 3 4 5 6 
#
# 1 0.036819 -0.006831 -0.005036 0.000000 0.000000 0.000000
# 2 -0.006831 0.009087 0.002128 0.000000 0.000000 0.000000
# 3 -0.005036 0.002128 0.008988 0.000000 0.000000 0.000000
# 4 0.000000 0.000000 0.000000 0.023163 0.000000 0.000000
# 5 0.000000 0.000000 0.000000 0.000000 0.968755 0.000000
# 6 0.000000 0.000000 0.000000 0.000000 0.000000 -0.066366
#
#
# Mechanical properties :
#
#
# Convention : Reuss Voigt Hill
#
# Bulk Modulus (GPa) = 28.23676 35.49561 31.86618
# Shear Modulus (GPa) = 4.94204 23.87574 14.40889
#
# Velocity S-wave (km/s) = 1.47255 3.23665 2.51439
# Velocity P-wave (km/s) = 3.90904 5.43527 4.73406
#
# Compressibility (1/GPa) = 0.03541483
#
# Stress axis : x y z
#
# Youngs Moduli (GPa) = 27.16000 110.04737 111.26552
#
# Poissons Ratio (x) = 0.75171 0.56037
# Poissons Ratio (y) = 0.18552 -0.23675
# Poissons Ratio (z) = 0.13679 -0.23416
#
# Static dielectric constant tensor:
#      x y z
#    x 1.867610 0.000000 0.000000 
#    y 0.000000 1.607950 0.000000 
#    z 0.000000 0.000000 1.923970 
# 
# From -- ./inp_files/792.got.cif
#   From: 2010.05.17/outbox.cif.g08.bks.cpg/sg39_1_cif.got.tgz:792.got - 2010.06.03 18:22:40.
