data_PCOD9359465
_publ_section_title
;
Structure prediction by ZEFSAII (Michael W. Deem and Ramdas Pophale) SiO2 
 PCOD9359465
Probable space group: A M M 2
;
_chemical_formula_sum "Si O2"
_cell_formula_units_Z 48
_cell_length_a 7.359497
_cell_length_b 9.141159
_cell_length_c 36.788918
_cell_angle_alpha 90.000000
_cell_angle_beta 90.000000
_cell_angle_gamma 90.000000
_cell_volume 2474.949892
_symmetry_space_group_name_H-M "A M M 2"
_symmetry_group_IT_number 38
_symmetry_cell_setting 'orthorhombic'
loop_
_space_group_symop_operation_xyz
x,y,z
-x,-y,z
-x,y,z
x,-y,z
x,1/2+y,1/2+z
-x,1/2-y,1/2+z
-x,1/2+y,1/2+z
x,1/2-y,1/2+z
loop_
_atom_site_type_symbol
_atom_site_label
_atom_site_fract_x
_atom_site_fract_y
_atom_site_fract_z
Si Si1 0.219475 0.326990 0.654320
Si Si2 0.783044 0.824448 0.074286
Si Si3 0.500000 0.822381 0.438810
Si Si4 0.500000 0.323767 0.022420
Si Si5 0.778380 0.670691 0.733147
Si Si6 0.212560 0.824772 0.379753
Si Si7 0.778379 0.168038 0.805889
O O1 0.262712 0.500000 0.654989
O O2 0.277980 0.272395 0.614763
O O3 0.280700 0.269005 0.693585
O O4 0.000000 0.316175 0.653853
O O5 0.673014 0.740620 0.043646
O O6 0.000000 0.803086 0.071093
O O7 0.750098 0.000000 0.072199
O O8 0.500000 0.774220 0.480393
O O9 0.327042 0.777476 0.414715
O O10 0.500000 0.000000 0.439944
O O11 0.500000 0.500000 0.023713
O O12 0.727057 0.500000 0.735972
O O13 0.717001 0.756587 0.768618
O O14 0.000000 0.674055 0.733002
O O15 0.277265 0.751303 0.342427
O O16 0.000000 0.791252 0.384672
O O17 0.231011 0.000000 0.375809
O O18 0.000000 0.173238 0.805457
O O19 0.723260 0.000000 0.807164
#
# Coordination Sequence:
#
# PCOD9359465 Si02
#       7
#     8   8   4   4   8   8   8
#     4   7  11  22  43  70  97 128 170 216 253 286
#     4   9  18  35  58  81 107 142 183 224 265 312
#     4   9  20  37  55  76  99 126 165 208 251 307
#     4  11  23  37  55  82 113 140 169 214 275 335
#     4   8  12  20  38  65  95 128 169 211 246 286
#     4   9  17  32  54  74  93 124 166 208 247 290
#     4   9  16  25  39  65 101 134 162 197 245 298
#
# _framework density 19.39433
#
# number of rings (size 3 to 8) (size 9 to 14) (size 15 to 20)
#    0.000    3.333    0.000    2.750    0.000    3.000 
#    0.000    4.583    0.000    6.000    0.000    3.500 
#    0.000    0.000    0.000    0.000    0.000    0.000 
#
# Total GULP energy -133773.201000 kJ/mol
# GULP energy per Si atom -5573.883375 kJ/mol
# Density = 1.935019 g / cm^3
# Si number density = 19.394330 Si / 1000 Ang^3
#
#
#
# Elastic Constant Matrix: (Units=GPa)
#
#
# Indices 1 2 3 4 5 6 
#
# 1 84.0424 30.6641 63.8936 0.0000 0.0000 0.0000
# 2 30.6641 40.6520 64.9492 0.0000 0.0000 0.0000
# 3 63.8936 64.9492 250.4068 0.0000 0.0000 0.0000
# 4 0.0000 0.0000 0.0000 26.7832 0.0000 0.0000
# 5 0.0000 0.0000 0.0000 0.0000 52.1637 0.0000
# 6 0.0000 0.0000 0.0000 0.0000 0.0000 7.1730
#
#
#
# Elastic Compliance Matrix: (Units=1/GPa)
#
#
# Indices 1 2 3 4 5 6 
#
# 1 0.016836 -0.009966 -0.001711 0.000000 0.000000 0.000000
# 2 -0.009966 0.047906 -0.009883 0.000000 0.000000 0.000000
# 3 -0.001711 -0.009883 0.006993 0.000000 0.000000 0.000000
# 4 0.000000 0.000000 0.000000 0.037337 0.000000 0.000000
# 5 0.000000 0.000000 0.000000 0.000000 0.019170 0.000000
# 6 0.000000 0.000000 0.000000 0.000000 0.000000 0.139411
#
#
# Mechanical properties :
#
#
# Convention : Reuss Voigt Hill
#
# Bulk Modulus (GPa) = 34.94544 77.12387 56.03466
# Shear Modulus (GPa) = 15.60987 31.59692 23.60339
#
# Velocity S-wave (km/s) = 2.84010 4.04069 3.49237
# Velocity P-wave (km/s) = 5.36771 7.84998 6.72438
#
# Compressibility (1/GPa) = 0.02861603
#
# Stress axis : x y z
#
# Youngs Moduli (GPa) = 59.39783 20.87439 142.99264
#
# Poissons Ratio (x) = 0.20803 0.24465
# Poissons Ratio (y) = 0.59194 1.41315
# Poissons Ratio (z) = 0.10162 0.20629
#
# Static dielectric constant tensor:
#      x y z
#    x 1.742240 0.000000 0.000000 
#    y 0.000000 1.643600 0.000000 
#    z 0.000000 0.000000 1.680800 
# 
# From -- ./inp_files/24301.got.cif
#   From: 2010.05.17/outbox.cif.g08.bks.cpg/sg38_13_cif.got.tgz:24301.got - 2010.06.03 18:07:57.
