data_PCOD9359096
_publ_section_title
;
Structure prediction by ZEFSAII (Michael W. Deem and Ramdas Pophale) SiO2 
 PCOD9359096
Probable space group: A M M 2
;
_chemical_formula_sum "Si O2"
_cell_formula_units_Z 48
_cell_length_a 15.911599
_cell_length_b 8.437586
_cell_length_c 18.383326
_cell_angle_alpha 90.000000
_cell_angle_beta 90.000000
_cell_angle_gamma 90.000000
_cell_volume 2468.062347
_symmetry_space_group_name_H-M "A M M 2"
_symmetry_group_IT_number 38
_symmetry_cell_setting 'orthorhombic'
loop_
_space_group_symop_operation_xyz
x,y,z
-x,-y,z
-x,y,z
x,-y,z
x,1/2+y,1/2+z
-x,1/2-y,1/2+z
-x,1/2+y,1/2+z
x,1/2-y,1/2+z
loop_
_atom_site_type_symbol
_atom_site_label
_atom_site_fract_x
_atom_site_fract_y
_atom_site_fract_z
Si Si1 0.500000 0.193321 0.819790
Si Si2 0.166089 0.189968 0.151866
Si Si3 0.332510 0.809866 0.904456
Si Si4 0.331160 0.190148 0.569376
Si Si5 0.831276 0.191945 0.320030
Si Si6 0.000000 0.193335 0.403208
Si Si7 0.500000 0.693408 0.152085
Si Si8 0.000000 0.689975 0.070957
O O1 0.583729 0.244445 0.862006
O O2 0.500000 0.245639 0.735950
O O3 0.500000 0.000000 0.819159
O O4 0.249033 0.247237 0.110404
O O5 0.167824 0.243380 0.235965
O O6 0.083091 0.251672 0.111822
O O7 0.163957 0.000000 0.151331
O O8 0.250346 0.754050 0.861421
O O9 0.333379 0.000000 0.906940
O O10 0.331765 0.745590 0.986224
O O11 0.415886 0.244723 0.610350
O O12 0.329311 0.000000 0.571106
O O13 0.916005 0.243994 0.361218
O O14 0.829454 0.000000 0.321380
O O15 0.000000 0.245503 0.487001
O O16 0.000000 0.000000 0.403124
O O17 0.500000 0.500000 0.152150
O O18 0.000000 0.500000 0.070345
#
# Coordination Sequence:
#
# PCOD9359096 Si02
#       8
#     4   8   8   8   8   4   4   4
#     4   9  19  36  57  83 116 151 188 237 296 350
#     4  11  23  39  60  87 119 155 197 245 294 345
#     4  11  22  37  59  86 117 152 192 240 293 351
#     4  11  22  38  60  85 117 156 198 243 293 351
#     4  10  21  39  61  84 114 152 192 237 290 345
#     4   9  19  37  59  81 108 147 188 227 279 336
#     4   9  19  36  59  85 114 153 198 243 292 348
#     4  11  22  37  61  89 118 157 200 239 285 348
#
# _framework density 19.448456
#
# number of rings (size 3 to 8) (size 9 to 14) (size 15 to 20)
#    0.000    1.667    0.000    4.750    0.000    5.333 
#    0.000    3.750    0.000    6.000    0.000    0.000 
#    0.000    0.000    0.000    0.000    0.000    0.000 
#
# Total GULP energy -134194.729536 kJ/mol
# GULP energy per Si atom -5591.447064 kJ/mol
# Density = 1.940419 g / cm^3
# Si number density = 19.448456 Si / 1000 Ang^3
#
#
#
# Elastic Constant Matrix: (Units=GPa)
#
#
# Indices 1 2 3 4 5 6 
#
# 1 242.3409 35.6091 147.5860 0.0000 0.0000 0.0000
# 2 35.6091 32.7615 37.9652 0.0000 0.0000 0.0000
# 3 147.5860 37.9652 242.1952 0.0000 0.0000 0.0000
# 4 0.0000 0.0000 0.0000 19.0133 0.0000 0.0000
# 5 0.0000 0.0000 0.0000 0.0000 46.8335 0.0000
# 6 0.0000 0.0000 0.0000 0.0000 0.0000 -45.5670
#
#
#
# Elastic Compliance Matrix: (Units=1/GPa)
#
#
# Indices 1 2 3 4 5 6 
#
# 1 0.006821 -0.003174 -0.003659 0.000000 0.000000 0.000000
# 2 -0.003174 0.038776 -0.004144 0.000000 0.000000 0.000000
# 3 -0.003659 -0.004144 0.007008 0.000000 0.000000 0.000000
# 4 0.000000 0.000000 0.000000 0.052595 0.000000 0.000000
# 5 0.000000 0.000000 0.000000 0.000000 0.021352 0.000000
# 6 0.000000 0.000000 0.000000 0.000000 0.000000 -0.021946
#
#
# Mechanical properties :
#
#
# Convention : Reuss Voigt Hill
#
# Bulk Modulus (GPa) = 32.62543 106.62424 69.62483
# Shear Modulus (GPa) = 36.55563 23.79846 30.17704
#
# Velocity S-wave (km/s) = 4.34016 3.50189 3.94336
# Velocity P-wave (km/s) = 6.47516 8.44358 7.52402
#
# Compressibility (1/GPa) = 0.03065093
#
# Stress axis : x y z
#
# Youngs Moduli (GPa) = 146.60268 25.78929 142.68856
#
# Poissons Ratio (x) = 0.08185 0.52211
# Poissons Ratio (y) = 0.46528 0.59134
# Poissons Ratio (z) = 0.53643 0.10688
#
# Static dielectric constant tensor:
#      x y z
#    x 1.643740 0.000000 0.000000 
#    y 0.000000 1.674010 0.000000 
#    z 0.000000 0.000000 1.650100 
# 
# From -- ./inp_files/18237.got.cif
#   From: 2010.05.17/outbox.cif.g08.bks.cpg/sg38_10_cif.got.tgz:18237.got - 2010.06.03 18:07:57.
