data_PCOD9359038
_publ_section_title
;
Structure prediction by ZEFSAII (Michael W. Deem and Ramdas Pophale) SiO2 
 PCOD9359038
Probable space group: A M M 2
;
_chemical_formula_sum "Si O2"
_cell_formula_units_Z 64
_cell_length_a 24.644488
_cell_length_b 8.127135
_cell_length_c 15.761375
_cell_angle_alpha 90.000000
_cell_angle_beta 90.000000
_cell_angle_gamma 90.000000
_cell_volume 3156.831314
_symmetry_space_group_name_H-M "A M M 2"
_symmetry_group_IT_number 38
_symmetry_cell_setting 'orthorhombic'
loop_
_space_group_symop_operation_xyz
x,y,z
-x,-y,z
-x,y,z
x,-y,z
x,1/2+y,1/2+z
-x,1/2-y,1/2+z
-x,1/2+y,1/2+z
x,1/2-y,1/2+z
loop_
_atom_site_type_symbol
_atom_site_label
_atom_site_fract_x
_atom_site_fract_y
_atom_site_fract_z
Si Si1 0.438000 0.698370 0.318690
Si Si2 0.363572 0.800146 0.973869
Si Si3 0.561985 0.198377 0.129157
Si Si4 0.940585 0.799837 0.065277
Si Si5 0.760416 0.309498 0.977957
Si Si6 0.176342 0.806087 0.814520
Si Si7 0.059168 0.800213 0.865265
Si Si8 0.827727 0.192679 0.135666
O O1 0.500000 0.756420 0.334046
O O2 0.439093 0.500000 0.322077
O O3 0.396777 0.755437 0.390823
O O4 0.422213 0.749893 0.223905
O O5 0.302330 0.739204 0.974311
O O6 0.362631 0.000000 0.973680
O O7 0.396874 0.744896 0.056874
O O8 0.500000 0.256437 0.113802
O O9 0.560904 0.000000 0.125918
O O10 0.887841 0.738727 0.114268
O O11 0.000000 0.743747 0.095633
O O12 0.939854 0.000000 0.069105
O O13 0.935898 0.758763 0.965321
O O14 0.765830 0.500000 0.999392
O O15 0.788241 0.276302 0.887402
O O16 0.791835 0.212909 0.051782
O O17 0.113939 0.743278 0.820218
O O18 0.196001 0.776901 0.719161
O O19 0.176053 0.000000 0.833364
O O20 0.000000 0.740066 0.834908
O O21 0.058109 0.000000 0.859827
O O22 0.832525 0.000000 0.154898
#
# Coordination Sequence:
#
# PCOD9359038 Si02
#       8
#     8   8   8   8   8   8   8   8
#     4   9  18  34  58  88 120 152 186 227 278 336
#     4  10  21  38  60  83 113 154 195 235 283 342
#     4   9  18  34  58  88 120 152 186 227 278 336
#     4   8  14  28  54  85 114 146 183 227 284 348
#     4  12  26  43  60  82 114 153 201 252 295 342
#     4  11  22  39  62  87 115 152 193 239 293 351
#     4   8  14  28  54  85 114 146 183 227 284 348
#     4  11  22  39  62  87 115 152 193 239 293 351
#
# _framework density 20.273495
#
# number of rings (size 3 to 8) (size 9 to 14) (size 15 to 20)
#    0.000    2.250    1.250    3.000    0.000    4.000 
#    0.000    2.500    0.000    6.750    0.000    0.000 
#    0.000    0.000    0.000    0.000    0.000    0.000 
#
# Total GULP energy -178671.525793 kJ/mol
# GULP energy per Si atom -5583.485181 kJ/mol
# Density = 2.022735 g / cm^3
# Si number density = 20.273495 Si / 1000 Ang^3
#
#
#
# Elastic Constant Matrix: (Units=GPa)
#
#
# Indices 1 2 3 4 5 6 
#
# 1 117.7737 1.3111 66.9981 0.0000 0.0000 0.0000
# 2 1.3111 19.8544 -7.6251 0.0000 0.0000 0.0000
# 3 66.9981 -7.6251 102.7428 0.0000 0.0000 0.0000
# 4 0.0000 0.0000 0.0000 24.1814 0.0000 0.0000
# 5 0.0000 0.0000 0.0000 0.0000 -7.4515 0.0000
# 6 0.0000 0.0000 0.0000 0.0000 0.0000 10.3165
#
#
#
# Elastic Compliance Matrix: (Units=1/GPa)
#
#
# Indices 1 2 3 4 5 6 
#
# 1 0.013882 -0.004522 -0.009388 0.000000 0.000000 0.000000
# 2 -0.004522 0.053317 0.006906 0.000000 0.000000 0.000000
# 3 -0.009388 0.006906 0.016367 0.000000 0.000000 0.000000
# 4 0.000000 0.000000 0.000000 0.041354 0.000000 0.000000
# 5 0.000000 0.000000 0.000000 0.000000 -0.134201 0.000000
# 6 0.000000 0.000000 0.000000 0.000000 0.000000 0.096932
#
#
# Mechanical properties :
#
#
# Convention : Reuss Voigt Hill
#
# Bulk Modulus (GPa) = 14.37643 40.19323 27.28483
# Shear Modulus (GPa) = 40.04944 17.38840 28.71892
#
# Velocity S-wave (km/s) = 4.44943 2.93181 3.76782
# Velocity P-wave (km/s) = 5.78820 5.59725 5.69353
#
# Compressibility (1/GPa) = 0.06955830
#
# Stress axis : x y z
#
# Youngs Moduli (GPa) = 72.03762 18.75559 61.09749
#
# Poissons Ratio (x) = 0.08481 0.57357
# Poissons Ratio (y) = 0.32576 -0.42193
# Poissons Ratio (z) = 0.67627 -0.12952
#
# Static dielectric constant tensor:
#      x y z
#    x 1.714800 0.000000 0.000000 
#    y 0.000000 1.705760 0.000000 
#    z 0.000000 0.000000 1.697870 
# 
# From -- ./inp_files/15789.got.cif
#   From: 2010.05.17/outbox.cif.g08.bks.cpg/sg38_8_cif.got.tgz:15789.got - 2010.06.03 18:07:57.
