data_PCOD9359905
_publ_section_title
;
Structure prediction by ZEFSAII (Michael W. Deem and Ramdas Pophale) SiO2 
 PCOD9359905
Probable space group: A B M 2
;
_chemical_formula_sum "Si O2"
_cell_formula_units_Z 64
_cell_length_a 19.847993
_cell_length_b 8.618203
_cell_length_c 21.083452
_cell_angle_alpha 90.000000
_cell_angle_beta 90.000000
_cell_angle_gamma 90.000000
_cell_volume 3606.409490
_symmetry_space_group_name_H-M "A B M 2"
_symmetry_group_IT_number 39
_symmetry_cell_setting 'orthorhombic'
loop_
_space_group_symop_operation_xyz
x,y,z
-x,-y,z
-x,1/2+y,z
x,1/2-y,z
x,1/2+y,1/2+z
-x,1/2-y,1/2+z
-x,y,1/2+z
x,-y,1/2+z
loop_
_atom_site_type_symbol
_atom_site_label
_atom_site_fract_x
_atom_site_fract_y
_atom_site_fract_z
Si Si1 0.928865 0.435331 0.107160
Si Si2 0.214416 0.938951 0.800953
Si Si3 0.572356 0.565419 0.619957
Si Si4 0.785780 0.063366 0.057090
Si Si5 0.573295 0.064857 0.477993
Si Si6 0.296054 0.935406 0.676043
Si Si7 0.927672 0.436347 0.749708
Si Si8 0.290414 0.937799 0.928049
O O1 0.933567 0.250000 0.113693
O O2 0.864848 0.472851 0.063644
O O3 0.917657 0.505870 0.177344
O O4 0.000000 0.500000 0.083315
O O5 0.213651 0.750000 0.801626
O O6 0.257561 0.986440 0.739524
O O7 0.136975 0.987761 0.790468
O O8 0.250644 0.989360 0.865338
O O9 0.500000 0.500000 0.639991
O O10 0.569894 0.750000 0.614789
O O11 0.586093 0.497416 0.549560
O O12 0.631543 0.512536 0.666141
O O13 0.778009 0.250000 0.064203
O O14 0.747924 0.982943 0.115215
O O15 0.752114 0.018950 0.990702
O O16 0.570878 0.250000 0.479632
O O17 0.500000 0.000000 0.458693
O O18 0.634983 0.006640 0.435319
O O19 0.303586 0.750000 0.677701
O O20 0.930138 0.250000 0.748915
O O21 0.000000 0.500000 0.771463
O O22 0.295771 0.750000 0.926879
#
# Coordination Sequence:
#
# PCOD9359905 Si02
#       8
#     8   8   8   8   8   8   8   8
#     4  10  19  31  49  78 108 140 180 228 280 330
#     4   9  20  36  56  80 110 149 186 224 274 329
#     4  11  21  35  55  83 113 145 182 226 277 327
#     4  10  20  33  54  80 107 140 182 227 276 327
#     4  11  21  35  56  84 111 143 183 226 274 325
#     4  11  20  34  56  82 111 141 181 228 274 325
#     4  10  18  32  52  78 105 140 182 226 275 328
#     4  10  20  38  58  79 110 148 187 225 272 330
#
# _framework density 17.746182000000001
#
# number of rings (size 3 to 8) (size 9 to 14) (size 15 to 20)
#    0.000    1.750    2.500    4.875    0.000    0.500 
#    0.000    3.750    0.000    0.000    0.000    0.000 
#    0.000    0.000    0.000    0.000    0.000    0.000 
#
# Total GULP energy -178661.424893 kJ/mol
# GULP energy per Si atom -5583.169528 kJ/mol
# Density = 1.770579 g / cm^3
# Si number density = 17.746182 Si / 1000 Ang^3
#
#
#
# Elastic Constant Matrix: (Units=GPa)
#
#
# Indices 1 2 3 4 5 6 
#
# 1 184.5061 53.3882 79.9656 0.0000 0.0000 0.0000
# 2 53.3882 69.0882 35.5083 0.0000 0.0000 0.0000
# 3 79.9656 35.5083 105.5555 0.0000 0.0000 0.0000
# 4 0.0000 0.0000 0.0000 15.3553 0.0000 0.0000
# 5 0.0000 0.0000 0.0000 0.0000 19.1934 0.0000
# 6 0.0000 0.0000 0.0000 0.0000 0.0000 26.0884
#
#
#
# Elastic Compliance Matrix: (Units=1/GPa)
#
#
# Indices 1 2 3 4 5 6 
#
# 1 0.008957 -0.004152 -0.005389 0.000000 0.000000 0.000000
# 2 -0.004152 0.019424 -0.003389 0.000000 0.000000 0.000000
# 3 -0.005389 -0.003389 0.014696 0.000000 0.000000 0.000000
# 4 0.000000 0.000000 0.000000 0.065124 0.000000 0.000000
# 5 0.000000 0.000000 0.000000 0.000000 0.052101 0.000000
# 6 0.000000 0.000000 0.000000 0.000000 0.000000 0.038331
#
#
# Mechanical properties :
#
#
# Convention : Reuss Voigt Hill
#
# Bulk Modulus (GPa) = 58.07816 77.43045 67.75430
# Shear Modulus (GPa) = 21.71724 24.81327 23.26526
#
# Velocity S-wave (km/s) = 3.50204 3.74335 3.62470
# Velocity P-wave (km/s) = 7.01074 7.90003 7.46863
#
# Compressibility (1/GPa) = 0.01721818
#
# Stress axis : x y z
#
# Youngs Moduli (GPa) = 111.64834 51.48174 68.04563
#
# Poissons Ratio (x) = 0.21374 0.36668
# Poissons Ratio (y) = 0.46354 0.23061
# Poissons Ratio (z) = 0.60164 0.17447
#
# Static dielectric constant tensor:
#      x y z
#    x 1.636190 0.000000 0.000000 
#    y 0.000000 1.602150 0.000000 
#    z 0.000000 0.000000 1.577880 
# 
# From -- ./inp_files/15075.got.cif
#   From: 2010.05.17/outbox.cif.g08.bks.cpg/sg39_8_cif.got.tgz:15075.got - 2010.06.03 18:22:40.
