data_PCOD9359533
_publ_section_title
;
Structure prediction by ZEFSAII (Michael W. Deem and Ramdas Pophale) SiO2 
 PCOD9359533
Probable space group: A M M 2
;
_chemical_formula_sum "Si O2"
_cell_formula_units_Z 64
_cell_length_a 19.958272
_cell_length_b 18.267706
_cell_length_c 10.575060
_cell_angle_alpha 90.000000
_cell_angle_beta 90.000000
_cell_angle_gamma 90.000000
_cell_volume 3855.580638
_symmetry_space_group_name_H-M "A M M 2"
_symmetry_group_IT_number 38
_symmetry_cell_setting 'orthorhombic'
loop_
_space_group_symop_operation_xyz
x,y,z
-x,-y,z
-x,y,z
x,-y,z
x,1/2+y,1/2+z
-x,1/2-y,1/2+z
-x,1/2+y,1/2+z
x,1/2-y,1/2+z
loop_
_atom_site_type_symbol
_atom_site_label
_atom_site_fract_x
_atom_site_fract_y
_atom_site_fract_z
Si Si1 0.296526 0.586165 0.379430
Si Si2 0.922220 0.410573 0.730660
Si Si3 0.843368 0.910639 0.481063
Si Si4 0.575705 0.686491 0.084274
Si Si5 0.703468 0.413835 0.081933
Si Si6 0.923036 0.410708 0.230642
Si Si7 0.424294 0.313517 0.377117
Si Si8 0.156616 0.410639 0.480238
O O1 0.306676 0.500000 0.402671
O O2 0.277513 0.593657 0.230680
O O3 0.365173 0.629046 0.399607
O O4 0.233711 0.612459 0.462838
O O5 0.923131 0.500000 0.730662
O O6 0.881724 0.387138 0.855115
O O7 0.881749 0.387138 0.606177
O O8 0.000000 0.387283 0.730684
O O9 0.766275 0.887542 0.498504
O O10 0.884767 0.887393 0.604463
O O11 0.842513 0.000000 0.481072
O O12 0.500000 0.655518 0.073352
O O13 0.634822 0.629051 0.061770
O O14 0.582399 0.712677 0.230697
O O15 0.581538 0.750006 0.980700
O O16 0.693315 0.500000 0.058696
O O17 0.922767 0.500000 0.230642
O O18 0.884770 0.387392 0.356823
O O19 0.000000 0.387094 0.230640
O O20 0.500000 0.344491 0.388034
O O21 0.157470 0.500000 0.480227
#
# Coordination Sequence:
#
# PCOD9359533 Si02
#       8
#     8   8   8   8   8   8   8   8
#     4   9  16  28  47  70  96 124 155 193 233 275
#     4   9  16  24  34  52  84 123 156 184 221 273
#     4   9  15  24  36  55  85 118 149 186 228 268
#     4   9  18  33  52  72  95 123 155 192 231 273
#     4   9  16  28  47  70  96 124 155 193 233 275
#     4   9  14  20  34  54  78 113 150 180 221 273
#     4   9  18  33  52  72  95 123 155 192 231 273
#     4   9  15  24  36  55  85 118 149 186 228 268
#
# _framework density 16.599316000000002
#
# number of rings (size 3 to 8) (size 9 to 14) (size 15 to 20)
#    0.000    3.000    1.250    0.750    0.000    3.500 
#    2.250    2.500    0.000    0.000    0.000    3.500 
#    0.000    6.000    0.000    0.000    0.000    0.000 
#
# Total GULP energy -178147.179229 kJ/mol
# GULP energy per Si atom -5567.099351 kJ/mol
# Density = 1.656154 g / cm^3
# Si number density = 16.599316 Si / 1000 Ang^3
#
#
#
# Elastic Constant Matrix: (Units=GPa)
#
#
# Indices 1 2 3 4 5 6 
#
# 1 180.9549 41.6612 96.1813 0.0000 0.0000 0.0000
# 2 41.6612 11.8326 25.4099 0.0000 0.0000 0.0000
# 3 96.1813 25.4099 128.2550 0.0000 0.0000 0.0000
# 4 0.0000 0.0000 0.0000 9.6822 0.0000 0.0000
# 5 0.0000 0.0000 0.0000 0.0000 29.4909 0.0000
# 6 0.0000 0.0000 0.0000 0.0000 0.0000 -10.0426
#
#
#
# Elastic Compliance Matrix: (Units=1/GPa)
#
#
# Indices 1 2 3 4 5 6 
#
# 1 0.029710 -0.098791 -0.002708 0.000000 0.000000 0.000000
# 2 -0.098791 0.475590 -0.020138 0.000000 0.000000 0.000000
# 3 -0.002708 -0.020138 0.013817 0.000000 0.000000 0.000000
# 4 0.000000 0.000000 0.000000 0.103283 0.000000 0.000000
# 5 0.000000 0.000000 0.000000 0.000000 0.033909 0.000000
# 6 0.000000 0.000000 0.000000 0.000000 0.000000 -0.099575
#
#
# Mechanical properties :
#
#
# Convention : Reuss Voigt Hill
#
# Bulk Modulus (GPa) = 3.62524 71.94969 37.78747
# Shear Modulus (GPa) = 5.60565 16.34542 10.97554
#
# Velocity S-wave (km/s) = 1.83967 3.14140 2.57418
# Velocity P-wave (km/s) = 2.58867 7.52310 5.62575
#
# Compressibility (1/GPa) = 0.27584365
#
# Stress axis : x y z
#
# Youngs Moduli (GPa) = 33.65856 2.10265 72.37243
#
# Poissons Ratio (x) = 0.20772 0.19597
# Poissons Ratio (y) = 3.32516 1.45746
# Poissons Ratio (z) = 0.09114 0.04234
#
# Static dielectric constant tensor:
#      x y z
#    x 1.565500 0.000000 0.000000 
#    y 0.000000 1.530820 0.000000 
#    z 0.000000 0.000000 1.560880 
# 
# From -- ./inp_files/6519.got.cif
#   From: 2010.05.17/outbox.cif.g08.bks.cpg/sg38_4_cif.got.tgz:6519.got - 2010.06.03 18:07:57.
