data_PCOD9359130
_publ_section_title
;
Structure prediction by ZEFSAII (Michael W. Deem and Ramdas Pophale) SiO2 
 PCOD9359130
Probable space group: A M M 2
;
_chemical_formula_sum "Si O2"
_cell_formula_units_Z 64
_cell_length_a 25.319469
_cell_length_b 8.751987
_cell_length_c 15.059961
_cell_angle_alpha 90.000000
_cell_angle_beta 90.000000
_cell_angle_gamma 90.000000
_cell_volume 3337.222051
_symmetry_space_group_name_H-M "A M M 2"
_symmetry_group_IT_number 38
_symmetry_cell_setting 'orthorhombic'
loop_
_space_group_symop_operation_xyz
x,y,z
-x,-y,z
-x,y,z
x,-y,z
x,1/2+y,1/2+z
-x,1/2-y,1/2+z
-x,1/2+y,1/2+z
x,1/2-y,1/2+z
loop_
_atom_site_type_symbol
_atom_site_label
_atom_site_fract_x
_atom_site_fract_y
_atom_site_fract_z
Si Si1 0.750467 0.317170 0.274090
Si Si2 0.132804 0.818513 0.269961
Si Si3 0.060694 0.182036 0.616767
Si Si4 0.556977 0.816314 0.427967
Si Si5 0.326910 0.816330 0.417563
Si Si6 0.332600 0.316776 0.125990
Si Si7 0.557294 0.317558 0.626588
Si Si8 0.939008 0.817832 0.921476
O O1 0.756492 0.500000 0.272657
O O2 0.807443 0.240435 0.273485
O O3 0.716599 0.266936 0.359410
O O4 0.715687 0.269895 0.188402
O O5 0.101686 0.743471 0.188028
O O6 0.101398 0.766303 0.357465
O O7 0.131755 0.000000 0.261778
O O8 0.068223 0.263416 0.522372
O O9 0.000000 0.211849 0.645960
O O10 0.066408 0.000000 0.606076
O O11 0.500000 0.783066 0.384287
O O12 0.613288 0.777377 0.385393
O O13 0.556560 0.734065 0.523354
O O14 0.558808 0.000000 0.443193
O O15 0.324420 0.774815 0.522330
O O16 0.319957 0.000000 0.410292
O O17 0.336734 0.500000 0.128152
O O18 0.388086 0.250835 0.161057
O O19 0.500000 0.267228 0.663766
O O20 0.559658 0.500000 0.633545
O O21 0.000000 0.782701 0.896640
O O22 0.931924 0.000000 0.914513
#
# Coordination Sequence:
#
# PCOD9359130 Si02
#       8
#     8   8   8   8   8   8   8   8
#     4  11  24  41  58  79 109 146 193 242 286 336
#     4  12  25  40  60  86 119 159 200 243 290 338
#     4  10  21  39  64  94 127 160 193 233 284 341
#     4   8  14  27  49  75 104 140 177 214 267 338
#     4   9  18  35  57  80 107 141 183 229 281 340
#     4   9  20  38  58  77 104 145 184 224 279 341
#     4   9  16  26  46  78 109 135 170 221 276 329
#     4  10  21  39  64  94 126 158 194 237 285 338
#
# _framework density 19.177627999999999
#
# number of rings (size 3 to 8) (size 9 to 14) (size 15 to 20)
#    0.000    2.250    0.000    3.750    0.000    7.750 
#    0.000    4.375    0.000    2.250    0.000    0.000 
#    0.000    0.000    0.000    0.000    0.000    0.000 
#
# Total GULP energy -178606.949450 kJ/mol
# GULP energy per Si atom -5581.467170 kJ/mol
# Density = 1.913398 g / cm^3
# Si number density = 19.177628 Si / 1000 Ang^3
#
#
#
# Elastic Constant Matrix: (Units=GPa)
#
#
# Indices 1 2 3 4 5 6 
#
# 1 124.7593 21.0789 36.2383 0.0000 0.0000 0.0000
# 2 21.0789 23.9001 3.6857 0.0000 0.0000 0.0000
# 3 36.2383 3.6857 57.4623 0.0000 0.0000 0.0000
# 4 0.0000 0.0000 0.0000 25.2173 0.0000 0.0000
# 5 0.0000 0.0000 0.0000 0.0000 116.7122 0.0000
# 6 0.0000 0.0000 0.0000 0.0000 0.0000 29.3111
#
#
#
# Elastic Compliance Matrix: (Units=1/GPa)
#
#
# Indices 1 2 3 4 5 6 
#
# 1 0.011489 -0.009105 -0.006661 0.000000 0.000000 0.000000
# 2 -0.009105 0.049475 0.002569 0.000000 0.000000 0.000000
# 3 -0.006661 0.002569 0.021439 0.000000 0.000000 0.000000
# 4 0.000000 0.000000 0.000000 0.039655 0.000000 0.000000
# 5 0.000000 0.000000 0.000000 0.000000 0.008568 0.000000
# 6 0.000000 0.000000 0.000000 0.000000 0.000000 0.034117
#
#
# Mechanical properties :
#
#
# Convention : Reuss Voigt Hill
#
# Bulk Modulus (GPa) = 17.85482 36.45860 27.15671
# Shear Modulus (GPa) = 23.83136 43.92270 33.87703
#
# Velocity S-wave (km/s) = 3.52897 4.79091 4.20752
# Velocity P-wave (km/s) = 5.09267 7.04670 6.14782
#
# Compressibility (1/GPa) = 0.05600729
#
# Stress axis : x y z
#
# Youngs Moduli (GPa) = 87.04191 20.21215 46.64426
#
# Poissons Ratio (x) = 0.18404 0.31071
# Poissons Ratio (y) = 0.79255 -0.11982
# Poissons Ratio (z) = 0.57981 -0.05192
#
# Static dielectric constant tensor:
#      x y z
#    x 1.671990 0.000000 0.000000 
#    y 0.000000 1.637670 0.000000 
#    z 0.000000 0.000000 1.678880 
# 
# From -- ./inp_files/15872.got.cif
#   From: 2010.05.17/outbox.cif.g08.bks.cpg/sg38_8_cif.got.tgz:15872.got - 2010.06.03 18:07:57.
