data_PCOD9359377
_publ_section_title
;
Structure prediction by ZEFSAII (Michael W. Deem and Ramdas Pophale) SiO2 
 PCOD9359377
Probable space group: A M M 2
;
_chemical_formula_sum "Si O2"
_cell_formula_units_Z 64
_cell_length_a 14.655208
_cell_length_b 8.651253
_cell_length_c 32.345755
_cell_angle_alpha 90.000000
_cell_angle_beta 90.000000
_cell_angle_gamma 90.000000
_cell_volume 4100.986053
_symmetry_space_group_name_H-M "A M M 2"
_symmetry_group_IT_number 38
_symmetry_cell_setting 'orthorhombic'
loop_
_space_group_symop_operation_xyz
x,y,z
-x,-y,z
-x,y,z
x,-y,z
x,1/2+y,1/2+z
-x,1/2-y,1/2+z
-x,1/2+y,1/2+z
x,1/2-y,1/2+z
loop_
_atom_site_type_symbol
_atom_site_label
_atom_site_fract_x
_atom_site_fract_y
_atom_site_fract_z
Si Si1 0.288048 0.316449 0.933070
Si Si2 0.103378 0.313962 0.304568
Si Si3 0.610878 0.179101 0.102108
Si Si4 0.606768 0.814624 0.853339
Si Si5 0.896314 0.686062 0.401812
Si Si6 0.394174 0.689053 0.692181
Si Si7 0.712166 0.185086 0.273777
Si Si8 0.393375 0.187594 0.011495
O O1 0.293983 0.500000 0.932728
O O2 0.343338 0.250594 0.893749
O O3 0.183613 0.263531 0.927541
O O4 0.332680 0.250967 0.974672
O O5 0.110135 0.500000 0.301542
O O6 0.116236 0.274776 0.353180
O O7 0.183578 0.237293 0.278818
O O8 0.000000 0.269252 0.292994
O O9 0.500000 0.177501 0.102427
O O10 0.637232 0.246026 0.146768
O O11 0.641043 0.000000 0.101926
O O12 0.636278 0.244864 0.057284
O O13 0.500000 0.771334 0.853293
O O14 0.656061 0.753566 0.812293
O O15 0.613637 0.000000 0.854260
O O16 0.888738 0.500000 0.404990
O O17 0.000000 0.729290 0.413333
O O18 0.500000 0.733961 0.698785
O O19 0.393298 0.500000 0.690615
O O20 0.332760 0.737373 0.730652
O O21 0.706416 0.000000 0.275755
O O22 0.500000 0.229691 0.005119
O O23 0.389763 0.000000 0.011689
#
# Coordination Sequence:
#
# PCOD9359377 Si02
#       8
#     8   8   8   8   8   8   8   8
#     4  12  23  32  46  70  97 124 152 189 238 284
#     4   9  18  33  51  67  87 120 159 197 234 274
#     4   7  11  23  44  67  89 118 157 195 228 265
#     4  11  23  36  47  60  88 131 170 196 218 258
#     4   9  18  34  54  70  87 117 156 196 234 274
#     4   8  14  25  42  67  99 127 151 186 231 275
#     4  11  20  29  46  73  99 123 151 190 239 282
#     4   9  17  30  49  70  92 123 163 199 229 269
#
# _framework density 15.606004
#
# number of rings (size 3 to 8) (size 9 to 14) (size 15 to 20)
#    0.000    2.500    1.250    4.875    0.000    3.750 
#    0.000    1.250    0.000    1.500    0.000    4.375 
#    0.000    3.000    0.000    0.000    0.000    0.000 
#
# Total GULP energy -178361.373434 kJ/mol
# GULP energy per Si atom -5573.792920 kJ/mol
# Density = 1.557048 g / cm^3
# Si number density = 15.606004 Si / 1000 Ang^3
#
#
#
# Elastic Constant Matrix: (Units=GPa)
#
#
# Indices 1 2 3 4 5 6 
#
# 1 111.8045 32.2316 79.6026 0.0000 0.0000 0.0000
# 2 32.2316 24.8148 29.5218 0.0000 0.0000 0.0000
# 3 79.6026 29.5218 154.2675 0.0000 0.0000 0.0000
# 4 0.0000 0.0000 0.0000 15.7047 0.0000 0.0000
# 5 0.0000 0.0000 0.0000 0.0000 6.1234 0.0000
# 6 0.0000 0.0000 0.0000 0.0000 0.0000 12.4394
#
#
#
# Elastic Compliance Matrix: (Units=1/GPa)
#
#
# Indices 1 2 3 4 5 6 
#
# 1 0.017968 -0.015937 -0.006222 0.000000 0.000000 0.000000
# 2 -0.015937 0.066312 -0.004467 0.000000 0.000000 0.000000
# 3 -0.006222 -0.004467 0.010548 0.000000 0.000000 0.000000
# 4 0.000000 0.000000 0.000000 0.063675 0.000000 0.000000
# 5 0.000000 0.000000 0.000000 0.000000 0.163307 0.000000
# 6 0.000000 0.000000 0.000000 0.000000 0.000000 0.080389
#
#
# Mechanical properties :
#
#
# Convention : Reuss Voigt Hill
#
# Bulk Modulus (GPa) = 24.05133 63.73322 43.89227
# Shear Modulus (GPa) = 10.65392 16.82222 13.73807
#
# Velocity S-wave (km/s) = 2.61565 3.28675 2.97022
# Velocity P-wave (km/s) = 4.95653 7.43849 6.32054
#
# Compressibility (1/GPa) = 0.04157774
#
# Stress axis : x y z
#
# Youngs Moduli (GPa) = 55.65308 15.08011 94.80826
#
# Poissons Ratio (x) = 0.24033 0.58990
# Poissons Ratio (y) = 0.88693 0.42348
# Poissons Ratio (z) = 0.34627 0.06736
#
# Static dielectric constant tensor:
#      x y z
#    x 1.508250 0.000000 0.000000 
#    y 0.000000 1.531940 0.000000 
#    z 0.000000 0.000000 1.529750 
# 
# From -- ./inp_files/25033.got.cif
#   From: 2010.05.17/outbox.cif.g08.bks.cpg/sg38_13_cif.got.tgz:25033.got - 2010.06.03 18:07:57.
