data_PCOD9359105
_publ_section_title
;
Structure prediction by ZEFSAII (Michael W. Deem and Ramdas Pophale) SiO2 
 PCOD9359105
Probable space group: A M M 2
;
_chemical_formula_sum "Si O2"
_cell_formula_units_Z 48
_cell_length_a 13.703133
_cell_length_b 28.564039
_cell_length_c 5.033352
_cell_angle_alpha 90.000000
_cell_angle_beta 90.000000
_cell_angle_gamma 90.000000
_cell_volume 1970.138661
_symmetry_space_group_name_H-M "A M M 2"
_symmetry_group_IT_number 38
_symmetry_cell_setting 'orthorhombic'
loop_
_space_group_symop_operation_xyz
x,y,z
-x,-y,z
-x,y,z
x,-y,z
x,1/2+y,1/2+z
-x,1/2-y,1/2+z
-x,1/2+y,1/2+z
x,1/2-y,1/2+z
loop_
_atom_site_type_symbol
_atom_site_label
_atom_site_fract_x
_atom_site_fract_y
_atom_site_fract_z
Si Si1 0.618534 0.275127 0.422890
Si Si2 0.118713 0.219764 0.279771
Si Si3 0.388817 0.081583 0.774940
Si Si4 0.885090 0.111355 0.330628
Si Si5 0.389274 0.642530 0.783783
Si Si6 0.819217 0.947262 0.831775
O O1 0.500000 0.278871 0.415902
O O2 0.644712 0.231714 0.617018
O O3 0.657055 0.318078 0.596071
O O4 0.148711 0.241973 0.999271
O O5 0.000000 0.218921 0.283690
O O6 0.147130 0.165913 0.336395
O O7 0.500000 0.066521 0.702599
O O8 0.359311 0.123046 0.568529
O O9 0.295384 0.049090 0.762414
O O10 0.393932 0.099583 0.076873
O O11 0.868828 0.084495 0.606270
O O12 0.000000 0.111295 0.265844
O O13 0.831422 0.081405 0.104502
O O14 0.500000 0.659372 0.834230
O O15 0.859926 0.000000 0.849717
#
# Coordination Sequence:
#
# PCOD9359105 Si02
#       6
#     8   8   8   8   8   8
#     4   9  15  23  40  69 102 137 185 242 297 363
#     4   9  17  33  62  98 132 168 210 257 317 386
#     4  10  21  39  62  85 114 157 212 274 330 377
#     4  11  24  43  69 102 140 177 214 265 327 394
#     4   9  17  31  53  78 105 145 195 250 315 374
#     4  12  26  43  66  96 131 176 227 274 327 396
#
# _framework density 24.363768
#
# number of rings (size 3 to 8) (size 9 to 14) (size 15 to 20)
#    0.000    2.000    0.000    4.000    0.000    9.000 
#    0.000    0.000    0.000   25.000    0.000    0.000 
#    0.000    0.000    0.000    0.000    0.000    0.000 
#
# Total GULP energy -134074.857311 kJ/mol
# GULP energy per Si atom -5586.452388 kJ/mol
# Density = 2.430832 g / cm^3
# Si number density = 24.363768 Si / 1000 Ang^3
#
#
#
# Elastic Constant Matrix: (Units=GPa)
#
#
# Indices 1 2 3 4 5 6 
#
# 1 92.3303 1.5016 -24.6145 0.0000 0.0000 0.0000
# 2 1.5016 124.9685 16.6532 0.0000 0.0000 0.0000
# 3 -24.6145 16.6532 126.5967 0.0000 0.0000 0.0000
# 4 0.0000 0.0000 0.0000 -8.7418 0.0000 0.0000
# 5 0.0000 0.0000 0.0000 0.0000 23.5739 0.0000
# 6 0.0000 0.0000 0.0000 0.0000 0.0000 16.9145
#
#
#
# Elastic Compliance Matrix: (Units=1/GPa)
#
#
# Indices 1 2 3 4 5 6 
#
# 1 0.011447 -0.000442 0.002284 0.000000 0.000000 0.000000
# 2 -0.000442 0.008162 -0.001160 0.000000 0.000000 0.000000
# 3 0.002284 -0.001160 0.008496 0.000000 0.000000 0.000000
# 4 0.000000 0.000000 0.000000 -0.114393 0.000000 0.000000
# 5 0.000000 0.000000 0.000000 0.000000 0.042420 0.000000
# 6 0.000000 0.000000 0.000000 0.000000 0.000000 0.059121
#
#
# Mechanical properties :
#
#
# Convention : Reuss Voigt Hill
#
# Bulk Modulus (GPa) = 33.93417 36.77510 35.35464
# Shear Modulus (GPa) = 210.87848 29.70634 120.29241
#
# Velocity S-wave (km/s) = 9.31354 3.49561 7.03425
# Velocity P-wave (km/s) = 11.38483 5.60530 8.97312
#
# Compressibility (1/GPa) = 0.02946882
#
# Stress axis : x y z
#
# Youngs Moduli (GPa) = 87.36143 122.52129 117.70703
#
# Poissons Ratio (x) = 0.05414 -0.26881
# Poissons Ratio (y) = 0.03860 0.13649
# Poissons Ratio (z) = -0.19951 0.14207
#
# Static dielectric constant tensor:
#      x y z
#    x 2.020730 0.000000 0.000000 
#    y 0.000000 1.985800 0.000000 
#    z 0.000000 0.000000 1.855590 
# 
# From -- ./inp_files/1328.got.cif
#   From: 2010.05.17/outbox.cif.g08.bks.cpg/sg38_1_cif.got.tgz:1328.got - 2010.06.03 18:07:57.
