data_PCOD9359322
_publ_section_title
;
Structure prediction by ZEFSAII (Michael W. Deem and Ramdas Pophale) SiO2 
 PCOD9359322
Probable space group: A M M 2
;
_chemical_formula_sum "Si O2"
_cell_formula_units_Z 48
_cell_length_a 17.308887
_cell_length_b 15.134104
_cell_length_c 9.079878
_cell_angle_alpha 90.000000
_cell_angle_beta 90.000000
_cell_angle_gamma 90.000000
_cell_volume 2378.514865
_symmetry_space_group_name_H-M "A M M 2"
_symmetry_group_IT_number 38
_symmetry_cell_setting 'orthorhombic'
loop_
_space_group_symop_operation_xyz
x,y,z
-x,-y,z
-x,y,z
x,-y,z
x,1/2+y,1/2+z
-x,1/2-y,1/2+z
-x,1/2+y,1/2+z
x,1/2-y,1/2+z
loop_
_atom_site_type_symbol
_atom_site_label
_atom_site_fract_x
_atom_site_fract_y
_atom_site_fract_z
Si Si1 0.121278 0.751691 0.418400
Si Si2 0.343543 0.900049 0.292879
Si Si3 0.000000 0.895457 0.527066
Si Si4 0.229332 0.755087 0.168559
Si Si5 0.500000 0.651830 0.642788
Si Si6 0.000000 0.896793 0.883929
Si Si7 0.500000 0.345130 0.289353
Si Si8 0.343334 0.899352 0.637409
O O1 0.146963 0.758761 0.249661
O O2 0.203291 0.745127 0.499869
O O3 0.072316 0.662234 0.437275
O O4 0.072797 0.837706 0.468146
O O5 0.282715 0.835161 0.218267
O O6 0.423171 0.894043 0.203565
O O7 0.358324 0.876835 0.464786
O O8 0.314060 0.000000 0.290130
O O9 0.000000 0.894077 0.705112
O O10 0.000000 0.000000 0.483502
O O11 0.278649 0.667045 0.195673
O O12 0.500000 0.657413 0.466153
O O13 0.500000 0.748163 0.717443
O O14 0.000000 0.000000 0.928370
O O15 0.422410 0.389891 0.227796
O O16 0.316161 0.000000 0.644746
#
# Coordination Sequence:
#
# PCOD9359322 Si02
#       8
#     8   8   4   8   4   4   4   8
#     4  11  24  42  67  99 133 166 211 267 317 381
#     4  11  25  44  66  95 131 175 222 273 330 387
#     4  10  22  43  72  97 126 173 217 252 314 392
#     4  12  24  42  65  97 135 171 211 266 328 381
#     4  12  25  42  67  94 130 174 225 275 330 383
#     4  10  22  43  70  99 128 169 213 258 316 386
#     4  12  25  42  67  94 128 174 227 277 326 385
#     4  11  25  44  67  95 129 176 225 271 328 389
#
# _framework density 20.180658999999999
#
# number of rings (size 3 to 8) (size 9 to 14) (size 15 to 20)
#    0.000    0.833    5.000    2.000    2.333    5.333 
#    0.000    0.833    0.000    0.000    0.000    0.000 
#    0.000    0.000    0.000    0.000    0.000    0.000 
#
# Total GULP energy -134074.148293 kJ/mol
# GULP energy per Si atom -5586.422846 kJ/mol
# Density = 2.013473 g / cm^3
# Si number density = 20.180659 Si / 1000 Ang^3
#
#
#
# Elastic Constant Matrix: (Units=GPa)
#
#
# Indices 1 2 3 4 5 6 
#
# 1 99.1019 59.1476 24.9692 0.0000 0.0000 0.0000
# 2 59.1476 157.6759 37.0420 0.0000 0.0000 0.0000
# 3 24.9692 37.0420 83.9835 0.0000 0.0000 0.0000
# 4 0.0000 0.0000 0.0000 30.9829 0.0000 0.0000
# 5 0.0000 0.0000 0.0000 0.0000 37.7279 0.0000
# 6 0.0000 0.0000 0.0000 0.0000 0.0000 891.9662
#
#
#
# Elastic Compliance Matrix: (Units=1/GPa)
#
#
# Indices 1 2 3 4 5 6 
#
# 1 0.013283 -0.004524 -0.001954 0.000000 0.000000 0.000000
# 2 -0.004524 0.008616 -0.002455 0.000000 0.000000 0.000000
# 3 -0.001954 -0.002455 0.013571 0.000000 0.000000 0.000000
# 4 0.000000 0.000000 0.000000 0.032276 0.000000 0.000000
# 5 0.000000 0.000000 0.000000 0.000000 0.026506 0.000000
# 6 0.000000 0.000000 0.000000 0.000000 0.000000 0.001121
#
#
# Mechanical properties :
#
#
# Convention : Reuss Voigt Hill
#
# Bulk Modulus (GPa) = 56.80511 64.78654 60.79582
# Shear Modulus (GPa) = 41.97954 206.77557 124.37755
#
# Velocity S-wave (km/s) = 4.56585 10.13334 7.85913
# Velocity P-wave (km/s) = 7.48368 13.00330 10.60875
#
# Compressibility (1/GPa) = 0.01760405
#
# Stress axis : x y z
#
# Youngs Moduli (GPa) = 75.28532 116.06549 73.68699
#
# Poissons Ratio (x) = 0.52504 0.14398
# Poissons Ratio (y) = 0.34056 0.18092
# Poissons Ratio (z) = 0.14710 0.28496
#
# Static dielectric constant tensor:
#      x y z
#    x 1.697420 0.000000 0.000000 
#    y 0.000000 1.700220 0.000000 
#    z 0.000000 0.000000 1.691220 
# 
# From -- ./inp_files/6240.got.cif
#   From: 2010.05.17/outbox.cif.g08.bks.cpg/sg38_4_cif.got.tgz:6240.got - 2010.06.03 18:07:57.
