data_PCOD9359603
_publ_section_title
;
Structure prediction by ZEFSAII (Michael W. Deem and Ramdas Pophale) SiO2 
 PCOD9359603
Probable space group: A M M 2
;
_chemical_formula_sum "Si O2"
_cell_formula_units_Z 32
_cell_length_a 24.000000
_cell_length_b 9.000000
_cell_length_c 15.000000
_cell_angle_alpha 90.000000
_cell_angle_beta 90.000000
_cell_angle_gamma 90.000000
_cell_volume 3240.000000
_symmetry_space_group_name_H-M "A M M 2"
_symmetry_group_IT_number 38
_symmetry_cell_setting 'orthorhombic'
loop_
_space_group_symop_operation_xyz
x,y,z
-x,-y,z
-x,y,z
x,-y,z
x,1/2+y,1/2+z
-x,1/2-y,1/2+z
-x,1/2+y,1/2+z
x,1/2-y,1/2+z
loop_
_atom_site_type_symbol
_atom_site_label
_atom_site_fract_x
_atom_site_fract_y
_atom_site_fract_z
Si Si1 0.937677 0.321428 0.673260
Si Si2 0.237169 0.168062 0.283803
Si Si3 0.266139 0.669435 0.995652
Si Si4 0.622406 0.322729 0.449240
Si Si5 0.639720 0.320905 0.755919
Si Si6 0.127024 0.675316 0.323053
Si Si7 0.564658 0.173876 0.605018
Si Si8 0.153351 0.178847 0.027776
O O1 0.936143 0.500000 0.676704
O O2 0.920686 0.258144 0.768989
O O3 0.892286 0.275057 0.599967
O O4 0.000000 0.274842 0.648356
O O5 0.251709 0.163204 0.389553
O O6 0.294940 0.213825 0.238468
O O7 0.185033 0.275489 0.276971
O O8 0.221665 0.000000 0.255817
O O9 0.276716 0.500000 0.024814
O O10 0.320665 0.771051 0.998617
O O11 0.212490 0.741683 0.041427
O O12 0.619457 0.500000 0.443886
O O13 0.623681 0.251553 0.350830
O O14 0.574630 0.253167 0.510464
O O15 0.635521 0.500000 0.762085
O O16 0.601520 0.255521 0.678979
O O17 0.119522 0.500000 0.316664
O O18 0.132181 0.714802 0.427557
O O19 0.500000 0.183219 0.630112
O O20 0.580084 0.000000 0.598392
O O21 0.161099 0.000000 0.031323
#
# Coordination Sequence:
#
# PCOD9359603 Si02
#       8
#     8   8   8   8   8   8   8   8
#     4  10  22  39  56  75 104 145 189 228 271 330
#     4   8  16  32  55  83 114 146 179 218 270 336
#     4   9  17  32  56  86 117 146 182 229 281 337
#     4  11  22  38  62  89 119 155 193 236 288 343
#     4  10  21  39  63  90 120 153 189 235 291 346
#     4  10  20  34  56  84 111 140 176 225 277 323
#     4  11  25  43  61  84 115 153 200 247 288 338
#     4   9  19  36  57  81 110 144 182 224 276 336
#
# _framework density 9.8765429999999999
#
# number of rings (size 3 to 8) (size 9 to 14) (size 15 to 20)
#    0.000    2.250    0.000    3.375    0.000    7.750 
#    0.000    2.500    0.000    0.000    0.000    0.000 
#    0.000    0.000    0.000    0.000    0.000    0.000 
#
# Total GULP energy -178747.450447 kJ/mol
# GULP energy per Si atom -5585.857826 kJ/mol
# Density = 0.985406 g / cm^3
# Si number density = 9.876543 Si / 1000 Ang^3
#
#
#
# Elastic Constant Matrix: (Units=GPa)
#
#
# Indices 1 2 3 4 5 6 
#
# 1 63.5661 23.1200 23.8902 0.0000 0.0000 0.0000
# 2 23.1200 69.8463 21.9190 0.0000 0.0000 0.0000
# 3 23.8902 21.9190 67.5085 0.0000 0.0000 0.0000
# 4 0.0000 0.0000 0.0000 27.4344 0.0000 0.0000
# 5 0.0000 0.0000 0.0000 0.0000 28.7933 0.0000
# 6 0.0000 0.0000 0.0000 0.0000 0.0000 27.1861
#
#
#
# Elastic Compliance Matrix: (Units=1/GPa)
#
#
# Indices 1 2 3 4 5 6 
#
# 1 0.019475 -0.004770 -0.005343 0.000000 0.000000 0.000000
# 2 -0.004770 0.017110 -0.003867 0.000000 0.000000 0.000000
# 3 -0.005343 -0.003867 0.017959 0.000000 0.000000 0.000000
# 4 0.000000 0.000000 0.000000 0.036451 0.000000 0.000000
# 5 0.000000 0.000000 0.000000 0.000000 0.034730 0.000000
# 6 0.000000 0.000000 0.000000 0.000000 0.000000 0.036784
#
#
# Mechanical properties :
#
#
# Convention : Reuss Voigt Hill
#
# Bulk Modulus (GPa) = 37.61729 37.64213 37.62971
# Shear Modulus (GPa) = 25.08413 25.48221 25.28317
#
# Velocity S-wave (km/s) = 3.56741 3.59560 3.58153
# Velocity P-wave (km/s) = 6.00447 6.02790 6.01619
#
# Compressibility (1/GPa) = 0.02658352
#
# Stress axis : x y z
#
# Youngs Moduli (GPa) = 51.34916 58.44681 55.68089
#
# Poissons Ratio (x) = 0.27876 0.29751
# Poissons Ratio (y) = 0.24491 0.21534
# Poissons Ratio (z) = 0.27436 0.22604
#
# Static dielectric constant tensor:
#      x y z
#    x 1.706030 0.000000 0.000000 
#    y 0.000000 1.661640 0.000000 
#    z 0.000000 0.000000 1.701470 
# 
# From -- ./inp_files/15834.got.cif
#   From: 2010.05.17/outbox.ucp.g08.bks.cvg/sg38_8_cif.got.tgz:15834.got - 2010.06.11 10:39:43.
