data_PCOD9359341
_publ_section_title
;
Structure prediction by ZEFSAII (Michael W. Deem and Ramdas Pophale) SiO2 
 PCOD9359341
Probable space group: A M M 2
;
_chemical_formula_sum "Si O2"
_cell_formula_units_Z 40
_cell_length_a 8.833481
_cell_length_b 28.331179
_cell_length_c 7.934437
_cell_angle_alpha 90.000000
_cell_angle_beta 90.000000
_cell_angle_gamma 90.000000
_cell_volume 1985.695463
_symmetry_space_group_name_H-M "A M M 2"
_symmetry_group_IT_number 38
_symmetry_cell_setting 'orthorhombic'
loop_
_space_group_symop_operation_xyz
x,y,z
-x,-y,z
-x,y,z
x,-y,z
x,1/2+y,1/2+z
-x,1/2-y,1/2+z
-x,1/2+y,1/2+z
x,1/2-y,1/2+z
loop_
_atom_site_type_symbol
_atom_site_label
_atom_site_fract_x
_atom_site_fract_y
_atom_site_fract_z
Si Si1 0.823889 0.444232 0.176540
Si Si2 0.322738 0.594687 0.508220
Si Si3 0.677154 0.198571 0.864503
Si Si4 0.820648 0.206981 0.505105
Si Si5 0.680766 0.614037 0.875888
O O1 0.806977 0.500000 0.149198
O O2 0.770773 0.431575 0.364848
O O3 0.000000 0.431191 0.155665
O O4 0.727620 0.415598 0.039546
O O5 0.500000 0.581755 0.489950
O O6 0.310129 0.650666 0.470563
O O7 0.276418 0.587923 0.702092
O O8 0.500000 0.205029 0.821330
O O9 0.772822 0.193371 0.694198
O O10 0.738622 0.244188 0.960543
O O11 0.761366 0.164678 0.388182
O O12 0.000000 0.212428 0.489972
O O13 0.500000 0.621354 0.873590
#
# Coordination Sequence:
#
# PCOD9359341 Si02
#       5
#     8   8   8   8   8
#     4  11  25  44  67  96 131 171 216 272 336 396
#     4  10  23  42  67  95 126 169 219 268 322 385
#     4  11  22  39  62  90 128 174 219 265 322 389
#     4  12  24  38  60  94 132 171 217 269 324 386
#     4  11  23  42  67  96 130 171 219 270 325 390
#
# _framework density 20.144076999999999
#
# number of rings (size 3 to 8) (size 9 to 14) (size 15 to 20)
#    0.000    1.000    2.000    4.800    0.000    6.400 
#    0.000    4.000    0.000    0.000    0.000    0.000 
#    0.000    0.000    0.000    0.000    0.000    0.000 
#
# Total GULP energy -111897.833048 kJ/mol
# GULP energy per Si atom -5594.891652 kJ/mol
# Density = 2.009823 g / cm^3
# Si number density = 20.144077 Si / 1000 Ang^3
#
#
#
# Elastic Constant Matrix: (Units=GPa)
#
#
# Indices 1 2 3 4 5 6 
#
# 1 47.5430 16.5781 -10.7768 0.0000 0.0000 0.0000
# 2 16.5781 31.0027 -9.3565 0.0000 0.0000 0.0000
# 3 -10.7768 -9.3565 63.5248 0.0000 0.0000 0.0000
# 4 0.0000 0.0000 0.0000 25.5642 0.0000 0.0000
# 5 0.0000 0.0000 0.0000 0.0000 -126.6745 0.0000
# 6 0.0000 0.0000 0.0000 0.0000 0.0000 24.7895
#
#
#
# Elastic Compliance Matrix: (Units=1/GPa)
#
#
# Indices 1 2 3 4 5 6 
#
# 1 0.026227 -0.013271 0.002495 0.000000 0.000000 0.000000
# 2 -0.013271 0.040471 0.003710 0.000000 0.000000 0.000000
# 3 0.002495 0.003710 0.016711 0.000000 0.000000 0.000000
# 4 0.000000 0.000000 0.000000 0.039117 0.000000 0.000000
# 5 0.000000 0.000000 0.000000 0.000000 -0.007894 0.000000
# 6 0.000000 0.000000 0.000000 0.000000 0.000000 0.040340
#
#
# Mechanical properties :
#
#
# Convention : Reuss Voigt Hill
#
# Bulk Modulus (GPa) = 14.43521 14.99556 14.71539
# Shear Modulus (GPa) = 26.01479 -5.55577 10.22951
#
# Velocity S-wave (km/s) = 3.59755 -1.66253 2.25592
# Velocity P-wave (km/s) = 4.94349 1.94293 3.75587
#
# Compressibility (1/GPa) = 0.06927505
#
# Stress axis : x y z
#
# Youngs Moduli (GPa) = 38.12909 24.70880 59.83921
#
# Poissons Ratio (x) = 0.32792 -0.14927
# Poissons Ratio (y) = 0.50602 -0.22198
# Poissons Ratio (z) = -0.09511 -0.09166
#
# Static dielectric constant tensor:
#      x y z
#    x 1.693500 0.000000 0.000000 
#    y 0.000000 1.707400 0.000000 
#    z 0.000000 0.000000 1.713530 
# 
# From -- ./inp_files/3448.got.cif
#   From: 2010.05.17/outbox.cif.g08.bks.cpg/sg38_2_cif.got.tgz:3448.got - 2010.06.03 18:07:57.
