data_PCOD9359283
_publ_section_title
;
Structure prediction by ZEFSAII (Michael W. Deem and Ramdas Pophale) SiO2 
 PCOD9359283
Probable space group: A M M 2
;
_chemical_formula_sum "Si O2"
_cell_formula_units_Z 48
_cell_length_a 17.213016
_cell_length_b 8.648506
_cell_length_c 16.226443
_cell_angle_alpha 90.000000
_cell_angle_beta 90.000000
_cell_angle_gamma 90.000000
_cell_volume 2415.579816
_symmetry_space_group_name_H-M "A M M 2"
_symmetry_group_IT_number 38
_symmetry_cell_setting 'orthorhombic'
loop_
_space_group_symop_operation_xyz
x,y,z
-x,-y,z
-x,y,z
x,-y,z
x,1/2+y,1/2+z
-x,1/2-y,1/2+z
-x,1/2+y,1/2+z
x,1/2-y,1/2+z
loop_
_atom_site_type_symbol
_atom_site_label
_atom_site_fract_x
_atom_site_fract_y
_atom_site_fract_z
Si Si1 0.812804 0.187124 0.817980
Si Si2 0.500000 0.181273 0.632417
Si Si3 0.500000 0.182084 0.310469
Si Si4 0.664390 0.817374 0.396227
Si Si5 0.337002 0.181997 0.074530
Si Si6 0.180019 0.816222 0.635194
Si Si7 0.910859 0.313569 0.478428
O O1 0.729006 0.264147 0.831441
O O2 0.845264 0.228437 0.727778
O O3 0.865886 0.235509 0.895347
O O4 0.804536 0.000000 0.820169
O O5 0.500000 0.213596 0.729765
O O6 0.577803 0.256951 0.596584
O O7 0.500000 0.000000 0.613437
O O8 0.422198 0.208987 0.362547
O O9 0.500000 0.000000 0.285384
O O10 0.677710 0.720764 0.478953
O O11 0.672760 0.000000 0.414127
O O12 0.269815 0.267760 0.124925
O O13 0.331945 0.000000 0.089644
O O14 0.132557 0.741055 0.560667
O O15 0.173323 0.000000 0.627240
O O16 0.910567 0.500000 0.478206
O O17 0.000000 0.260003 0.477737
#
# Coordination Sequence:
#
# PCOD9359283 Si02
#       7
#     8   4   4   8   8   8   8
#     4  10  22  40  63  92 127 167 210 257 316 381
#     4  12  25  40  59  87 123 163 215 267 310 365
#     4  10  23  40  57  85 123 163 207 257 316 373
#     4  11  22  38  62  90 123 163 211 262 311 368
#     4  12  24  40  62  88 124 168 212 258 318 377
#     4  11  23  40  65  97 129 165 214 264 314 373
#     4  10  22  42  66  92 126 168 210 258 319 384
#
# _framework density 19.871006999999999
#
# number of rings (size 3 to 8) (size 9 to 14) (size 15 to 20)
#    0.000    1.167    1.667    4.750    0.000    7.000 
#    0.000    1.667    0.000    0.000    0.000    0.000 
#    0.000    0.000    0.000    0.000    0.000    0.000 
#
# Total GULP energy -134220.363838 kJ/mol
# GULP energy per Si atom -5592.515160 kJ/mol
# Density = 1.982578 g / cm^3
# Si number density = 19.871007 Si / 1000 Ang^3
#
#
#
# Elastic Constant Matrix: (Units=GPa)
#
#
# Indices 1 2 3 4 5 6 
#
# 1 121.2078 8.9799 47.8298 0.0000 0.0000 0.0000
# 2 8.9799 17.7871 14.6825 0.0000 0.0000 0.0000
# 3 47.8298 14.6825 124.9178 0.0000 0.0000 0.0000
# 4 0.0000 0.0000 0.0000 30.7720 0.0000 0.0000
# 5 0.0000 0.0000 0.0000 0.0000 5.0904 0.0000
# 6 0.0000 0.0000 0.0000 0.0000 0.0000 19.3694
#
#
#
# Elastic Compliance Matrix: (Units=1/GPa)
#
#
# Indices 1 2 3 4 5 6 
#
# 1 0.009785 -0.002046 -0.003506 0.000000 0.000000 0.000000
# 2 -0.002046 0.062689 -0.006585 0.000000 0.000000 0.000000
# 3 -0.003506 -0.006585 0.010122 0.000000 0.000000 0.000000
# 4 0.000000 0.000000 0.000000 0.032497 0.000000 0.000000
# 5 0.000000 0.000000 0.000000 0.000000 0.196448 0.000000
# 6 0.000000 0.000000 0.000000 0.000000 0.000000 0.051628
#
#
# Mechanical properties :
#
#
# Convention : Reuss Voigt Hill
#
# Bulk Modulus (GPa) = 17.14624 45.21079 31.17852
# Shear Modulus (GPa) = 12.28851 23.87438 18.08145
#
# Velocity S-wave (km/s) = 2.48949 3.46998 3.01980
# Velocity P-wave (km/s) = 4.11229 6.23345 5.28047
#
# Compressibility (1/GPa) = 0.05832181
#
# Stress axis : x y z
#
# Youngs Moduli (GPa) = 102.19213 15.95180 98.79710
#
# Poissons Ratio (x) = 0.03264 0.34641
# Poissons Ratio (y) = 0.20908 0.65057
# Poissons Ratio (z) = 0.35832 0.10504
#
# Static dielectric constant tensor:
#      x y z
#    x 1.689540 0.000000 0.000000 
#    y 0.000000 1.676140 0.000000 
#    z 0.000000 0.000000 1.707330 
# 
# From -- ./inp_files/15007.got.cif
#   From: 2010.05.17/outbox.cif.g08.bks.cpg/sg38_8_cif.got.tgz:15007.got - 2010.06.03 18:07:57.
