data_PCOD9359292
_publ_section_title
;
Structure prediction by ZEFSAII (Michael W. Deem and Ramdas Pophale) SiO2 
 PCOD9359292
Probable space group: A M M 2
;
_chemical_formula_sum "Si O2"
_cell_formula_units_Z 34
_cell_length_a 17.260795
_cell_length_b 9.886812
_cell_length_c 9.371318
_cell_angle_alpha 90.000000
_cell_angle_beta 90.000000
_cell_angle_gamma 90.000000
_cell_volume 1599.255106
_symmetry_space_group_name_H-M "A M M 2"
_symmetry_group_IT_number 38
_symmetry_cell_setting 'orthorhombic'
loop_
_space_group_symop_operation_xyz
x,y,z
-x,-y,z
-x,y,z
x,-y,z
x,1/2+y,1/2+z
-x,1/2-y,1/2+z
-x,1/2+y,1/2+z
x,1/2-y,1/2+z
loop_
_atom_site_type_symbol
_atom_site_label
_atom_site_fract_x
_atom_site_fract_y
_atom_site_fract_z
Si Si1 0.322151 0.655796 0.104390
Si Si2 0.915350 0.757324 0.931426
Si Si3 0.815566 0.151935 0.194485
Si Si4 0.000000 0.000000 0.802900
Si Si5 0.409611 0.654526 0.392747
O O1 0.303820 0.500000 0.070058
O O2 0.249071 0.735533 0.168290
O O3 0.387723 0.657022 0.226645
O O4 0.355321 0.739583 0.972530
O O5 0.881653 0.820294 0.075654
O O6 0.000000 0.691631 0.960235
O O7 0.934156 0.880949 0.824321
O O8 0.854368 0.665424 0.849756
O O9 0.785055 0.000000 0.174234
O O10 0.500000 0.685125 0.414225
O O11 0.394978 0.500000 0.443479
#
# Coordination Sequence:
#
# PCOD9359292 Si02
#       5
#     8   8   8   2   8
#     4  11  25  40  63  94 126 162 204 249 304 362
#     4  10  22  40  65  83 120 161 206 251 310 360
#     4  12  24  42  62  91 126 162 205 256 304 364
#     4   8  20  40  62  86 116 160 204 254 316 356
#     4  10  22  43  66  90 122 161 201 248 303 364
#
# _framework density 21.259898
#
# number of rings (size 3 to 8) (size 9 to 14) (size 15 to 20)
#    0.706    0.706    1.176    3.529    1.647    9.412 
#    0.000    0.000    0.000    0.000    0.000    0.000 
#    0.000    0.000    0.000    0.000    0.000    0.000 
#
# Total GULP energy -94678.525158 kJ/mol
# GULP energy per Si atom -5569.325009 kJ/mol
# Density = 2.121151 g / cm^3
# Si number density = 21.259898 Si / 1000 Ang^3
#
#
#
# Elastic Constant Matrix: (Units=GPa)
#
#
# Indices 1 2 3 4 5 6 
#
# 1 57.0251 25.2059 -10.4622 0.0000 0.0000 0.0000
# 2 25.2059 113.4300 15.3615 0.0000 0.0000 0.0000
# 3 -10.4622 15.3615 43.4147 0.0000 0.0000 0.0000
# 4 0.0000 0.0000 0.0000 24.1770 0.0000 0.0000
# 5 0.0000 0.0000 0.0000 0.0000 26.8797 0.0000
# 6 0.0000 0.0000 0.0000 0.0000 0.0000 33.9005
#
#
#
# Elastic Compliance Matrix: (Units=1/GPa)
#
#
# Indices 1 2 3 4 5 6 
#
# 1 0.021383 -0.005724 0.007178 0.000000 0.000000 0.000000
# 2 -0.005724 0.010792 -0.005198 0.000000 0.000000 0.000000
# 3 0.007178 -0.005198 0.026603 0.000000 0.000000 0.000000
# 4 0.000000 0.000000 0.000000 0.041362 0.000000 0.000000
# 5 0.000000 0.000000 0.000000 0.000000 0.037203 0.000000
# 6 0.000000 0.000000 0.000000 0.000000 0.000000 0.029498
#
#
# Mechanical properties :
#
#
# Convention : Reuss Voigt Hill
#
# Bulk Modulus (GPa) = 19.49666 30.45335 24.97500
# Shear Modulus (GPa) = 26.12005 29.24242 27.68123
#
# Velocity S-wave (km/s) = 3.50895 3.71276 3.61229
# Velocity P-wave (km/s) = 5.06039 5.72144 5.40104
#
# Compressibility (1/GPa) = 0.05129085
#
# Stress axis : x y z
#
# Youngs Moduli (GPa) = 46.76592 92.66255 37.59018
#
# Poissons Ratio (x) = 0.53038 -0.26983
# Poissons Ratio (y) = 0.26768 0.19539
# Poissons Ratio (z) = -0.33570 0.48164
#
# Static dielectric constant tensor:
#      x y z
#    x 1.774030 0.000000 0.000000 
#    y 0.000000 1.743370 0.000000 
#    z 0.000000 0.000000 1.769610 
# 
# From -- ./inp_files/6618.got.cif
#   From: 2010.05.17/outbox.cif.g08.bks.cpg/sg38_4_cif.got.tgz:6618.got - 2010.06.03 18:07:57.
