data_PCOD9359700
_publ_section_title
;
Structure prediction by ZEFSAII (Michael W. Deem and Ramdas Pophale) SiO2 
 PCOD9359700
Probable space group: A B M 2
;
_chemical_formula_sum "Si O2"
_cell_formula_units_Z 24
_cell_length_a 7.117873
_cell_length_b 5.625903
_cell_length_c 22.548460
_cell_angle_alpha 90.000000
_cell_angle_beta 90.000000
_cell_angle_gamma 90.000000
_cell_volume 902.940974
_symmetry_space_group_name_H-M "A B M 2"
_symmetry_group_IT_number 39
_symmetry_cell_setting 'orthorhombic'
loop_
_space_group_symop_operation_xyz
x,y,z
-x,-y,z
-x,1/2+y,z
x,1/2-y,z
x,1/2+y,1/2+z
-x,1/2-y,1/2+z
-x,y,1/2+z
x,-y,1/2+z
loop_
_atom_site_type_symbol
_atom_site_label
_atom_site_fract_x
_atom_site_fract_y
_atom_site_fract_z
Si Si1 0.397559 0.750000 0.230281
Si Si2 0.236264 0.250000 0.071087
Si Si3 0.465058 0.750000 0.862173
Si Si4 0.967090 0.250000 0.820711
Si Si5 0.802763 0.750000 0.617324
Si Si6 0.101792 0.750000 0.451784
O O1 0.500000 0.500000 0.216236
O O2 0.407312 0.750000 0.302148
O O3 0.215135 0.750000 0.188665
O O4 0.293828 0.506903 0.095489
O O5 0.264274 0.250000 0.000270
O O6 0.013306 0.250000 0.091049
O O7 0.500000 0.500000 0.893895
O O8 0.248493 0.750000 0.842038
O O9 0.000000 0.500000 0.789288
O O10 0.097235 0.250000 0.880279
O O11 0.000000 0.500000 0.465557
#
# Coordination Sequence:
#
# PCOD9359700 Si02
#       6
#     4   4   4   4   4   4
#     4  10  21  37  58  74 109 158 203 225 291 354
#     4  10  17  30  53  85 114 138 186 242 286 331
#     4  10  21  40  65  82 120 168 194 246 316 362
#     4  10  21  35  63  95 118 152 204 254 301 359
#     4  10  18  30  54  80 109 149 189 229 287 344
#     4  10  16  30  51  88 114 149 176 244 299 350
#
# _framework density 26.579810999999999
#
# number of rings (size 3 to 8) (size 9 to 14) (size 15 to 20)
#    0.000    2.000    3.333    2.000    0.000    0.000 
#    0.000    0.000   88.000    2.000    0.000    0.000 
#    0.000    0.000    0.000    0.000    0.000    0.000 
#
# Total GULP energy -66965.890562 kJ/mol
# GULP energy per Si atom -5580.490880 kJ/mol
# Density = 2.651931 g / cm^3
# Si number density = 26.579811 Si / 1000 Ang^3
#
#
#
# Elastic Constant Matrix: (Units=GPa)
#
#
# Indices 1 2 3 4 5 6 
#
# 1 97.4980 37.3472 38.5173 0.0000 0.0000 0.0000
# 2 37.3472 350.8522 37.2203 0.0000 0.0000 0.0000
# 3 38.5173 37.2203 152.9552 0.0000 0.0000 0.0000
# 4 0.0000 0.0000 0.0000 19.4555 0.0000 0.0000
# 5 0.0000 0.0000 0.0000 0.0000 41.0080 0.0000
# 6 0.0000 0.0000 0.0000 0.0000 0.0000 7.8713
#
#
#
# Elastic Compliance Matrix: (Units=1/GPa)
#
#
# Indices 1 2 3 4 5 6 
#
# 1 0.011695 -0.000957 -0.002712 0.000000 0.000000 0.000000
# 2 -0.000957 0.003004 -0.000490 0.000000 0.000000 0.000000
# 3 -0.002712 -0.000490 0.007340 0.000000 0.000000 0.000000
# 4 0.000000 0.000000 0.000000 0.051399 0.000000 0.000000
# 5 0.000000 0.000000 0.000000 0.000000 0.024385 0.000000
# 6 0.000000 0.000000 0.000000 0.000000 0.000000 0.127043
#
#
# Mechanical properties :
#
#
# Convention : Reuss Voigt Hill
#
# Bulk Modulus (GPa) = 72.88406 91.94167 82.41286
# Shear Modulus (GPa) = 21.02972 46.21499 33.62236
#
# Velocity S-wave (km/s) = 2.81586 4.17433 3.56048
# Velocity P-wave (km/s) = 6.16867 7.60915 6.92646
#
# Compressibility (1/GPa) = 0.01372042
#
# Stress axis : x y z
#
# Youngs Moduli (GPa) = 85.50894 332.88177 136.23890
#
# Poissons Ratio (x) = 0.31862 0.36949
# Poissons Ratio (y) = 0.08185 0.06675
# Poissons Ratio (z) = 0.23190 0.16311
#
# Static dielectric constant tensor:
#      x y z
#    x 1.531630 0.000000 0.000000 
#    y 0.000000 2.072710 0.000000 
#    z 0.000000 0.000000 2.004660 
# 
# From -- ./inp_files/13689.got.cif
#   From: 2010.05.17/outbox.cif.g08.bks.cpg/sg39_7_cif.got.tgz:13689.got - 2010.06.03 18:22:40.
