data_PCOD9359058
_publ_section_title
;
Structure prediction by ZEFSAII (Michael W. Deem and Ramdas Pophale) SiO2 
 PCOD9359058
Probable space group: A M M 2
;
_chemical_formula_sum "Si O2"
_cell_formula_units_Z 64
_cell_length_a 9.022617
_cell_length_b 13.836388
_cell_length_c 24.228941
_cell_angle_alpha 90.000000
_cell_angle_beta 90.000000
_cell_angle_gamma 90.000000
_cell_volume 3024.751403
_symmetry_space_group_name_H-M "A M M 2"
_symmetry_group_IT_number 38
_symmetry_cell_setting 'orthorhombic'
loop_
_space_group_symop_operation_xyz
x,y,z
-x,-y,z
-x,y,z
x,-y,z
x,1/2+y,1/2+z
-x,1/2-y,1/2+z
-x,1/2+y,1/2+z
x,1/2-y,1/2+z
loop_
_atom_site_type_symbol
_atom_site_label
_atom_site_fract_x
_atom_site_fract_y
_atom_site_fract_z
Si Si1 0.821550 0.386762 0.827870
Si Si2 0.675765 0.386960 0.035381
Si Si3 0.170530 0.617551 0.703031
Si Si4 0.175549 0.206445 0.987420
Si Si5 0.831946 0.382723 0.149247
Si Si6 0.328580 0.116637 0.759674
Si Si7 0.668787 0.616607 0.592274
Si Si8 0.676795 0.293054 0.376659
O O1 0.790238 0.500000 0.836854
O O2 0.776932 0.359799 0.764866
O O3 0.735600 0.315620 0.867811
O O4 0.000000 0.373970 0.832069
O O5 0.500000 0.374435 0.028853
O O6 0.711372 0.500000 0.026431
O O7 0.764647 0.315338 0.996170
O O8 0.725667 0.361016 0.097834
O O9 0.168973 0.500000 0.701653
O O10 0.266214 0.649827 0.651052
O O11 0.000000 0.648612 0.697003
O O12 0.232543 0.150610 0.041350
O O13 0.000000 0.204732 0.983875
O O14 0.247807 0.166185 0.931514
O O15 0.835176 0.500000 0.152142
O O16 0.771636 0.349445 0.208548
O O17 0.000000 0.350214 0.138021
O O18 0.500000 0.146564 0.750546
O O19 0.281564 0.152379 0.820021
O O20 0.325771 0.000000 0.759814
O O21 0.500000 0.650313 0.584843
O O22 0.668030 0.500000 0.593162
O O23 0.500000 0.295945 0.382433
#
# Coordination Sequence:
#
# PCOD9359058 Si02
#       8
#     8   8   8   8   8   8   8   8
#     4   9  19  37  60  85 115 151 187 227 279 337
#     4  10  21  39  63  88 116 150 188 234 287 342
#     4   8  15  31  56  85 116 149 187 230 279 338
#     4  12  26  42  60  82 112 151 196 243 286 338
#     4   9  17  31  55  88 121 150 184 227 277 336
#     4   9  19  37  59  82 112 151 190 230 280 335
#     4  10  21  38  61  88 119 153 189 234 286 339
#     4  11  24  40  58  82 111 146 193 243 286 333
#
# _framework density 21.158763
#
# number of rings (size 3 to 8) (size 9 to 14) (size 15 to 20)
#    0.000    2.250    0.000    3.375    0.000    6.750 
#    0.000    5.000    0.000    0.000    0.000    0.000 
#    0.000    0.000    0.000    0.000    0.000    0.000 
#
# Total GULP energy -178909.006847 kJ/mol
# GULP energy per Si atom -5590.906464 kJ/mol
# Density = 2.111061 g / cm^3
# Si number density = 21.158763 Si / 1000 Ang^3
#
#
#
# Elastic Constant Matrix: (Units=GPa)
#
#
# Indices 1 2 3 4 5 6 
#
# 1 85.8755 2.2781 43.2848 0.0000 0.0000 0.0000
# 2 2.2781 37.1387 2.1610 0.0000 0.0000 0.0000
# 3 43.2848 2.1610 103.5742 0.0000 0.0000 0.0000
# 4 0.0000 0.0000 0.0000 24.9705 0.0000 0.0000
# 5 0.0000 0.0000 0.0000 0.0000 39.4380 0.0000
# 6 0.0000 0.0000 0.0000 0.0000 0.0000 24.5094
#
#
#
# Elastic Compliance Matrix: (Units=1/GPa)
#
#
# Indices 1 2 3 4 5 6 
#
# 1 0.014763 -0.000547 -0.006158 0.000000 0.000000 0.000000
# 2 -0.000547 0.026979 -0.000334 0.000000 0.000000 0.000000
# 3 -0.006158 -0.000334 0.012236 0.000000 0.000000 0.000000
# 4 0.000000 0.000000 0.000000 0.040047 0.000000 0.000000
# 5 0.000000 0.000000 0.000000 0.000000 0.025356 0.000000
# 6 0.000000 0.000000 0.000000 0.000000 0.000000 0.040801
#
#
# Mechanical properties :
#
#
# Convention : Reuss Voigt Hill
#
# Bulk Modulus (GPa) = 25.06366 35.78178 30.42272
# Shear Modulus (GPa) = 26.65797 29.70788 28.18292
#
# Velocity S-wave (km/s) = 3.55336 3.75113 3.65358
# Velocity P-wave (km/s) = 5.35783 5.97571 5.67519
#
# Compressibility (1/GPa) = 0.03989841
#
# Stress axis : x y z
#
# Youngs Moduli (GPa) = 67.73536 37.06569 81.72924
#
# Poissons Ratio (x) = 0.02028 0.50332
# Poissons Ratio (y) = 0.03707 0.02731
# Poissons Ratio (z) = 0.41714 0.01239
#
# Static dielectric constant tensor:
#      x y z
#    x 1.713260 0.000000 0.000000 
#    y 0.000000 1.810140 0.000000 
#    z 0.000000 0.000000 1.744950 
# 
# From -- ./inp_files/22231.got.cif
#   From: 2010.05.17/outbox.cif.g08.bks.cpg/sg38_12_cif.got.tgz:22231.got - 2010.06.03 18:07:57.
