data_PCOD9359602
_publ_section_title
;
Structure prediction by ZEFSAII (Michael W. Deem and Ramdas Pophale) SiO2 
 PCOD9359602
Probable space group: A M M 2
;
_chemical_formula_sum "Si O2"
_cell_formula_units_Z 28
_cell_length_a 9.000000
_cell_length_b 15.000000
_cell_length_c 21.000000
_cell_angle_alpha 90.000000
_cell_angle_beta 90.000000
_cell_angle_gamma 90.000000
_cell_volume 2835.000000
_symmetry_space_group_name_H-M "A M M 2"
_symmetry_group_IT_number 38
_symmetry_cell_setting 'orthorhombic'
loop_
_space_group_symop_operation_xyz
x,y,z
-x,-y,z
-x,y,z
x,-y,z
x,1/2+y,1/2+z
-x,1/2-y,1/2+z
-x,1/2+y,1/2+z
x,1/2-y,1/2+z
loop_
_atom_site_type_symbol
_atom_site_label
_atom_site_fract_x
_atom_site_fract_y
_atom_site_fract_z
Si Si1 0.671810 0.604622 0.468040
Si Si2 0.824163 0.897718 0.734465
Si Si3 0.823872 0.775472 0.069413
Si Si4 0.819959 0.598562 0.680219
Si Si5 0.322621 0.400734 0.095327
Si Si6 0.178731 0.100384 0.329919
Si Si7 0.672909 0.780393 0.841272
O O1 0.500000 0.615794 0.489926
O O2 0.702960 0.500000 0.463515
O O3 0.781344 0.653861 0.515834
O O4 0.683649 0.651710 0.399913
O O5 0.743393 0.892644 0.666564
O O6 0.760323 0.825556 0.782980
O O7 0.000000 0.883405 0.725434
O O8 0.802336 0.000000 0.758304
O O9 0.769673 0.821233 0.135473
O O10 0.744816 0.681740 0.057450
O O11 0.000000 0.761634 0.073055
O O12 0.769228 0.500000 0.657902
O O13 0.782885 0.607029 0.754460
O O14 0.000000 0.598269 0.676842
O O15 0.500000 0.394535 0.097465
O O16 0.282104 0.500000 0.071566
O O17 0.258236 0.185042 0.360250
O O18 0.000000 0.108129 0.335636
O O19 0.220232 0.000000 0.351190
O O20 0.500000 0.769238 0.824376
#
# Coordination Sequence:
#
# PCOD9359602 Si02
#       7
#     8   8   8   8   8   8   8
#     4  10  23  42  59  77 107 147 189 231 275 329
#     4  10  20  34  55  84 116 148 184 229 279 330
#     4  11  21  34  57  85 111 142 183 230 278 328
#     4   8  15  29  50  78 110 140 169 207 262 325
#     4  10  21  37  57  82 114 150 186 225 272 329
#     4   9  18  34  56  81 111 145 179 220 273 332
#     4  11  22  36  56  80 109 148 191 233 279 332
#
# _framework density 9.8765429999999999
#
# number of rings (size 3 to 8) (size 9 to 14) (size 15 to 20)
#    0.000    2.143    0.000    4.286    0.000    5.714 
#    0.000    1.429    0.000    2.571    0.000    0.000 
#    0.000    0.000    0.000    0.000    0.000    0.000 
#
# Total GULP energy -156344.377357 kJ/mol
# GULP energy per Si atom -5583.727763 kJ/mol
# Density = 0.985406 g / cm^3
# Si number density = 9.876543 Si / 1000 Ang^3
#
#
#
# Elastic Constant Matrix: (Units=GPa)
#
#
# Indices 1 2 3 4 5 6 
#
# 1 56.7840 56.6558 9.6279 0.0000 0.0000 0.0000
# 2 56.6558 158.4127 15.5146 0.0000 0.0000 0.0000
# 3 9.6279 15.5146 7.4254 0.0000 0.0000 0.0000
# 4 0.0000 0.0000 0.0000 26.6192 0.0000 0.0000
# 5 0.0000 0.0000 0.0000 0.0000 21.3070 0.0000
# 6 0.0000 0.0000 0.0000 0.0000 0.0000 30.0788
#
#
#
# Elastic Compliance Matrix: (Units=1/GPa)
#
#
# Indices 1 2 3 4 5 6 
#
# 1 0.029670 -0.008604 -0.020493 0.000000 0.000000 0.000000
# 2 -0.008604 0.010432 -0.010640 0.000000 0.000000 0.000000
# 3 -0.020493 -0.010640 0.183477 0.000000 0.000000 0.000000
# 4 0.000000 0.000000 0.000000 0.037567 0.000000 0.000000
# 5 0.000000 0.000000 0.000000 0.000000 0.046933 0.000000
# 6 0.000000 0.000000 0.000000 0.000000 0.000000 0.033246
#
#
# Mechanical properties :
#
#
# Convention : Reuss Voigt Hill
#
# Bulk Modulus (GPa) = 6.93942 42.91319 24.92630
# Shear Modulus (GPa) = 10.66473 24.98926 17.82700
#
# Velocity S-wave (km/s) = 2.32610 3.56066 3.00741
# Velocity P-wave (km/s) = 3.27644 6.21903 4.97048
#
# Compressibility (1/GPa) = 0.14410436
#
# Stress axis : x y z
#
# Youngs Moduli (GPa) = 33.70384 95.85848 5.45027
#
# Poissons Ratio (x) = 0.82481 0.11169
# Poissons Ratio (y) = 0.29000 0.05799
# Poissons Ratio (z) = 0.69069 1.01995
#
# Static dielectric constant tensor:
#      x y z
#    x 1.668400 0.000000 0.000000 
#    y 0.000000 1.723740 0.000000 
#    z 0.000000 0.000000 1.687650 
# 
# From -- ./inp_files/19759.got.cif
#   From: 2010.05.17/outbox.ucp.g08.bks.cvg/sg38_10_cif.got.tgz:19759.got - 2010.06.11 10:39:43.
