data_PCOD9359047
_publ_section_title
;
Structure prediction by ZEFSAII (Michael W. Deem and Ramdas Pophale) SiO2 
 PCOD9359047
Probable space group: A M M 2
;
_chemical_formula_sum "Si O2"
_cell_formula_units_Z 56
_cell_length_a 16.835172
_cell_length_b 8.737937
_cell_length_c 19.579978
_cell_angle_alpha 90.000000
_cell_angle_beta 90.000000
_cell_angle_gamma 90.000000
_cell_volume 2880.306248
_symmetry_space_group_name_H-M "A M M 2"
_symmetry_group_IT_number 38
_symmetry_cell_setting 'orthorhombic'
loop_
_space_group_symop_operation_xyz
x,y,z
-x,-y,z
-x,y,z
x,-y,z
x,1/2+y,1/2+z
-x,1/2-y,1/2+z
-x,1/2+y,1/2+z
x,1/2-y,1/2+z
loop_
_atom_site_type_symbol
_atom_site_label
_atom_site_fract_x
_atom_site_fract_y
_atom_site_fract_z
Si Si1 0.000000 0.183767 0.475960
Si Si2 0.317234 0.321224 0.165408
Si Si3 0.000000 0.313432 0.134991
Si Si4 0.408806 0.674061 0.780665
Si Si5 0.857024 0.682846 0.386814
Si Si6 0.851320 0.186444 0.728038
Si Si7 0.310190 0.677023 0.918751
Si Si8 0.591594 0.817710 0.040071
O O1 0.076221 0.243124 0.434407
O O2 0.000000 0.235433 0.555648
O O3 0.000000 0.000000 0.476154
O O4 0.309656 0.500000 0.148107
O O5 0.380991 0.294057 0.224904
O O6 0.232990 0.266021 0.195899
O O7 0.350437 0.231093 0.101031
O O8 0.077329 0.265176 0.178273
O O9 0.000000 0.500000 0.134347
O O10 0.500000 0.696256 0.800966
O O11 0.401952 0.500000 0.752241
O O12 0.352030 0.684864 0.845360
O O13 0.867132 0.500000 0.387313
O O14 0.861761 0.735288 0.307066
O O15 0.770735 0.727901 0.415213
O O16 0.850831 0.000000 0.729664
O O17 0.291455 0.500000 0.934236
O O18 0.372546 0.740678 0.972970
O O19 0.500000 0.769603 0.052948
O O20 0.592117 0.000000 0.032482
#
# Coordination Sequence:
#
# PCOD9359047 Si02
#       8
#     4   8   4   8   8   8   8   8
#     4  11  24  39  63  97 128 161 208 260 311 369
#     4  11  22  37  61  92 123 160 210 256 305 374
#     4   9  19  37  61  89 122 159 202 250 297 353
#     4  10  21  38  60  87 122 162 203 253 312 368
#     4  11  22  41  66  92 127 165 207 256 311 374
#     4   9  19  37  62  90 120 160 205 247 298 363
#     4  11  23  40  64  92 124 162 210 261 314 374
#     4  11  25  43  61  86 124 168 212 261 319 377
#
# _framework density 19.442377
#
# number of rings (size 3 to 8) (size 9 to 14) (size 15 to 20)
#    0.000    1.571    1.429    3.214    2.000    5.429 
#    0.000    0.000    0.000    5.143    0.000    0.000 
#    0.000    0.000    0.000    0.000    0.000    0.000 
#
# Total GULP energy -156417.092815 kJ/mol
# GULP energy per Si atom -5586.324743 kJ/mol
# Density = 1.939813 g / cm^3
# Si number density = 19.442377 Si / 1000 Ang^3
#
#
#
# Elastic Constant Matrix: (Units=GPa)
#
#
# Indices 1 2 3 4 5 6 
#
# 1 90.1998 9.1959 11.5322 0.0000 0.0000 0.0000
# 2 9.1959 36.8269 21.2598 0.0000 0.0000 0.0000
# 3 11.5322 21.2598 78.8729 0.0000 0.0000 0.0000
# 4 0.0000 0.0000 0.0000 31.8341 0.0000 0.0000
# 5 0.0000 0.0000 0.0000 0.0000 36.1691 0.0000
# 6 0.0000 0.0000 0.0000 0.0000 0.0000 30.3368
#
#
#
# Elastic Compliance Matrix: (Units=1/GPa)
#
#
# Indices 1 2 3 4 5 6 
#
# 1 0.011452 -0.002242 -0.001070 0.000000 0.000000 0.000000
# 2 -0.002242 0.032597 -0.008459 0.000000 0.000000 0.000000
# 3 -0.001070 -0.008459 0.015115 0.000000 0.000000 0.000000
# 4 0.000000 0.000000 0.000000 0.031413 0.000000 0.000000
# 5 0.000000 0.000000 0.000000 0.000000 0.027648 0.000000
# 6 0.000000 0.000000 0.000000 0.000000 0.000000 0.032963
#
#
# Mechanical properties :
#
#
# Convention : Reuss Voigt Hill
#
# Bulk Modulus (GPa) = 28.07192 32.20838 30.14015
# Shear Modulus (GPa) = 26.79484 30.59544 28.69514
#
# Velocity S-wave (km/s) = 3.71639 3.97123 3.84592
# Velocity P-wave (km/s) = 5.73457 6.13429 5.93780
#
# Compressibility (1/GPa) = 0.03562279
#
# Stress axis : x y z
#
# Youngs Moduli (GPa) = 87.32193 30.67781 66.15928
#
# Poissons Ratio (x) = 0.06877 0.07080
# Poissons Ratio (y) = 0.19576 0.55961
# Poissons Ratio (z) = 0.09345 0.25949
#
# Static dielectric constant tensor:
#      x y z
#    x 1.658140 0.000000 0.000000 
#    y 0.000000 1.674430 0.000000 
#    z 0.000000 0.000000 1.673990 
# 
# From -- ./inp_files/21172.got.cif
#   From: 2010.05.17/outbox.cif.g08.bks.cpg/sg38_11_cif.got.tgz:21172.got - 2010.06.03 18:07:57.
