data_PCOD9359719
_publ_section_title
;
Structure prediction by ZEFSAII (Michael W. Deem and Ramdas Pophale) SiO2 
 PCOD9359719
Probable space group: A B M 2
;
_chemical_formula_sum "Si O2"
_cell_formula_units_Z 64
_cell_length_a 20.223704
_cell_length_b 8.520846
_cell_length_c 20.999695
_cell_angle_alpha 90.000000
_cell_angle_beta 90.000000
_cell_angle_gamma 90.000000
_cell_volume 3618.731855
_symmetry_space_group_name_H-M "A B M 2"
_symmetry_group_IT_number 39
_symmetry_cell_setting 'orthorhombic'
loop_
_space_group_symop_operation_xyz
x,y,z
-x,-y,z
-x,1/2+y,z
x,1/2-y,z
x,1/2+y,1/2+z
-x,1/2-y,1/2+z
-x,y,1/2+z
x,-y,1/2+z
loop_
_atom_site_type_symbol
_atom_site_label
_atom_site_fract_x
_atom_site_fract_y
_atom_site_fract_z
Si Si1 0.286793 0.440989 0.066420
Si Si2 0.567506 0.063517 0.924005
Si Si3 0.925008 0.939921 0.247254
Si Si4 0.431379 0.562889 0.569009
Si Si5 0.147553 0.939754 0.618417
Si Si6 0.926251 0.561846 0.494235
Si Si7 0.158310 0.060439 0.370874
Si Si8 0.293652 0.437553 0.917478
O O1 0.286494 0.250000 0.066716
O O2 0.358899 0.491044 0.092434
O O3 0.222783 0.494469 0.105398
O O4 0.281434 0.488096 0.991690
O O5 0.563979 0.250000 0.929588
O O6 0.500000 0.000000 0.892910
O O7 0.637255 0.011752 0.894824
O O8 0.568943 0.987995 0.994795
O O9 0.927200 0.750000 0.246944
O O10 0.886330 0.992727 0.183808
O O11 0.883645 0.989077 0.309409
O O12 0.000000 0.000000 0.248428
O O13 0.500000 0.500000 0.597559
O O14 0.433655 0.750000 0.572007
O O15 0.148546 0.750000 0.619259
O O16 0.104321 0.994687 0.558796
O O17 0.926956 0.750000 0.497364
O O18 0.881317 0.513502 0.434430
O O19 0.000000 0.500000 0.485292
O O20 0.163341 0.250000 0.369990
O O21 0.231289 0.990344 0.376359
O O22 0.299990 0.250000 0.917682
#
# Coordination Sequence:
#
# PCOD9359719 Si02
#       8
#     8   8   8   8   8   8   8   8
#     4   8  15  27  45  69  97 126 162 202 247 298
#     4  10  17  26  41  65 100 138 172 208 249 299
#     4  10  22  38  56  74  99 131 169 212 258 311
#     4   9  15  24  38  62  95 132 169 204 246 298
#     4  10  19  35  55  75  99 131 168 210 256 304
#     4  11  22  34  51  74 100 127 161 204 254 309
#     4  10  21  36  51  74 101 130 167 210 257 306
#     4  10  18  30  49  73 100 133 169 210 256 305
#
# _framework density 17.685752999999998
#
# number of rings (size 3 to 8) (size 9 to 14) (size 15 to 20)
#    0.000    2.250    1.250    4.500    0.000    2.500 
#    0.000    0.625    0.000    0.000    0.000    0.875 
#    0.000    2.000    0.000    0.000    0.000    0.625 
#
# Total GULP energy -178422.480311 kJ/mol
# GULP energy per Si atom -5575.702510 kJ/mol
# Density = 1.764550 g / cm^3
# Si number density = 17.685753 Si / 1000 Ang^3
#
#
#
# Elastic Constant Matrix: (Units=GPa)
#
#
# Indices 1 2 3 4 5 6 
#
# 1 191.2600 28.9660 51.7476 0.0000 0.0000 0.0000
# 2 28.9660 26.6267 15.6196 0.0000 0.0000 0.0000
# 3 51.7476 15.6196 82.4748 0.0000 0.0000 0.0000
# 4 0.0000 0.0000 0.0000 13.1523 0.0000 0.0000
# 5 0.0000 0.0000 0.0000 0.0000 18.0981 0.0000
# 6 0.0000 0.0000 0.0000 0.0000 0.0000 11.0821
#
#
#
# Elastic Compliance Matrix: (Units=1/GPa)
#
#
# Indices 1 2 3 4 5 6 
#
# 1 0.006980 -0.005652 -0.003309 0.000000 0.000000 0.000000
# 2 -0.005652 0.046827 -0.005322 0.000000 0.000000 0.000000
# 3 -0.003309 -0.005322 0.015209 0.000000 0.000000 0.000000
# 4 0.000000 0.000000 0.000000 0.076032 0.000000 0.000000
# 5 0.000000 0.000000 0.000000 0.000000 0.055254 0.000000
# 6 0.000000 0.000000 0.000000 0.000000 0.000000 0.090236
#
#
# Mechanical properties :
#
#
# Convention : Reuss Voigt Hill
#
# Bulk Modulus (GPa) = 24.72217 54.78091 39.75154
# Shear Modulus (GPa) = 15.03365 22.06837 18.55101
#
# Velocity S-wave (km/s) = 2.91871 3.53626 3.24222
# Velocity P-wave (km/s) = 5.03661 6.90763 6.04495
#
# Compressibility (1/GPa) = 0.04044952
#
# Stress axis : x y z
#
# Youngs Moduli (GPa) = 143.27221 21.35530 65.75044
#
# Poissons Ratio (x) = 0.12070 0.21756
# Poissons Ratio (y) = 0.80975 0.34994
# Poissons Ratio (z) = 0.47408 0.11366
#
# Static dielectric constant tensor:
#      x y z
#    x 1.646280 0.000000 0.000000 
#    y 0.000000 1.602590 0.000000 
#    z 0.000000 0.000000 1.583820 
# 
# From -- ./inp_files/15066.got.cif
#   From: 2010.05.17/outbox.cif.g08.bks.cpg/sg39_8_cif.got.tgz:15066.got - 2010.06.03 18:22:40.
