data_PCOD9359323
_publ_section_title
;
Structure prediction by ZEFSAII (Michael W. Deem and Ramdas Pophale) SiO2 
 PCOD9359323
Probable space group: A M M 2
;
_chemical_formula_sum "Si O2"
_cell_formula_units_Z 38
_cell_length_a 12.157519
_cell_length_b 17.597308
_cell_length_c 8.688006
_cell_angle_alpha 90.000000
_cell_angle_beta 90.000000
_cell_angle_gamma 90.000000
_cell_volume 1858.708584
_symmetry_space_group_name_H-M "A M M 2"
_symmetry_group_IT_number 38
_symmetry_cell_setting 'orthorhombic'
loop_
_space_group_symop_operation_xyz
x,y,z
-x,-y,z
-x,y,z
x,-y,z
x,1/2+y,1/2+z
-x,1/2-y,1/2+z
-x,1/2+y,1/2+z
x,1/2-y,1/2+z
loop_
_atom_site_type_symbol
_atom_site_label
_atom_site_fract_x
_atom_site_fract_y
_atom_site_fract_z
Si Si1 0.364252 0.500000 0.625000
Si Si2 0.227226 0.143886 0.239363
Si Si3 0.686998 0.238054 0.988295
Si Si4 0.756778 0.500000 0.289376
Si Si5 0.000000 0.000000 0.679147
Si Si6 0.000000 0.415587 0.869500
Si Si7 0.383243 0.137585 0.724844
O O1 0.500000 0.500000 0.618957
O O2 0.312194 0.574188 0.710428
O O3 0.305290 0.500000 0.455490
O O4 0.272670 0.202847 0.362955
O O5 0.110480 0.120170 0.305531
O O6 0.220776 0.191082 0.080478
O O7 0.621837 0.173926 0.894873
O O8 0.625691 0.291089 0.110617
O O9 0.888828 0.500000 0.279527
O O10 0.712906 0.423644 0.206810
O O11 0.000000 0.929659 0.555194
O O12 0.000000 0.500000 0.802647
O O13 0.500000 0.098400 0.701751
#
# Coordination Sequence:
#
# PCOD9359323 Si02
#       7
#     4   8   8   4   2   4   8
#     4  12  25  43  68 100 138 182 237 291 341 421
#     4  11  23  45  68 101 136 179 233 282 349 412
#     4  10  24  40  63  98 140 180 221 281 351 413
#     4  12  24  41  67  97 131 177 235 286 342 395
#     4  10  24  44  66 100 138 174 226 294 344 396
#     4  10  22  43  74  98 131 180 227 283 334 409
#     4  11  22  40  64  96 136 177 227 282 343 411
#
# _framework density 20.444303000000001
#
# number of rings (size 3 to 8) (size 9 to 14) (size 15 to 20)
#    0.316    0.842    3.158    2.842    0.000    6.737 
#    0.000    4.211    0.000    0.000    0.000    0.000 
#    0.000    0.000    0.000    0.000    0.000    0.000 
#
# Total GULP energy -105904.641106 kJ/mol
# GULP energy per Si atom -5573.928479 kJ/mol
# Density = 2.039777 g / cm^3
# Si number density = 20.444303 Si / 1000 Ang^3
#
#
#
# Elastic Constant Matrix: (Units=GPa)
#
#
# Indices 1 2 3 4 5 6 
#
# 1 169.9668 47.9988 32.1898 0.0000 0.0000 0.0000
# 2 47.9988 107.7603 24.6594 0.0000 0.0000 0.0000
# 3 32.1898 24.6594 73.5908 0.0000 0.0000 0.0000
# 4 0.0000 0.0000 0.0000 18.4840 0.0000 0.0000
# 5 0.0000 0.0000 0.0000 0.0000 13.9331 0.0000
# 6 0.0000 0.0000 0.0000 0.0000 0.0000 102.7696
#
#
#
# Elastic Compliance Matrix: (Units=1/GPa)
#
#
# Indices 1 2 3 4 5 6 
#
# 1 0.007044 -0.002634 -0.002198 0.000000 0.000000 0.000000
# 2 -0.002634 0.011036 -0.002546 0.000000 0.000000 0.000000
# 3 -0.002198 -0.002546 0.015403 0.000000 0.000000 0.000000
# 4 0.000000 0.000000 0.000000 0.054101 0.000000 0.000000
# 5 0.000000 0.000000 0.000000 0.000000 0.071772 0.000000
# 6 0.000000 0.000000 0.000000 0.000000 0.000000 0.009730
#
#
# Mechanical properties :
#
#
# Convention : Reuss Voigt Hill
#
# Bulk Modulus (GPa) = 53.40130 62.33486 57.86808
# Shear Modulus (GPa) = 26.30407 43.46867 34.88637
#
# Velocity S-wave (km/s) = 3.59084 4.61608 4.13535
# Velocity P-wave (km/s) = 6.58554 7.67901 7.15320
#
# Compressibility (1/GPa) = 0.01872614
#
# Stress axis : x y z
#
# Youngs Moduli (GPa) = 141.96891 90.61408 64.92144
#
# Poissons Ratio (x) = 0.23871 0.14272
# Poissons Ratio (y) = 0.37400 0.16527
# Poissons Ratio (z) = 0.31209 0.23067
#
# Static dielectric constant tensor:
#      x y z
#    x 1.654930 0.000000 0.000000 
#    y 0.000000 1.743150 0.000000 
#    z 0.000000 0.000000 1.782960 
# 
# From -- ./inp_files/4334.got.cif
#   From: 2010.05.17/outbox.cif.g08.bks.cpg/sg38_3_cif.got.tgz:4334.got - 2010.06.03 18:07:57.
