data_PCOD9359076
_publ_section_title
;
Structure prediction by ZEFSAII (Michael W. Deem and Ramdas Pophale) SiO2 
 PCOD9359076
Probable space group: A M M 2
;
_chemical_formula_sum "Si O2"
_cell_formula_units_Z 60
_cell_length_a 12.582698
_cell_length_b 22.794495
_cell_length_c 10.412774
_cell_angle_alpha 90.000000
_cell_angle_beta 90.000000
_cell_angle_gamma 90.000000
_cell_volume 2986.552756
_symmetry_space_group_name_H-M "A M M 2"
_symmetry_group_IT_number 38
_symmetry_cell_setting 'orthorhombic'
loop_
_space_group_symop_operation_xyz
x,y,z
-x,-y,z
-x,y,z
x,-y,z
x,1/2+y,1/2+z
-x,1/2-y,1/2+z
-x,1/2+y,1/2+z
x,1/2-y,1/2+z
loop_
_atom_site_type_symbol
_atom_site_label
_atom_site_fract_x
_atom_site_fract_y
_atom_site_fract_z
Si Si1 0.882253 0.242203 0.497060
Si Si2 0.500000 0.671113 0.471633
Si Si3 0.124817 0.931916 0.130853
Si Si4 0.619746 0.432648 0.005920
Si Si5 0.882454 0.367696 0.360224
Si Si6 0.332110 0.740366 0.651492
Si Si7 0.761881 0.349304 0.835473
Si Si8 0.653720 0.367888 0.256365
O O1 0.881904 0.301053 0.411935
O O2 0.786609 0.250263 0.596588
O O3 0.852716 0.187333 0.407832
O O4 0.000000 0.236431 0.555318
O O5 0.407135 0.709281 0.548389
O O6 0.407055 0.634499 0.391032
O O7 0.191575 0.889718 0.222844
O O8 0.000000 0.927666 0.166237
O O9 0.157214 0.000000 0.140512
O O10 0.132288 0.908825 0.985132
O O11 0.500000 0.424044 0.954977
O O12 0.650104 0.500000 0.985847
O O13 0.618739 0.416636 0.155841
O O14 0.699646 0.389328 0.935604
O O15 0.780209 0.374116 0.272279
O O16 0.000000 0.379715 0.304604
O O17 0.318878 0.697879 0.773677
O O18 0.371843 0.803956 0.695210
#
# Coordination Sequence:
#
# PCOD9359076 Si02
#       8
#     8   4   8   8   8   8   8   8
#     4  11  22  37  60  96 135 170 207 254 322 392
#     4  12  24  40  61  94 129 162 214 258 320 386
#     4  10  21  38  62  92 127 170 219 271 322 379
#     4  11  27  47  66  89 126 178 221 263 320 388
#     4  10  21  40  64  96 133 170 214 265 326 388
#     4  12  24  38  63 100 132 162 205 268 331 374
#     4  12  22  41  65  95 131 167 212 267 330 386
#     4  12  23  43  66  93 131 170 211 265 319 390
#
# _framework density 20.090050999999999
#
# number of rings (size 3 to 8) (size 9 to 14) (size 15 to 20)
#    0.000    0.800    6.000    1.200    0.933    1.600 
#    0.000    0.000    0.000    2.400    0.000    0.000 
#    0.000    0.000    0.000    0.000    0.000    0.000 
#
# Total GULP energy -167180.850711 kJ/mol
# GULP energy per Si atom -5572.695024 kJ/mol
# Density = 2.004433 g / cm^3
# Si number density = 20.090051 Si / 1000 Ang^3
#
#
#
# Elastic Constant Matrix: (Units=GPa)
#
#
# Indices 1 2 3 4 5 6 
#
# 1 108.9134 11.9840 18.1190 0.0000 0.0000 0.0000
# 2 11.9840 70.1914 6.5737 0.0000 0.0000 0.0000
# 3 18.1190 6.5737 34.0416 0.0000 0.0000 0.0000
# 4 0.0000 0.0000 0.0000 4.4064 0.0000 0.0000
# 5 0.0000 0.0000 0.0000 0.0000 8.1349 0.0000
# 6 0.0000 0.0000 0.0000 0.0000 0.0000 9.1976
#
#
#
# Elastic Compliance Matrix: (Units=1/GPa)
#
#
# Indices 1 2 3 4 5 6 
#
# 1 0.010181 -0.001253 -0.005177 0.000000 0.000000 0.000000
# 2 -0.001253 0.014663 -0.002165 0.000000 0.000000 0.000000
# 3 -0.005177 -0.002165 0.032549 0.000000 0.000000 0.000000
# 4 0.000000 0.000000 0.000000 0.226943 0.000000 0.000000
# 5 0.000000 0.000000 0.000000 0.000000 0.122927 0.000000
# 6 0.000000 0.000000 0.000000 0.000000 0.000000 0.108724
#
#
# Mechanical properties :
#
#
# Convention : Reuss Voigt Hill
#
# Bulk Modulus (GPa) = 24.87309 31.83330 28.35320
# Shear Modulus (GPa) = 9.14784 16.11245 12.63014
#
# Velocity S-wave (km/s) = 2.13619 2.83505 2.51006
# Velocity P-wave (km/s) = 4.30024 5.15717 4.74808
#
# Compressibility (1/GPa) = 0.04020409
#
# Stress axis : x y z
#
# Youngs Moduli (GPa) = 98.22478 68.19673 30.72277
#
# Poissons Ratio (x) = 0.08548 0.15904
# Poissons Ratio (y) = 0.12311 0.06650
# Poissons Ratio (z) = 0.50849 0.14761
#
# Static dielectric constant tensor:
#      x y z
#    x 1.738240 0.000000 0.000000 
#    y 0.000000 1.683660 0.000000 
#    z 0.000000 0.000000 1.721900 
# 
# From -- ./inp_files/9427.got.cif
#   From: 2010.05.17/outbox.cif.g08.bks.cpg/sg38_5_cif.got.tgz:9427.got - 2010.06.03 18:07:57.
