data_PCOD9359886
_publ_section_title
;
Structure prediction by ZEFSAII (Michael W. Deem and Ramdas Pophale) SiO2 
 PCOD9359886
Probable space group: A B M 2
;
_chemical_formula_sum "Si O2"
_cell_formula_units_Z 64
_cell_length_a 10.271314
_cell_length_b 18.087796
_cell_length_c 19.804849
_cell_angle_alpha 90.000000
_cell_angle_beta 90.000000
_cell_angle_gamma 90.000000
_cell_volume 3679.452433
_symmetry_space_group_name_H-M "A B M 2"
_symmetry_group_IT_number 39
_symmetry_cell_setting 'orthorhombic'
loop_
_space_group_symop_operation_xyz
x,y,z
-x,-y,z
-x,1/2+y,z
x,1/2-y,z
x,1/2+y,1/2+z
-x,1/2-y,1/2+z
-x,y,1/2+z
x,-y,1/2+z
loop_
_atom_site_type_symbol
_atom_site_label
_atom_site_fract_x
_atom_site_fract_y
_atom_site_fract_z
Si Si1 0.645903 0.906731 0.862230
Si Si2 0.295915 0.837963 0.507160
Si Si3 0.909879 0.660991 0.361572
Si Si4 0.214041 0.838624 0.111986
Si Si5 0.856320 0.338023 0.266292
Si Si6 0.641676 0.080990 0.889332
Si Si7 0.550061 0.583432 0.545446
Si Si8 0.010805 0.160399 0.008881
O O1 0.687349 0.864290 0.930114
O O2 0.738924 0.879718 0.803214
O O3 0.491560 0.893473 0.852892
O O4 0.659995 0.994034 0.875811
O O5 0.297032 0.750000 0.509313
O O6 0.419198 0.868393 0.546783
O O7 0.154005 0.865477 0.530446
O O8 0.894851 0.750000 0.361082
O O9 0.768333 0.624324 0.364814
O O10 0.980995 0.639447 0.431731
O O11 0.005984 0.639995 0.300271
O O12 0.240008 0.750000 0.103221
O O13 0.156602 0.849426 0.186558
O O14 0.343396 0.885281 0.096819
O O15 0.105253 0.862296 0.057734
O O16 0.842009 0.250000 0.279557
O O17 0.612283 0.089873 0.969702
O O18 0.500000 0.500000 0.555198
O O19 0.012802 0.250000 0.010546
#
# Coordination Sequence:
#
# PCOD9359886 Si02
#       8
#     8   8   8   8   8   8   8   8
#     4  10  19  35  53  80 114 148 183 234 286 337
#     4  10  18  31  56  85 110 141 188 239 281 328
#     4  10  19  33  56  84 111 145 194 244 287 339
#     4  10  21  38  60  83 115 154 191 236 292 351
#     4  10  21  38  58  82 113 150 193 236 289 350
#     4  10  20  34  55  82 117 145 189 238 292 334
#     4  11  20  36  54  85 119 152 187 238 288 347
#     4   9  17  31  54  83 108 138 184 238 286 330
#
# _framework density 17.393892999999998
#
# number of rings (size 3 to 8) (size 9 to 14) (size 15 to 20)
#    0.000    2.000    5.000    0.750    0.000    3.000 
#    2.250    3.125    2.750    3.000    0.000    0.000 
#    0.000    0.000    0.000    0.000    0.000    0.000 
#
# Total GULP energy -178430.938542 kJ/mol
# GULP energy per Si atom -5575.966829 kJ/mol
# Density = 1.735430 g / cm^3
# Si number density = 17.393893 Si / 1000 Ang^3
#
#
#
# Elastic Constant Matrix: (Units=GPa)
#
#
# Indices 1 2 3 4 5 6 
#
# 1 171.0622 56.4443 52.5063 0.0000 0.0000 0.0000
# 2 56.4443 45.1715 23.3721 0.0000 0.0000 0.0000
# 3 52.5063 23.3721 58.3320 0.0000 0.0000 0.0000
# 4 0.0000 0.0000 0.0000 15.7168 0.0000 0.0000
# 5 0.0000 0.0000 0.0000 0.0000 31.0748 0.0000
# 6 0.0000 0.0000 0.0000 0.0000 0.0000 9.1925
#
#
#
# Elastic Compliance Matrix: (Units=1/GPa)
#
#
# Indices 1 2 3 4 5 6 
#
# 1 0.011263 -0.011137 -0.005676 0.000000 0.000000 0.000000
# 2 -0.011137 0.038940 -0.005578 0.000000 0.000000 0.000000
# 3 -0.005676 -0.005578 0.024487 0.000000 0.000000 0.000000
# 4 0.000000 0.000000 0.000000 0.063626 0.000000 0.000000
# 5 0.000000 0.000000 0.000000 0.000000 0.032180 0.000000
# 6 0.000000 0.000000 0.000000 0.000000 0.000000 0.108784
#
#
# Mechanical properties :
#
#
# Convention : Reuss Voigt Hill
#
# Bulk Modulus (GPa) = 33.43450 59.91234 46.67342
# Shear Modulus (GPa) = 14.96872 20.67968 17.82420
#
# Velocity S-wave (km/s) = 2.93674 3.45179 3.20463
# Velocity P-wave (km/s) = 5.54643 7.09970 6.37058
#
# Compressibility (1/GPa) = 0.02990923
#
# Stress axis : x y z
#
# Youngs Moduli (GPa) = 88.78939 25.68078 40.83821
#
# Poissons Ratio (x) = 0.28600 0.23178
# Poissons Ratio (y) = 0.98881 0.22778
# Poissons Ratio (z) = 0.50394 0.14324
#
# Static dielectric constant tensor:
#      x y z
#    x 1.599200 0.000000 0.000000 
#    y 0.000000 1.590180 0.000000 
#    z 0.000000 0.000000 1.576530 
# 
# From -- ./inp_files/14169.got.cif
#   From: 2010.05.17/outbox.cif.g08.bks.cpg/sg39_8_cif.got.tgz:14169.got - 2010.06.03 18:22:40.
