data_PCOD9359229
_publ_section_title
;
Structure prediction by ZEFSAII (Michael W. Deem and Ramdas Pophale) SiO2 
 PCOD9359229
Probable space group: A M M 2
;
_chemical_formula_sum "Si O2"
_cell_formula_units_Z 48
_cell_length_a 9.005699
_cell_length_b 23.542950
_cell_length_c 11.845129
_cell_angle_alpha 90.000000
_cell_angle_beta 90.000000
_cell_angle_gamma 90.000000
_cell_volume 2511.412794
_symmetry_space_group_name_H-M "A M M 2"
_symmetry_group_IT_number 38
_symmetry_cell_setting 'orthorhombic'
loop_
_space_group_symop_operation_xyz
x,y,z
-x,-y,z
-x,y,z
x,-y,z
x,1/2+y,1/2+z
-x,1/2-y,1/2+z
-x,1/2+y,1/2+z
x,1/2-y,1/2+z
loop_
_atom_site_type_symbol
_atom_site_label
_atom_site_fract_x
_atom_site_fract_y
_atom_site_fract_z
Si Si1 0.826024 0.849998 0.280510
Si Si2 0.672406 0.645471 0.414510
Si Si3 0.177509 0.733166 0.574635
Si Si4 0.322897 0.849325 0.522236
Si Si5 0.680563 0.565286 0.210991
Si Si6 0.332773 0.066179 0.133166
O O1 0.783993 0.802463 0.187415
O O2 0.735269 0.848028 0.395081
O O3 0.787147 0.908463 0.217478
O O4 0.000000 0.844309 0.304679
O O5 0.500000 0.662296 0.394635
O O6 0.761644 0.698798 0.465128
O O7 0.729917 0.610732 0.306155
O O8 0.674825 0.599795 0.516022
O O9 0.250755 0.794532 0.580687
O O10 0.000000 0.736924 0.566852
O O11 0.500000 0.844148 0.525079
O O12 0.282184 0.906433 0.590730
O O13 0.500000 0.563509 0.220500
O O14 0.732416 0.500000 0.224676
O O15 0.500000 0.075817 0.179797
O O16 0.313734 0.000000 0.113095
#
# Coordination Sequence:
#
# PCOD9359229 Si02
#       6
#     8   8   8   8   8   8
#     4  10  22  39  56  79 112 151 191 234 287 346
#     4   9  17  33  59  89 115 146 188 237 288 345
#     4  10  22  39  58  82 114 150 189 240 296 348
#     4  11  23  37  58  85 114 151 193 239 288 349
#     4   9  19  36  58  87 120 152 189 237 292 344
#     4   9  17  31  55  85 114 146 186 235 286 336
#
# _framework density 19.112749000000001
#
# number of rings (size 3 to 8) (size 9 to 14) (size 15 to 20)
#    0.000    2.333    0.000    2.000    2.333    5.000 
#    0.000    2.500    0.000    5.000    0.000    0.000 
#    0.000    0.000    0.000    0.000    0.000    0.000 
#
# Total GULP energy -133899.745697 kJ/mol
# GULP energy per Si atom -5579.156071 kJ/mol
# Density = 1.906925 g / cm^3
# Si number density = 19.112749 Si / 1000 Ang^3
#
#
#
# Elastic Constant Matrix: (Units=GPa)
#
#
# Indices 1 2 3 4 5 6 
#
# 1 30.6815 14.0360 28.7159 0.0000 0.0000 0.0000
# 2 14.0360 64.6046 15.4081 0.0000 0.0000 0.0000
# 3 28.7159 15.4081 74.1505 0.0000 0.0000 0.0000
# 4 0.0000 0.0000 0.0000 17.4352 0.0000 0.0000
# 5 0.0000 0.0000 0.0000 0.0000 17.7391 0.0000
# 6 0.0000 0.0000 0.0000 0.0000 0.0000 15.6447
#
#
#
# Elastic Compliance Matrix: (Units=1/GPa)
#
#
# Indices 1 2 3 4 5 6 
#
# 1 0.054053 -0.007103 -0.019457 0.000000 0.000000 0.000000
# 2 -0.007103 0.017219 -0.000827 0.000000 0.000000 0.000000
# 3 -0.019457 -0.000827 0.021193 0.000000 0.000000 0.000000
# 4 0.000000 0.000000 0.000000 0.057355 0.000000 0.000000
# 5 0.000000 0.000000 0.000000 0.000000 0.056373 0.000000
# 6 0.000000 0.000000 0.000000 0.000000 0.000000 0.063919
#
#
# Mechanical properties :
#
#
# Convention : Reuss Voigt Hill
#
# Bulk Modulus (GPa) = 26.53177 31.75072 29.14124
# Shear Modulus (GPa) = 14.81700 17.58224 16.19962
#
# Velocity S-wave (km/s) = 2.78734 3.03631 2.91448
# Velocity P-wave (km/s) = 4.92654 5.37965 5.15808
#
# Compressibility (1/GPa) = 0.03769067
#
# Stress axis : x y z
#
# Youngs Moduli (GPa) = 18.50041 58.07433 47.18548
#
# Poissons Ratio (x) = 0.41251 0.91808
# Poissons Ratio (y) = 0.13141 0.03904
# Poissons Ratio (z) = 0.35996 0.04804
#
# Static dielectric constant tensor:
#      x y z
#    x 1.654160 0.000000 0.000000 
#    y 0.000000 1.657840 0.000000 
#    z 0.000000 0.000000 1.673020 
# 
# From -- ./inp_files/8113.got.cif
#   From: 2010.05.17/outbox.cif.g08.bks.cpg/sg38_5_cif.got.tgz:8113.got - 2010.06.03 18:07:57.
