data_PCOD9359594
_publ_section_title
;
Structure prediction by ZEFSAII (Michael W. Deem and Ramdas Pophale) SiO2 
 PCOD9359594
Probable space group: A M M 2
;
_chemical_formula_sum "Si O2"
_cell_formula_units_Z 28
_cell_length_a 21.000000
_cell_length_b 9.000000
_cell_length_c 15.000000
_cell_angle_alpha 90.000000
_cell_angle_beta 90.000000
_cell_angle_gamma 90.000000
_cell_volume 2835.000000
_symmetry_space_group_name_H-M "A M M 2"
_symmetry_group_IT_number 38
_symmetry_cell_setting 'orthorhombic'
loop_
_space_group_symop_operation_xyz
x,y,z
-x,-y,z
-x,y,z
x,-y,z
x,1/2+y,1/2+z
-x,1/2-y,1/2+z
-x,1/2+y,1/2+z
x,1/2-y,1/2+z
loop_
_atom_site_type_symbol
_atom_site_label
_atom_site_fract_x
_atom_site_fract_y
_atom_site_fract_z
Si Si1 0.837649 0.320614 0.500000
Si Si2 0.384411 0.664686 0.575439
Si Si3 0.500000 0.171224 0.514816
Si Si4 0.710916 0.668166 0.417146
Si Si5 0.930304 0.819983 0.844111
Si Si6 0.071857 0.821066 0.640133
Si Si7 0.500000 0.818497 0.313981
Si Si8 0.358111 0.326041 0.762863
O O1 0.838271 0.500000 0.510761
O O2 0.767063 0.268235 0.477510
O O3 0.877446 0.275491 0.412946
O O4 0.873318 0.249330 0.582121
O O5 0.412708 0.500000 0.590483
O O6 0.439092 0.782324 0.569000
O O7 0.348886 0.664593 0.482518
O O8 0.340038 0.692380 0.659858
O O9 0.500000 0.239621 0.415840
O O10 0.500000 0.000000 0.498194
O O11 0.729772 0.500000 0.393544
O O12 0.690265 0.749550 0.328842
O O13 0.920201 0.774303 0.742727
O O14 0.000000 0.768224 0.873601
O O15 0.931225 0.000000 0.843651
O O16 0.000000 0.776311 0.611641
O O17 0.074536 0.000000 0.635934
O O18 0.431656 0.772693 0.273772
O O19 0.500000 0.000000 0.309428
O O20 0.358362 0.500000 0.785354
#
# Coordination Sequence:
#
# PCOD9359594 Si02
#       8
#     8   8   4   8   8   8   4   8
#     4  10  20  34  53  76 106 142 178 213 257 313
#     4  10  21  37  56  77 106 142 174 211 270 325
#     4  11  20  33  57  84 105 127 170 226 265 306
#     4  10  22  37  51  76 110 140 175 221 261 302
#     4   8  15  30  52  75 100 134 172 208 254 311
#     4   9  18  33  53  78 105 132 170 219 263 307
#     4   9  17  31  53  78  99 121 164 220 257 296
#     4  10  20  37  58  76 100 139 179 212 256 319
#
# _framework density 9.8765429999999999
#
# number of rings (size 3 to 8) (size 9 to 14) (size 15 to 20)
#    0.000    2.429    1.429    1.929    0.000    4.286 
#    0.000    1.071    0.000    0.857    0.000    0.000 
#    0.000    0.000    0.000    0.000    0.000    0.000 
#
# Total GULP energy -155894.720825 kJ/mol
# GULP energy per Si atom -5567.668601 kJ/mol
# Density = 0.985406 g / cm^3
# Si number density = 9.876543 Si / 1000 Ang^3
#
#
#
# Elastic Constant Matrix: (Units=GPa)
#
#
# Indices 1 2 3 4 5 6 
#
# 1 27.0721 7.7547 -17.4523 0.0000 0.0000 0.0000
# 2 7.7547 6.2387 11.6670 0.0000 0.0000 0.0000
# 3 -17.4523 11.6670 35.1740 0.0000 0.0000 0.0000
# 4 0.0000 0.0000 0.0000 15.5402 0.0000 0.0000
# 5 0.0000 0.0000 0.0000 0.0000 314.0227 0.0000
# 6 0.0000 0.0000 0.0000 0.0000 0.0000 18.6725
#
#
#
# Elastic Compliance Matrix: (Units=1/GPa)
#
#
# Indices 1 2 3 4 5 6 
#
# 1 -0.016943 0.096871 -0.040538 0.000000 0.000000 0.000000
# 2 0.096871 -0.131699 0.091748 0.000000 0.000000 0.000000
# 3 -0.040538 0.091748 -0.022116 0.000000 0.000000 0.000000
# 4 0.000000 0.000000 0.000000 0.064349 0.000000 0.000000
# 5 0.000000 0.000000 0.000000 0.000000 0.003184 0.000000
# 6 0.000000 0.000000 0.000000 0.000000 0.000000 0.053555
#
#
# Mechanical properties :
#
#
# Convention : Reuss Voigt Hill
#
# Bulk Modulus (GPa) = 7.97425 8.04705 8.01065
# Shear Modulus (GPa) = -16.44569 74.08144 28.81787
#
# Velocity S-wave (km/s) = -2.88855 6.13067 3.82371
# Velocity P-wave (km/s) = 2.66068 7.36181 4.85371
#
# Compressibility (1/GPa) = 0.12540372
#
# Stress axis : x y z
#
# Youngs Moduli (GPa) = -59.01989 -7.59310 -45.21532
#
# Poissons Ratio (x) = 0.73555 -1.83296
# Poissons Ratio (y) = 5.71733 4.14843
# Poissons Ratio (z) = -2.39258 0.69665
#
# Static dielectric constant tensor:
#      x y z
#    x 1.674330 0.000000 0.000000 
#    y 0.000000 1.700970 0.000000 
#    z 0.000000 0.000000 1.705830 
# 
# From -- ./inp_files/15591.got.cif
#   From: 2010.05.17/outbox.ucp.g08.bks.cvg/sg38_8_cif.got.tgz:15591.got - 2010.06.11 10:39:43.
