data_PCOD9359506
_publ_section_title
;
Structure prediction by ZEFSAII (Michael W. Deem and Ramdas Pophale) SiO2 
 PCOD9359506
Probable space group: A M M 2
;
_chemical_formula_sum "Si O2"
_cell_formula_units_Z 56
_cell_length_a 7.474452
_cell_length_b 19.301406
_cell_length_c 21.601697
_cell_angle_alpha 90.000000
_cell_angle_beta 90.000000
_cell_angle_gamma 90.000000
_cell_volume 3116.421368
_symmetry_space_group_name_H-M "A M M 2"
_symmetry_group_IT_number 38
_symmetry_cell_setting 'orthorhombic'
loop_
_space_group_symop_operation_xyz
x,y,z
-x,-y,z
-x,y,z
x,-y,z
x,1/2+y,1/2+z
-x,1/2-y,1/2+z
-x,1/2+y,1/2+z
x,1/2-y,1/2+z
loop_
_atom_site_type_symbol
_atom_site_label
_atom_site_fract_x
_atom_site_fract_y
_atom_site_fract_z
Si Si1 0.287780 0.577195 0.913840
Si Si2 0.287206 0.781756 0.461713
Si Si3 0.219520 0.579278 0.404274
Si Si4 0.216532 0.847901 0.284013
Si Si5 0.214096 0.848649 0.031739
Si Si6 0.218929 0.919877 0.157547
Si Si7 0.797198 0.207774 0.835153
O O1 0.500000 0.571925 0.924000
O O2 0.211577 0.500000 0.920483
O O3 0.223135 0.638896 0.959017
O O4 0.262417 0.606193 0.844144
O O5 0.500000 0.781814 0.449992
O O6 0.254255 0.732173 0.519800
O O7 0.198666 0.743445 0.403201
O O8 0.273408 0.500000 0.396085
O O9 0.278163 0.608681 0.471337
O O10 0.282097 0.632772 0.351160
O O11 0.000000 0.581450 0.403971
O O12 0.277313 0.883182 0.220822
O O13 0.284331 0.769115 0.293912
O O14 0.000000 0.844111 0.282931
O O15 0.279870 0.879943 0.096053
O O16 0.000000 0.856067 0.032120
O O17 0.000000 0.919048 0.157817
O O18 0.273383 0.000000 0.155926
O O19 0.000000 0.196424 0.812971
#
# Coordination Sequence:
#
# PCOD9359506 Si02
#       7
#     8   8   8   8   8   8   8
#     4   9  17  28  41  58  80 104 128 157 196 237
#     4   9  16  26  40  56  75  99 126 157 193 232
#     4   8  12  19  34  54  72  92 122 158 190 221
#     4   9  16  26  40  59  82 106 133 163 191 223
#     4   9  16  26  39  54  74 101 131 161 191 225
#     4   9  16  25  39  59  80 105 137 165 187 219
#     4   8  14  24  38  56  77 100 127 159 193 228
#
# _framework density 17.969329999999999
#
# number of rings (size 3 to 8) (size 9 to 14) (size 15 to 20)
#    0.000    3.286    0.000    2.143    0.000    3.143 
#    0.000    0.714    0.000   11.571    0.000    1.000 
#    0.000    3.429    0.000    0.286    0.000    0.000 
#
# Total GULP energy -155900.019063 kJ/mol
# GULP energy per Si atom -5567.857824 kJ/mol
# Density = 1.792843 g / cm^3
# Si number density = 17.969330 Si / 1000 Ang^3
#
#
#
# Elastic Constant Matrix: (Units=GPa)
#
#
# Indices 1 2 3 4 5 6 
#
# 1 53.9326 1.4489 -1.1300 0.0000 0.0000 0.0000
# 2 1.4489 207.2825 81.4150 0.0000 0.0000 0.0000
# 3 -1.1300 81.4150 84.0969 0.0000 0.0000 0.0000
# 4 0.0000 0.0000 0.0000 30.8173 0.0000 0.0000
# 5 0.0000 0.0000 0.0000 0.0000 17.3499 0.0000
# 6 0.0000 0.0000 0.0000 0.0000 0.0000 -16.9721
#
#
#
# Elastic Compliance Matrix: (Units=1/GPa)
#
#
# Indices 1 2 3 4 5 6 
#
# 1 0.018564 -0.000367 0.000605 0.000000 0.000000 0.000000
# 2 -0.000367 0.007792 -0.007548 0.000000 0.000000 0.000000
# 3 0.000605 -0.007548 0.019206 0.000000 0.000000 0.000000
# 4 0.000000 0.000000 0.000000 0.032449 0.000000 0.000000
# 5 0.000000 0.000000 0.000000 0.000000 0.057637 0.000000
# 6 0.000000 0.000000 0.000000 0.000000 0.000000 -0.058920
#
#
# Mechanical properties :
#
#
# Convention : Reuss Voigt Hill
#
# Bulk Modulus (GPa) = 32.31889 56.53108 44.42498
# Shear Modulus (GPa) = 49.18204 23.81089 36.49647
#
# Velocity S-wave (km/s) = 5.23731 3.64412 4.51160
# Velocity P-wave (km/s) = 7.38899 7.01671 7.20525
#
# Compressibility (1/GPa) = 0.03094166
#
# Stress axis : x y z
#
# Youngs Moduli (GPa) = 53.86707 128.34405 52.06580
#
# Poissons Ratio (x) = 0.04716 -0.03151
# Poissons Ratio (y) = 0.01979 0.39299
# Poissons Ratio (z) = -0.03260 0.96874
#
# Static dielectric constant tensor:
#      x y z
#    x 1.685430 0.000000 0.000000 
#    y 0.000000 1.666950 0.000000 
#    z 0.000000 0.000000 1.582740 
# 
# From -- ./inp_files/19975.got.cif
#   From: 2010.05.17/outbox.cif.g08.bks.cpg/sg38_10_cif.got.tgz:19975.got - 2010.06.03 18:07:57.
