data_PCOD9359712
_publ_section_title
;
Structure prediction by ZEFSAII (Michael W. Deem and Ramdas Pophale) SiO2 
 PCOD9359712
Probable space group: A B M 2
;
_chemical_formula_sum "Si O2"
_cell_formula_units_Z 48
_cell_length_a 9.163136
_cell_length_b 8.641549
_cell_length_c 32.966508
_cell_angle_alpha 90.000000
_cell_angle_beta 90.000000
_cell_angle_gamma 90.000000
_cell_volume 2610.409708
_symmetry_space_group_name_H-M "A B M 2"
_symmetry_group_IT_number 39
_symmetry_cell_setting 'orthorhombic'
loop_
_space_group_symop_operation_xyz
x,y,z
-x,-y,z
-x,1/2+y,z
x,1/2-y,z
x,1/2+y,1/2+z
-x,1/2-y,1/2+z
-x,y,1/2+z
x,-y,1/2+z
loop_
_atom_site_type_symbol
_atom_site_label
_atom_site_fract_x
_atom_site_fract_y
_atom_site_fract_z
Si Si1 0.335593 0.936036 0.021030
Si Si2 0.333915 0.935579 0.853972
Si Si3 0.837792 0.563439 0.601610
Si Si4 0.665761 0.064601 0.765384
Si Si5 0.666275 0.565477 0.936958
Si Si6 0.335547 0.064371 0.681767
O O1 0.341028 0.750000 0.018547
O O2 0.246391 0.983970 0.060757
O O3 0.500000 0.000000 0.024931
O O4 0.270004 0.001635 0.979027
O O5 0.339514 0.750000 0.857744
O O6 0.268704 0.975053 0.809654
O O7 0.500000 0.000000 0.852719
O O8 0.265607 0.006083 0.894747
O O9 0.840858 0.750000 0.601912
O O10 0.753489 0.513413 0.642257
O O11 0.000000 0.500000 0.601503
O O12 0.660365 0.250000 0.762183
O O13 0.500000 0.000000 0.766045
O O14 0.731273 0.995555 0.724251
O O15 0.500000 0.500000 0.936949
O O16 0.661766 0.750000 0.937368
O O17 0.341845 0.250000 0.682979
O O18 0.500000 0.000000 0.678543
#
# Coordination Sequence:
#
# PCOD9359712 Si02
#       6
#     8   8   8   8   8   8
#     4  10  19  33  51  73  99 128 163 201 242 287
#     4   9  15  23  36  58  91 126 158 192 233 280
#     4  10  23  38  53  73  97 127 163 202 245 293
#     4   9  16  25  40  64  93 127 161 194 236 282
#     4  10  17  25  40  64  93 126 160 194 237 283
#     4  10  19  32  50  74 100 128 163 201 242 287
#
# _framework density 18.387917999999999
#
# number of rings (size 3 to 8) (size 9 to 14) (size 15 to 20)
#    0.000    2.333    0.000    7.000    0.000    4.667 
#    0.000    0.000    0.000    0.000    0.000    1.167 
#    0.000    8.000    0.000    0.000    0.000    0.000 
#
# Total GULP energy -133756.852170 kJ/mol
# GULP energy per Si atom -5573.202174 kJ/mol
# Density = 1.834607 g / cm^3
# Si number density = 18.387918 Si / 1000 Ang^3
#
#
#
# Elastic Constant Matrix: (Units=GPa)
#
#
# Indices 1 2 3 4 5 6 
#
# 1 35.6257 14.6454 52.5630 0.0000 0.0000 0.0000
# 2 14.6454 81.7037 64.4894 0.0000 0.0000 0.0000
# 3 52.5630 64.4894 247.2351 0.0000 0.0000 0.0000
# 4 0.0000 0.0000 0.0000 45.2720 0.0000 0.0000
# 5 0.0000 0.0000 0.0000 0.0000 0.9304 0.0000
# 6 0.0000 0.0000 0.0000 0.0000 0.0000 15.8338
#
#
#
# Elastic Compliance Matrix: (Units=1/GPa)
#
#
# Indices 1 2 3 4 5 6 
#
# 1 0.040921 -0.000590 -0.008546 0.000000 0.000000 0.000000
# 2 -0.000590 0.015421 -0.003897 0.000000 0.000000 0.000000
# 3 -0.008546 -0.003897 0.006878 0.000000 0.000000 0.000000
# 4 0.000000 0.000000 0.000000 0.022089 0.000000 0.000000
# 5 0.000000 0.000000 0.000000 0.000000 1.074773 0.000000
# 6 0.000000 0.000000 0.000000 0.000000 0.000000 0.063156
#
#
# Mechanical properties :
#
#
# Convention : Reuss Voigt Hill
#
# Bulk Modulus (GPa) = 26.91444 69.77335 48.34390
# Shear Modulus (GPa) = 3.96294 27.93169 15.94732
#
# Velocity S-wave (km/s) = 1.46965 3.90169 2.94814
# Velocity P-wave (km/s) = 4.18911 7.63709 6.15930
#
# Compressibility (1/GPa) = 0.03715477
#
# Stress axis : x y z
#
# Youngs Moduli (GPa) = 24.43716 64.84635 145.38640
#
# Poissons Ratio (x) = 0.03823 1.24250
# Poissons Ratio (y) = 0.01441 0.56659
# Poissons Ratio (z) = 0.20885 0.25271
#
# Static dielectric constant tensor:
#      x y z
#    x 1.558240 0.000000 0.000000 
#    y 0.000000 1.616570 0.000000 
#    z 0.000000 0.000000 1.726850 
# 
# From -- ./inp_files/17619.got.cif
#   From: 2010.05.17/outbox.cif.g08.bks.cpg/sg39_9_cif.got.tgz:17619.got - 2010.06.03 18:22:40.
