data_PCOD9359699
_publ_section_title
;
Structure prediction by ZEFSAII (Michael W. Deem and Ramdas Pophale) SiO2 
 PCOD9359699
Probable space group: A B M 2
;
_chemical_formula_sum "Si O2"
_cell_formula_units_Z 56
_cell_length_a 16.910412
_cell_length_b 34.256524
_cell_length_c 5.489912
_cell_angle_alpha 90.000000
_cell_angle_beta 90.000000
_cell_angle_gamma 90.000000
_cell_volume 3180.261743
_symmetry_space_group_name_H-M "A B M 2"
_symmetry_group_IT_number 39
_symmetry_cell_setting 'orthorhombic'
loop_
_space_group_symop_operation_xyz
x,y,z
-x,-y,z
-x,1/2+y,z
x,1/2-y,z
x,1/2+y,1/2+z
-x,1/2-y,1/2+z
-x,y,1/2+z
x,-y,1/2+z
loop_
_atom_site_type_symbol
_atom_site_label
_atom_site_fract_x
_atom_site_fract_y
_atom_site_fract_z
Si Si1 0.750600 0.704458 0.701920
Si Si2 0.949056 0.607040 0.201176
Si Si3 0.951821 0.750000 0.238363
Si Si4 0.398154 0.840324 0.209494
Si Si5 0.552924 0.750000 0.208594
Si Si6 0.411817 0.336839 0.209653
Si Si7 0.909666 0.483736 0.701256
Si Si8 0.168078 0.678448 0.703101
O O1 0.771005 0.750000 0.698107
O O2 0.656217 0.698003 0.707360
O O3 0.782667 0.684850 0.452952
O O4 0.784830 0.685602 0.950375
O O5 0.917250 0.562768 0.201235
O O6 0.877369 0.637549 0.201495
O O7 0.000051 0.612549 0.451089
O O8 0.898357 0.788090 0.211211
O O9 0.989056 0.750000 0.508262
O O10 0.492374 0.834907 0.209991
O O11 0.381430 0.858164 0.470350
O O12 0.381976 0.858388 0.948838
O O13 0.499987 0.750000 0.458586
O O14 0.603890 0.709958 0.208691
O O15 0.872995 0.500002 0.451259
O O16 0.000000 0.500000 0.701262
#
# Coordination Sequence:
#
# PCOD9359699 Si02
#       8
#     8   8   4   8   4   8   8   8
#     4  12  24  39  50  63  91 132 165 216 265 292
#     4  12  21  35  58  80  96 130 152 197 254 295
#     4  12  22  40  57  67  82 110 160 238 260 268
#     4  10  20  31  48  63  86 115 146 196 265 300
#     4  12  16  24  33  55  86  96 108 174 236 280
#     4  10  19  29  42  71  87 100 146 200 243 310
#     4  10  16  30  51  82 117 117 135 175 237 295
#     4  12  25  41  50  70  93 122 176 207 252 312
#
# _framework density 17.608613999999999
#
# number of rings (size 3 to 8) (size 9 to 14) (size 15 to 20)
#    0.000    0.857    7.143    3.429    3.000    0.000 
#    0.000    0.000    0.000    0.000    0.000    0.000 
#    0.000    0.000    0.000    0.000    0.000    0.000 
#
# Total GULP energy -155965.404705 kJ/mol
# GULP energy per Si atom -5570.193025 kJ/mol
# Density = 1.756854 g / cm^3
# Si number density = 17.608614 Si / 1000 Ang^3
#
#
#
# Elastic Constant Matrix: (Units=GPa)
#
#
# Indices 1 2 3 4 5 6 
#
# 1 45.2189 26.6188 25.1521 0.0000 0.0000 0.0000
# 2 26.6188 85.2095 24.1451 0.0000 0.0000 0.0000
# 3 25.1521 24.1451 222.4146 0.0000 0.0000 0.0000
# 4 0.0000 0.0000 0.0000 16.6879 0.0000 0.0000
# 5 0.0000 0.0000 0.0000 0.0000 19.3730 0.0000
# 6 0.0000 0.0000 0.0000 0.0000 0.0000 8.0242
#
#
#
# Elastic Compliance Matrix: (Units=1/GPa)
#
#
# Indices 1 2 3 4 5 6 
#
# 1 0.028197 -0.008156 -0.002303 0.000000 0.000000 0.000000
# 2 -0.008156 0.014467 -0.000648 0.000000 0.000000 0.000000
# 3 -0.002303 -0.000648 0.004827 0.000000 0.000000 0.000000
# 4 0.000000 0.000000 0.000000 0.059924 0.000000 0.000000
# 5 0.000000 0.000000 0.000000 0.000000 0.051618 0.000000
# 6 0.000000 0.000000 0.000000 0.000000 0.000000 0.124623
#
#
# Mechanical properties :
#
#
# Convention : Reuss Voigt Hill
#
# Bulk Modulus (GPa) = 39.56265 56.07501 47.81883
# Shear Modulus (GPa) = 15.90857 27.27882 21.59370
#
# Velocity S-wave (km/s) = 3.00901 3.94023 3.50568
# Velocity P-wave (km/s) = 5.88122 7.25361 6.60317
#
# Compressibility (1/GPa) = 0.02527637
#
# Stress axis : x y z
#
# Youngs Moduli (GPa) = 35.46500 69.12154 207.17009
#
# Poissons Ratio (x) = 0.56374 0.47717
# Poissons Ratio (y) = 0.28925 0.13430
# Poissons Ratio (z) = 0.08169 0.04481
#
# Static dielectric constant tensor:
#      x y z
#    x 1.635010 0.000000 0.000000 
#    y 0.000000 1.669770 0.000000 
#    z 0.000000 0.000000 1.756150 
# 
# From -- ./inp_files/674.got.cif
#   From: 2010.05.17/outbox.cif.g08.bks.cpg/sg39_1_cif.got.tgz:674.got - 2010.06.03 18:22:40.
