data_PCOD9359971
_publ_section_title
;
Structure prediction by ZEFSAII (Michael W. Deem and Ramdas Pophale) SiO2 
 PCOD9359971
Probable space group: A B M 2
;
_chemical_formula_sum "Si O2"
_cell_formula_units_Z 64
_cell_length_a 23.498994
_cell_length_b 15.831509
_cell_length_c 8.876404
_cell_angle_alpha 90.000000
_cell_angle_beta 90.000000
_cell_angle_gamma 90.000000
_cell_volume 3302.240071
_symmetry_space_group_name_H-M "A B M 2"
_symmetry_group_IT_number 39
_symmetry_cell_setting 'orthorhombic'
loop_
_space_group_symop_operation_xyz
x,y,z
-x,-y,z
-x,1/2+y,z
x,1/2-y,z
x,1/2+y,1/2+z
-x,1/2-y,1/2+z
-x,y,1/2+z
x,-y,1/2+z
loop_
_atom_site_type_symbol
_atom_site_label
_atom_site_fract_x
_atom_site_fract_y
_atom_site_fract_z
Si Si1 0.019567 0.093375 0.214040
Si Si2 0.283203 0.960784 0.035351
Si Si3 0.641707 0.442183 0.771294
Si Si4 0.453926 0.070000 0.826507
Si Si5 0.537529 0.345203 0.626166
Si Si6 0.873217 0.532540 0.035495
Si Si7 0.080015 0.345254 0.507895
Si Si8 0.798370 0.964355 0.777671
O O1 0.047325 0.144584 0.349366
O O2 0.068034 0.072876 0.089628
O O3 0.000000 0.000000 0.269856
O O4 0.966831 0.139978 0.137825
O O5 0.242260 0.915806 0.158650
O O6 0.315440 0.031560 0.136680
O O7 0.328227 0.913828 0.926835
O O8 0.242569 0.000796 0.908178
O O9 0.606898 0.527695 0.808326
O O10 0.592697 0.380861 0.712009
O O11 0.481555 0.103680 0.674346
O O12 0.500000 0.000000 0.879412
O O13 0.452300 0.141627 0.950761
O O14 0.528689 0.250000 0.668419
O O15 0.828384 0.535843 0.173734
O O16 0.881350 0.430476 0.014537
O O17 0.849456 0.572067 0.880484
O O18 0.104569 0.250000 0.519226
#
# Coordination Sequence:
#
# PCOD9359971 Si02
#       8
#     8   8   8   8   8   8   8   8
#     4  10  20  34  54  78 109 146 181 215 250 316
#     4   9  18  32  56  86 101 125 183 237 262 301
#     4  10  18  34  57  82 105 141 176 221 265 310
#     4  10  20  34  54  78 109 146 181 215 249 316
#     4  11  22  34  51  81 116 144 173 211 264 322
#     4  10  18  34  57  82 105 141 176 220 265 311
#     4  11  22  34  51  81 116 144 173 212 264 322
#     4   9  18  32  56  86 101 125 183 237 261 302
#
# _framework density 19.380783000000001
#
# number of rings (size 3 to 8) (size 9 to 14) (size 15 to 20)
#    0.000    2.000    2.500    3.000    3.500    0.000 
#    0.000    0.000    0.000    7.500    0.000    0.000 
#    0.000    0.000    0.000    0.000    0.000    0.000 
#
# Total GULP energy -178154.649140 kJ/mol
# GULP energy per Si atom -5567.332786 kJ/mol
# Density = 1.933667 g / cm^3
# Si number density = 19.380783 Si / 1000 Ang^3
#
#
#
# Elastic Constant Matrix: (Units=GPa)
#
#
# Indices 1 2 3 4 5 6 
#
# 1 65.6045 1.9830 23.5444 0.0000 0.0000 0.0000
# 2 1.9830 51.0964 6.6736 0.0000 0.0000 0.0000
# 3 23.5444 6.6736 103.9778 0.0000 0.0000 0.0000
# 4 0.0000 0.0000 0.0000 6.6382 0.0000 0.0000
# 5 0.0000 0.0000 0.0000 0.0000 37.0013 0.0000
# 6 0.0000 0.0000 0.0000 0.0000 0.0000 -0.3297
#
#
#
# Elastic Compliance Matrix: (Units=1/GPa)
#
#
# Indices 1 2 3 4 5 6 
#
# 1 0.016592 -0.000155 -0.003747 0.000000 0.000000 0.000000
# 2 -0.000155 0.019738 -0.001232 0.000000 0.000000 0.000000
# 3 -0.003747 -0.001232 0.010545 0.000000 0.000000 0.000000
# 4 0.000000 0.000000 0.000000 0.150644 0.000000 0.000000
# 5 0.000000 0.000000 0.000000 0.000000 0.027026 0.000000
# 6 0.000000 0.000000 0.000000 0.000000 0.000000 -3.032996
#
#
# Mechanical properties :
#
#
# Convention : Reuss Voigt Hill
#
# Bulk Modulus (GPa) = 27.31644 31.67562 29.49603
# Shear Modulus (GPa) = -1.79470 21.22712 9.71621
#
# Velocity S-wave (km/s) = -0.96334 3.31307 2.24147
# Velocity P-wave (km/s) = 3.58996 5.56907 4.68521
#
# Compressibility (1/GPa) = 0.03660799
#
# Stress axis : x y z
#
# Youngs Moduli (GPa) = 60.26876 50.66441 94.83161
#
# Poissons Ratio (x) = 0.00783 0.35535
# Poissons Ratio (y) = 0.00931 0.11682
# Poissons Ratio (z) = 0.22584 0.06241
#
# Static dielectric constant tensor:
#      x y z
#    x 1.751370 0.000000 0.000000 
#    y 0.000000 1.651540 0.000000 
#    z 0.000000 0.000000 1.715350 
# 
# From -- ./inp_files/4106.got.cif
#   From: 2010.05.17/outbox.cif.g08.bks.cpg/sg39_3_cif.got.tgz:4106.got - 2010.06.03 18:22:40.
