data_PCOD9359884
_publ_section_title
;
Structure prediction by ZEFSAII (Michael W. Deem and Ramdas Pophale) SiO2 
 PCOD9359884
Probable space group: A B M 2
;
_chemical_formula_sum "Si O2"
_cell_formula_units_Z 52
_cell_length_a 9.463642
_cell_length_b 14.316993
_cell_length_c 21.552878
_cell_angle_alpha 90.000000
_cell_angle_beta 90.000000
_cell_angle_gamma 90.000000
_cell_volume 2920.218757
_symmetry_space_group_name_H-M "A B M 2"
_symmetry_group_IT_number 39
_symmetry_cell_setting 'orthorhombic'
loop_
_space_group_symop_operation_xyz
x,y,z
-x,-y,z
-x,1/2+y,z
x,1/2-y,z
x,1/2+y,1/2+z
-x,1/2-y,1/2+z
-x,y,1/2+z
x,-y,1/2+z
loop_
_atom_site_type_symbol
_atom_site_label
_atom_site_fract_x
_atom_site_fract_y
_atom_site_fract_z
Si Si1 0.160654 0.028080 0.809340
Si Si2 0.359574 0.149315 0.159410
Si Si3 0.415315 0.595730 0.795889
Si Si4 0.643318 0.854509 0.893575
Si Si5 0.500000 0.000000 0.484926
Si Si6 0.358095 0.857608 0.077734
Si Si7 0.161242 0.471282 0.661923
O O1 0.224402 0.108473 0.853053
O O2 0.173516 0.052302 0.735658
O O3 0.263719 0.939258 0.819612
O O4 0.000000 0.000000 0.821811
O O5 0.295812 0.250000 0.142402
O O6 0.395493 0.148435 0.232094
O O7 0.505180 0.138533 0.122669
O O8 0.258036 0.062031 0.149190
O O9 0.500000 0.500000 0.781069
O O10 0.510170 0.645843 0.846451
O O11 0.665801 0.750000 0.918234
O O12 0.597907 0.931499 0.943897
O O13 0.398965 0.067886 0.524951
O O14 0.342958 0.750000 0.056266
O O15 0.224249 0.891115 0.118114
O O16 0.000000 0.500000 0.650009
#
# Coordination Sequence:
#
# PCOD9359884 Si02
#       7
#     8   8   8   8   4   8   8
#     4   9  18  35  58  83 119 152 176 227 297 350
#     4  10  18  31  55  84 110 142 183 233 291 349
#     4   9  16  31  54  82 112 142 178 234 291 341
#     4  11  21  36  60  85 110 151 196 240 287 337
#     4  12  22  40  58  82 114 150 200 256 282 318
#     4  11  22  37  61  84 110 150 196 241 287 338
#     4  10  20  36  58  85 120 150 179 231 292 356
#
# _framework density 17.806885000000001
#
# number of rings (size 3 to 8) (size 9 to 14) (size 15 to 20)
#    0.000    1.846    3.846    3.692    0.000    2.462 
#    0.000    7.692    0.000    1.846    0.000    0.000 
#    0.000    0.000    0.000    0.000    0.000    0.000 
#
# Total GULP energy -144974.254576 kJ/mol
# GULP energy per Si atom -5575.932868 kJ/mol
# Density = 1.776636 g / cm^3
# Si number density = 17.806885 Si / 1000 Ang^3
#
#
#
# Elastic Constant Matrix: (Units=GPa)
#
#
# Indices 1 2 3 4 5 6 
#
# 1 108.5214 39.7360 30.8037 0.0000 0.0000 0.0000
# 2 39.7360 135.4085 47.9292 0.0000 0.0000 0.0000
# 3 30.8037 47.9292 55.3258 0.0000 0.0000 0.0000
# 4 0.0000 0.0000 0.0000 150.4061 0.0000 0.0000
# 5 0.0000 0.0000 0.0000 0.0000 15.1401 0.0000
# 6 0.0000 0.0000 0.0000 0.0000 0.0000 9.4037
#
#
#
# Elastic Compliance Matrix: (Units=1/GPa)
#
#
# Indices 1 2 3 4 5 6 
#
# 1 0.011166 -0.001552 -0.004872 0.000000 0.000000 0.000000
# 2 -0.001552 0.010867 -0.008550 0.000000 0.000000 0.000000
# 3 -0.004872 -0.008550 0.028194 0.000000 0.000000 0.000000
# 4 0.000000 0.000000 0.000000 0.006649 0.000000 0.000000
# 5 0.000000 0.000000 0.000000 0.000000 0.066050 0.000000
# 6 0.000000 0.000000 0.000000 0.000000 0.000000 0.106341
#
#
# Mechanical properties :
#
#
# Convention : Reuss Voigt Hill
#
# Bulk Modulus (GPa) = 49.31291 59.57706 54.44498
# Shear Modulus (GPa) = 18.79879 47.04243 32.92061
#
# Velocity S-wave (km/s) = 3.25268 5.14543 4.30438
# Velocity P-wave (km/s) = 6.46992 8.29642 7.43944
#
# Compressibility (1/GPa) = 0.02027866
#
# Stress axis : x y z
#
# Youngs Moduli (GPa) = 89.55686 92.02290 35.46808
#
# Poissons Ratio (x) = 0.14283 0.17281
# Poissons Ratio (y) = 0.13900 0.30325
# Poissons Ratio (z) = 0.43635 0.78679
#
# Static dielectric constant tensor:
#      x y z
#    x 1.590730 0.000000 0.000000 
#    y 0.000000 1.563890 0.000000 
#    z 0.000000 0.000000 1.621730 
# 
# From -- ./inp_files/14026.got.cif
#   From: 2010.05.17/outbox.cif.g08.bks.cpg/sg39_8_cif.got.tgz:14026.got - 2010.06.03 18:22:40.
