data_PCOD9359837
_publ_section_title
;
Structure prediction by ZEFSAII (Michael W. Deem and Ramdas Pophale) SiO2 
 PCOD9359837
Probable space group: A B M 2
;
_chemical_formula_sum "Si O2"
_cell_formula_units_Z 64
_cell_length_a 16.145576
_cell_length_b 9.662764
_cell_length_c 21.735586
_cell_angle_alpha 90.000000
_cell_angle_beta 90.000000
_cell_angle_gamma 90.000000
_cell_volume 3390.988128
_symmetry_space_group_name_H-M "A B M 2"
_symmetry_group_IT_number 39
_symmetry_cell_setting 'orthorhombic'
loop_
_space_group_symop_operation_xyz
x,y,z
-x,-y,z
-x,1/2+y,z
x,1/2-y,z
x,1/2+y,1/2+z
-x,1/2-y,1/2+z
-x,y,1/2+z
x,-y,1/2+z
loop_
_atom_site_type_symbol
_atom_site_label
_atom_site_fract_x
_atom_site_fract_y
_atom_site_fract_z
Si Si1 0.818705 0.903878 0.833920
Si Si2 0.288582 0.905838 0.904132
Si Si3 0.258243 0.088355 0.647365
Si Si4 0.415124 0.086374 0.127300
Si Si5 0.172773 0.898557 0.021801
Si Si6 0.582644 0.087715 0.479530
Si Si7 0.072076 0.902044 0.454896
Si Si8 0.083276 0.585472 0.212785
O O1 0.784925 0.750000 0.818170
O O2 0.862104 0.892072 0.900148
O O3 0.888151 0.937082 0.783475
O O4 0.750282 0.021786 0.843919
O O5 0.321326 0.750000 0.893074
O O6 0.217584 0.889743 0.956132
O O7 0.350383 0.012663 0.936832
O O8 0.275930 0.250000 0.663266
O O9 0.239925 0.082586 0.574502
O O10 0.168895 0.050471 0.676718
O O11 0.336429 0.989206 0.658995
O O12 0.422801 0.250000 0.143109
O O13 0.400422 0.080454 0.053043
O O14 0.500000 0.000000 0.139126
O O15 0.131793 0.750000 0.034891
O O16 0.110970 0.025265 0.014550
O O17 0.574581 0.250000 0.464193
O O18 0.500000 0.000000 0.469874
O O19 0.041127 0.750000 0.468614
O O20 0.000000 0.000000 0.432018
O O21 0.068047 0.750000 0.203750
O O22 0.000000 0.500000 0.198264
#
# Coordination Sequence:
#
# PCOD9359837 Si02
#       8
#     8   8   8   8   8   8   8   8
#     4   9  19  35  53  74  99 132 175 223 272 321
#     4  10  18  30  51  77 105 138 172 213 265 320
#     4  10  20  36  56  79 111 147 184 229 281 331
#     4  10  20  33  54  83 115 151 188 226 271 326
#     4   9  18  31  47  69 100 133 167 206 255 317
#     4  10  19  30  48  77 113 147 179 215 261 321
#     4  10  19  30  47  69  96 127 164 210 261 316
#     4  10  22  39  59  80 106 143 189 240 288 334
#
# _framework density 18.873556000000001
#
# number of rings (size 3 to 8) (size 9 to 14) (size 15 to 20)
#    0.000    2.250    1.250    1.875    0.000    4.000 
#    0.000    1.250    0.000    0.750    0.000    3.500 
#    0.000    0.000    0.000    0.000    0.000    0.000 
#
# Total GULP energy -178136.747914 kJ/mol
# GULP energy per Si atom -5566.773372 kJ/mol
# Density = 1.883060 g / cm^3
# Si number density = 18.873556 Si / 1000 Ang^3
#
#
#
# Elastic Constant Matrix: (Units=GPa)
#
#
# Indices 1 2 3 4 5 6 
#
# 1 101.4037 81.8088 21.8456 0.0000 0.0000 0.0000
# 2 81.8088 166.3747 27.9479 0.0000 0.0000 0.0000
# 3 21.8456 27.9479 14.3229 0.0000 0.0000 0.0000
# 4 0.0000 0.0000 0.0000 16.3829 0.0000 0.0000
# 5 0.0000 0.0000 0.0000 0.0000 25.4372 0.0000
# 6 0.0000 0.0000 0.0000 0.0000 0.0000 20.2582
#
#
#
# Elastic Compliance Matrix: (Units=1/GPa)
#
#
# Indices 1 2 3 4 5 6 
#
# 1 0.018397 -0.006445 -0.015483 0.000000 0.000000 0.000000
# 2 -0.006445 0.011199 -0.012023 0.000000 0.000000 0.000000
# 3 -0.015483 -0.012023 0.116893 0.000000 0.000000 0.000000
# 4 0.000000 0.000000 0.000000 0.061039 0.000000 0.000000
# 5 0.000000 0.000000 0.000000 0.000000 0.039312 0.000000
# 6 0.000000 0.000000 0.000000 0.000000 0.000000 0.049363
#
#
# Mechanical properties :
#
#
# Convention : Reuss Voigt Hill
#
# Bulk Modulus (GPa) = 12.72469 60.58955 36.65712
# Shear Modulus (GPa) = 12.81063 22.44892 17.62978
#
# Velocity S-wave (km/s) = 2.60813 3.45256 3.05962
# Velocity P-wave (km/s) = 3.97825 6.93298 5.65211
#
# Compressibility (1/GPa) = 0.07858736
#
# Stress axis : x y z
#
# Youngs Moduli (GPa) = 54.35730 89.29159 8.55484
#
# Poissons Ratio (x) = 0.57549 0.13245
# Poissons Ratio (y) = 0.35034 0.10285
# Poissons Ratio (z) = 0.84162 1.07352
#
# Static dielectric constant tensor:
#      x y z
#    x 1.680400 0.000000 0.000000 
#    y 0.000000 1.717030 0.000000 
#    z 0.000000 0.000000 1.666050 
# 
# From -- ./inp_files/16195.got.cif
#   From: 2010.05.17/outbox.cif.g08.bks.cpg/sg39_9_cif.got.tgz:16195.got - 2010.06.03 18:22:40.
