data_PCOD9359172
_publ_section_title
;
Structure prediction by ZEFSAII (Michael W. Deem and Ramdas Pophale) SiO2 
 PCOD9359172
Probable space group: A M M 2
;
_chemical_formula_sum "Si O2"
_cell_formula_units_Z 56
_cell_length_a 20.820524
_cell_length_b 7.730935
_cell_length_c 15.812971
_cell_angle_alpha 90.000000
_cell_angle_beta 90.000000
_cell_angle_gamma 90.000000
_cell_volume 2545.289299
_symmetry_space_group_name_H-M "A M M 2"
_symmetry_group_IT_number 38
_symmetry_cell_setting 'orthorhombic'
loop_
_space_group_symop_operation_xyz
x,y,z
-x,-y,z
-x,y,z
x,-y,z
x,1/2+y,1/2+z
-x,1/2-y,1/2+z
-x,1/2+y,1/2+z
x,1/2-y,1/2+z
loop_
_atom_site_type_symbol
_atom_site_label
_atom_site_fract_x
_atom_site_fract_y
_atom_site_fract_z
Si Si1 0.430360 0.700966 0.215040
Si Si2 0.841017 0.713007 0.492215
Si Si3 0.707821 0.210361 0.730851
Si Si4 0.150823 0.297344 0.676150
Si Si5 0.568821 0.704828 0.910832
Si Si6 0.705344 0.207193 0.927590
Si Si7 0.071959 0.296467 0.339068
O O1 0.500000 0.777985 0.190541
O O2 0.431292 0.500000 0.188573
O O3 0.360105 0.773055 0.191932
O O4 0.428739 0.706895 0.318236
O O5 0.840072 0.500000 0.492163
O O6 0.865858 0.770062 0.583259
O O7 0.767528 0.770349 0.477271
O O8 0.885156 0.775010 0.415498
O O9 0.772902 0.271926 0.688212
O O10 0.710590 0.265765 0.829567
O O11 0.707155 0.000000 0.729529
O O12 0.136715 0.500000 0.678900
O O13 0.111644 0.217660 0.752819
O O14 0.500000 0.752420 0.950763
O O15 0.568357 0.500000 0.895217
O O16 0.634432 0.744542 0.958996
O O17 0.708169 0.000000 0.926169
O O18 0.065912 0.500000 0.357086
O O19 0.000000 0.223525 0.332754
#
# Coordination Sequence:
#
# PCOD9359172 Si02
#       7
#     8   8   8   8   8   8   8
#     4   8  14  25  42  65  94 135 186 229 264 313
#     4   9  19  37  58  82 110 146 187 220 260 320
#     4   9  16  29  51  75 104 143 186 227 268 323
#     4  11  22  35  57  87 117 144 177 226 275 319
#     4   9  16  24  37  65 104 137 170 221 282 330
#     4   9  16  30  52  71  96 139 189 228 256 312
#     4  10  21  41  66  85 108 145 182 215 261 325
#
# _framework density 22.001428000000001
#
# number of rings (size 3 to 8) (size 9 to 14) (size 15 to 20)
#    0.000    2.714    1.429    1.714    0.000    4.000 
#    0.000    4.286    0.000    0.857    0.000    4.000 
#    0.000    0.000    0.000    0.000    0.000    0.000 
#
# Total GULP energy -156159.369022 kJ/mol
# GULP energy per Si atom -5577.120322 kJ/mol
# Density = 2.195135 g / cm^3
# Si number density = 22.001428 Si / 1000 Ang^3
#
#
#
# Elastic Constant Matrix: (Units=GPa)
#
#
# Indices 1 2 3 4 5 6 
#
# 1 173.4349 -2.0777 59.8009 0.0000 0.0000 0.0000
# 2 -2.0777 32.3345 -1.2469 0.0000 0.0000 0.0000
# 3 59.8009 -1.2469 93.4579 0.0000 0.0000 0.0000
# 4 0.0000 0.0000 0.0000 6.4456 0.0000 0.0000
# 5 0.0000 0.0000 0.0000 0.0000 -11.9940 0.0000
# 6 0.0000 0.0000 0.0000 0.0000 0.0000 -1.8908
#
#
#
# Elastic Compliance Matrix: (Units=1/GPa)
#
#
# Indices 1 2 3 4 5 6 
#
# 1 0.007401 0.000293 -0.004732 0.000000 0.000000 0.000000
# 2 0.000293 0.030954 0.000225 0.000000 0.000000 0.000000
# 3 -0.004732 0.000225 0.013731 0.000000 0.000000 0.000000
# 4 0.000000 0.000000 0.000000 0.155144 0.000000 0.000000
# 5 0.000000 0.000000 0.000000 0.000000 -0.083375 0.000000
# 6 0.000000 0.000000 0.000000 0.000000 0.000000 -0.528881
#
#
# Mechanical properties :
#
#
# Convention : Reuss Voigt Hill
#
# Bulk Modulus (GPa) = 22.90452 45.79777 34.35115
# Shear Modulus (GPa) = -13.08740 14.69557 0.80408
#
# Velocity S-wave (km/s) = -2.44159 2.58725 0.60520
# Velocity P-wave (km/s) = 1.57626 5.45767 4.01689
#
# Compressibility (1/GPa) = 0.04365951
#
# Stress axis : x y z
#
# Youngs Moduli (GPa) = 135.11941 32.30573 72.82960
#
# Poissons Ratio (x) = -0.00947 0.34461
# Poissons Ratio (y) = -0.03960 -0.01642
# Poissons Ratio (z) = 0.63934 -0.00728
#
# Static dielectric constant tensor:
#      x y z
#    x 1.846600 0.000000 0.000000 
#    y 0.000000 1.824620 0.000000 
#    z 0.000000 0.000000 1.793030 
# 
# From -- ./inp_files/15433.got.cif
#   From: 2010.05.17/outbox.cif.g08.bks.cpg/sg38_8_cif.got.tgz:15433.got - 2010.06.03 18:07:57.
