data_PCOD9359968
_publ_section_title
;
Structure prediction by ZEFSAII (Michael W. Deem and Ramdas Pophale) SiO2 
 PCOD9359968
Probable space group: A B M 2
;
_chemical_formula_sum "Si O2"
_cell_formula_units_Z 64
_cell_length_a 19.893560
_cell_length_b 7.910922
_cell_length_c 21.144067
_cell_angle_alpha 90.000000
_cell_angle_beta 90.000000
_cell_angle_gamma 90.000000
_cell_volume 3327.577177
_symmetry_space_group_name_H-M "A B M 2"
_symmetry_group_IT_number 39
_symmetry_cell_setting 'orthorhombic'
loop_
_space_group_symop_operation_xyz
x,y,z
-x,-y,z
-x,1/2+y,z
x,1/2-y,z
x,1/2+y,1/2+z
-x,1/2-y,1/2+z
-x,y,1/2+z
x,-y,1/2+z
loop_
_atom_site_type_symbol
_atom_site_label
_atom_site_fract_x
_atom_site_fract_y
_atom_site_fract_z
Si Si1 0.215832 0.448775 0.661790
Si Si2 0.213088 0.041932 0.404652
Si Si3 0.574656 0.048523 0.570846
Si Si4 0.425544 0.546137 0.716125
Si Si5 0.294830 0.051534 0.283927
Si Si6 0.717919 0.048338 0.032768
Si Si7 0.074317 0.452994 0.346876
Si Si8 0.925323 0.547897 0.200946
O O1 0.231073 0.250000 0.667348
O O2 0.244611 0.535106 0.724664
O O3 0.251669 0.517914 0.598861
O O4 0.135894 0.473901 0.661068
O O5 0.213274 0.250000 0.404547
O O6 0.260148 0.982584 0.346770
O O7 0.243053 0.983875 0.471254
O O8 0.137027 0.988152 0.388650
O O9 0.578325 0.250000 0.572626
O O10 0.581748 0.983491 0.643545
O O11 0.500000 0.000000 0.548482
O O12 0.638306 0.984635 0.531802
O O13 0.500000 0.500000 0.738143
O O14 0.420397 0.750000 0.713668
O O15 0.365768 0.479346 0.759990
O O16 0.305755 0.250000 0.296290
O O17 0.728012 0.250000 0.033921
O O18 0.077722 0.250000 0.344121
O O19 0.081116 0.514299 0.274037
O O20 0.000000 0.500000 0.369791
O O21 0.918984 0.750000 0.201043
O O22 0.000000 0.500000 0.179144
#
# Coordination Sequence:
#
# PCOD9359968 Si02
#       8
#     8   8   8   8   8   8   8   8
#     4  11  21  32  51  80 110 139 174 218 266 315
#     4   9  18  35  56  76 104 143 181 216 263 317
#     4  10  19  33  54  79 107 138 178 221 266 319
#     4   9  18  30  50  77 104 133 170 217 265 313
#     4  10  18  34  56  77 101 138 180 219 265 314
#     4  10  21  36  54  78 109 145 182 219 263 319
#     4   9  17  31  53  77 101 133 172 216 260 310
#     4  10  19  33  54  80 108 139 178 222 269 317
#
# _framework density 19.233212000000002
#
# number of rings (size 3 to 8) (size 9 to 14) (size 15 to 20)
#    0.000    2.250    2.500    1.125    0.000    2.000 
#    0.000    2.500    0.000    3.000    0.000    0.000 
#    0.000    0.000    0.000    0.000    0.000    0.000 
#
# Total GULP energy -178541.229729 kJ/mol
# GULP energy per Si atom -5579.413429 kJ/mol
# Density = 1.918944 g / cm^3
# Si number density = 19.233212 Si / 1000 Ang^3
#
#
#
# Elastic Constant Matrix: (Units=GPa)
#
#
# Indices 1 2 3 4 5 6 
#
# 1 140.0038 -13.2681 39.4084 0.0000 0.0000 0.0000
# 2 -13.2681 14.9604 -2.5436 0.0000 0.0000 0.0000
# 3 39.4084 -2.5436 70.8746 0.0000 0.0000 0.0000
# 4 0.0000 0.0000 0.0000 8.2950 0.0000 0.0000
# 5 0.0000 0.0000 0.0000 0.0000 29.6527 0.0000
# 6 0.0000 0.0000 0.0000 0.0000 0.0000 27.2041
#
#
#
# Elastic Compliance Matrix: (Units=1/GPa)
#
#
# Indices 1 2 3 4 5 6 
#
# 1 0.009205 0.007338 -0.004855 0.000000 0.000000 0.000000
# 2 0.007338 0.073103 -0.001456 0.000000 0.000000 0.000000
# 3 -0.004855 -0.001456 0.016756 0.000000 0.000000 0.000000
# 4 0.000000 0.000000 0.000000 0.120555 0.000000 0.000000
# 5 0.000000 0.000000 0.000000 0.000000 0.033724 0.000000
# 6 0.000000 0.000000 0.000000 0.000000 0.000000 0.036759
#
#
# Mechanical properties :
#
#
# Convention : Reuss Voigt Hill
#
# Bulk Modulus (GPa) = 9.88942 30.33690 20.11316
# Shear Modulus (GPa) = 15.53980 26.51317 21.02649
#
# Velocity S-wave (km/s) = 2.84556 3.71686 3.31000
# Velocity P-wave (km/s) = 3.99366 5.85042 5.00883
#
# Compressibility (1/GPa) = 0.10111812
#
# Stress axis : x y z
#
# Youngs Moduli (GPa) = 108.64166 13.67924 59.67839
#
# Poissons Ratio (x) = -0.10038 0.28972
# Poissons Ratio (y) = -0.79721 0.08692
# Poissons Ratio (z) = 0.52742 0.01992
#
# Static dielectric constant tensor:
#      x y z
#    x 1.682170 0.000000 0.000000 
#    y 0.000000 1.700420 0.000000 
#    z 0.000000 0.000000 1.658930 
# 
# From -- ./inp_files/13099.got.cif
#   From: 2010.05.17/outbox.cif.g08.bks.cpg/sg39_7_cif.got.tgz:13099.got - 2010.06.03 18:22:40.
