data_PCOD9359582
_publ_section_title
;
Structure prediction by ZEFSAII (Michael W. Deem and Ramdas Pophale) SiO2 
 PCOD9359582
Probable space group: A M M 2
;
_chemical_formula_sum "Si O2"
_cell_formula_units_Z 28
_cell_length_a 21.000000
_cell_length_b 15.000000
_cell_length_c 9.000000
_cell_angle_alpha 90.000000
_cell_angle_beta 90.000000
_cell_angle_gamma 90.000000
_cell_volume 2835.000000
_symmetry_space_group_name_H-M "A M M 2"
_symmetry_group_IT_number 38
_symmetry_cell_setting 'orthorhombic'
loop_
_space_group_symop_operation_xyz
x,y,z
-x,-y,z
-x,y,z
x,-y,z
x,1/2+y,1/2+z
-x,1/2-y,1/2+z
-x,1/2+y,1/2+z
x,1/2-y,1/2+z
loop_
_atom_site_type_symbol
_atom_site_label
_atom_site_fract_x
_atom_site_fract_y
_atom_site_fract_z
Si Si1 0.925390 0.102731 0.413260
Si Si2 0.357433 0.397075 0.622833
Si Si3 0.832250 0.256409 0.824990
Si Si4 0.500000 0.657601 0.615489
Si Si5 0.360171 0.401208 0.975690
Si Si6 0.074232 0.893884 0.767135
Si Si7 0.500000 0.148947 0.472289
Si Si8 0.268200 0.239672 0.568556
O O1 0.884339 0.166772 0.311459
O O2 0.917551 0.124071 0.589503
O O3 0.000000 0.111958 0.380564
O O4 0.907147 0.000000 0.393465
O O5 0.340167 0.500000 0.603663
O O6 0.431474 0.385059 0.574298
O O7 0.307477 0.331062 0.545989
O O8 0.354523 0.375571 0.800632
O O9 0.874193 0.167257 0.849844
O O10 0.782002 0.243845 0.697507
O O11 0.781589 0.287366 0.944755
O O12 0.500000 0.755415 0.548086
O O13 0.500000 0.658933 0.794193
O O14 0.334180 0.500000 0.991668
O O15 0.434728 0.399070 0.012289
O O16 0.322824 0.333540 0.078306
O O17 0.000000 0.873083 0.804319
O O18 0.083133 0.000000 0.789917
#
# Coordination Sequence:
#
# PCOD9359582 Si02
#       8
#     8   8   8   4   8   8   4   8
#     4   9  19  38  64  89 113 150 197 239 284 345
#     4  10  21  39  61  86 115 153 200 244 293 347
#     4  12  23  38  59  88 121 154 195 232 290 344
#     4  10  19  35  65  86 112 148 193 251 297 340
#     4  10  21  39  62  86 114 154 202 242 287 350
#     4   9  19  38  63  88 115 150 193 241 291 343
#     4  10  19  35  65  88 112 146 193 251 299 336
#     4  12  24  37  58  85 120 162 191 234 288 346
#
# _framework density 9.8765429999999999
#
# number of rings (size 3 to 8) (size 9 to 14) (size 15 to 20)
#    0.000    1.714    4.286    1.714    0.000    4.000 
#    0.000    0.000    0.000    2.571    0.000    0.000 
#    0.000    0.000    0.000    0.000    0.000    0.000 
#
# Total GULP energy -155911.536317 kJ/mol
# GULP energy per Si atom -5568.269154 kJ/mol
# Density = 0.985406 g / cm^3
# Si number density = 9.876543 Si / 1000 Ang^3
#
#
#
# Elastic Constant Matrix: (Units=GPa)
#
#
# Indices 1 2 3 4 5 6 
#
# 1 73.7765 32.8661 -19.6655 0.0000 0.0000 0.0000
# 2 32.8661 67.3922 -20.5874 0.0000 0.0000 0.0000
# 3 -19.6655 -20.5874 -18.3359 0.0000 0.0000 0.0000
# 4 0.0000 0.0000 0.0000 19.7459 0.0000 0.0000
# 5 0.0000 0.0000 0.0000 0.0000 21.8842 0.0000
# 6 0.0000 0.0000 0.0000 0.0000 0.0000 -78.6222
#
#
#
# Elastic Compliance Matrix: (Units=1/GPa)
#
#
# Indices 1 2 3 4 5 6 
#
# 1 0.016257 -0.009870 -0.006355 0.000000 0.000000 0.000000
# 2 -0.009870 0.017041 -0.008548 0.000000 0.000000 0.000000
# 3 -0.006355 -0.008548 -0.038125 0.000000 0.000000 0.000000
# 4 0.000000 0.000000 0.000000 0.050643 0.000000 0.000000
# 5 0.000000 0.000000 0.000000 0.000000 0.045695 0.000000
# 6 0.000000 0.000000 0.000000 0.000000 0.000000 -0.012719
#
#
# Mechanical properties :
#
#
# Convention : Reuss Voigt Hill
#
# Bulk Modulus (GPa) = -18.39210 12.00658 -3.19276
# Shear Modulus (GPa) = 45.36687 1.28288 23.32488
#
# Velocity S-wave (km/s) = 4.79759 0.80676 3.44004
# Velocity P-wave (km/s) = 4.62146 2.63806 3.76280
#
# Compressibility (1/GPa) = -0.05437118
#
# Stress axis : x y z
#
# Youngs Moduli (GPa) = 61.51052 58.68332 -26.22940
#
# Poissons Ratio (x) = 0.57919 -0.16668
# Poissons Ratio (y) = 0.60709 -0.22420
# Poissons Ratio (z) = 0.39088 0.50161
#
# Static dielectric constant tensor:
#      x y z
#    x 1.612090 0.000000 0.000000 
#    y 0.000000 1.671740 0.000000 
#    z 0.000000 0.000000 1.695400 
# 
# From -- ./inp_files/6770.got.cif
#   From: 2010.05.17/outbox.ucp.g08.bks.cvg/sg38_4_cif.got.tgz:6770.got - 2010.06.11 10:39:43.
