data_PCOD9359545
_publ_section_title
;
Structure prediction by ZEFSAII (Michael W. Deem and Ramdas Pophale) SiO2 
 PCOD9359545
Probable space group: A M M 2
;
_chemical_formula_sum "Si O2"
_cell_formula_units_Z 20
_cell_length_a 9.000000
_cell_length_b 21.000000
_cell_length_c 12.000000
_cell_angle_alpha 90.000000
_cell_angle_beta 90.000000
_cell_angle_gamma 90.000000
_cell_volume 2268.000000
_symmetry_space_group_name_H-M "A M M 2"
_symmetry_group_IT_number 38
_symmetry_cell_setting 'orthorhombic'
loop_
_space_group_symop_operation_xyz
x,y,z
-x,-y,z
-x,y,z
x,-y,z
x,1/2+y,1/2+z
-x,1/2-y,1/2+z
-x,1/2+y,1/2+z
x,1/2-y,1/2+z
loop_
_atom_site_type_symbol
_atom_site_label
_atom_site_fract_x
_atom_site_fract_y
_atom_site_fract_z
Si Si1 0.177632 0.430125 0.000000
Si Si2 0.667950 0.687034 0.578146
Si Si3 0.334752 0.666217 0.153204
Si Si4 0.174574 0.849620 0.295279
Si Si5 0.831450 0.203589 0.863377
O O1 0.237243 0.500000 0.023219
O O2 0.224871 0.403092 0.880797
O O3 0.000000 0.432511 0.996645
O O4 0.224218 0.379271 0.090227
O O5 0.500000 0.669916 0.545400
O O6 0.669016 0.762521 0.604566
O O7 0.721732 0.652602 0.688757
O O8 0.789787 0.678648 0.483740
O O9 0.500000 0.640893 0.141036
O O10 0.284953 0.673777 0.279227
O O11 0.184509 0.780276 0.354711
O O12 0.000000 0.857903 0.266209
O O13 0.000000 0.188799 0.830697
#
# Coordination Sequence:
#
# PCOD9359545 Si02
#       5
#     8   8   8   8   8
#     4  10  20  35  54  75 102 136 175 213 246 293
#     4  10  19  30  48  74 104 133 162 207 259 305
#     4  10  20  32  48  73 105 135 168 208 256 306
#     4   9  18  31  48  72 100 132 168 204 250 302
#     4  10  18  30  51  74 101 133 166 208 256 305
#
# _framework density 8.8183419999999995
#
# number of rings (size 3 to 8) (size 9 to 14) (size 15 to 20)
#    0.000    2.200    2.000    1.800    0.000    3.600 
#    0.000    0.000    0.000    1.200    0.000    2.800 
#    0.000    0.000    0.000    0.000    0.000    0.000 
#
# Total GULP energy -111373.590082 kJ/mol
# GULP energy per Si atom -5568.679504 kJ/mol
# Density = 0.879827 g / cm^3
# Si number density = 8.818342 Si / 1000 Ang^3
#
#
#
# Elastic Constant Matrix: (Units=GPa)
#
#
# Indices 1 2 3 4 5 6 
#
# 1 -4.9892 5.6138 6.0712 0.0000 0.0000 0.0000
# 2 5.6138 23.2303 2.6812 0.0000 0.0000 0.0000
# 3 6.0712 2.6812 25.4353 0.0000 0.0000 0.0000
# 4 0.0000 0.0000 0.0000 50.3160 0.0000 0.0000
# 5 0.0000 0.0000 0.0000 0.0000 -16.4843 0.0000
# 6 0.0000 0.0000 0.0000 0.0000 0.0000 7.8506
#
#
#
# Elastic Compliance Matrix: (Units=1/GPa)
#
#
# Indices 1 2 3 4 5 6 
#
# 1 -0.133043 0.028837 0.028716 0.000000 0.000000 0.000000
# 2 0.028837 0.037327 -0.010818 0.000000 0.000000 0.000000
# 3 0.028716 -0.010818 0.033601 0.000000 0.000000 0.000000
# 4 0.000000 0.000000 0.000000 0.019874 0.000000 0.000000
# 5 0.000000 0.000000 0.000000 0.000000 -0.060664 0.000000
# 6 0.000000 0.000000 0.000000 0.000000 0.000000 0.127378
#
#
# Mechanical properties :
#
#
# Convention : Reuss Voigt Hill
#
# Bulk Modulus (GPa) = 31.89185 8.04542 19.96863
# Shear Modulus (GPa) = -85.40618 10.29049 -37.55785
#
# Velocity S-wave (km/s) = -6.96638 2.41813 -4.61969
# Velocity P-wave (km/s) = 6.82534 3.51684 4.13625
#
# Compressibility (1/GPa) = 0.03135598
#
# Stress axis : x y z
#
# Youngs Moduli (GPa) = -7.51637 26.79007 29.76068
#
# Poissons Ratio (x) = -0.77253 -0.85462
# Poissons Ratio (y) = 0.21675 0.32194
# Poissons Ratio (z) = 0.21584 0.28981
#
# Static dielectric constant tensor:
#      x y z
#    x 1.584390 0.000000 0.000000 
#    y 0.000000 1.484860 0.000000 
#    z 0.000000 0.000000 1.617570 
# 
# From -- ./inp_files/7771.got.cif
#   From: 2010.05.17/outbox.ucp.g08.bks.cvg/sg38_4_cif.got.tgz:7771.got - 2010.06.11 10:39:43.
