data_PCOD9359918
_publ_section_title
;
Structure prediction by ZEFSAII (Michael W. Deem and Ramdas Pophale) SiO2 
 PCOD9359918
Probable space group: A B M 2
;
_chemical_formula_sum "Si O2"
_cell_formula_units_Z 56
_cell_length_a 15.221812
_cell_length_b 21.170000
_cell_length_c 8.785129
_cell_angle_alpha 90.000000
_cell_angle_beta 90.000000
_cell_angle_gamma 90.000000
_cell_volume 2830.970572
_symmetry_space_group_name_H-M "A B M 2"
_symmetry_group_IT_number 39
_symmetry_cell_setting 'orthorhombic'
loop_
_space_group_symop_operation_xyz
x,y,z
-x,-y,z
-x,1/2+y,z
x,1/2-y,z
x,1/2+y,1/2+z
-x,1/2-y,1/2+z
-x,y,1/2+z
x,-y,1/2+z
loop_
_atom_site_type_symbol
_atom_site_label
_atom_site_fract_x
_atom_site_fract_y
_atom_site_fract_z
Si Si1 0.491467 0.250000 0.203501
Si Si2 0.560483 0.438001 0.563594
Si Si3 0.616342 0.750000 0.937420
Si Si4 0.744665 0.672542 0.575207
Si Si5 0.416422 0.870583 0.869216
Si Si6 0.921772 0.674202 0.409163
Si Si7 0.892493 0.327092 0.553198
Si Si8 0.716828 0.125262 0.416058
O O1 0.590583 0.250000 0.260662
O O2 0.445966 0.310996 0.271187
O O3 0.475223 0.250000 0.026044
O O4 0.500000 0.500000 0.557157
O O5 0.586732 0.424373 0.738662
O O6 0.492303 0.388066 0.489347
O O7 0.650589 0.430868 0.465081
O O8 0.668773 0.688176 0.979007
O O9 0.745649 0.750000 0.584699
O O10 0.671748 0.647762 0.456989
O O11 0.840723 0.652845 0.513373
O O12 0.725745 0.638978 0.736541
O O13 0.922730 0.750000 0.421596
O O14 0.904504 0.660671 0.232350
O O15 0.017585 0.654919 0.467530
O O16 0.876946 0.250000 0.531584
O O17 0.812716 0.368808 0.489072
#
# Coordination Sequence:
#
# PCOD9359918 Si02
#       8
#     4   8   4   8   8   8   8   8
#     4  12  22  36  56  87 115 148 200 256 326 372
#     4  12  27  44  59  81 116 164 215 263 312 373
#     4  12  24  34  56  85 121 152 204 252 318 374
#     4  11  22  34  57  91 126 160 205 255 323 395
#     4  12  23  39  61  83 117 157 202 260 316 378
#     4   9  19  31  49  81 127 171 204 246 311 392
#     4  10  18  32  53  82 125 169 210 254 314 386
#     4  12  22  36  59  85 120 164 209 263 316 379
#
# _framework density 19.781200999999999
#
# number of rings (size 3 to 8) (size 9 to 14) (size 15 to 20)
#    0.000    0.857    5.000    3.000    2.000    2.286 
#    0.000    0.714    0.000    0.000    0.000    1.000 
#    0.000    6.857    0.000    0.143    0.000    0.000 
#
# Total GULP energy -156279.701816 kJ/mol
# GULP energy per Si atom -5581.417922 kJ/mol
# Density = 1.973618 g / cm^3
# Si number density = 19.781201 Si / 1000 Ang^3
#
#
#
# Elastic Constant Matrix: (Units=GPa)
#
#
# Indices 1 2 3 4 5 6 
#
# 1 175.2326 36.5930 72.4658 0.0000 0.0000 0.0000
# 2 36.5930 57.7537 36.3085 0.0000 0.0000 0.0000
# 3 72.4658 36.3085 112.9527 0.0000 0.0000 0.0000
# 4 0.0000 0.0000 0.0000 16.5392 0.0000 0.0000
# 5 0.0000 0.0000 0.0000 0.0000 45.1104 0.0000
# 6 0.0000 0.0000 0.0000 0.0000 0.0000 27.8000
#
#
#
# Elastic Compliance Matrix: (Units=1/GPa)
#
#
# Indices 1 2 3 4 5 6 
#
# 1 0.008006 -0.002311 -0.004394 0.000000 0.000000 0.000000
# 2 -0.002311 0.022367 -0.005708 0.000000 0.000000 0.000000
# 3 -0.004394 -0.005708 0.013507 0.000000 0.000000 0.000000
# 4 0.000000 0.000000 0.000000 0.060462 0.000000 0.000000
# 5 0.000000 0.000000 0.000000 0.000000 0.022168 0.000000
# 6 0.000000 0.000000 0.000000 0.000000 0.000000 0.035971
#
#
# Mechanical properties :
#
#
# Convention : Reuss Voigt Hill
#
# Bulk Modulus (GPa) = 52.47557 70.74150 61.60853
# Shear Modulus (GPa) = 25.81883 31.26137 28.54010
#
# Velocity S-wave (km/s) = 3.61670 3.97968 3.80253
# Velocity P-wave (km/s) = 6.63523 7.54697 7.10574
#
# Compressibility (1/GPa) = 0.01905649
#
# Stress axis : x y z
#
# Youngs Moduli (GPa) = 124.90355 44.70857 74.03692
#
# Poissons Ratio (x) = 0.10330 0.32530
# Poissons Ratio (y) = 0.28859 0.42257
# Poissons Ratio (z) = 0.54879 0.25518
#
# Static dielectric constant tensor:
#      x y z
#    x 1.701710 0.000000 0.000000 
#    y 0.000000 1.622550 0.000000 
#    z 0.000000 0.000000 1.726910 
# 
# From -- ./inp_files/3450.got.cif
#   From: 2010.05.17/outbox.cif.g08.bks.cpg/sg39_2_cif.got.tgz:3450.got - 2010.06.03 18:22:40.
