data_PCOD9359834
_publ_section_title
;
Structure prediction by ZEFSAII (Michael W. Deem and Ramdas Pophale) SiO2 
 PCOD9359834
Probable space group: A B M 2
;
_chemical_formula_sum "Si O2"
_cell_formula_units_Z 40
_cell_length_a 8.472447
_cell_length_b 25.905552
_cell_length_c 8.137030
_cell_angle_alpha 90.000000
_cell_angle_beta 90.000000
_cell_angle_gamma 90.000000
_cell_volume 1785.943143
_symmetry_space_group_name_H-M "A B M 2"
_symmetry_group_IT_number 39
_symmetry_cell_setting 'orthorhombic'
loop_
_space_group_symop_operation_xyz
x,y,z
-x,-y,z
-x,1/2+y,z
x,1/2-y,z
x,1/2+y,1/2+z
-x,1/2-y,1/2+z
-x,y,1/2+z
x,-y,1/2+z
loop_
_atom_site_type_symbol
_atom_site_label
_atom_site_fract_x
_atom_site_fract_y
_atom_site_fract_z
Si Si1 0.355413 0.961950 0.509190
Si Si2 0.917937 0.355408 0.783172
Si Si3 0.892460 0.250000 0.969107
Si Si4 0.750925 0.644166 0.924873
Si Si5 0.756870 0.250000 0.340996
Si Si6 0.147832 0.531174 0.805383
O O1 0.359638 0.905817 0.426437
O O2 0.303671 0.958588 0.696874
O O3 0.500000 0.000000 0.491415
O O4 0.203774 0.990316 0.436713
O O5 0.855794 0.303961 0.875110
O O6 0.843237 0.356587 0.600738
O O7 0.889535 0.411259 0.865849
O O8 0.109185 0.354714 0.788794
O O9 0.085195 0.250000 0.958049
O O10 0.820696 0.250000 0.152517
O O11 0.665942 0.698146 0.889958
O O12 0.000000 0.500000 0.727199
#
# Coordination Sequence:
#
# PCOD9359834 Si02
#       6
#     8   8   4   8   4   8
#     4  11  24  39  58  87 125 164 203 256 313 364
#     4  10  19  31  54  85 118 156 198 250 301 348
#     4  10  18  30  50  87 127 150 191 253 309 350
#     4  10  19  33  54  84 120 160 201 245 299 358
#     4  10  18  30  52  83 121 160 195 243 301 364
#     4  11  22  38  61  87 118 163 208 255 299 367
#
# _framework density 22.397129
#
# number of rings (size 3 to 8) (size 9 to 14) (size 15 to 20)
#    0.000    1.600    2.000    6.600    2.800    1.600 
#    0.000    0.000    0.000    1.200    0.000    5.600 
#    0.000    0.000    0.000    0.000    0.000    0.000 
#
# Total GULP energy -111409.538309 kJ/mol
# GULP energy per Si atom -5570.476915 kJ/mol
# Density = 2.234615 g / cm^3
# Si number density = 22.397129 Si / 1000 Ang^3
#
#
#
# Elastic Constant Matrix: (Units=GPa)
#
#
# Indices 1 2 3 4 5 6 
#
# 1 51.5348 47.6209 19.9428 0.0000 0.0000 0.0000
# 2 47.6209 248.6222 36.8855 0.0000 0.0000 0.0000
# 3 19.9428 36.8855 46.6228 0.0000 0.0000 0.0000
# 4 0.0000 0.0000 0.0000 8.9094 0.0000 0.0000
# 5 0.0000 0.0000 0.0000 0.0000 14.4785 0.0000
# 6 0.0000 0.0000 0.0000 0.0000 0.0000 28.8514
#
#
#
# Elastic Compliance Matrix: (Units=1/GPa)
#
#
# Indices 1 2 3 4 5 6 
#
# 1 0.026053 -0.003781 -0.008153 0.000000 0.000000 0.000000
# 2 -0.003781 0.005106 -0.002422 0.000000 0.000000 0.000000
# 3 -0.008153 -0.002422 0.026852 0.000000 0.000000 0.000000
# 4 0.000000 0.000000 0.000000 0.112240 0.000000 0.000000
# 5 0.000000 0.000000 0.000000 0.000000 0.069068 0.000000
# 6 0.000000 0.000000 0.000000 0.000000 0.000000 0.034660
#
#
# Mechanical properties :
#
#
# Convention : Reuss Voigt Hill
#
# Bulk Modulus (GPa) = 34.13045 61.74201 47.93623
# Shear Modulus (GPa) = 16.00217 26.60326 21.30272
#
# Velocity S-wave (km/s) = 2.67587 3.45018 3.08740
# Velocity P-wave (km/s) = 4.98185 6.59534 5.84454
#
# Compressibility (1/GPa) = 0.02929935
#
# Stress axis : x y z
#
# Youngs Moduli (GPa) = 38.38357 195.86162 37.24052
#
# Poissons Ratio (x) = 0.74046 0.30362
# Poissons Ratio (y) = 0.14511 0.09020
# Poissons Ratio (z) = 0.31294 0.47441
#
# Static dielectric constant tensor:
#      x y z
#    x 1.874460 0.000000 0.000000 
#    y 0.000000 1.931980 0.000000 
#    z 0.000000 0.000000 1.863230 
# 
# From -- ./inp_files/2149.got.cif
#   From: 2010.05.17/outbox.cif.g08.bks.cpg/sg39_2_cif.got.tgz:2149.got - 2010.06.03 18:22:40.
