data_PCOD9359632
_publ_section_title
;
Structure prediction by ZEFSAII (Michael W. Deem and Ramdas Pophale) SiO2 
 PCOD9359632
Probable space group: A M M 2
;
_chemical_formula_sum "Si O2"
_cell_formula_units_Z 28
_cell_length_a 21.000000
_cell_length_b 9.000000
_cell_length_c 15.000000
_cell_angle_alpha 90.000000
_cell_angle_beta 90.000000
_cell_angle_gamma 90.000000
_cell_volume 2835.000000
_symmetry_space_group_name_H-M "A M M 2"
_symmetry_group_IT_number 38
_symmetry_cell_setting 'orthorhombic'
loop_
_space_group_symop_operation_xyz
x,y,z
-x,-y,z
-x,y,z
x,-y,z
x,1/2+y,1/2+z
-x,1/2-y,1/2+z
-x,1/2+y,1/2+z
x,1/2-y,1/2+z
loop_
_atom_site_type_symbol
_atom_site_label
_atom_site_fract_x
_atom_site_fract_y
_atom_site_fract_z
Si Si1 0.846374 0.169616 0.491760
Si Si2 0.370200 0.674907 0.646742
Si Si3 0.500000 0.174151 0.587205
Si Si4 0.696104 0.830563 0.489273
Si Si5 0.929663 0.821696 0.851795
Si Si6 0.070409 0.819632 0.650004
Si Si7 0.500000 0.825341 0.371667
Si Si8 0.366706 0.176952 0.824595
O O1 0.771341 0.165823 0.494713
O O2 0.873901 0.263740 0.412083
O O3 0.875836 0.230335 0.582995
O O4 0.869580 0.000000 0.480377
O O5 0.371715 0.500000 0.666455
O O6 0.439438 0.739413 0.623940
O O7 0.329658 0.715152 0.560794
O O8 0.344316 0.772599 0.727745
O O9 0.500000 0.179631 0.479508
O O10 0.500000 0.000000 0.613772
O O11 0.674107 0.767605 0.395385
O O12 0.670831 0.000000 0.503368
O O13 0.921777 0.767683 0.750715
O O14 0.000000 0.773265 0.883736
O O15 0.929521 0.000000 0.851165
O O16 0.000000 0.776703 0.617813
O O17 0.072026 0.000000 0.654050
O O18 0.438123 0.739965 0.336969
O O19 0.500000 0.000000 0.345377
O O20 0.364672 0.000000 0.836930
#
# Coordination Sequence:
#
# PCOD9359632 Si02
#       8
#     8   8   4   8   8   8   4   8
#     4  10  21  36  58  84 113 151 194 241 290 347
#     4  12  25  42  65  91 121 157 199 246 302 360
#     4  11  22  39  66  94 125 157 191 243 300 354
#     4  11  24  42  59  85 122 158 203 253 300 353
#     4   9  18  33  55  84 117 151 191 239 287 342
#     4   8  15  31  55  82 112 148 188 229 280 342
#     4  11  22  39  66  94 125 155 189 247 304 352
#     4  12  25  42  65  90 119 158 203 246 299 360
#
# _framework density 9.8765429999999999
#
# number of rings (size 3 to 8) (size 9 to 14) (size 15 to 20)
#    0.000    1.571    1.429    5.143    0.000    3.714 
#    0.000    2.143    0.000    0.857    0.000    0.000 
#    0.000    0.000    0.000    0.000    0.000    0.000 
#
# Total GULP energy -156295.428135 kJ/mol
# GULP energy per Si atom -5581.979576 kJ/mol
# Density = 0.985406 g / cm^3
# Si number density = 9.876543 Si / 1000 Ang^3
#
#
#
# Elastic Constant Matrix: (Units=GPa)
#
#
# Indices 1 2 3 4 5 6 
#
# 1 54.9534 11.1604 19.6879 0.0000 0.0000 0.0000
# 2 11.1604 67.1753 -9.8446 0.0000 0.0000 0.0000
# 3 19.6879 -9.8446 55.1101 0.0000 0.0000 0.0000
# 4 0.0000 0.0000 0.0000 23.3673 0.0000 0.0000
# 5 0.0000 0.0000 0.0000 0.0000 49.5395 0.0000
# 6 0.0000 0.0000 0.0000 0.0000 0.0000 -26.7425
#
#
#
# Elastic Compliance Matrix: (Units=1/GPa)
#
#
# Indices 1 2 3 4 5 6 
#
# 1 0.022408 -0.005028 -0.008903 0.000000 0.000000 0.000000
# 2 -0.005028 0.016415 0.004728 0.000000 0.000000 0.000000
# 3 -0.008903 0.004728 0.022171 0.000000 0.000000 0.000000
# 4 0.000000 0.000000 0.000000 0.042795 0.000000 0.000000
# 5 0.000000 0.000000 0.000000 0.000000 0.020186 0.000000
# 6 0.000000 0.000000 0.000000 0.000000 0.000000 -0.037394
#
#
# Mechanical properties :
#
#
# Convention : Reuss Voigt Hill
#
# Bulk Modulus (GPa) = 23.48062 24.36069 23.92066
# Shear Modulus (GPa) = 41.95271 19.64854 30.80063
#
# Velocity S-wave (km/s) = 4.61353 3.15732 3.95306
# Velocity P-wave (km/s) = 6.34763 5.06467 5.74210
#
# Compressibility (1/GPa) = 0.04258831
#
# Stress axis : x y z
#
# Youngs Moduli (GPa) = 44.62690 60.92117 45.10434
#
# Poissons Ratio (x) = 0.30629 0.40158
# Poissons Ratio (y) = 0.22437 -0.21327
# Poissons Ratio (z) = 0.39733 -0.28806
#
# Static dielectric constant tensor:
#      x y z
#    x 1.703370 0.000000 0.000000 
#    y 0.000000 1.669390 0.000000 
#    z 0.000000 0.000000 1.729330 
# 
# From -- ./inp_files/15590.got.cif
#   From: 2010.05.17/outbox.ucp.g08.bks.cvg/sg38_8_cif.got.tgz:15590.got - 2010.06.11 10:39:43.
