data_PCOD9359955
_publ_section_title
;
Structure prediction by ZEFSAII (Michael W. Deem and Ramdas Pophale) SiO2 
 PCOD9359955
Probable space group: A B M 2
;
_chemical_formula_sum "Si O2"
_cell_formula_units_Z 64
_cell_length_a 8.721880
_cell_length_b 20.542946
_cell_length_c 19.283378
_cell_angle_alpha 90.000000
_cell_angle_beta 90.000000
_cell_angle_gamma 90.000000
_cell_volume 3455.062805
_symmetry_space_group_name_H-M "A B M 2"
_symmetry_group_IT_number 39
_symmetry_cell_setting 'orthorhombic'
loop_
_space_group_symop_operation_xyz
x,y,z
-x,-y,z
-x,1/2+y,z
x,1/2-y,z
x,1/2+y,1/2+z
-x,1/2-y,1/2+z
-x,y,1/2+z
x,-y,1/2+z
loop_
_atom_site_type_symbol
_atom_site_label
_atom_site_fract_x
_atom_site_fract_y
_atom_site_fract_z
Si Si1 0.865057 0.821642 0.443520
Si Si2 0.641129 0.930915 0.959131
Si Si3 0.308111 0.946132 0.891245
Si Si4 0.057241 0.828952 0.233486
Si Si5 0.232609 0.031386 0.094314
Si Si6 0.848653 0.451343 0.748063
Si Si7 0.908889 0.106949 0.085269
Si Si8 0.198681 0.322009 0.874880
O O1 0.794016 0.750000 0.439357
O O2 0.771226 0.879079 0.409333
O O3 0.889534 0.843396 0.522590
O O4 0.026231 0.819330 0.403917
O O5 0.480885 0.937110 0.918788
O O6 0.713458 0.866703 0.928355
O O7 0.748052 0.991145 0.934437
O O8 0.640974 0.939130 0.042104
O O9 0.263477 0.962315 0.812615
O O10 0.028527 0.750000 0.234340
O O11 0.106532 0.854637 0.157795
O O12 0.180054 0.843167 0.294704
O O13 0.914835 0.877402 0.249971
O O14 0.244466 0.038609 0.176998
O O15 0.076140 0.072527 0.079819
O O16 0.205660 0.954585 0.081353
O O17 0.000000 0.500000 0.748156
O O18 0.266173 0.250000 0.874898
#
# Coordination Sequence:
#
# PCOD9359955 Si02
#       8
#     8   8   8   8   8   8   8   8
#     4  11  21  35  58  88 114 150 202 249 304 361
#     4  11  23  41  55  84 124 158 206 246 296 380
#     4  11  25  37  58  86 120 163 200 248 310 359
#     4  10  19  33  55  90 122 145 190 252 304 359
#     4  10  19  34  60  87 120 152 198 245 305 357
#     4  11  20  36  60  91 119 157 203 254 312 359
#     4  10  18  33  56  90 114 151 186 248 309 345
#     4  10  21  36  60  87 115 156 199 251 306 363
#
# _framework density 18.523541999999999
#
# number of rings (size 3 to 8) (size 9 to 14) (size 15 to 20)
#    0.000    1.500    6.250    1.125    0.000    0.500 
#    0.000    3.750    0.000    0.000    0.000    0.000 
#    0.000    0.000    0.000    0.000    0.000    0.000 
#
# Total GULP energy -178223.864004 kJ/mol
# GULP energy per Si atom -5569.495750 kJ/mol
# Density = 1.848138 g / cm^3
# Si number density = 18.523542 Si / 1000 Ang^3
#
#
#
# Elastic Constant Matrix: (Units=GPa)
#
#
# Indices 1 2 3 4 5 6 
#
# 1 38.8996 11.5998 31.5723 0.0000 0.0000 0.0000
# 2 11.5998 71.5125 23.5539 0.0000 0.0000 0.0000
# 3 31.5723 23.5539 159.1292 0.0000 0.0000 0.0000
# 4 0.0000 0.0000 0.0000 36.5215 0.0000 0.0000
# 5 0.0000 0.0000 0.0000 0.0000 37.2044 0.0000
# 6 0.0000 0.0000 0.0000 0.0000 0.0000 16.0743
#
#
#
# Elastic Compliance Matrix: (Units=1/GPa)
#
#
# Indices 1 2 3 4 5 6 
#
# 1 0.031318 -0.003189 -0.005742 0.000000 0.000000 0.000000
# 2 -0.003189 0.015025 -0.001591 0.000000 0.000000 0.000000
# 3 -0.005742 -0.001591 0.007659 0.000000 0.000000 0.000000
# 4 0.000000 0.000000 0.000000 0.027381 0.000000 0.000000
# 5 0.000000 0.000000 0.000000 0.000000 0.026879 0.000000
# 6 0.000000 0.000000 0.000000 0.000000 0.000000 0.062211
#
#
# Mechanical properties :
#
#
# Convention : Reuss Voigt Hill
#
# Bulk Modulus (GPa) = 30.34128 44.77704 37.55916
# Shear Modulus (GPa) = 24.69099 31.48105 28.08602
#
# Velocity S-wave (km/s) = 3.65492 4.12699 3.89811
# Velocity P-wave (km/s) = 5.85036 6.85091 6.37031
#
# Compressibility (1/GPa) = 0.03295840
#
# Stress axis : x y z
#
# Youngs Moduli (GPa) = 31.93017 66.55598 130.56635
#
# Poissons Ratio (x) = 0.21224 0.74968
# Poissons Ratio (y) = 0.10182 0.20776
# Poissons Ratio (z) = 0.18334 0.10591
#
# Static dielectric constant tensor:
#      x y z
#    x 1.564160 0.000000 0.000000 
#    y 0.000000 1.677100 0.000000 
#    z 0.000000 0.000000 1.679150 
# 
# From -- ./inp_files/11964.got.cif
#   From: 2010.05.17/outbox.cif.g08.bks.cpg/sg39_6_cif.got.tgz:11964.got - 2010.06.03 18:22:40.
