data_PCOD9359576
_publ_section_title
;
Structure prediction by ZEFSAII (Michael W. Deem and Ramdas Pophale) SiO2 
 PCOD9359576
Probable space group: A M M 2
;
_chemical_formula_sum "Si O2"
_cell_formula_units_Z 32
_cell_length_a 18.000000
_cell_length_b 9.000000
_cell_length_c 21.000000
_cell_angle_alpha 90.000000
_cell_angle_beta 90.000000
_cell_angle_gamma 90.000000
_cell_volume 3402.000000
_symmetry_space_group_name_H-M "A M M 2"
_symmetry_group_IT_number 38
_symmetry_cell_setting 'orthorhombic'
loop_
_space_group_symop_operation_xyz
x,y,z
-x,-y,z
-x,y,z
x,-y,z
x,1/2+y,1/2+z
-x,1/2-y,1/2+z
-x,1/2+y,1/2+z
x,1/2-y,1/2+z
loop_
_atom_site_type_symbol
_atom_site_label
_atom_site_fract_x
_atom_site_fract_y
_atom_site_fract_z
Si Si1 0.192199 0.181697 0.847830
Si Si2 0.677271 0.676070 0.045035
Si Si3 0.913928 0.678374 0.235653
Si Si4 0.644918 0.179799 0.803826
Si Si5 0.911623 0.170985 0.108584
Si Si6 0.822632 0.321445 0.492395
Si Si7 0.584861 0.818516 0.668202
Si Si8 0.585867 0.669111 0.439127
O O1 0.131381 0.230124 0.796852
O O2 0.272504 0.229071 0.822200
O O3 0.178262 0.233832 0.919843
O O4 0.191898 0.000000 0.848933
O O5 0.690808 0.500000 0.048141
O O6 0.637226 0.725251 0.109891
O O7 0.751620 0.764179 0.030337
O O8 0.625303 0.717644 0.985698
O O9 0.911016 0.500000 0.233712
O O10 0.882472 0.738000 0.168901
O O11 0.000000 0.722697 0.241821
O O12 0.614601 0.234518 0.736540
O O13 0.595374 0.212406 0.865467
O O14 0.646660 0.000000 0.798436
O O15 0.000000 0.174953 0.112421
O O16 0.887012 0.000000 0.115187
O O17 0.889233 0.224688 0.038599
O O18 0.822086 0.500000 0.488058
O O19 0.500000 0.770611 0.658122
O O20 0.584435 0.000000 0.668969
O O21 0.500000 0.662563 0.455312
O O22 0.617859 0.500000 0.446013
#
# Coordination Sequence:
#
# PCOD9359576 Si02
#       8
#     8   8   8   8   8   8   8   8
#     4   9  17  30  51  75 102 133 168 212 257 299
#     4  11  22  34  51  76 107 140 171 212 263 317
#     4   9  18  32  53  81 108 134 168 212 258 306
#     4   9  16  29  50  75  99 127 168 216 256 297
#     4   9  19  35  55  79 107 141 174 207 257 315
#     4  10  20  36  55  76 105 138 175 219 256 304
#     4   9  18  31  47  71 101 131 167 212 259 304
#     4  10  19  33  56  79 100 133 175 216 260 310
#
# _framework density 9.4062319999999993
#
# number of rings (size 3 to 8) (size 9 to 14) (size 15 to 20)
#    0.000    2.500    1.250    1.125    1.750    3.250 
#    0.000    3.125    0.000    1.500    0.000    3.500 
#    0.000    0.000    0.000    0.000    0.000    0.000 
#
# Total GULP energy -178269.415463 kJ/mol
# GULP energy per Si atom -5570.919233 kJ/mol
# Density = 0.938482 g / cm^3
# Si number density = 9.406232 Si / 1000 Ang^3
#
#
#
# Elastic Constant Matrix: (Units=GPa)
#
#
# Indices 1 2 3 4 5 6 
#
# 1 24.4912 1.4815 5.4787 0.0000 0.0000 0.0000
# 2 1.4815 -17.8398 0.3666 0.0000 0.0000 0.0000
# 3 5.4787 0.3666 82.8273 0.0000 0.0000 0.0000
# 4 0.0000 0.0000 0.0000 1.5247 0.0000 0.0000
# 5 0.0000 0.0000 0.0000 0.0000 35.6992 0.0000
# 6 0.0000 0.0000 0.0000 0.0000 0.0000 13.7726
#
#
#
# Elastic Compliance Matrix: (Units=1/GPa)
#
#
# Indices 1 2 3 4 5 6 
#
# 1 0.041241 0.003369 -0.002743 0.000000 0.000000 0.000000
# 2 0.003369 -0.055774 0.000024 0.000000 0.000000 0.000000
# 3 -0.002743 0.000024 0.012255 0.000000 0.000000 0.000000
# 4 0.000000 0.000000 0.000000 0.655853 0.000000 0.000000
# 5 0.000000 0.000000 0.000000 0.000000 0.028012 0.000000
# 6 0.000000 0.000000 0.000000 0.000000 0.000000 0.072608
#
#
# Mechanical properties :
#
#
# Convention : Reuss Voigt Hill
#
# Bulk Modulus (GPa) = -1021.17629 11.57028 -504.80301
# Shear Modulus (GPa) = 6.64392 15.67609 11.16000
#
# Velocity S-wave (km/s) = 1.88131 2.88979 2.43826
# Velocity P-wave (km/s) = 23.22237 4.15911 16.15519
#
# Compressibility (1/GPa) = -0.00097926
#
# Stress axis : x y z
#
# Youngs Moduli (GPa) = 24.24786 -17.92944 81.60176
#
# Poissons Ratio (x) = 0.06040 0.22382
# Poissons Ratio (y) = -0.08168 -0.00196
# Poissons Ratio (z) = 0.06651 0.00043
#
# Static dielectric constant tensor:
#      x y z
#    x 1.684370 0.000000 0.000000 
#    y 0.000000 1.650200 0.000000 
#    z 0.000000 0.000000 1.659700 
# 
# From -- ./inp_files/18843.got.cif
#   From: 2010.05.17/outbox.ucp.g08.bks.cvg/sg38_10_cif.got.tgz:18843.got - 2010.06.11 10:39:43.
