data_PCOD9359282
_publ_section_title
;
Structure prediction by ZEFSAII (Michael W. Deem and Ramdas Pophale) SiO2 
 PCOD9359282
Probable space group: A M M 2
;
_chemical_formula_sum "Si O2"
_cell_formula_units_Z 40
_cell_length_a 9.030476
_cell_length_b 28.882165
_cell_length_c 8.030597
_cell_angle_alpha 90.000000
_cell_angle_beta 90.000000
_cell_angle_gamma 90.000000
_cell_volume 2094.537883
_symmetry_space_group_name_H-M "A M M 2"
_symmetry_group_IT_number 38
_symmetry_cell_setting 'orthorhombic'
loop_
_space_group_symop_operation_xyz
x,y,z
-x,-y,z
-x,y,z
x,-y,z
x,1/2+y,1/2+z
-x,1/2-y,1/2+z
-x,1/2+y,1/2+z
x,1/2-y,1/2+z
loop_
_atom_site_type_symbol
_atom_site_label
_atom_site_fract_x
_atom_site_fract_y
_atom_site_fract_z
Si Si1 0.823138 0.704255 0.930550
Si Si2 0.324727 0.896079 0.933940
Si Si3 0.823358 0.605495 0.779252
Si Si4 0.676593 0.296667 0.286930
Si Si5 0.823233 0.054840 0.618943
O O1 0.795811 0.659866 0.814133
O O2 0.748646 0.750505 0.860889
O O3 0.000000 0.710426 0.946126
O O4 0.752421 0.694015 0.109690
O O5 0.500000 0.903526 0.936318
O O6 0.297334 0.841389 0.901813
O O7 0.255034 0.922969 0.778229
O O8 0.254784 0.909635 0.110161
O O9 0.000000 0.598942 0.761634
O O10 0.774769 0.578259 0.945274
O O11 0.500000 0.290587 0.267015
O O12 0.000000 0.063193 0.633972
O O13 0.797971 0.000000 0.613034
#
# Coordination Sequence:
#
# PCOD9359282 Si02
#       5
#     8   8   8   8   8
#     4  11  22  37  60  89 122 164 212 263 308 362
#     4  11  24  40  62  92 128 167 205 254 313 375
#     4  10  22  40  63  92 125 162 209 261 310 367
#     4  11  23  38  57  86 126 169 208 254 313 376
#     4  10  22  43  69  93 121 161 210 264 317 369
#
# _framework density 19.097290999999998
#
# number of rings (size 3 to 8) (size 9 to 14) (size 15 to 20)
#    0.000    1.400    2.000    3.000    0.000    9.200 
#    0.000    2.000    0.000    0.000    0.000    0.000 
#    0.000    0.000    0.000    0.000    0.000    0.000 
#
# Total GULP energy -111817.686703 kJ/mol
# GULP energy per Si atom -5590.884335 kJ/mol
# Density = 1.905382 g / cm^3
# Si number density = 19.097291 Si / 1000 Ang^3
#
#
#
# Elastic Constant Matrix: (Units=GPa)
#
#
# Indices 1 2 3 4 5 6 
#
# 1 59.5996 61.4309 70.8235 0.0000 0.0000 0.0000
# 2 61.4309 83.3577 65.2477 0.0000 0.0000 0.0000
# 3 70.8235 65.2477 186.6770 0.0000 0.0000 0.0000
# 4 0.0000 0.0000 0.0000 26.9849 0.0000 0.0000
# 5 0.0000 0.0000 0.0000 0.0000 -135.7635 0.0000
# 6 0.0000 0.0000 0.0000 0.0000 0.0000 22.9313
#
#
#
# Elastic Compliance Matrix: (Units=1/GPa)
#
#
# Indices 1 2 3 4 5 6 
#
# 1 0.095103 -0.057604 -0.015947 0.000000 0.000000 0.000000
# 2 -0.057604 0.051405 0.003887 0.000000 0.000000 0.000000
# 3 -0.015947 0.003887 0.010049 0.000000 0.000000 0.000000
# 4 0.000000 0.000000 0.000000 0.037058 0.000000 0.000000
# 5 0.000000 0.000000 0.000000 0.000000 -0.007366 0.000000
# 6 0.000000 0.000000 0.000000 0.000000 0.000000 0.043608
#
#
# Mechanical properties :
#
#
# Convention : Reuss Voigt Hill
#
# Bulk Modulus (GPa) = 58.04329 80.51539 69.27934
# Shear Modulus (GPa) = 13.33584 -8.36065 2.48759
#
# Velocity S-wave (km/s) = 2.64542 -2.09462 1.14255
# Velocity P-wave (km/s) = 6.30797 6.03343 6.17223
#
# Compressibility (1/GPa) = 0.01722852
#
# Stress axis : x y z
#
# Youngs Moduli (GPa) = 10.51487 19.45319 99.51706
#
# Poissons Ratio (x) = 1.12058 1.58705
# Poissons Ratio (y) = 0.60570 -0.38684
# Poissons Ratio (z) = 0.16769 -0.07562
#
# Static dielectric constant tensor:
#      x y z
#    x 1.637110 0.000000 0.000000 
#    y 0.000000 1.665820 0.000000 
#    z 0.000000 0.000000 1.648510 
# 
# From -- ./inp_files/3455.got.cif
#   From: 2010.05.17/outbox.cif.g08.bks.cpg/sg38_2_cif.got.tgz:3455.got - 2010.06.03 18:07:57.
