data_PCOD9359761
_publ_section_title
;
Structure prediction by ZEFSAII (Michael W. Deem and Ramdas Pophale) SiO2 
 PCOD9359761
Probable space group: A B M 2
;
_chemical_formula_sum "Si O2"
_cell_formula_units_Z 64
_cell_length_a 25.457032
_cell_length_b 8.481838
_cell_length_c 15.044729
_cell_angle_alpha 90.000000
_cell_angle_beta 90.000000
_cell_angle_gamma 90.000000
_cell_volume 3248.494315
_symmetry_space_group_name_H-M "A B M 2"
_symmetry_group_IT_number 39
_symmetry_cell_setting 'orthorhombic'
loop_
_space_group_symop_operation_xyz
x,y,z
-x,-y,z
-x,1/2+y,z
x,1/2-y,z
x,1/2+y,1/2+z
-x,1/2-y,1/2+z
-x,y,1/2+z
x,-y,1/2+z
loop_
_atom_site_type_symbol
_atom_site_label
_atom_site_fract_x
_atom_site_fract_y
_atom_site_fract_z
Si Si1 0.056614 0.437249 0.007120
Si Si2 0.669089 0.558075 0.817923
Si Si3 0.445255 0.937121 0.311401
Si Si4 0.942046 0.937492 0.308650
Si Si5 0.553664 0.937547 0.514042
Si Si6 0.867560 0.561408 0.657423
Si Si7 0.335737 0.561087 0.523870
Si Si8 0.746286 0.559036 0.665406
O O1 0.053279 0.250000 0.995808
O O2 0.101443 0.482591 0.076261
O O3 0.000000 0.500000 0.039836
O O4 0.066153 0.515638 0.911291
O O5 0.668444 0.750000 0.817623
O O6 0.612064 0.504842 0.780667
O O7 0.673375 0.510481 0.921051
O O8 0.716469 0.506923 0.755300
O O9 0.446453 0.750000 0.302221
O O10 0.500000 0.000000 0.273557
O O11 0.445136 0.981889 0.416287
O O12 0.941009 0.750000 0.298532
O O13 0.898466 0.014592 0.246381
O O14 0.000000 0.000000 0.283629
O O15 0.550675 0.750000 0.504842
O O16 0.500000 0.000000 0.557710
O O17 0.609170 0.985804 0.555856
O O18 0.869286 0.750000 0.646497
O O19 0.806891 0.510590 0.661822
O O20 0.340985 0.750000 0.525404
O O21 0.287898 0.506576 0.584433
O O22 0.744740 0.750000 0.662513
#
# Coordination Sequence:
#
# PCOD9359761 Si02
#       8
#     8   8   8   8   8   8   8   8
#     4  11  22  39  63  91 123 157 194 238 291 346
#     4   8  17  35  56  76 104 144 183 224 278 334
#     4   9  15  26  47  75 105 136 174 221 276 337
#     4  11  22  39  63  92 124 156 193 237 289 347
#     4  10  17  28  49  77 107 139 178 224 279 340
#     4  11  23  39  59  86 120 158 200 244 291 343
#     4  10  20  36  57  81 110 145 185 231 284 340
#     4  10  22  40  59  80 109 149 195 239 280 329
#
# _framework density 19.701433999999999
#
# number of rings (size 3 to 8) (size 9 to 14) (size 15 to 20)
#    0.000    2.000    0.000    7.125    0.000    2.000 
#    0.000    5.625    0.000    1.500    0.000    0.000 
#    0.000    0.000    0.000    0.000    0.000    0.000 
#
# Total GULP energy -178714.829636 kJ/mol
# GULP energy per Si atom -5584.838426 kJ/mol
# Density = 1.965659 g / cm^3
# Si number density = 19.701434 Si / 1000 Ang^3
#
#
#
# Elastic Constant Matrix: (Units=GPa)
#
#
# Indices 1 2 3 4 5 6 
#
# 1 178.5106 7.7648 59.9488 0.0000 0.0000 0.0000
# 2 7.7648 28.9923 -12.1723 0.0000 0.0000 0.0000
# 3 59.9488 -12.1723 72.9241 0.0000 0.0000 0.0000
# 4 0.0000 0.0000 0.0000 -44.8588 0.0000 0.0000
# 5 0.0000 0.0000 0.0000 0.0000 80.2271 0.0000
# 6 0.0000 0.0000 0.0000 0.0000 0.0000 28.1594
#
#
#
# Elastic Compliance Matrix: (Units=1/GPa)
#
#
# Indices 1 2 3 4 5 6 
#
# 1 0.008510 -0.005609 -0.007932 0.000000 0.000000 0.000000
# 2 -0.005609 0.040789 0.011419 0.000000 0.000000 0.000000
# 3 -0.007932 0.011419 0.022139 0.000000 0.000000 0.000000
# 4 0.000000 0.000000 0.000000 -0.022292 0.000000 0.000000
# 5 0.000000 0.000000 0.000000 0.000000 0.012465 0.000000
# 6 0.000000 0.000000 0.000000 0.000000 0.000000 0.035512
#
#
# Mechanical properties :
#
#
# Convention : Reuss Voigt Hill
#
# Bulk Modulus (GPa) = 14.88214 43.50108 29.19161
# Shear Modulus (GPa) = 40.39967 27.69791 34.04879
#
# Velocity S-wave (km/s) = 4.53326 3.75358 4.16172
# Velocity P-wave (km/s) = 5.91362 6.39640 6.15974
#
# Compressibility (1/GPa) = 0.06719463
#
# Stress axis : x y z
#
# Youngs Moduli (GPa) = 117.51427 24.51667 45.16823
#
# Poissons Ratio (x) = 0.13752 0.35826
# Poissons Ratio (y) = 0.65916 -0.51580
# Poissons Ratio (z) = 0.93210 -0.27997
#
# Static dielectric constant tensor:
#      x y z
#    x 1.697720 0.000000 0.000000 
#    y 0.000000 1.667990 0.000000 
#    z 0.000000 0.000000 1.703350 
# 
# From -- ./inp_files/10664.got.cif
#   From: 2010.05.17/outbox.cif.g08.bks.cpg/sg39_6_cif.got.tgz:10664.got - 2010.06.03 18:22:40.
