data_PCOD9359798
_publ_section_title
;
Structure prediction by ZEFSAII (Michael W. Deem and Ramdas Pophale) SiO2 
 PCOD9359798
Probable space group: A B M 2
;
_chemical_formula_sum "Si O2"
_cell_formula_units_Z 56
_cell_length_a 5.190889
_cell_length_b 20.915553
_cell_length_c 28.104961
_cell_angle_alpha 90.000000
_cell_angle_beta 90.000000
_cell_angle_gamma 90.000000
_cell_volume 3051.364441
_symmetry_space_group_name_H-M "A B M 2"
_symmetry_group_IT_number 39
_symmetry_cell_setting 'orthorhombic'
loop_
_space_group_symop_operation_xyz
x,y,z
-x,-y,z
-x,1/2+y,z
x,1/2-y,z
x,1/2+y,1/2+z
-x,1/2-y,1/2+z
-x,y,1/2+z
x,-y,1/2+z
loop_
_atom_site_type_symbol
_atom_site_label
_atom_site_fract_x
_atom_site_fract_y
_atom_site_fract_z
Si Si1 0.069803 0.828007 0.887610
Si Si2 0.427860 0.827447 0.442170
Si Si3 0.046242 0.430503 0.076851
Si Si4 0.441694 0.117131 0.622163
Si Si5 0.252035 0.677893 0.033528
Si Si6 0.420602 0.172613 0.224265
Si Si7 0.920267 0.172454 0.281941
O O1 0.069672 0.750000 0.887213
O O2 0.853264 0.849103 0.925581
O O3 0.989033 0.849565 0.835003
O O4 0.355076 0.846992 0.903722
O O5 0.416676 0.750000 0.442247
O O6 0.549570 0.844345 0.493069
O O7 0.827047 0.420948 0.117770
O O8 0.976241 0.373009 0.040767
O O9 0.000000 0.500000 0.055258
O O10 0.325259 0.422422 0.099275
O O11 0.392711 0.174908 0.584723
O O12 0.513287 0.141488 0.673884
O O13 0.163435 0.750000 0.022632
O O14 0.424612 0.250000 0.218991
O O15 0.641239 0.154508 0.262199
O O16 0.143208 0.153833 0.244915
O O17 0.923104 0.250000 0.283811
#
# Coordination Sequence:
#
# PCOD9359798 Si02
#       7
#     8   8   8   8   8   8   8
#     4   9  16  27  41  61  94 137 171 204 252 310
#     4   9  17  27  42  65  96 131 172 208 252 310
#     4  10  22  38  55  73 105 146 179 220 257 311
#     4  10  21  34  53  72 104 138 174 219 261 313
#     4   9  21  33  52  79 109 142 177 219 265 316
#     4  10  18  29  45  71 101 134 173 210 258 313
#     4   9  17  27  42  63  97 137 172 208 255 313
#
# _framework density 18.352444999999999
#
# number of rings (size 3 to 8) (size 9 to 14) (size 15 to 20)
#    0.857    1.714    0.000    2.571    2.000    4.571 
#    0.000    0.000    0.000    0.000    0.000    0.000 
#    0.000   17.143    0.000    0.000    0.000    0.000 
#
# Total GULP energy -155911.234355 kJ/mol
# GULP energy per Si atom -5568.258370 kJ/mol
# Density = 1.831067 g / cm^3
# Si number density = 18.352445 Si / 1000 Ang^3
#
#
#
# Elastic Constant Matrix: (Units=GPa)
#
#
# Indices 1 2 3 4 5 6 
#
# 1 58.1230 -0.9950 -23.3949 0.0000 0.0000 0.0000
# 2 -0.9950 37.3926 0.0727 0.0000 0.0000 0.0000
# 3 -23.3949 0.0727 54.1816 0.0000 0.0000 0.0000
# 4 0.0000 0.0000 0.0000 1.3179 0.0000 0.0000
# 5 0.0000 0.0000 0.0000 0.0000 24.8411 0.0000
# 6 0.0000 0.0000 0.0000 0.0000 0.0000 10.1029
#
#
#
# Elastic Compliance Matrix: (Units=1/GPa)
#
#
# Indices 1 2 3 4 5 6 
#
# 1 0.020835 0.000537 0.008995 0.000000 0.000000 0.000000
# 2 0.000537 0.026757 0.000196 0.000000 0.000000 0.000000
# 3 0.008995 0.000196 0.022340 0.000000 0.000000 0.000000
# 4 0.000000 0.000000 0.000000 0.758805 0.000000 0.000000
# 5 0.000000 0.000000 0.000000 0.000000 0.040256 0.000000
# 6 0.000000 0.000000 0.000000 0.000000 0.000000 0.098981
#
#
# Mechanical properties :
#
#
# Convention : Reuss Voigt Hill
#
# Bulk Modulus (GPa) = 11.18704 11.22918 11.20811
# Shear Modulus (GPa) = 5.11084 18.85335 11.98209
#
# Velocity S-wave (km/s) = 1.67059 3.20862 2.55794
# Velocity P-wave (km/s) = 3.13529 4.45633 3.85285
#
# Compressibility (1/GPa) = 0.08938911
#
# Stress axis : x y z
#
# Youngs Moduli (GPa) = 47.99652 37.37314 44.76212
#
# Poissons Ratio (x) = -0.02007 -0.40266
# Poissons Ratio (y) = -0.02577 -0.00877
# Poissons Ratio (z) = -0.43175 -0.00732
#
# Static dielectric constant tensor:
#      x y z
#    x 1.651110 0.000000 0.000000 
#    y 0.000000 1.624210 0.000000 
#    z 0.000000 0.000000 1.638710 
# 
# From -- ./inp_files/16596.got.cif
#   From: 2010.05.17/outbox.cif.g08.bks.cpg/sg39_9_cif.got.tgz:16596.got - 2010.06.03 18:22:40.
