data_PCOD9359643
_publ_section_title
;
Structure prediction by ZEFSAII (Michael W. Deem and Ramdas Pophale) SiO2 
 PCOD9359643
Probable space group: A M M 2
;
_chemical_formula_sum "Si O2"
_cell_formula_units_Z 24
_cell_length_a 9.000000
_cell_length_b 18.000000
_cell_length_c 15.000000
_cell_angle_alpha 90.000000
_cell_angle_beta 90.000000
_cell_angle_gamma 90.000000
_cell_volume 2430.000000
_symmetry_space_group_name_H-M "A M M 2"
_symmetry_group_IT_number 38
_symmetry_cell_setting 'orthorhombic'
loop_
_space_group_symop_operation_xyz
x,y,z
-x,-y,z
-x,y,z
x,-y,z
x,1/2+y,1/2+z
-x,1/2-y,1/2+z
-x,1/2+y,1/2+z
x,1/2-y,1/2+z
loop_
_atom_site_type_symbol
_atom_site_label
_atom_site_fract_x
_atom_site_fract_y
_atom_site_fract_z
Si Si1 0.672446 0.842141 0.421270
Si Si2 0.671759 0.581919 0.518277
Si Si3 0.823169 0.766496 0.065384
Si Si4 0.328802 0.120338 0.814889
Si Si5 0.668126 0.500000 0.012791
Si Si6 0.174991 0.000000 0.694807
Si Si7 0.823476 0.766391 0.270967
O O1 0.500000 0.820485 0.412986
O O2 0.745444 0.789334 0.496479
O O3 0.682763 0.926038 0.455202
O O4 0.749978 0.832910 0.325619
O O5 0.500000 0.596216 0.545150
O O6 0.715841 0.500000 0.550539
O O7 0.774937 0.649126 0.546903
O O8 0.672806 0.581739 0.410808
O O9 0.779269 0.753900 0.168458
O O10 0.000000 0.757436 0.056999
O O11 0.500000 0.135581 0.791210
O O12 0.251290 0.070288 0.741106
O O13 0.235629 0.194955 0.823210
O O14 0.500000 0.500000 0.052395
O O15 0.786684 0.500000 0.091345
O O16 0.000000 0.000000 0.710968
O O17 0.000000 0.772422 0.274473
#
# Coordination Sequence:
#
# PCOD9359643 Si02
#       7
#     8   8   8   8   4   4   8
#     4  11  23  42  67  92 123 164 211 263 313 367
#     4  10  21  39  62  89 121 158 202 250 304 361
#     4  11  24  41  63  92 127 163 205 255 310 375
#     4  11  21  37  61  89 123 160 203 253 307 369
#     4  10  24  44  64  89 122 163 214 263 311 369
#     4  12  24  36  58  93 128 163 202 253 319 379
#     4  11  24  41  62  92 125 163 208 255 313 376
#
# _framework density 9.8765429999999999
#
# number of rings (size 3 to 8) (size 9 to 14) (size 15 to 20)
#    0.000    1.167    2.500    3.750    0.000    7.667 
#    1.500    0.000    0.000    0.000    0.000    0.000 
#    0.000    0.000    0.000    0.000    0.000    0.000 
#
# Total GULP energy -134062.146672 kJ/mol
# GULP energy per Si atom -5585.922778 kJ/mol
# Density = 0.985406 g / cm^3
# Si number density = 9.876543 Si / 1000 Ang^3
#
#
#
# Elastic Constant Matrix: (Units=GPa)
#
#
# Indices 1 2 3 4 5 6 
#
# 1 57.7553 20.5661 41.8746 0.0000 0.0000 0.0000
# 2 20.5661 75.2809 18.6156 0.0000 0.0000 0.0000
# 3 41.8746 18.6156 60.9512 0.0000 0.0000 0.0000
# 4 0.0000 0.0000 0.0000 23.9507 0.0000 0.0000
# 5 0.0000 0.0000 0.0000 0.0000 31.9594 0.0000
# 6 0.0000 0.0000 0.0000 0.0000 0.0000 66.9948
#
#
#
# Elastic Compliance Matrix: (Units=1/GPa)
#
#
# Indices 1 2 3 4 5 6 
#
# 1 0.035565 -0.003974 -0.023220 0.000000 0.000000 0.000000
# 2 -0.003974 0.014813 -0.001794 0.000000 0.000000 0.000000
# 3 -0.023220 -0.001794 0.032907 0.000000 0.000000 0.000000
# 4 0.000000 0.000000 0.000000 0.041752 0.000000 0.000000
# 5 0.000000 0.000000 0.000000 0.000000 0.031290 0.000000
# 6 0.000000 0.000000 0.000000 0.000000 0.000000 0.014927
#
#
# Mechanical properties :
#
#
# Convention : Reuss Voigt Hill
#
# Bulk Modulus (GPa) = 39.51180 39.56666 39.53923
# Shear Modulus (GPa) = 21.03800 32.10973 26.57386
#
# Velocity S-wave (km/s) = 3.26705 4.03619 3.67181
# Velocity P-wave (km/s) = 5.85472 6.46492 6.16737
#
# Compressibility (1/GPa) = 0.02530890
#
# Stress axis : x y z
#
# Youngs Moduli (GPa) = 28.11772 67.50888 30.38876
#
# Poissons Ratio (x) = 0.26829 0.70562
# Poissons Ratio (y) = 0.11174 0.05451
# Poissons Ratio (z) = 0.65289 0.12110
#
# Static dielectric constant tensor:
#      x y z
#    x 1.606470 0.000000 0.000000 
#    y 0.000000 1.708340 0.000000 
#    z 0.000000 0.000000 1.693450 
# 
# From -- ./inp_files/12086.got.cif
#   From: 2010.05.17/outbox.ucp.g08.bks.cvg/sg38_7_cif.got.tgz:12086.got - 2010.06.11 10:39:43.
