data_PCOD9359210
_publ_section_title
;
Structure prediction by ZEFSAII (Michael W. Deem and Ramdas Pophale) SiO2 
 PCOD9359210
Probable space group: A M M 2
;
_chemical_formula_sum "Si O2"
_cell_formula_units_Z 32
_cell_length_a 8.003257
_cell_length_b 17.362130
_cell_length_c 12.287631
_cell_angle_alpha 90.000000
_cell_angle_beta 90.000000
_cell_angle_gamma 90.000000
_cell_volume 1707.410421
_symmetry_space_group_name_H-M "A M M 2"
_symmetry_group_IT_number 38
_symmetry_cell_setting 'orthorhombic'
loop_
_space_group_symop_operation_xyz
x,y,z
-x,-y,z
-x,y,z
x,-y,z
x,1/2+y,1/2+z
-x,1/2-y,1/2+z
-x,1/2+y,1/2+z
x,1/2-y,1/2+z
loop_
_atom_site_type_symbol
_atom_site_label
_atom_site_fract_x
_atom_site_fract_y
_atom_site_fract_z
Si Si1 0.000000 0.408010 0.313170
Si Si2 0.187230 0.314988 0.727279
Si Si3 0.700738 0.088520 0.435861
Si Si4 0.691341 0.652172 0.173960
Si Si5 0.000000 0.091835 0.061314
O O1 0.169157 0.382779 0.252774
O O2 0.000000 0.380013 0.437852
O O3 0.000000 0.500000 0.316114
O O4 0.300789 0.243941 0.693094
O O5 0.157390 0.374111 0.627961
O O6 0.000000 0.282112 0.746373
O O7 0.238041 0.361452 0.834235
O O8 0.500000 0.085718 0.429531
O O9 0.740961 0.128352 0.551082
O O10 0.763507 0.000000 0.432573
O O11 0.500000 0.625290 0.192627
O O12 0.000000 0.000000 0.065531
#
# Coordination Sequence:
#
# PCOD9359210 Si02
#       5
#     4   8   8   8   4
#     4  11  23  41  65  91 123 167 207 249 307 373
#     4  10  22  37  63  88 125 160 205 253 312 361
#     4  10  22  40  63  93 125 161 210 262 314 374
#     4  11  24  41  63  94 128 163 206 259 312 371
#     4   9  21  39  61  89 123 163 209 253 305 373
#
# _framework density 18.741834000000001
#
# number of rings (size 3 to 8) (size 9 to 14) (size 15 to 20)
#    0.750    1.000    1.250    2.250    5.250    1.500 
#    0.000    1.250    0.000    3.000    0.000    0.000 
#    0.000    0.000    0.000    0.000    0.000    0.000 
#
# Total GULP energy -89215.682267 kJ/mol
# GULP energy per Si atom -5575.980142 kJ/mol
# Density = 1.869918 g / cm^3
# Si number density = 18.741834 Si / 1000 Ang^3
#
#
#
# Elastic Constant Matrix: (Units=GPa)
#
#
# Indices 1 2 3 4 5 6 
#
# 1 73.1858 20.5903 56.1829 0.0000 0.0000 0.0000
# 2 20.5903 88.9729 58.5626 0.0000 0.0000 0.0000
# 3 56.1829 58.5626 183.4972 0.0000 0.0000 0.0000
# 4 0.0000 0.0000 0.0000 36.8751 0.0000 0.0000
# 5 0.0000 0.0000 0.0000 0.0000 30.1498 0.0000
# 6 0.0000 0.0000 0.0000 0.0000 0.0000 -0.4715
#
#
#
# Elastic Compliance Matrix: (Units=1/GPa)
#
#
# Indices 1 2 3 4 5 6 
#
# 1 0.017894 -0.000677 -0.005263 0.000000 0.000000 0.000000
# 2 -0.000677 0.014254 -0.004342 0.000000 0.000000 0.000000
# 3 -0.005263 -0.004342 0.008447 0.000000 0.000000 0.000000
# 4 0.000000 0.000000 0.000000 0.027119 0.000000 0.000000
# 5 0.000000 0.000000 0.000000 0.000000 0.033168 0.000000
# 6 0.000000 0.000000 0.000000 0.000000 0.000000 -2.120678
#
#
# Mechanical properties :
#
#
# Convention : Reuss Voigt Hill
#
# Bulk Modulus (GPa) = 49.92113 68.48085 59.20099
# Shear Modulus (GPa) = -2.50934 27.33202 12.41134
#
# Velocity S-wave (km/s) = -1.15836 3.82297 2.57617
# Velocity P-wave (km/s) = 4.99049 7.49034 6.36436
#
# Compressibility (1/GPa) = 0.02003160
#
# Stress axis : x y z
#
# Youngs Moduli (GPa) = 55.88321 70.15648 118.38973
#
# Poissons Ratio (x) = 0.04751 0.62306
# Poissons Ratio (y) = 0.03784 0.51402
# Poissons Ratio (z) = 0.29410 0.30460
#
# Static dielectric constant tensor:
#      x y z
#    x 1.657720 0.000000 0.000000 
#    y 0.000000 1.662490 0.000000 
#    z 0.000000 0.000000 1.624800 
# 
# From -- ./inp_files/7613.got.cif
#   From: 2010.05.17/outbox.cif.g08.bks.cpg/sg38_4_cif.got.tgz:7613.got - 2010.06.03 18:07:57.
