data_PCOD9359339
_publ_section_title
;
Structure prediction by ZEFSAII (Michael W. Deem and Ramdas Pophale) SiO2 
 PCOD9359339
Probable space group: A M M 2
;
_chemical_formula_sum "Si O2"
_cell_formula_units_Z 36
_cell_length_a 10.926792
_cell_length_b 25.690055
_cell_length_c 4.963845
_cell_angle_alpha 90.000000
_cell_angle_beta 90.000000
_cell_angle_gamma 90.000000
_cell_volume 1393.400371
_symmetry_space_group_name_H-M "A M M 2"
_symmetry_group_IT_number 38
_symmetry_cell_setting 'orthorhombic'
loop_
_space_group_symop_operation_xyz
x,y,z
-x,-y,z
-x,y,z
x,-y,z
x,1/2+y,1/2+z
-x,1/2-y,1/2+z
-x,1/2+y,1/2+z
x,1/2-y,1/2+z
loop_
_atom_site_type_symbol
_atom_site_label
_atom_site_fract_x
_atom_site_fract_y
_atom_site_fract_z
Si Si1 0.861306 0.559159 0.500000
Si Si2 0.861900 0.283794 0.157735
Si Si3 0.713046 0.854356 0.274488
Si Si4 0.372131 0.056673 0.618100
Si Si5 0.500000 0.287187 0.523262
O O1 0.857203 0.500000 0.626695
O O2 0.827276 0.611678 0.661559
O O3 0.751516 0.559530 0.286786
O O4 0.000000 0.564006 0.393721
O O5 0.851336 0.232010 0.969187
O O6 0.763828 0.320804 0.023845
O O7 0.000000 0.303615 0.115647
O O8 0.631031 0.899305 0.399575
O O9 0.621932 0.820690 0.087841
O O10 0.500000 0.061440 0.778471
O O11 0.372763 0.000000 0.487816
O O12 0.500000 0.262079 0.228296
#
# Coordination Sequence:
#
# PCOD9359339 Si02
#       5
#     8   8   8   8   4
#     4  10  24  44  69 106 150 194 245 308 374 452
#     4  10  23  42  64  95 135 182 237 298 358 429
#     4  12  24  41  71 100 139 192 245 300 378 446
#     4  10  23  43  69 104 143 188 244 304 369 449
#     4  12  30  48  73 110 153 194 252 324 384 446
#
# _framework density 25.836078000000001
#
# number of rings (size 3 to 8) (size 9 to 14) (size 15 to 20)
#    0.000    1.333    1.111    2.667    7.778    1.778 
#    0.000    2.222    0.000    0.000    0.000    0.000 
#    0.000    0.000    0.000    0.000    0.000    0.000 
#
# Total GULP energy -100672.500236 kJ/mol
# GULP energy per Si atom -5592.916680 kJ/mol
# Density = 2.577727 g / cm^3
# Si number density = 25.836078 Si / 1000 Ang^3
#
#
#
# Elastic Constant Matrix: (Units=GPa)
#
#
# Indices 1 2 3 4 5 6 
#
# 1 225.4207 41.0506 26.6741 0.0000 0.0000 0.0000
# 2 41.0506 116.7323 4.8988 0.0000 0.0000 0.0000
# 3 26.6741 4.8988 41.7519 0.0000 0.0000 0.0000
# 4 0.0000 0.0000 0.0000 30.2628 0.0000 0.0000
# 5 0.0000 0.0000 0.0000 0.0000 32.8325 0.0000
# 6 0.0000 0.0000 0.0000 0.0000 0.0000 67.2918
#
#
#
# Elastic Compliance Matrix: (Units=1/GPa)
#
#
# Indices 1 2 3 4 5 6 
#
# 1 0.005102 -0.001666 -0.003064 0.000000 0.000000 0.000000
# 2 -0.001666 0.009153 -0.000010 0.000000 0.000000 0.000000
# 3 -0.003064 -0.000010 0.025910 0.000000 0.000000 0.000000
# 4 0.000000 0.000000 0.000000 0.033044 0.000000 0.000000
# 5 0.000000 0.000000 0.000000 0.000000 0.030458 0.000000
# 6 0.000000 0.000000 0.000000 0.000000 0.000000 0.014861
#
#
# Mechanical properties :
#
#
# Convention : Reuss Voigt Hill
#
# Bulk Modulus (GPa) = 32.58873 58.79466 45.69169
# Shear Modulus (GPa) = 36.17049 46.82950 41.50000
#
# Velocity S-wave (km/s) = 3.74572 4.26204 4.01219
# Velocity P-wave (km/s) = 5.59895 6.85756 6.25997
#
# Compressibility (1/GPa) = 0.03068546
#
# Stress axis : x y z
#
# Youngs Moduli (GPa) = 195.99973 109.25662 38.59558
#
# Poissons Ratio (x) = 0.18198 0.11826
# Poissons Ratio (y) = 0.32646 0.00038
# Poissons Ratio (z) = 0.60057 0.00107
#
# Static dielectric constant tensor:
#      x y z
#    x 2.032070 0.000000 0.000000 
#    y 0.000000 1.972350 0.000000 
#    z 0.000000 0.000000 2.032830 
# 
# From -- ./inp_files/836.got.cif
#   From: 2010.05.17/outbox.cif.g08.bks.cpg/sg38_1_cif.got.tgz:836.got - 2010.06.03 18:07:57.
