data_PCOD9359871
_publ_section_title
;
Structure prediction by ZEFSAII (Michael W. Deem and Ramdas Pophale) SiO2 
 PCOD9359871
Probable space group: A B M 2
;
_chemical_formula_sum "Si O2"
_cell_formula_units_Z 64
_cell_length_a 20.591635
_cell_length_b 7.690521
_cell_length_c 20.914246
_cell_angle_alpha 90.000000
_cell_angle_beta 90.000000
_cell_angle_gamma 90.000000
_cell_volume 3311.988391
_symmetry_space_group_name_H-M "A B M 2"
_symmetry_group_IT_number 39
_symmetry_cell_setting 'orthorhombic'
loop_
_space_group_symop_operation_xyz
x,y,z
-x,-y,z
-x,1/2+y,z
x,1/2-y,z
x,1/2+y,1/2+z
-x,1/2-y,1/2+z
-x,y,1/2+z
x,-y,1/2+z
loop_
_atom_site_type_symbol
_atom_site_label
_atom_site_fract_x
_atom_site_fract_y
_atom_site_fract_z
Si Si1 0.821881 0.963741 0.283360
Si Si2 0.194288 0.461547 0.425556
Si Si3 0.678288 0.456663 0.743157
Si Si4 0.161842 0.958245 0.063634
Si Si5 0.694522 0.540193 0.600631
Si Si6 0.658952 0.461677 0.962482
Si Si7 0.424985 0.959202 0.846237
Si Si8 0.925015 0.955001 0.180201
O O1 0.821896 0.750000 0.282581
O O2 0.831316 0.019302 0.356848
O O3 0.750359 0.022592 0.260664
O O4 0.876880 0.028126 0.234673
O O5 0.192253 0.250000 0.424906
O O6 0.158617 0.521290 0.490313
O O7 0.270222 0.508663 0.434163
O O8 0.681126 0.250000 0.753861
O O9 0.666228 0.486039 0.668381
O O10 0.622356 0.525290 0.789935
O O11 0.167047 0.750000 0.060312
O O12 0.230423 0.021260 0.093617
O O13 0.103419 0.998670 0.110793
O O14 0.695497 0.750000 0.599713
O O15 0.657967 0.480691 0.536264
O O16 0.657305 0.250000 0.963593
O O17 0.603607 0.522677 0.914168
O O18 0.419695 0.750000 0.846966
O O19 0.500000 0.000000 0.836817
O O20 0.919989 0.750000 0.185782
O O21 0.000000 0.000000 0.187931
#
# Coordination Sequence:
#
# PCOD9359871 Si02
#       8
#     8   8   8   8   8   8   8   8
#     4   9  16  29  51  77 100 129 169 210 252 299
#     4   8  13  26  51  78  99 122 163 208 247 294
#     4  10  18  31  52  77 102 133 172 212 254 302
#     4   9  17  30  51  78 103 128 162 207 254 302
#     4   9  17  29  50  78 104 128 162 210 256 298
#     4   8  14  28  49  73  98 129 165 203 247 299
#     4  10  20  34  53  74 102 137 174 213 255 308
#     4  11  22  35  52  73 103 139 172 208 253 308
#
# _framework density 19.323739
#
# number of rings (size 3 to 8) (size 9 to 14) (size 15 to 20)
#    0.000    2.750    2.500    1.875    0.000    0.500 
#    0.000    1.875    0.000    7.500    0.000    0.000 
#    0.000    0.000    0.000    0.000    0.000    0.000 
#
# Total GULP energy -178421.441927 kJ/mol
# GULP energy per Si atom -5575.670060 kJ/mol
# Density = 1.927976 g / cm^3
# Si number density = 19.323739 Si / 1000 Ang^3
#
#
#
# Elastic Constant Matrix: (Units=GPa)
#
#
# Indices 1 2 3 4 5 6 
#
# 1 134.7720 5.1763 103.8978 0.0000 0.0000 0.0000
# 2 5.1763 29.2126 3.0967 0.0000 0.0000 0.0000
# 3 103.8978 3.0967 184.1060 0.0000 0.0000 0.0000
# 4 0.0000 0.0000 0.0000 15.6527 0.0000 0.0000
# 5 0.0000 0.0000 0.0000 0.0000 29.0689 0.0000
# 6 0.0000 0.0000 0.0000 0.0000 0.0000 8.7653
#
#
#
# Elastic Compliance Matrix: (Units=1/GPa)
#
#
# Indices 1 2 3 4 5 6 
#
# 1 0.013204 -0.001553 -0.007425 0.000000 0.000000 0.000000
# 2 -0.001553 0.034475 0.000296 0.000000 0.000000 0.000000
# 3 -0.007425 0.000296 0.009617 0.000000 0.000000 0.000000
# 4 0.000000 0.000000 0.000000 0.063887 0.000000 0.000000
# 5 0.000000 0.000000 0.000000 0.000000 0.034401 0.000000
# 6 0.000000 0.000000 0.000000 0.000000 0.000000 0.114087
#
#
# Mechanical properties :
#
#
# Convention : Reuss Voigt Hill
#
# Bulk Modulus (GPa) = 25.04180 63.60358 44.32269
# Shear Modulus (GPa) = 16.64752 26.42537 21.53644
#
# Velocity S-wave (km/s) = 2.93833 3.70199 3.34204
# Velocity P-wave (km/s) = 4.94964 7.15955 6.15460
#
# Compressibility (1/GPa) = 0.03993324
#
# Stress axis : x y z
#
# Youngs Moduli (GPa) = 75.73557 29.00612 103.98218
#
# Poissons Ratio (x) = 0.04503 0.77210
# Poissons Ratio (y) = 0.11758 -0.03081
# Poissons Ratio (z) = 0.56236 -0.00859
#
# Static dielectric constant tensor:
#      x y z
#    x 1.618240 0.000000 0.000000 
#    y 0.000000 1.736980 0.000000 
#    z 0.000000 0.000000 1.706020 
# 
# From -- ./inp_files/15037.got.cif
#   From: 2010.05.17/outbox.cif.g08.bks.cpg/sg39_8_cif.got.tgz:15037.got - 2010.06.03 18:22:40.
