data_PCOD9359493
_publ_section_title
;
Structure prediction by ZEFSAII (Michael W. Deem and Ramdas Pophale) SiO2 
 PCOD9359493
Probable space group: A M M 2
;
_chemical_formula_sum "Si O2"
_cell_formula_units_Z 64
_cell_length_a 23.607112
_cell_length_b 15.146585
_cell_length_c 9.031036
_cell_angle_alpha 90.000000
_cell_angle_beta 90.000000
_cell_angle_gamma 90.000000
_cell_volume 3229.201610
_symmetry_space_group_name_H-M "A M M 2"
_symmetry_group_IT_number 38
_symmetry_cell_setting 'orthorhombic'
loop_
_space_group_symop_operation_xyz
x,y,z
-x,-y,z
-x,y,z
x,-y,z
x,1/2+y,1/2+z
-x,1/2-y,1/2+z
-x,1/2+y,1/2+z
x,1/2-y,1/2+z
loop_
_atom_site_type_symbol
_atom_site_label
_atom_site_fract_x
_atom_site_fract_y
_atom_site_fract_z
Si Si1 0.435381 0.602198 0.301710
Si Si2 0.563901 0.897028 0.159935
Si Si3 0.184741 0.396609 0.413742
Si Si4 0.939242 0.607298 0.409192
Si Si5 0.939443 0.892737 0.559573
Si Si6 0.270888 0.752610 0.024731
Si Si7 0.815709 0.396994 0.053420
Si Si8 0.351183 0.246225 0.274857
O O1 0.500000 0.624605 0.256988
O O2 0.424844 0.500000 0.263055
O O3 0.433062 0.609028 0.481030
O O4 0.388683 0.667929 0.239466
O O5 0.500000 0.869734 0.203521
O O6 0.610786 0.837275 0.235503
O O7 0.571049 0.000000 0.197516
O O8 0.192097 0.500000 0.451889
O O9 0.122219 0.365275 0.468241
O O10 0.233969 0.336828 0.479456
O O11 0.184392 0.392145 0.233835
O O12 0.938623 0.500000 0.416367
O O13 0.940054 0.629728 0.234336
O O14 0.000000 0.636784 0.474380
O O15 0.878147 0.865818 0.499467
O O16 0.000000 0.862981 0.494143
O O17 0.938891 0.000000 0.552811
O O18 0.331280 0.749812 0.943567
O O19 0.233160 0.666444 0.996918
O O20 0.290705 0.755429 0.193707
O O21 0.807807 0.500000 0.014418
#
# Coordination Sequence:
#
# PCOD9359493 Si02
#       8
#     8   8   8   8   8   8   8   8
#     4   9  19  38  64  89 111 141 181 220 265 324
#     4   9  19  38  63  88 113 142 177 219 271 326
#     4   9  18  34  54  74 104 146 186 226 273 327
#     4   7  10  20  43  73  98 125 171 228 277 319
#     4   7  10  20  43  72  97 127 172 224 277 327
#     4  12  24  36  53  81 112 149 190 222 258 318
#     4   9  18  34  53  74 106 144 183 231 277 319
#     4  12  23  38  57  83 116 146 182 224 264 312
#
# _framework density 19.819140000000001
#
# number of rings (size 3 to 8) (size 9 to 14) (size 15 to 20)
#    0.000    2.750    2.500    3.375    0.000    2.000 
#    0.000    0.625    0.000    1.500    0.000    0.000 
#    0.000    4.000    0.000    0.000    0.000    0.000 
#
# Total GULP energy -178251.710610 kJ/mol
# GULP energy per Si atom -5570.365957 kJ/mol
# Density = 1.977403 g / cm^3
# Si number density = 19.819140 Si / 1000 Ang^3
#
#
#
# Elastic Constant Matrix: (Units=GPa)
#
#
# Indices 1 2 3 4 5 6 
#
# 1 142.6085 71.5202 9.3482 0.0000 0.0000 0.0000
# 2 71.5202 86.4242 7.0899 0.0000 0.0000 0.0000
# 3 9.3482 7.0899 4.3769 0.0000 0.0000 0.0000
# 4 0.0000 0.0000 0.0000 18.4576 0.0000 0.0000
# 5 0.0000 0.0000 0.0000 0.0000 9.6523 0.0000
# 6 0.0000 0.0000 0.0000 0.0000 0.0000 -42.1272
#
#
#
# Elastic Compliance Matrix: (Units=1/GPa)
#
#
# Indices 1 2 3 4 5 6 
#
# 1 0.012464 -0.009377 -0.011432 0.000000 0.000000 0.000000
# 2 -0.009377 0.020398 -0.013015 0.000000 0.000000 0.000000
# 3 -0.011432 -0.013015 0.273972 0.000000 0.000000 0.000000
# 4 0.000000 0.000000 0.000000 0.054178 0.000000 0.000000
# 5 0.000000 0.000000 0.000000 0.000000 0.103602 0.000000
# 6 0.000000 0.000000 0.000000 0.000000 0.000000 -0.023738
#
#
# Mechanical properties :
#
#
# Convention : Reuss Voigt Hill
#
# Bulk Modulus (GPa) = 4.18083 45.48069 24.83076
# Shear Modulus (GPa) = 8.49971 6.89328 7.69650
#
# Velocity S-wave (km/s) = 2.07315 1.86699 1.97276
# Velocity P-wave (km/s) = 2.80083 5.25787 4.21247
#
# Compressibility (1/GPa) = 0.23918711
#
# Stress axis : x y z
#
# Youngs Moduli (GPa) = 80.22929 49.02344 3.65000
#
# Poissons Ratio (x) = 0.45969 0.04173
# Poissons Ratio (y) = 0.75231 0.04750
# Poissons Ratio (z) = 0.91719 0.63803
#
# Static dielectric constant tensor:
#      x y z
#    x 1.728650 0.000000 0.000000 
#    y 0.000000 1.676060 0.000000 
#    z 0.000000 0.000000 1.666010 
# 
# From -- ./inp_files/6982.got.cif
#   From: 2010.05.17/outbox.cif.g08.bks.cpg/sg38_4_cif.got.tgz:6982.got - 2010.06.03 18:07:57.
