data_PCOD9359488
_publ_section_title
;
Structure prediction by ZEFSAII (Michael W. Deem and Ramdas Pophale) SiO2 
 PCOD9359488
Probable space group: A M M 2
;
_chemical_formula_sum "Si O2"
_cell_formula_units_Z 40
_cell_length_a 14.476906
_cell_length_b 18.571972
_cell_length_c 7.727242
_cell_angle_alpha 90.000000
_cell_angle_beta 90.000000
_cell_angle_gamma 90.000000
_cell_volume 2077.582547
_symmetry_space_group_name_H-M "A M M 2"
_symmetry_group_IT_number 38
_symmetry_cell_setting 'orthorhombic'
loop_
_space_group_symop_operation_xyz
x,y,z
-x,-y,z
-x,y,z
x,-y,z
x,1/2+y,1/2+z
-x,1/2-y,1/2+z
-x,1/2+y,1/2+z
x,1/2-y,1/2+z
loop_
_atom_site_type_symbol
_atom_site_label
_atom_site_fract_x
_atom_site_fract_y
_atom_site_fract_z
Si Si1 0.714100 0.666609 0.132620
Si Si2 0.894572 0.916212 0.538829
Si Si3 0.285900 0.333391 0.526196
Si Si4 0.610425 0.916015 0.329408
Si Si5 0.894572 0.916212 0.119987
O O1 0.681252 0.659147 0.329408
O O2 0.714234 0.750000 0.079408
O O3 0.817305 0.634615 0.117434
O O4 0.652592 0.622395 0.997350
O O5 0.888309 0.911450 0.329408
O O6 0.000000 0.898266 0.587910
O O7 0.877905 0.000000 0.585206
O O8 0.347408 0.377605 0.661466
O O9 0.182696 0.365385 0.541382
O O10 0.500000 0.910757 0.329408
O O11 0.637479 0.000000 0.329408
O O12 0.000000 0.898266 0.070906
O O13 0.877906 0.000000 0.073610
#
# Coordination Sequence:
#
# PCOD9359488 Si02
#       5
#     8   8   8   8   8
#     4  12  24  42  66  97 132 173 217 263 325 385
#     4   9  18  35  61  92 130 174 215 260 315 377
#     4  12  24  42  66  97 132 173 217 263 325 385
#     4  11  26  48  71  97 130 165 211 273 329 386
#     4   9  18  35  61  92 130 174 215 260 315 377
#
# _framework density 19.253143999999999
#
# number of rings (size 3 to 8) (size 9 to 14) (size 15 to 20)
#    0.000    1.400    4.000    2.400    0.000    6.400 
#    0.000    4.000    0.000    0.000    0.000    0.000 
#    0.000    0.000    0.000    0.000    0.000    0.000 
#
# Total GULP energy -111839.282134 kJ/mol
# GULP energy per Si atom -5591.964107 kJ/mol
# Density = 1.920932 g / cm^3
# Si number density = 19.253144 Si / 1000 Ang^3
#
#
#
# Elastic Constant Matrix: (Units=GPa)
#
#
# Indices 1 2 3 4 5 6 
#
# 1 85.9090 77.6697 55.3065 0.0000 0.0000 0.0000
# 2 77.6697 157.5509 78.5939 0.0000 0.0000 0.0000
# 3 55.3065 78.5939 156.9768 0.0000 0.0000 0.0000
# 4 0.0000 0.0000 0.0000 23.8188 0.0000 0.0000
# 5 0.0000 0.0000 0.0000 0.0000 -9.6554 0.0000
# 6 0.0000 0.0000 0.0000 0.0000 0.0000 -64.0270
#
#
#
# Elastic Compliance Matrix: (Units=1/GPa)
#
#
# Indices 1 2 3 4 5 6 
#
# 1 0.022080 -0.009336 -0.003105 0.000000 0.000000 0.000000
# 2 -0.009336 0.012408 -0.002923 0.000000 0.000000 0.000000
# 3 -0.003105 -0.002923 0.008928 0.000000 0.000000 0.000000
# 4 0.000000 0.000000 0.000000 0.041984 0.000000 0.000000
# 5 0.000000 0.000000 0.000000 0.000000 -0.103569 0.000000
# 6 0.000000 0.000000 0.000000 0.000000 0.000000 -0.015618
#
#
# Mechanical properties :
#
#
# Convention : Reuss Voigt Hill
#
# Bulk Modulus (GPa) = 78.81776 91.50856 85.16316
# Shear Modulus (GPa) = 4280.50458 2.61839 2141.56149
#
# Velocity S-wave (km/s) = 47.20278 1.16745 33.38761
# Velocity P-wave (km/s) = 54.88014 7.03204 39.12339
#
# Compressibility (1/GPa) = 0.01268750
#
# Stress axis : x y z
#
# Youngs Moduli (GPa) = 45.29038 80.59488 112.01070
#
# Poissons Ratio (x) = 0.75244 0.34778
# Poissons Ratio (y) = 0.42283 0.32740
# Poissons Ratio (z) = 0.14062 0.23557
#
# Static dielectric constant tensor:
#      x y z
#    x 1.654660 0.000000 0.000000 
#    y 0.000000 1.633150 0.000000 
#    z 0.000000 0.000000 1.682130 
# 
# From -- ./inp_files/5233.got.cif
#   From: 2010.05.17/outbox.cif.g08.bks.cpg/sg38_3_cif.got.tgz:5233.got - 2010.06.03 18:07:57.
