data_PCOD9359628
_publ_section_title
;
Structure prediction by ZEFSAII (Michael W. Deem and Ramdas Pophale) SiO2 
 PCOD9359628
Probable space group: A M M 2
;
_chemical_formula_sum "Si O2"
_cell_formula_units_Z 32
_cell_length_a 24.000000
_cell_length_b 9.000000
_cell_length_c 15.000000
_cell_angle_alpha 90.000000
_cell_angle_beta 90.000000
_cell_angle_gamma 90.000000
_cell_volume 3240.000000
_symmetry_space_group_name_H-M "A M M 2"
_symmetry_group_IT_number 38
_symmetry_cell_setting 'orthorhombic'
loop_
_space_group_symop_operation_xyz
x,y,z
-x,-y,z
-x,y,z
x,-y,z
x,1/2+y,1/2+z
-x,1/2-y,1/2+z
-x,1/2+y,1/2+z
x,1/2-y,1/2+z
loop_
_atom_site_type_symbol
_atom_site_label
_atom_site_fract_x
_atom_site_fract_y
_atom_site_fract_z
Si Si1 0.882068 0.177756 0.834880
Si Si2 0.256861 0.829932 0.101618
Si Si3 0.145777 0.677557 0.142302
Si Si4 0.357937 0.677695 0.867693
Si Si5 0.243127 0.172189 0.887414
Si Si6 0.938228 0.178976 0.494498
Si Si7 0.620776 0.320346 0.560424
Si Si8 0.435389 0.825058 0.719042
O O1 0.887820 0.213199 0.731372
O O2 0.818535 0.220292 0.860051
O O3 0.925004 0.260450 0.897271
O O4 0.886690 0.000000 0.847760
O O5 0.208309 0.737213 0.146247
O O6 0.320654 0.780971 0.109577
O O7 0.252709 0.000000 0.131582
O O8 0.246124 0.824868 0.994966
O O9 0.149505 0.500000 0.136011
O O10 0.110938 0.735527 0.058523
O O11 0.361169 0.500000 0.871368
O O12 0.294031 0.729347 0.852720
O O13 0.396999 0.742896 0.790901
O O14 0.376417 0.749736 0.962287
O O15 0.251183 0.000000 0.859323
O O16 0.000000 0.223646 0.524299
O O17 0.936158 0.000000 0.494734
O O18 0.618051 0.500000 0.553654
O O19 0.574030 0.251713 0.623249
O O20 0.500000 0.812325 0.745042
O O21 0.421162 0.000000 0.714110
#
# Coordination Sequence:
#
# PCOD9359628 Si02
#       8
#     8   8   8   8   8   8   8   8
#     4  10  21  37  58  86 114 151 197 241 292 351
#     4   9  18  34  57  85 119 153 189 237 292 350
#     4  10  21  35  56  86 115 150 191 237 294 350
#     4  11  23  39  62  92 124 164 207 249 305 367
#     4   9  18  35  57  84 121 156 193 246 300 353
#     4  10  22  40  58  80 116 156 195 245 298 350
#     4  10  22  41  63  91 125 162 202 253 309 362
#     4  11  25  44  65  90 122 163 210 257 305 362
#
# _framework density 9.8765429999999999
#
# number of rings (size 3 to 8) (size 9 to 14) (size 15 to 20)
#    0.000    2.000    1.250    2.625    1.750    5.750 
#    0.000    1.250    0.000    0.000    0.000    0.000 
#    0.000    0.000    0.000    0.000    0.000    0.000 
#
# Total GULP energy -178679.132928 kJ/mol
# GULP energy per Si atom -5583.722904 kJ/mol
# Density = 0.985406 g / cm^3
# Si number density = 9.876543 Si / 1000 Ang^3
#
#
#
# Elastic Constant Matrix: (Units=GPa)
#
#
# Indices 1 2 3 4 5 6 
#
# 1 56.6398 28.8744 16.6584 0.0000 0.0000 0.0000
# 2 28.8744 59.2539 17.8462 0.0000 0.0000 0.0000
# 3 16.6584 17.8462 42.9934 0.0000 0.0000 0.0000
# 4 0.0000 0.0000 0.0000 25.7994 0.0000 0.0000
# 5 0.0000 0.0000 0.0000 0.0000 19.8741 0.0000
# 6 0.0000 0.0000 0.0000 0.0000 0.0000 26.7166
#
#
#
# Elastic Compliance Matrix: (Units=1/GPa)
#
#
# Indices 1 2 3 4 5 6 
#
# 1 0.024459 -0.010360 -0.005177 0.000000 0.000000 0.000000
# 2 -0.010360 0.023676 -0.005814 0.000000 0.000000 0.000000
# 3 -0.005177 -0.005814 0.027678 0.000000 0.000000 0.000000
# 4 0.000000 0.000000 0.000000 0.038761 0.000000 0.000000
# 5 0.000000 0.000000 0.000000 0.000000 0.050317 0.000000
# 6 0.000000 0.000000 0.000000 0.000000 0.000000 0.037430
#
#
# Mechanical properties :
#
#
# Convention : Reuss Voigt Hill
#
# Bulk Modulus (GPa) = 30.19957 31.73834 30.96896
# Shear Modulus (GPa) = 19.52675 20.84522 20.18598
#
# Velocity S-wave (km/s) = 3.14752 3.25205 3.20021
# Velocity P-wave (km/s) = 5.34143 5.49577 5.41915
#
# Compressibility (1/GPa) = 0.03311305
#
# Stress axis : x y z
#
# Youngs Moduli (GPa) = 40.88418 42.23715 36.12929
#
# Poissons Ratio (x) = 0.43757 0.18703
# Poissons Ratio (y) = 0.42355 0.21004
# Poissons Ratio (z) = 0.21165 0.24555
#
# Static dielectric constant tensor:
#      x y z
#    x 1.679880 0.000000 0.000000 
#    y 0.000000 1.663830 0.000000 
#    z 0.000000 0.000000 1.705400 
# 
# From -- ./inp_files/15799.got.cif
#   From: 2010.05.17/outbox.ucp.g08.bks.cvg/sg38_8_cif.got.tgz:15799.got - 2010.06.11 10:39:43.
