data_PCOD9359531
_publ_section_title
;
Structure prediction by ZEFSAII (Michael W. Deem and Ramdas Pophale) SiO2 
 PCOD9359531
Probable space group: A M M 2
;
_chemical_formula_sum "Si O2"
_cell_formula_units_Z 64
_cell_length_a 29.451069
_cell_length_b 7.559285
_cell_length_c 14.663120
_cell_angle_alpha 90.000000
_cell_angle_beta 90.000000
_cell_angle_gamma 90.000000
_cell_volume 3264.436096
_symmetry_space_group_name_H-M "A M M 2"
_symmetry_group_IT_number 38
_symmetry_cell_setting 'orthorhombic'
loop_
_space_group_symop_operation_xyz
x,y,z
-x,-y,z
-x,y,z
x,-y,z
x,1/2+y,1/2+z
-x,1/2-y,1/2+z
-x,1/2+y,1/2+z
x,1/2-y,1/2+z
loop_
_atom_site_type_symbol
_atom_site_label
_atom_site_fract_x
_atom_site_fract_y
_atom_site_fract_z
Si Si1 0.874451 0.788676 0.571270
Si Si2 0.199399 0.783391 0.427755
Si Si3 0.874369 0.788682 0.284286
Si Si4 0.625208 0.711603 0.074692
Si Si5 0.302661 0.212867 0.427296
Si Si6 0.376337 0.788297 0.780133
Si Si7 0.051791 0.783503 0.427731
Si Si8 0.551499 0.213063 0.927606
O O1 0.829991 0.726706 0.515789
O O2 0.874412 0.749929 0.677770
O O3 0.918913 0.726434 0.515858
O O4 0.874459 0.000000 0.561927
O O5 0.170095 0.726271 0.339651
O O6 0.251147 0.721398 0.428016
O O7 0.200637 0.000000 0.427471
O O8 0.918832 0.726460 0.339713
O O9 0.874363 0.000000 0.293717
O O10 0.631207 0.500000 0.080368
O O11 0.624410 0.781850 0.177402
O O12 0.666116 0.780231 0.010773
O O13 0.578870 0.744557 0.019648
O O14 0.330038 0.254483 0.335160
O O15 0.301029 0.000000 0.434776
O O16 0.417314 0.720137 0.843985
O O17 0.382194 0.000000 0.774655
O O18 0.000000 0.722308 0.427654
O O19 0.050629 0.000000 0.427734
O O20 0.500000 0.279237 0.926601
O O21 0.549899 0.000000 0.920744
#
# Coordination Sequence:
#
# PCOD9359531 Si02
#       8
#     8   8   8   8   8   8   8   8
#     4   9  17  30  48  68  90 118 152 189 227 267
#     4   8  16  31  47  63  89 124 153 179 221 276
#     4   9  17  30  47  66  89 118 152 187 224 268
#     4   9  18  31  48  69  91 117 149 186 224 263
#     4   9  17  31  49  67  89 119 155 188 218 261
#     4   9  18  32  48  69  96 120 145 182 229 271
#     4   8  15  29  47  65  89 123 155 180 219 279
#     4   9  18  32  48  66  91 122 151 180 218 265
#
# _framework density 19.605222000000001
#
# number of rings (size 3 to 8) (size 9 to 14) (size 15 to 20)
#    0.000    3.250    0.000    1.500    0.000    2.750 
#    0.000    6.250    0.000    0.750    0.000    0.000 
#    0.000    0.000    0.000    0.000    0.000    0.000 
#
# Total GULP energy -178403.084877 kJ/mol
# GULP energy per Si atom -5575.096402 kJ/mol
# Density = 1.956060 g / cm^3
# Si number density = 19.605222 Si / 1000 Ang^3
#
#
#
# Elastic Constant Matrix: (Units=GPa)
#
#
# Indices 1 2 3 4 5 6 
#
# 1 212.2147 2.8369 120.9865 0.0000 0.0000 0.0000
# 2 2.8369 41.3660 4.0070 0.0000 0.0000 0.0000
# 3 120.9865 4.0070 205.9676 0.0000 0.0000 0.0000
# 4 0.0000 0.0000 0.0000 6.8952 0.0000 0.0000
# 5 0.0000 0.0000 0.0000 0.0000 7.1230 0.0000
# 6 0.0000 0.0000 0.0000 0.0000 0.0000 7.0405
#
#
#
# Elastic Compliance Matrix: (Units=1/GPa)
#
#
# Indices 1 2 3 4 5 6 
#
# 1 0.007085 -0.000083 -0.004160 0.000000 0.000000 0.000000
# 2 -0.000083 0.024221 -0.000423 0.000000 0.000000 0.000000
# 3 -0.004160 -0.000423 0.007307 0.000000 0.000000 0.000000
# 4 0.000000 0.000000 0.000000 0.145028 0.000000 0.000000
# 5 0.000000 0.000000 0.000000 0.000000 0.140389 0.000000
# 6 0.000000 0.000000 0.000000 0.000000 0.000000 0.142035
#
#
# Mechanical properties :
#
#
# Convention : Reuss Voigt Hill
#
# Bulk Modulus (GPa) = 34.15072 79.46767 56.80920
# Shear Modulus (GPa) = 10.30593 26.32629 18.31611
#
# Velocity S-wave (km/s) = 2.29524 3.66843 3.05986
# Velocity P-wave (km/s) = 4.94785 7.65278 6.44384
#
# Compressibility (1/GPa) = 0.02928196
#
# Stress axis : x y z
#
# Youngs Moduli (GPa) = 141.14095 41.28644 136.85343
#
# Poissons Ratio (x) = 0.00342 0.56934
# Poissons Ratio (y) = 0.01170 0.05782
# Poissons Ratio (z) = 0.58718 0.01744
#
# Static dielectric constant tensor:
#      x y z
#    x 1.673080 0.000000 0.000000 
#    y 0.000000 1.737520 0.000000 
#    z 0.000000 0.000000 1.675570 
# 
# From -- ./inp_files/15915.got.cif
#   From: 2010.05.17/outbox.cif.g08.bks.cpg/sg38_8_cif.got.tgz:15915.got - 2010.06.03 18:07:57.
