data_PCOD9359768
_publ_section_title
;
Structure prediction by ZEFSAII (Michael W. Deem and Ramdas Pophale) SiO2 
 PCOD9359768
Probable space group: A B M 2
;
_chemical_formula_sum "Si O2"
_cell_formula_units_Z 64
_cell_length_a 11.784249
_cell_length_b 19.381874
_cell_length_c 11.094769
_cell_angle_alpha 90.000000
_cell_angle_beta 90.000000
_cell_angle_gamma 90.000000
_cell_volume 2534.054441
_symmetry_space_group_name_H-M "A B M 2"
_symmetry_group_IT_number 39
_symmetry_cell_setting 'orthorhombic'
loop_
_space_group_symop_operation_xyz
x,y,z
-x,-y,z
-x,1/2+y,z
x,1/2-y,z
x,1/2+y,1/2+z
-x,1/2-y,1/2+z
-x,y,1/2+z
x,-y,1/2+z
loop_
_atom_site_type_symbol
_atom_site_label
_atom_site_fract_x
_atom_site_fract_y
_atom_site_fract_z
Si Si1 0.206601 0.500000 0.113980
Si Si2 0.660354 0.366510 0.363980
Si Si3 0.937482 0.170639 0.727809
Si Si4 0.937483 0.670639 0.500152
Si Si5 0.411894 0.390920 0.363980
Si Si6 0.690568 0.647187 0.127043
Si Si7 0.690569 0.147186 0.100918
Si Si8 0.199000 0.499979 0.363980
O O1 0.288426 0.434272 0.103261
O O2 0.288427 0.565728 0.124699
O O3 0.140291 0.488415 0.237003
O O4 0.140291 0.511585 0.990957
O O5 0.543442 0.410697 0.363981
O O6 0.665865 0.326962 0.492137
O O7 0.665865 0.326962 0.235823
O O8 0.764720 0.420008 0.363980
O O9 0.980178 0.250000 0.735797
O O10 0.947163 0.142381 0.863980
O O11 0.807373 0.173095 0.685491
O O12 0.999999 0.136545 0.613980
O O13 0.980178 0.750000 0.492163
O O14 0.807375 0.673095 0.542471
O O15 0.395243 0.348712 0.239076
O O16 0.395242 0.348711 0.488883
O O17 0.311877 0.449474 0.363980
#
# Coordination Sequence:
#
# PCOD9359768 Si02
#       8
#     8   8   8   8   8   8   8   8
#     4   8  16  28  48  74 110 146 178 212 266 320
#     4  10  19  28  48  80 114 149 189 217 255 315
#     4  10  22  41  65  86 102 130 179 234 283 327
#     4  10  22  41  65  86 102 130 179 234 283 327
#     4  10  17  30  50  74 112 155 189 219 261 307
#     4  10  19  34  53  80 114 147 179 226 268 318
#     4  10  19  34  53  80 114 147 179 226 268 318
#     4   8  15  26  42  70 105 148 191 226 250 290
#
# _framework density 25.255969
#
# number of rings (size 3 to 8) (size 9 to 14) (size 15 to 20)
#    0.000    2.500    1.250    1.125    1.750    0.000 
#    0.000    8.125    0.000    6.000    0.000    0.000 
#    0.000    0.000    0.000    0.000    0.000    0.000 
#
# Total GULP energy -178317.871938 kJ/mol
# GULP energy per Si atom -5572.433498 kJ/mol
# Density = 2.519849 g / cm^3
# Si number density = 25.255969 Si / 1000 Ang^3
#
#
#
# Elastic Constant Matrix: (Units=GPa)
#
#
# Indices 1 2 3 4 5 6 
#
# 1 61.2009 0.6157 36.8579 0.0000 0.0000 0.0000
# 2 0.6157 80.9125 22.1058 0.0000 0.0000 0.0000
# 3 36.8579 22.1058 365.4875 0.0000 0.0000 0.0000
# 4 0.0000 0.0000 0.0000 -13.6727 0.0000 0.0000
# 5 0.0000 0.0000 0.0000 0.0000 34.9234 0.0000
# 6 0.0000 0.0000 0.0000 0.0000 0.0000 32.9342
#
#
#
# Elastic Compliance Matrix: (Units=1/GPa)
#
#
# Indices 1 2 3 4 5 6 
#
# 1 0.017406 0.000353 -0.001777 0.000000 0.000000 0.000000
# 2 0.000353 0.012574 -0.000796 0.000000 0.000000 0.000000
# 3 -0.001777 -0.000796 0.002963 0.000000 0.000000 0.000000
# 4 0.000000 0.000000 0.000000 -0.073139 0.000000 0.000000
# 5 0.000000 0.000000 0.000000 0.000000 0.028634 0.000000
# 6 0.000000 0.000000 0.000000 0.000000 0.000000 0.030364
#
#
# Mechanical properties :
#
#
# Convention : Reuss Voigt Hill
#
# Bulk Modulus (GPa) = 35.08325 69.63997 52.36161
# Shear Modulus (GPa) = 152.70366 40.70509 96.70438
#
# Velocity S-wave (km/s) = 7.78419 4.01896 6.19458
# Velocity P-wave (km/s) = 9.73205 7.01210 8.48181
#
# Compressibility (1/GPa) = 0.02850363
#
# Stress axis : x y z
#
# Youngs Moduli (GPa) = 57.45125 79.53018 337.45114
#
# Poissons Ratio (x) = -0.02807 0.59954
# Poissons Ratio (y) = -0.02028 0.26864
# Poissons Ratio (z) = 0.10207 0.06331
#
# Static dielectric constant tensor:
#      x y z
#    x 1.948610 0.000000 0.000000 
#    y 0.000000 2.043090 0.000000 
#    z 0.000000 0.000000 2.116030 
# 
# From -- ./inp_files/6069.got.cif
#   From: 2010.05.17/outbox.cif.g08.bks.cpg/sg39_4_cif.got.tgz:6069.got - 2010.06.03 18:22:40.
