data_PCOD9359178
_publ_section_title
;
Structure prediction by ZEFSAII (Michael W. Deem and Ramdas Pophale) SiO2 
 PCOD9359178
Probable space group: A M M 2
;
_chemical_formula_sum "Si O2"
_cell_formula_units_Z 32
_cell_length_a 9.757453
_cell_length_b 12.947774
_cell_length_c 12.074036
_cell_angle_alpha 90.000000
_cell_angle_beta 90.000000
_cell_angle_gamma 90.000000
_cell_volume 1525.401063
_symmetry_space_group_name_H-M "A M M 2"
_symmetry_group_IT_number 38
_symmetry_cell_setting 'orthorhombic'
loop_
_space_group_symop_operation_xyz
x,y,z
-x,-y,z
-x,y,z
x,-y,z
x,1/2+y,1/2+z
-x,1/2-y,1/2+z
-x,1/2+y,1/2+z
x,1/2-y,1/2+z
loop_
_atom_site_type_symbol
_atom_site_label
_atom_site_fract_x
_atom_site_fract_y
_atom_site_fract_z
Si Si1 0.845452 0.668866 0.490060
Si Si2 0.226008 0.885686 0.415595
Si Si3 0.332407 0.500000 0.364623
Si Si4 0.340218 0.500000 0.112021
Si Si5 0.348018 0.122854 0.179217
O O1 0.853713 0.780833 0.433690
O O2 0.738629 0.598524 0.421851
O O3 0.775359 0.673367 0.611227
O O4 0.000000 0.626150 0.495959
O O5 0.324330 0.869211 0.310706
O O6 0.159404 0.000000 0.395456
O O7 0.299287 0.905016 0.533398
O O8 0.500000 0.500000 0.375096
O O9 0.286100 0.500000 0.236050
O O10 0.500000 0.500000 0.125419
O O11 0.500000 0.162245 0.149798
O O12 0.344843 0.000000 0.153391
#
# Coordination Sequence:
#
# PCOD9359178 Si02
#       5
#     8   8   4   4   8
#     4  12  26  44  66  97 135 178 221 270 330 397
#     4   9  23  43  64 100 130 172 212 273 331 389
#     4  11  25  44  67  98 130 175 224 273 332 391
#     4   9  20  42  67  96 130 167 216 271 330 389
#     4  10  21  41  70 100 129 168 219 275 328 391
#
# _framework density 20.978089000000001
#
# number of rings (size 3 to 8) (size 9 to 14) (size 15 to 20)
#    0.750    1.000    1.250    1.875    3.500    5.500 
#    0.000    3.750    0.000    0.000    0.000    0.000 
#    0.000    0.000    0.000    0.000    0.000    0.000 
#
# Total GULP energy -89105.921781 kJ/mol
# GULP energy per Si atom -5569.120111 kJ/mol
# Density = 2.093034 g / cm^3
# Si number density = 20.978089 Si / 1000 Ang^3
#
#
#
# Elastic Constant Matrix: (Units=GPa)
#
#
# Indices 1 2 3 4 5 6 
#
# 1 134.6872 39.2702 46.3526 0.0000 0.0000 0.0000
# 2 39.2702 101.1755 18.9820 0.0000 0.0000 0.0000
# 3 46.3526 18.9820 128.2686 0.0000 0.0000 0.0000
# 4 0.0000 0.0000 0.0000 -46.1226 0.0000 0.0000
# 5 0.0000 0.0000 0.0000 0.0000 -3.5583 0.0000
# 6 0.0000 0.0000 0.0000 0.0000 0.0000 31.9762
#
#
#
# Elastic Compliance Matrix: (Units=1/GPa)
#
#
# Indices 1 2 3 4 5 6 
#
# 1 0.009323 -0.003072 -0.002915 0.000000 0.000000 0.000000
# 2 -0.003072 0.011178 -0.000544 0.000000 0.000000 0.000000
# 3 -0.002915 -0.000544 0.008930 0.000000 0.000000 0.000000
# 4 0.000000 0.000000 0.000000 -0.021681 0.000000 0.000000
# 5 0.000000 0.000000 0.000000 0.000000 -0.281035 0.000000
# 6 0.000000 0.000000 0.000000 0.000000 0.000000 0.031273
#
#
# Mechanical properties :
#
#
# Convention : Reuss Voigt Hill
#
# Bulk Modulus (GPa) = 61.08657 63.70456 62.39556
# Shear Modulus (GPa) = -22.37197 13.76081 -4.30558
#
# Velocity S-wave (km/s) = -3.26919 2.56395 -1.43418
# Velocity P-wave (km/s) = 3.86423 6.26085 5.20243
#
# Compressibility (1/GPa) = 0.01637021
#
# Stress axis : x y z
#
# Youngs Moduli (GPa) = 107.25776 89.45950 111.98326
#
# Poissons Ratio (x) = 0.27481 0.32638
# Poissons Ratio (y) = 0.32949 0.06093
# Poissons Ratio (z) = 0.31261 0.04868
#
# Static dielectric constant tensor:
#      x y z
#    x 1.726700 0.000000 0.000000 
#    y 0.000000 1.922180 0.000000 
#    z 0.000000 0.000000 1.769990 
# 
# From -- ./inp_files/7605.got.cif
#   From: 2010.05.17/outbox.cif.g08.bks.cpg/sg38_4_cif.got.tgz:7605.got - 2010.06.03 18:07:57.
