data_PCOD9359736
_publ_section_title
;
Structure prediction by ZEFSAII (Michael W. Deem and Ramdas Pophale) SiO2 
 PCOD9359736
Probable space group: A B M 2
;
_chemical_formula_sum "Si O2"
_cell_formula_units_Z 64
_cell_length_a 15.594190
_cell_length_b 8.775847
_cell_length_c 31.656681
_cell_angle_alpha 90.000000
_cell_angle_beta 90.000000
_cell_angle_gamma 90.000000
_cell_volume 4332.287248
_symmetry_space_group_name_H-M "A B M 2"
_symmetry_group_IT_number 39
_symmetry_cell_setting 'orthorhombic'
loop_
_space_group_symop_operation_xyz
x,y,z
-x,-y,z
-x,1/2+y,z
x,1/2-y,z
x,1/2+y,1/2+z
-x,1/2-y,1/2+z
-x,y,1/2+z
x,-y,1/2+z
loop_
_atom_site_type_symbol
_atom_site_label
_atom_site_fract_x
_atom_site_fract_y
_atom_site_fract_z
Si Si1 0.771546 0.067194 0.336090
Si Si2 0.096047 0.432533 0.402200
Si Si3 0.410667 0.074078 0.338119
Si Si4 0.903588 0.567291 0.575435
Si Si5 0.903100 0.932608 0.990015
Si Si6 0.411837 0.575524 0.735420
Si Si7 0.768247 0.933166 0.737799
Si Si8 0.904701 0.933440 0.669161
O O1 0.779424 0.250000 0.339219
O O2 0.782356 0.021783 0.286712
O O3 0.842448 0.986546 0.364688
O O4 0.675722 0.016200 0.349459
O O5 0.090807 0.250000 0.404759
O O6 0.132410 0.500502 0.446315
O O7 0.000000 0.500000 0.396367
O O8 0.404530 0.250000 0.351379
O O9 0.413929 0.071926 0.286792
O O10 0.500000 0.000000 0.352915
O O11 0.907062 0.750000 0.569985
O O12 0.862591 0.492211 0.533817
O O13 0.868346 0.531676 0.622160
O O14 0.000000 0.500000 0.577410
O O15 0.094437 0.250000 0.989082
O O16 0.000000 0.000000 0.990507
O O17 0.500000 0.500000 0.720539
O O18 0.408119 0.750000 0.722054
O O19 0.324824 0.490510 0.723494
O O20 0.767555 0.750000 0.737094
O O21 0.842198 0.987538 0.706244
O O22 0.911550 0.750000 0.671485
O O23 0.000000 0.000000 0.673358
#
# Coordination Sequence:
#
# PCOD9359736 Si02
#       8
#     8   8   8   8   8   8   8   8
#     4  10  19  31  45  62  86 116 149 183 217 253
#     4  11  21  33  46  61  84 114 148 182 216 255
#     4   9  16  27  43  63  84 108 139 176 219 261
#     4   9  15  25  41  60  81 105 135 171 213 255
#     4  10  17  27  43  62  82 104 134 172 216 259
#     4   9  16  26  42  62  82 106 137 175 218 260
#     4   9  18  31  44  60  85 116 148 181 214 249
#     4   9  18  30  43  60  84 115 148 180 212 248
#
# _framework density 14.772798
#
# number of rings (size 3 to 8) (size 9 to 14) (size 15 to 20)
#    0.000    2.500    0.000    5.250    0.000    5.000 
#    0.000    1.250    0.000    0.000    0.000    0.000 
#    0.000    1.000    0.000    8.500    0.000    5.250 
#
# Total GULP energy -178192.988793 kJ/mol
# GULP energy per Si atom -5568.530900 kJ/mol
# Density = 1.473917 g / cm^3
# Si number density = 14.772798 Si / 1000 Ang^3
#
#
#
# Elastic Constant Matrix: (Units=GPa)
#
#
# Indices 1 2 3 4 5 6 
#
# 1 80.4286 32.6169 55.5808 0.0000 0.0000 0.0000
# 2 32.6169 81.8628 41.9483 0.0000 0.0000 0.0000
# 3 55.5808 41.9483 92.2267 0.0000 0.0000 0.0000
# 4 0.0000 0.0000 0.0000 23.3401 0.0000 0.0000
# 5 0.0000 0.0000 0.0000 0.0000 -0.7213 0.0000
# 6 0.0000 0.0000 0.0000 0.0000 0.0000 23.1060
#
#
#
# Elastic Compliance Matrix: (Units=1/GPa)
#
#
# Indices 1 2 3 4 5 6 
#
# 1 0.021704 -0.002536 -0.011926 0.000000 0.000000 0.000000
# 2 -0.002536 0.016224 -0.005851 0.000000 0.000000 0.000000
# 3 -0.011926 -0.005851 0.020691 0.000000 0.000000 0.000000
# 4 0.000000 0.000000 0.000000 0.042845 0.000000 0.000000
# 5 0.000000 0.000000 0.000000 0.000000 -1.386477 0.000000
# 6 0.000000 0.000000 0.000000 0.000000 0.000000 0.043279
#
#
# Mechanical properties :
#
#
# Convention : Reuss Voigt Hill
#
# Bulk Modulus (GPa) = 55.57851 57.20115 56.38983
# Shear Modulus (GPa) = -4.18371 17.43645 6.62637
#
# Velocity S-wave (km/s) = -1.68469 3.43929 2.12020
# Velocity P-wave (km/s) = 5.82406 7.38757 6.65191
#
# Compressibility (1/GPa) = 0.01799257
#
# Stress axis : x y z
#
# Youngs Moduli (GPa) = 46.07523 61.63622 48.32908
#
# Poissons Ratio (x) = 0.15632 0.57638
# Poissons Ratio (y) = 0.11686 0.28277
# Poissons Ratio (z) = 0.54950 0.36063
#
# Static dielectric constant tensor:
#      x y z
#    x 1.466790 0.000000 0.000000 
#    y 0.000000 1.489330 0.000000 
#    z 0.000000 0.000000 1.524960 
# 
# From -- ./inp_files/17198.got.cif
#   From: 2010.05.17/outbox.cif.g08.bks.cpg/sg39_9_cif.got.tgz:17198.got - 2010.06.03 18:22:40.
