data_PCOD9359705
_publ_section_title
;
Structure prediction by ZEFSAII (Michael W. Deem and Ramdas Pophale) SiO2 
 PCOD9359705
Probable space group: A B M 2
;
_chemical_formula_sum "Si O2"
_cell_formula_units_Z 32
_cell_length_a 18.811404
_cell_length_b 14.090452
_cell_length_c 5.364816
_cell_angle_alpha 90.000000
_cell_angle_beta 90.000000
_cell_angle_gamma 90.000000
_cell_volume 1422.004487
_symmetry_space_group_name_H-M "A B M 2"
_symmetry_group_IT_number 39
_symmetry_cell_setting 'orthorhombic'
loop_
_space_group_symop_operation_xyz
x,y,z
-x,-y,z
-x,1/2+y,z
x,1/2-y,z
x,1/2+y,1/2+z
-x,1/2-y,1/2+z
-x,y,1/2+z
x,-y,1/2+z
loop_
_atom_site_type_symbol
_atom_site_label
_atom_site_fract_x
_atom_site_fract_y
_atom_site_fract_z
Si Si1 0.920223 0.960010 0.775640
Si Si2 0.468849 0.606955 0.721282
Si Si3 0.117984 0.250000 0.681950
Si Si4 0.697330 0.062629 0.721627
Si Si5 0.792389 0.750000 0.182877
O O1 0.923139 0.848310 0.725800
O O2 0.885243 0.012094 0.538670
O O3 0.000000 0.000000 0.798542
O O4 0.500000 0.500000 0.721463
O O5 0.500066 0.650325 0.471382
O O6 0.384289 0.598946 0.720897
O O7 0.148463 0.250000 0.401907
O O8 0.176682 0.250000 0.902254
O O9 0.746767 0.154900 0.719576
O O10 0.707656 0.999694 0.471970
#
# Coordination Sequence:
#
# PCOD9359705 Si02
#       5
#     8   8   4   8   4
#     4  10  23  42  73 108 134 173 223 261 337 391
#     4  10  16  32  61  90 118 163 215 276 354 379
#     4  12  26  48  67  95 152 172 214 290 310 398
#     4  12  23  42  68  90 134 176 228 286 327 397
#     4  12  30  44  63 103 132 190 234 250 338 406
#
# _framework density 22.503447000000001
#
# number of rings (size 3 to 8) (size 9 to 14) (size 15 to 20)
#    0.000    1.000    5.000    3.000    0.000   10.000 
#    0.000    1.250    0.000    0.000    0.000    0.000 
#    0.000    0.000    0.000    0.000    0.000    0.000 
#
# Total GULP energy -89507.918031 kJ/mol
# GULP energy per Si atom -5594.244877 kJ/mol
# Density = 2.245223 g / cm^3
# Si number density = 22.503447 Si / 1000 Ang^3
#
#
#
# Elastic Constant Matrix: (Units=GPa)
#
#
# Indices 1 2 3 4 5 6 
#
# 1 74.4555 29.1280 -1.4301 0.0000 0.0000 0.0000
# 2 29.1280 151.9221 21.6621 0.0000 0.0000 0.0000
# 3 -1.4301 21.6621 196.1723 0.0000 0.0000 0.0000
# 4 0.0000 0.0000 0.0000 -2.2260 0.0000 0.0000
# 5 0.0000 0.0000 0.0000 0.0000 14.1556 0.0000
# 6 0.0000 0.0000 0.0000 0.0000 0.0000 195.2267
#
#
#
# Elastic Compliance Matrix: (Units=1/GPa)
#
#
# Indices 1 2 3 4 5 6 
#
# 1 0.014554 -0.002850 0.000421 0.000000 0.000000 0.000000
# 2 -0.002850 0.007246 -0.000821 0.000000 0.000000 0.000000
# 3 0.000421 -0.000821 0.005191 0.000000 0.000000 0.000000
# 4 0.000000 0.000000 0.000000 -0.449241 0.000000 0.000000
# 5 0.000000 0.000000 0.000000 0.000000 0.070644 0.000000
# 6 0.000000 0.000000 0.000000 0.000000 0.000000 0.005122
#
#
# Mechanical properties :
#
#
# Convention : Reuss Voigt Hill
#
# Bulk Modulus (GPa) = 48.80375 57.91888 53.36132
# Shear Modulus (GPa) = -15.00814 66.31059 25.65123
#
# Velocity S-wave (km/s) = -2.58529 5.43423 3.37987
# Velocity P-wave (km/s) = 3.58087 8.07268 6.24463
#
# Compressibility (1/GPa) = 0.02049023
#
# Stress axis : x y z
#
# Youngs Moduli (GPa) = 68.70932 138.00925 192.63094
#
# Poissons Ratio (x) = 0.39339 -0.08107
# Poissons Ratio (y) = 0.19585 0.15813
# Poissons Ratio (z) = -0.02892 0.11329
#
# Static dielectric constant tensor:
#      x y z
#    x 1.906980 0.000000 0.000000 
#    y 0.000000 1.776250 0.000000 
#    z 0.000000 0.000000 1.849970 
# 
# From -- ./inp_files/710.got.cif
#   From: 2010.05.17/outbox.cif.g08.bks.cpg/sg39_1_cif.got.tgz:710.got - 2010.06.03 18:22:40.
