data_PCOD9359832
_publ_section_title
;
Structure prediction by ZEFSAII (Michael W. Deem and Ramdas Pophale) SiO2 
 PCOD9359832
Probable space group: A B M 2
;
_chemical_formula_sum "Si O2"
_cell_formula_units_Z 64
_cell_length_a 17.732440
_cell_length_b 19.742836
_cell_length_c 8.884722
_cell_angle_alpha 90.000000
_cell_angle_beta 90.000000
_cell_angle_gamma 90.000000
_cell_volume 3110.440373
_symmetry_space_group_name_H-M "A B M 2"
_symmetry_group_IT_number 39
_symmetry_cell_setting 'orthorhombic'
loop_
_space_group_symop_operation_xyz
x,y,z
-x,-y,z
-x,1/2+y,z
x,1/2-y,z
x,1/2+y,1/2+z
-x,1/2-y,1/2+z
-x,y,1/2+z
x,-y,1/2+z
loop_
_atom_site_type_symbol
_atom_site_label
_atom_site_fract_x
_atom_site_fract_y
_atom_site_fract_z
Si Si1 0.428097 0.674460 0.211440
Si Si2 0.708078 0.414061 0.257501
Si Si3 0.119803 0.976072 0.578416
Si Si4 0.630021 0.013560 0.522695
Si Si5 0.138902 0.591366 0.857457
Si Si6 0.508881 0.904019 0.463281
Si Si7 0.842818 0.328416 0.145333
Si Si8 0.040554 0.911837 0.297202
O O1 0.440690 0.750000 0.263252
O O2 0.342017 0.652274 0.222541
O O3 0.469859 0.618711 0.311536
O O4 0.458250 0.661440 0.045326
O O5 0.686719 0.443922 0.419294
O O6 0.676615 0.472624 0.146883
O O7 0.790648 0.384865 0.228535
O O8 0.071381 0.930120 0.463854
O O9 0.159384 0.027394 0.463153
O O10 0.167972 0.929119 0.691545
O O11 0.071067 0.028174 0.684645
O O12 0.560079 0.063621 0.560679
O O13 0.578401 0.955471 0.442111
O O14 0.159380 0.653532 0.966409
O O15 0.048911 0.594495 0.822724
O O16 0.823295 0.250000 0.169683
O O17 0.924167 0.345808 0.218387
#
# Coordination Sequence:
#
# PCOD9359832 Si02
#       8
#     8   8   8   8   8   8   8   8
#     4  10  18  30  50  77 111 149 178 203 250 308
#     4  10  21  36  54  75 106 140 173 221 270 325
#     4   9  16  30  55  87 107 119 152 210 278 321
#     4   9  18  34  56  82 105 134 176 224 277 306
#     4  10  18  32  56  81 106 131 164 218 270 315
#     4   9  17  30  52  82 111 135 176 228 254 295
#     4  11  25  40  52  73 107 148 187 217 260 329
#     4  10  18  32  56  81 106 131 164 218 270 315
#
# _framework density 20.575862999999998
#
# number of rings (size 3 to 8) (size 9 to 14) (size 15 to 20)
#    0.000    2.250    0.000    5.250    0.000    7.500 
#    0.000    0.625    0.000    0.000    0.000    3.500 
#    0.000    0.000    0.000    0.000    0.000    0.000 
#
# Total GULP energy -178154.294970 kJ/mol
# GULP energy per Si atom -5567.321718 kJ/mol
# Density = 2.052903 g / cm^3
# Si number density = 20.575863 Si / 1000 Ang^3
#
#
#
# Elastic Constant Matrix: (Units=GPa)
#
#
# Indices 1 2 3 4 5 6 
#
# 1 58.2446 19.8536 6.0682 0.0000 0.0000 0.0000
# 2 19.8536 87.5164 13.8756 0.0000 0.0000 0.0000
# 3 6.0682 13.8756 73.1926 0.0000 0.0000 0.0000
# 4 0.0000 0.0000 0.0000 18.0182 0.0000 0.0000
# 5 0.0000 0.0000 0.0000 0.0000 17.3757 0.0000
# 6 0.0000 0.0000 0.0000 0.0000 0.0000 14.2692
#
#
#
# Elastic Compliance Matrix: (Units=1/GPa)
#
#
# Indices 1 2 3 4 5 6 
#
# 1 0.018650 -0.004109 -0.000767 0.000000 0.000000 0.000000
# 2 -0.004109 0.012686 -0.002064 0.000000 0.000000 0.000000
# 3 -0.000767 -0.002064 0.014118 0.000000 0.000000 0.000000
# 4 0.000000 0.000000 0.000000 0.055499 0.000000 0.000000
# 5 0.000000 0.000000 0.000000 0.000000 0.057552 0.000000
# 6 0.000000 0.000000 0.000000 0.000000 0.000000 0.070081
#
#
# Mechanical properties :
#
#
# Convention : Reuss Voigt Hill
#
# Bulk Modulus (GPa) = 31.67381 33.17203 32.42292
# Shear Modulus (GPa) = 19.76362 21.87637 20.81999
#
# Velocity S-wave (km/s) = 3.10259 3.26422 3.18443
# Velocity P-wave (km/s) = 5.31619 5.51032 5.41413
#
# Compressibility (1/GPa) = 0.03157183
#
# Stress axis : x y z
#
# Youngs Moduli (GPa) = 53.62051 78.82768 70.83392
#
# Poissons Ratio (x) = 0.32391 0.05434
# Poissons Ratio (y) = 0.22033 0.14622
# Poissons Ratio (z) = 0.04114 0.16272
#
# Static dielectric constant tensor:
#      x y z
#    x 1.855060 0.000000 0.000000 
#    y 0.000000 1.739320 0.000000 
#    z 0.000000 0.000000 1.784610 
# 
# From -- ./inp_files/3862.got.cif
#   From: 2010.05.17/outbox.cif.g08.bks.cpg/sg39_2_cif.got.tgz:3862.got - 2010.06.03 18:22:40.
