data_PCOD9359862
_publ_section_title
;
Structure prediction by ZEFSAII (Michael W. Deem and Ramdas Pophale) SiO2 
 PCOD9359862
Probable space group: A B M 2
;
_chemical_formula_sum "Si O2"
_cell_formula_units_Z 56
_cell_length_a 15.941830
_cell_length_b 8.023562
_cell_length_c 20.943260
_cell_angle_alpha 90.000000
_cell_angle_beta 90.000000
_cell_angle_gamma 90.000000
_cell_volume 2678.857861
_symmetry_space_group_name_H-M "A B M 2"
_symmetry_group_IT_number 39
_symmetry_cell_setting 'orthorhombic'
loop_
_space_group_symop_operation_xyz
x,y,z
-x,-y,z
-x,1/2+y,z
x,1/2-y,z
x,1/2+y,1/2+z
-x,1/2-y,1/2+z
-x,y,1/2+z
x,-y,1/2+z
loop_
_atom_site_type_symbol
_atom_site_label
_atom_site_fract_x
_atom_site_fract_y
_atom_site_fract_z
Si Si1 0.227716 0.953852 0.586050
Si Si2 0.409348 0.549504 0.632930
Si Si3 0.907364 0.949019 0.189681
Si Si4 0.627579 0.944827 0.275262
Si Si5 0.589686 0.059254 0.413760
Si Si6 0.810818 0.947591 0.807085
Si Si7 0.227176 0.453813 0.945958
O O1 0.228080 0.750000 0.587817
O O2 0.324056 0.007244 0.598317
O O3 0.164584 0.010943 0.641143
O O4 0.197739 0.006438 0.515707
O O5 0.500000 0.500000 0.606167
O O6 0.406081 0.750000 0.634126
O O7 0.402927 0.491241 0.706822
O O8 0.902237 0.750000 0.191924
O O9 0.886751 0.016780 0.260029
O O10 0.000000 0.000000 0.168898
O O11 0.605373 0.750000 0.281760
O O12 0.593100 0.039477 0.336975
O O13 0.728293 0.963115 0.278780
O O14 0.595169 0.250000 0.432005
O O15 0.676834 0.982424 0.437717
O O16 0.500000 0.000000 0.437171
O O17 0.792754 0.750000 0.807148
O O18 0.820081 0.001996 0.880878
O O19 0.227600 0.250000 0.946284
#
# Coordination Sequence:
#
# PCOD9359862 Si02
#       7
#     8   8   8   8   8   8   8
#     4   9  18  37  58  79 113 153 190 230 283 340
#     4  10  20  32  49  76 108 148 192 232 279 328
#     4  11  22  39  64  90 115 147 185 232 285 341
#     4  10  18  31  50  75 107 146 189 236 287 331
#     4  10  19  30  46  73 105 145 193 240 287 337
#     4  10  19  34  58  87 114 143 181 229 283 338
#     4   8  17  33  55  78 106 148 189 227 278 337
#
# _framework density 20.904430000000001
#
# number of rings (size 3 to 8) (size 9 to 14) (size 15 to 20)
#    0.000    2.286    1.429    3.000    0.000    2.857 
#    0.000    0.714    0.000   16.286    0.000    0.000 
#    0.000    0.000    0.000    0.000    0.000    0.000 
#
# Total GULP energy -156246.922970 kJ/mol
# GULP energy per Si atom -5580.247249 kJ/mol
# Density = 2.085685 g / cm^3
# Si number density = 20.904430 Si / 1000 Ang^3
#
#
#
# Elastic Constant Matrix: (Units=GPa)
#
#
# Indices 1 2 3 4 5 6 
#
# 1 91.1143 0.3029 46.1267 0.0000 0.0000 0.0000
# 2 0.3029 18.5719 4.3106 0.0000 0.0000 0.0000
# 3 46.1267 4.3106 130.5981 0.0000 0.0000 0.0000
# 4 0.0000 0.0000 0.0000 8.3381 0.0000 0.0000
# 5 0.0000 0.0000 0.0000 0.0000 -2.2229 0.0000
# 6 0.0000 0.0000 0.0000 0.0000 0.0000 27.2863
#
#
#
# Elastic Compliance Matrix: (Units=1/GPa)
#
#
# Indices 1 2 3 4 5 6 
#
# 1 0.013379 0.000885 -0.004755 0.000000 0.000000 0.000000
# 2 0.000885 0.054319 -0.002106 0.000000 0.000000 0.000000
# 3 -0.004755 -0.002106 0.009406 0.000000 0.000000 0.000000
# 4 0.000000 0.000000 0.000000 0.119931 0.000000 0.000000
# 5 0.000000 0.000000 0.000000 0.000000 -0.449873 0.000000
# 6 0.000000 0.000000 0.000000 0.000000 0.000000 0.036648
#
#
# Mechanical properties :
#
#
# Convention : Reuss Voigt Hill
#
# Bulk Modulus (GPa) = 15.34817 37.97387 26.66102
# Shear Modulus (GPa) = -27.39418 19.31658 -4.03880
#
# Velocity S-wave (km/s) = -3.62394 3.04310 -1.39148
# Velocity P-wave (km/s) = 3.18631 5.52741 3.19372
#
# Compressibility (1/GPa) = 0.06515437
#
# Stress axis : x y z
#
# Youngs Moduli (GPa) = 74.74181 18.40976 106.31573
#
# Poissons Ratio (x) = -0.01630 0.50551
# Poissons Ratio (y) = -0.06617 0.22386
# Poissons Ratio (z) = 0.35538 0.03876
#
# Static dielectric constant tensor:
#      x y z
#    x 1.758380 0.000000 0.000000 
#    y 0.000000 1.767300 0.000000 
#    z 0.000000 0.000000 1.769640 
# 
# From -- ./inp_files/14763.got.cif
#   From: 2010.05.17/outbox.cif.g08.bks.cpg/sg39_8_cif.got.tgz:14763.got - 2010.06.03 18:22:40.
