data_PCOD9359883
_publ_section_title
;
Structure prediction by ZEFSAII (Michael W. Deem and Ramdas Pophale) SiO2 
 PCOD9359883
Probable space group: A B M 2
;
_chemical_formula_sum "Si O2"
_cell_formula_units_Z 48
_cell_length_a 9.970648
_cell_length_b 15.536811
_cell_length_c 14.401132
_cell_angle_alpha 90.000000
_cell_angle_beta 90.000000
_cell_angle_gamma 90.000000
_cell_volume 2230.909219
_symmetry_space_group_name_H-M "A B M 2"
_symmetry_group_IT_number 39
_symmetry_cell_setting 'orthorhombic'
loop_
_space_group_symop_operation_xyz
x,y,z
-x,-y,z
-x,1/2+y,z
x,1/2-y,z
x,1/2+y,1/2+z
-x,1/2-y,1/2+z
-x,y,1/2+z
x,-y,1/2+z
loop_
_atom_site_type_symbol
_atom_site_label
_atom_site_fract_x
_atom_site_fract_y
_atom_site_fract_z
Si Si1 0.384018 0.560256 0.927540
Si Si2 0.875536 0.439609 0.409313
Si Si3 0.104285 0.570269 0.184545
Si Si4 0.587283 0.074600 0.139140
Si Si5 0.627790 0.750000 0.669200
Si Si6 0.712372 0.750000 0.449787
Si Si7 0.930279 0.250000 0.211743
Si Si8 0.972649 0.750000 0.925018
O O1 0.500000 0.500000 0.881948
O O2 0.256723 0.495323 0.932230
O O3 0.335306 0.658782 0.901938
O O4 0.441796 0.579798 0.030224
O O5 0.881442 0.432395 0.296553
O O6 0.895529 0.340850 0.444862
O O7 0.000000 0.500000 0.437444
O O8 0.253583 0.560812 0.146767
O O9 0.042500 0.662487 0.159252
O O10 0.000000 0.500000 0.154045
O O11 0.552860 0.163076 0.189129
O O12 0.500000 0.000000 0.179457
O O13 0.663659 0.750000 0.558521
O O14 0.768198 0.750000 0.723211
O O15 0.873936 0.750000 0.459048
O O16 0.992776 0.250000 0.312757
#
# Coordination Sequence:
#
# PCOD9359883 Si02
#       8
#     8   8   8   8   4   4   4   4
#     4  10  21  35  53  77 107 141 175 216 261 317
#     4  10  19  33  53  78 104 135 175 218 260 308
#     4   9  18  32  52  75  99 130 167 213 256 301
#     4   9  18  34  53  73 100 136 170 208 256 309
#     4   8  16  32  52  75 101 135 169 205 261 312
#     4  10  18  33  55  77 103 143 174 212 269 314
#     4   8  16  32  50  71 100 131 165 203 252 311
#     4  10  18  31  55  77 102 139 172 214 268 307
#
# _framework density 21.515892999999998
#
# number of rings (size 3 to 8) (size 9 to 14) (size 15 to 20)
#    0.000    2.667    1.667    0.000    0.000    2.000 
#    3.000    1.667    0.000    2.000    0.000    0.000 
#    0.000    0.000    0.000    0.000    0.000    0.000 
#
# Total GULP energy -133620.790229 kJ/mol
# GULP energy per Si atom -5567.532926 kJ/mol
# Density = 2.146692 g / cm^3
# Si number density = 21.515893 Si / 1000 Ang^3
#
#
#
# Elastic Constant Matrix: (Units=GPa)
#
#
# Indices 1 2 3 4 5 6 
#
# 1 61.1765 66.8533 -11.8069 0.0000 0.0000 0.0000
# 2 66.8533 239.5489 -2.6993 0.0000 0.0000 0.0000
# 3 -11.8069 -2.6993 50.2733 0.0000 0.0000 0.0000
# 4 0.0000 0.0000 0.0000 35.1603 0.0000 0.0000
# 5 0.0000 0.0000 0.0000 0.0000 20.0801 0.0000
# 6 0.0000 0.0000 0.0000 0.0000 0.0000 42.4693
#
#
#
# Elastic Compliance Matrix: (Units=1/GPa)
#
#
# Indices 1 2 3 4 5 6 
#
# 1 0.024946 -0.006900 0.005488 0.000000 0.000000 0.000000
# 2 -0.006900 0.006086 -0.001294 0.000000 0.000000 0.000000
# 3 0.005488 -0.001294 0.021111 0.000000 0.000000 0.000000
# 4 0.000000 0.000000 0.000000 0.028441 0.000000 0.000000
# 5 0.000000 0.000000 0.000000 0.000000 0.049800 0.000000
# 6 0.000000 0.000000 0.000000 0.000000 0.000000 0.023546
#
#
# Mechanical properties :
#
#
# Convention : Reuss Voigt Hill
#
# Bulk Modulus (GPa) = 21.39920 50.63256 36.01588
# Shear Modulus (GPa) = 28.58480 39.45204 34.01842
#
# Velocity S-wave (km/s) = 3.64887 4.28673 3.98060
# Velocity P-wave (km/s) = 5.26495 6.93434 6.15649
#
# Compressibility (1/GPa) = 0.04673072
#
# Stress axis : x y z
#
# Youngs Moduli (GPa) = 40.08722 164.32278 47.36926
#
# Poissons Ratio (x) = 1.13382 -0.25997
# Poissons Ratio (y) = 0.27660 0.06128
# Poissons Ratio (z) = -0.22000 0.21259
#
# Static dielectric constant tensor:
#      x y z
#    x 1.741940 0.000000 0.000000 
#    y 0.000000 1.925980 0.000000 
#    z 0.000000 0.000000 1.793580 
# 
# From -- ./inp_files/11648.got.cif
#   From: 2010.05.17/outbox.cif.g08.bks.cpg/sg39_6_cif.got.tgz:11648.got - 2010.06.03 18:22:40.
