data_PCOD9359291
_publ_section_title
;
Structure prediction by ZEFSAII (Michael W. Deem and Ramdas Pophale) SiO2 
 PCOD9359291
Probable space group: A M M 2
;
_chemical_formula_sum "Si O2"
_cell_formula_units_Z 56
_cell_length_a 14.503075
_cell_length_b 29.756419
_cell_length_c 5.800979
_cell_angle_alpha 90.000000
_cell_angle_beta 90.000000
_cell_angle_gamma 90.000000
_cell_volume 2503.468040
_symmetry_space_group_name_H-M "A M M 2"
_symmetry_group_IT_number 38
_symmetry_cell_setting 'orthorhombic'
loop_
_space_group_symop_operation_xyz
x,y,z
-x,-y,z
-x,y,z
x,-y,z
x,1/2+y,1/2+z
-x,1/2-y,1/2+z
-x,1/2+y,1/2+z
x,1/2-y,1/2+z
loop_
_atom_site_type_symbol
_atom_site_label
_atom_site_fract_x
_atom_site_fract_y
_atom_site_fract_z
Si Si1 0.600876 0.450632 0.230440
Si Si2 0.848077 0.634051 0.267731
Si Si3 0.394736 0.264515 0.511958
Si Si4 0.250000 0.915635 0.394464
Si Si5 0.894736 0.235485 0.776970
Si Si6 0.651923 0.865949 0.021196
Si Si7 0.899124 0.549368 0.558487
O O1 0.500000 0.449230 0.110979
O O2 0.606995 0.500000 0.344408
O O3 0.604640 0.408163 0.398616
O O4 0.689901 0.444805 0.069519
O O5 0.896653 0.681568 0.274600
O O6 0.750000 0.640536 0.394464
O O7 0.895360 0.591837 0.390311
O O8 0.823482 0.616977 0.014784
O O9 0.500000 0.246009 0.511207
O O10 0.353581 0.249667 0.761481
O O11 0.396653 0.318432 0.514327
O O12 0.323482 0.883023 0.274144
O O13 0.189901 0.944805 0.219409
O O14 0.853581 0.250333 0.527447
O O15 0.000000 0.253991 0.777721
O O16 0.893005 0.500000 0.444519
O O17 0.000000 0.550770 0.677949
#
# Coordination Sequence:
#
# PCOD9359291 Si02
#       7
#     8   8   8   8   8   8   8
#     4  10  22  40  64  94 130 172 217 269 332 398
#     4  10  23  40  60  89 126 167 214 271 332 397
#     4  10  23  41  64  93 127 170 221 276 334 397
#     4  10  23  40  62  96 130 170 216 274 329 394
#     4  10  23  41  64  93 127 170 221 276 334 397
#     4  10  23  40  60  89 126 167 214 271 332 397
#     4  10  22  40  64  94 130 172 217 269 332 398
#
# _framework density 22.368970000000001
#
# number of rings (size 3 to 8) (size 9 to 14) (size 15 to 20)
#    0.000    2.000    0.000    1.286    8.000    9.714 
#    0.000    2.857    0.000    0.000    0.000    0.000 
#    0.000    0.000    0.000    0.000    0.000    0.000 
#
# Total GULP energy -156137.182846 kJ/mol
# GULP energy per Si atom -5576.327959 kJ/mol
# Density = 2.231806 g / cm^3
# Si number density = 22.368970 Si / 1000 Ang^3
#
#
#
# Elastic Constant Matrix: (Units=GPa)
#
#
# Indices 1 2 3 4 5 6 
#
# 1 75.5526 20.3978 16.8692 0.0000 0.0000 0.0000
# 2 20.3978 176.5908 62.4061 0.0000 0.0000 0.0000
# 3 16.8692 62.4061 119.7939 0.0000 0.0000 0.0000
# 4 0.0000 0.0000 0.0000 -28.1692 0.0000 0.0000
# 5 0.0000 0.0000 0.0000 0.0000 15.6509 0.0000
# 6 0.0000 0.0000 0.0000 0.0000 0.0000 23.4591
#
#
#
# Elastic Compliance Matrix: (Units=1/GPa)
#
#
# Indices 1 2 3 4 5 6 
#
# 1 0.013842 -0.001115 -0.001368 0.000000 0.000000 0.000000
# 2 -0.001115 0.007030 -0.003505 0.000000 0.000000 0.000000
# 3 -0.001368 -0.003505 0.010366 0.000000 0.000000 0.000000
# 4 0.000000 0.000000 0.000000 -0.035500 0.000000 0.000000
# 5 0.000000 0.000000 0.000000 0.000000 0.063894 0.000000
# 6 0.000000 0.000000 0.000000 0.000000 0.000000 0.042627
#
#
# Mechanical properties :
#
#
# Convention : Reuss Voigt Hill
#
# Bulk Modulus (GPa) = 51.91755 63.47594 57.69674
# Shear Modulus (GPa) = 41.43889 20.33909 30.88899
#
# Velocity S-wave (km/s) = 4.30876 3.01866 3.72006
# Velocity P-wave (km/s) = 6.92920 6.37088 6.65590
#
# Compressibility (1/GPa) = 0.01926131
#
# Stress axis : x y z
#
# Youngs Moduli (GPa) = 72.24156 142.23861 96.46484
#
# Poissons Ratio (x) = 0.15865 0.13198
# Poissons Ratio (y) = 0.08058 0.33815
# Poissons Ratio (z) = 0.09884 0.49860
#
# Static dielectric constant tensor:
#      x y z
#    x 1.857450 0.000000 0.000000 
#    y 0.000000 1.769850 0.000000 
#    z 0.000000 0.000000 1.890200 
# 
# From -- ./inp_files/1400.got.cif
#   From: 2010.05.17/outbox.cif.g08.bks.cpg/sg38_1_cif.got.tgz:1400.got - 2010.06.03 18:07:57.
