data_PCOD9359354
_publ_section_title
;
Structure prediction by ZEFSAII (Michael W. Deem and Ramdas Pophale) SiO2 
 PCOD9359354
Probable space group: A M M 2
;
_chemical_formula_sum "Si O2"
_cell_formula_units_Z 38
_cell_length_a 14.013003
_cell_length_b 13.923344
_cell_length_c 9.876917
_cell_angle_alpha 90.000000
_cell_angle_beta 90.000000
_cell_angle_gamma 90.000000
_cell_volume 1927.064152
_symmetry_space_group_name_H-M "A M M 2"
_symmetry_group_IT_number 38
_symmetry_cell_setting 'orthorhombic'
loop_
_space_group_symop_operation_xyz
x,y,z
-x,-y,z
-x,y,z
x,-y,z
x,1/2+y,1/2+z
-x,1/2-y,1/2+z
-x,1/2+y,1/2+z
x,1/2-y,1/2+z
loop_
_atom_site_type_symbol
_atom_site_label
_atom_site_fract_x
_atom_site_fract_y
_atom_site_fract_z
Si Si1 0.213164 0.790082 0.402430
Si Si2 0.387643 0.660153 0.359477
Si Si3 0.388354 0.000000 0.087846
Si Si4 0.000000 0.500000 0.162327
Si Si5 0.734422 0.500000 0.860083
Si Si6 0.896365 0.301648 0.166314
Si Si7 0.385923 0.500000 0.135988
O O1 0.318643 0.750575 0.371644
O O2 0.140129 0.730987 0.310942
O O3 0.182570 0.775669 0.556569
O O4 0.206220 0.902036 0.366406
O O5 0.500000 0.684891 0.353315
O O6 0.372152 0.592023 0.490551
O O7 0.364482 0.593472 0.229058
O O8 0.325634 0.000000 0.221639
O O9 0.500000 0.000000 0.125007
O O10 0.081573 0.585352 0.162782
O O11 0.668568 0.500000 0.994707
O O12 0.000000 0.255514 0.134638
O O13 0.500000 0.500000 0.114043
#
# Coordination Sequence:
#
# PCOD9359354 Si02
#       7
#     8   8   4   2   4   8   4
#     4  12  23  40  65  92 129 165 208 251 317 372
#     4   9  20  39  63  88 124 171 216 252 295 372
#     4   9  19  37  55  81 124 166 206 259 307 350
#     4   8  22  42  72  88 120 146 210 254 330 362
#     4  12  24  34  54  94 125 161 201 259 310 366
#     4  10  23  44  67  92 119 158 203 265 315 376
#     4   9  19  38  60  87 124 170 218 256 292 352
#
# _framework density 19.719116
#
# number of rings (size 3 to 8) (size 9 to 14) (size 15 to 20)
#    0.632    1.263    0.000    5.368    0.000    3.368 
#    0.000    6.316    0.000    0.000    0.000    0.000 
#    0.000    0.000    0.000    0.000    0.000    0.000 
#
# Total GULP energy -105821.338561 kJ/mol
# GULP energy per Si atom -5569.544135 kJ/mol
# Density = 1.967423 g / cm^3
# Si number density = 19.719116 Si / 1000 Ang^3
#
#
#
# Elastic Constant Matrix: (Units=GPa)
#
#
# Indices 1 2 3 4 5 6 
#
# 1 57.8716 29.8606 15.3232 0.0000 0.0000 0.0000
# 2 29.8606 64.7445 2.4861 0.0000 0.0000 0.0000
# 3 15.3232 2.4861 80.8551 0.0000 0.0000 0.0000
# 4 0.0000 0.0000 0.0000 5.8706 0.0000 0.0000
# 5 0.0000 0.0000 0.0000 0.0000 19.6820 0.0000
# 6 0.0000 0.0000 0.0000 0.0000 0.0000 40.1996
#
#
#
# Elastic Compliance Matrix: (Units=1/GPa)
#
#
# Indices 1 2 3 4 5 6 
#
# 1 0.024032 -0.010922 -0.004219 0.000000 0.000000 0.000000
# 2 -0.010922 0.020427 0.001442 0.000000 0.000000 0.000000
# 3 -0.004219 0.001442 0.013123 0.000000 0.000000 0.000000
# 4 0.000000 0.000000 0.000000 0.170340 0.000000 0.000000
# 5 0.000000 0.000000 0.000000 0.000000 0.050808 0.000000
# 6 0.000000 0.000000 0.000000 0.000000 0.000000 0.024876
#
#
# Mechanical properties :
#
#
# Convention : Reuss Voigt Hill
#
# Bulk Modulus (GPa) = 33.12910 33.20122 33.16516
# Shear Modulus (GPa) = 14.65999 23.53720 19.09859
#
# Velocity S-wave (km/s) = 2.72957 3.45863 3.11550
# Velocity P-wave (km/s) = 5.17407 5.72915 5.45867
#
# Compressibility (1/GPa) = 0.03018494
#
# Stress axis : x y z
#
# Youngs Moduli (GPa) = 41.61115 48.95445 76.20231
#
# Poissons Ratio (x) = 0.53467 0.32147
# Poissons Ratio (y) = 0.45447 -0.10986
# Poissons Ratio (z) = 0.17554 -0.07058
#
# Static dielectric constant tensor:
#      x y z
#    x 1.703190 0.000000 0.000000 
#    y 0.000000 1.686120 0.000000 
#    z 0.000000 0.000000 1.662660 
# 
# From -- ./inp_files/5210.got.cif
#   From: 2010.05.17/outbox.cif.g08.bks.cpg/sg38_3_cif.got.tgz:5210.got - 2010.06.03 18:07:57.
