data_PCOD9359674
_publ_section_title
;
Structure prediction by ZEFSAII (Michael W. Deem and Ramdas Pophale) SiO2 
 PCOD9359674
Probable space group: A B M 2
;
_chemical_formula_sum "Si O2"
_cell_formula_units_Z 56
_cell_length_a 24.474471
_cell_length_b 18.946204
_cell_length_c 5.599048
_cell_angle_alpha 90.000000
_cell_angle_beta 90.000000
_cell_angle_gamma 90.000000
_cell_volume 2596.269153
_symmetry_space_group_name_H-M "A B M 2"
_symmetry_group_IT_number 39
_symmetry_cell_setting 'orthorhombic'
loop_
_space_group_symop_operation_xyz
x,y,z
-x,-y,z
-x,1/2+y,z
x,1/2-y,z
x,1/2+y,1/2+z
-x,1/2-y,1/2+z
-x,y,1/2+z
x,-y,1/2+z
loop_
_atom_site_type_symbol
_atom_site_label
_atom_site_fract_x
_atom_site_fract_y
_atom_site_fract_z
Si Si1 0.648783 0.854958 0.659180
Si Si2 0.978294 0.419002 0.159286
Si Si3 0.520611 0.830793 0.659318
Si Si4 0.195469 0.080608 0.159095
Si Si5 0.316670 0.129336 0.159175
Si Si6 0.598028 0.505622 0.159145
Si Si7 0.847591 0.918827 0.659096
O O1 0.585974 0.830966 0.659218
O O2 0.677921 0.832808 0.414429
O O3 0.642623 0.941265 0.659160
O O4 0.677928 0.832809 0.903916
O O5 0.912953 0.420357 0.159190
O O6 0.000000 0.500000 0.159322
O O7 0.999986 0.387302 0.409309
O O8 0.499265 0.750000 0.659356
O O9 0.499984 0.862134 0.409343
O O10 0.260632 0.085974 0.159179
O O11 0.173477 0.112718 0.408245
O O12 0.174912 0.999518 0.159063
O O13 0.173505 0.112719 0.909901
O O14 0.369448 0.078470 0.159154
O O15 0.567857 0.500003 0.409146
#
# Coordination Sequence:
#
# PCOD9359674 Si02
#       7
#     8   8   8   8   8   8   8
#     4  10  19  31  48  70  89 110 145 166 203 262
#     4  10  16  25  35  43  63  96 139 188 246 263
#     4  10  21  38  59  76  90 109 135 177 225 253
#     4  10  18  25  36  53  81 104 139 172 220 257
#     4  10  19  28  45  64  92 123 140 169 206 260
#     4   8  16  25  41  59  87 112 144 156 192 236
#     4  10  19  24  35  53  74 102 143 193 225 257
#
# _framework density 21.569413000000001
#
# number of rings (size 3 to 8) (size 9 to 14) (size 15 to 20)
#    0.000    2.286    0.000    6.000   12.000    0.000 
#    0.000    0.000    0.000   23.143    0.000    0.000 
#    0.000    0.000    0.000    0.000    0.000    0.000 
#
# Total GULP energy -156096.108903 kJ/mol
# GULP energy per Si atom -5574.861032 kJ/mol
# Density = 2.152032 g / cm^3
# Si number density = 21.569413 Si / 1000 Ang^3
#
#
#
# Elastic Constant Matrix: (Units=GPa)
#
#
# Indices 1 2 3 4 5 6 
#
# 1 128.8610 -1.1722 64.1360 0.0000 0.0000 0.0000
# 2 -1.1722 40.4658 3.3722 0.0000 0.0000 0.0000
# 3 64.1360 3.3722 302.3053 0.0000 0.0000 0.0000
# 4 0.0000 0.0000 0.0000 -14.8317 0.0000 0.0000
# 5 0.0000 0.0000 0.0000 0.0000 49.0483 0.0000
# 6 0.0000 0.0000 0.0000 0.0000 0.0000 18.0585
#
#
#
# Elastic Compliance Matrix: (Units=1/GPa)
#
#
# Indices 1 2 3 4 5 6 
#
# 1 0.008683 0.000405 -0.001847 0.000000 0.000000 0.000000
# 2 0.000405 0.024754 -0.000362 0.000000 0.000000 0.000000
# 3 -0.001847 -0.000362 0.003704 0.000000 0.000000 0.000000
# 4 0.000000 0.000000 0.000000 -0.067423 0.000000 0.000000
# 5 0.000000 0.000000 0.000000 0.000000 0.020388 0.000000
# 6 0.000000 0.000000 0.000000 0.000000 0.000000 0.055376
#
#
# Mechanical properties :
#
#
# Convention : Reuss Voigt Hill
#
# Bulk Modulus (GPa) = 29.82035 67.14489 48.48262
# Shear Modulus (GPa) = 82.96503 37.47476 60.21989
#
# Velocity S-wave (km/s) = 6.20868 4.17274 5.28959
# Velocity P-wave (km/s) = 8.07789 7.37651 7.73515
#
# Compressibility (1/GPa) = 0.03353415
#
# Stress axis : x y z
#
# Youngs Moduli (GPa) = 115.16604 40.39730 269.99708
#
# Poissons Ratio (x) = -0.01638 0.49860
# Poissons Ratio (y) = -0.04669 0.09778
# Poissons Ratio (z) = 0.21268 0.01463
#
# Static dielectric constant tensor:
#      x y z
#    x 1.710980 0.000000 0.000000 
#    y 0.000000 1.774520 0.000000 
#    z 0.000000 0.000000 1.952810 
# 
# From -- ./inp_files/1098.got.cif
#   From: 2010.05.17/outbox.cif.g08.bks.cpg/sg39_1_cif.got.tgz:1098.got - 2010.06.03 18:22:40.
