data_PCOD9359903
_publ_section_title
;
Structure prediction by ZEFSAII (Michael W. Deem and Ramdas Pophale) SiO2 
 PCOD9359903
Probable space group: A B M 2
;
_chemical_formula_sum "Si O2"
_cell_formula_units_Z 48
_cell_length_a 8.267595
_cell_length_b 15.962568
_cell_length_c 19.561161
_cell_angle_alpha 90.000000
_cell_angle_beta 90.000000
_cell_angle_gamma 90.000000
_cell_volume 2581.526466
_symmetry_space_group_name_H-M "A B M 2"
_symmetry_group_IT_number 39
_symmetry_cell_setting 'orthorhombic'
loop_
_space_group_symop_operation_xyz
x,y,z
-x,-y,z
-x,1/2+y,z
x,1/2-y,z
x,1/2+y,1/2+z
-x,1/2-y,1/2+z
-x,y,1/2+z
x,-y,1/2+z
loop_
_atom_site_type_symbol
_atom_site_label
_atom_site_fract_x
_atom_site_fract_y
_atom_site_fract_z
Si Si1 0.220725 0.843094 0.300170
Si Si2 0.194771 0.995865 0.046006
Si Si3 0.690027 0.491389 0.200898
Si Si4 0.211575 0.845685 0.457501
Si Si5 0.889722 0.916778 0.311317
Si Si6 0.817230 0.153855 0.950736
O O1 0.279243 0.750000 0.286917
O O2 0.262532 0.864788 0.379116
O O3 0.025370 0.847645 0.296778
O O4 0.279142 0.907365 0.243974
O O5 0.238828 0.991678 0.125161
O O6 0.246637 0.911087 0.006954
O O7 0.000000 0.000000 0.040202
O O8 0.260139 0.079544 0.008227
O O9 0.500000 0.500000 0.196202
O O10 0.779864 0.561189 0.246941
O O11 0.263206 0.750000 0.474513
O O12 0.014308 0.844214 0.456766
O O13 0.788796 0.887492 0.376602
O O14 0.000000 0.000000 0.327616
O O15 0.760600 0.250000 0.955758
#
# Coordination Sequence:
#
# PCOD9359903 Si02
#       6
#     8   8   8   8   8   8
#     4   9  17  34  60  83 102 128 172 226 269 310
#     4  10  18  32  52  75 104 136 174 215 257 310
#     4  11  23  36  49  72 111 152 179 207 256 313
#     4   8  15  30  55  82 100 121 164 223 274 308
#     4   9  16  32  56  80 101 129 173 219 264 311
#     4   9  16  28  52  82 104 124 162 220 272 310
#
# _framework density 18.593651000000001
#
# number of rings (size 3 to 8) (size 9 to 14) (size 15 to 20)
#    0.000    2.667    0.000    6.500    0.000    0.667 
#    0.000   10.833    0.000    2.000    0.000    0.000 
#    0.000    0.000    0.000    0.000    0.000    0.000 
#
# Total GULP energy -133744.078323 kJ/mol
# GULP energy per Si atom -5572.669930 kJ/mol
# Density = 1.855133 g / cm^3
# Si number density = 18.593651 Si / 1000 Ang^3
#
#
#
# Elastic Constant Matrix: (Units=GPa)
#
#
# Indices 1 2 3 4 5 6 
#
# 1 11.7568 9.9006 11.0927 0.0000 0.0000 0.0000
# 2 9.9006 132.6704 91.6642 0.0000 0.0000 0.0000
# 3 11.0927 91.6642 148.7720 0.0000 0.0000 0.0000
# 4 0.0000 0.0000 0.0000 7.0023 0.0000 0.0000
# 5 0.0000 0.0000 0.0000 0.0000 -18.2861 0.0000
# 6 0.0000 0.0000 0.0000 0.0000 0.0000 0.2576
#
#
#
# Elastic Compliance Matrix: (Units=1/GPa)
#
#
# Indices 1 2 3 4 5 6 
#
# 1 0.092539 -0.003724 -0.004605 0.000000 0.000000 0.000000
# 2 -0.003724 0.013274 -0.007901 0.000000 0.000000 0.000000
# 3 -0.004605 -0.007901 0.011933 0.000000 0.000000 0.000000
# 4 0.000000 0.000000 0.000000 0.142811 0.000000 0.000000
# 5 0.000000 0.000000 0.000000 0.000000 -0.054686 0.000000
# 6 0.000000 0.000000 0.000000 0.000000 0.000000 3.882050
#
#
# Mechanical properties :
#
#
# Convention : Reuss Voigt Hill
#
# Bulk Modulus (GPa) = 11.72533 57.61270 34.66901
# Shear Modulus (GPa) = 1.20516 9.83086 5.51801
#
# Velocity S-wave (km/s) = 0.80596 2.30189 1.72457
# Velocity P-wave (km/s) = 2.68065 6.17392 4.75937
#
# Compressibility (1/GPa) = 0.08528547
#
# Stress axis : x y z
#
# Youngs Moduli (GPa) = 10.80630 75.33247 83.79864
#
# Poissons Ratio (x) = 0.28052 0.38593
# Poissons Ratio (y) = 0.04024 0.66212
# Poissons Ratio (z) = 0.04977 0.59522
#
# Static dielectric constant tensor:
#      x y z
#    x 1.642130 0.000000 0.000000 
#    y 0.000000 1.701480 0.000000 
#    z 0.000000 0.000000 1.632490 
# 
# From -- ./inp_files/11700.got.cif
#   From: 2010.05.17/outbox.cif.g08.bks.cpg/sg39_6_cif.got.tgz:11700.got - 2010.06.03 18:22:40.
