data_PCOD9359801
_publ_section_title
;
Structure prediction by ZEFSAII (Michael W. Deem and Ramdas Pophale) SiO2 
 PCOD9359801
Probable space group: A B M 2
;
_chemical_formula_sum "Si O2"
_cell_formula_units_Z 64
_cell_length_a 14.660300
_cell_length_b 8.648779
_cell_length_c 32.083441
_cell_angle_alpha 90.000000
_cell_angle_beta 90.000000
_cell_angle_gamma 90.000000
_cell_volume 4067.978025
_symmetry_space_group_name_H-M "A B M 2"
_symmetry_group_IT_number 39
_symmetry_cell_setting 'orthorhombic'
loop_
_space_group_symop_operation_xyz
x,y,z
-x,-y,z
-x,1/2+y,z
x,1/2-y,z
x,1/2+y,1/2+z
-x,1/2-y,1/2+z
-x,y,1/2+z
x,-y,1/2+z
loop_
_atom_site_type_symbol
_atom_site_label
_atom_site_fract_x
_atom_site_fract_y
_atom_site_fract_z
Si Si1 0.603136 0.064291 0.319920
Si Si2 0.097864 0.935995 0.435740
Si Si3 0.396784 0.435617 0.140941
Si Si4 0.602873 0.065116 0.733710
Si Si5 0.714926 0.434345 0.063610
Si Si6 0.098676 0.064518 0.033502
Si Si7 0.397881 0.936154 0.485324
Si Si8 0.710570 0.938223 0.901997
O O1 0.598220 0.250000 0.319552
O O2 0.663428 0.011898 0.359180
O O3 0.500000 0.000000 0.324261
O O4 0.643242 0.006956 0.275729
O O5 0.094641 0.750000 0.434079
O O6 0.111864 0.978394 0.484510
O O7 0.185589 0.989966 0.409758
O O8 0.000000 0.000000 0.422270
O O9 0.500000 0.500000 0.136946
O O10 0.400655 0.250000 0.137054
O O11 0.360548 0.473122 0.187638
O O12 0.334069 0.505295 0.105160
O O13 0.600620 0.250000 0.737950
O O14 0.500000 0.000000 0.732882
O O15 0.712774 0.250000 0.062475
O O16 0.818027 0.494587 0.059177
O O17 0.659489 0.500830 0.024136
O O18 0.099941 0.250000 0.036243
O O19 0.000000 0.000000 0.046068
O O20 0.398852 0.750000 0.487258
O O21 0.349522 0.983472 0.442077
O O22 0.500000 0.000000 0.486938
O O23 0.711804 0.750000 0.901558
#
# Coordination Sequence:
#
# PCOD9359801 Si02
#       8
#     8   8   8   8   8   8   8   8
#     4  10  18  29  47  69  96 128 161 197 238 284
#     4   9  17  32  50  69  92 122 158 200 243 283
#     4  10  20  34  51  71  97 130 164 202 246 292
#     4   9  17  30  48  69  94 123 158 199 243 287
#     4  12  23  34  49  72  98 129 167 202 242 294
#     4  10  19  34  54  73  97 127 161 206 248 289
#     4  11  21  35  48  64  95 134 169 202 238 282
#     4   9  18  32  48  67  95 130 162 195 240 286
#
# _framework density 15.732631
#
# number of rings (size 3 to 8) (size 9 to 14) (size 15 to 20)
#    0.000    2.000    1.250    4.500    0.000    2.000 
#    0.000    3.125    0.000    0.000    0.000    0.875 
#    0.000    4.000    0.000    0.000    0.000    0.000 
#
# Total GULP energy -178511.982669 kJ/mol
# GULP energy per Si atom -5578.499458 kJ/mol
# Density = 1.569682 g / cm^3
# Si number density = 15.732631 Si / 1000 Ang^3
#
#
#
# Elastic Constant Matrix: (Units=GPa)
#
#
# Indices 1 2 3 4 5 6 
#
# 1 122.2982 37.4350 74.9809 0.0000 0.0000 0.0000
# 2 37.4350 63.0385 46.7957 0.0000 0.0000 0.0000
# 3 74.9809 46.7957 146.4095 0.0000 0.0000 0.0000
# 4 0.0000 0.0000 0.0000 18.7838 0.0000 0.0000
# 5 0.0000 0.0000 0.0000 0.0000 5.6649 0.0000
# 6 0.0000 0.0000 0.0000 0.0000 0.0000 24.9835
#
#
#
# Elastic Compliance Matrix: (Units=1/GPa)
#
#
# Indices 1 2 3 4 5 6 
#
# 1 0.012481 -0.003496 -0.005274 0.000000 0.000000 0.000000
# 2 -0.003496 0.021777 -0.005170 0.000000 0.000000 0.000000
# 3 -0.005274 -0.005170 0.011184 0.000000 0.000000 0.000000
# 4 0.000000 0.000000 0.000000 0.053237 0.000000 0.000000
# 5 0.000000 0.000000 0.000000 0.000000 0.176526 0.000000
# 6 0.000000 0.000000 0.000000 0.000000 0.000000 0.040026
#
#
# Mechanical properties :
#
#
# Convention : Reuss Voigt Hill
#
# Bulk Modulus (GPa) = 56.94523 72.24104 64.59314
# Shear Modulus (GPa) = 14.32804 21.38875 17.85839
#
# Velocity S-wave (km/s) = 3.02109 3.69116 3.37281
# Velocity P-wave (km/s) = 6.96014 8.01148 7.50424
#
# Compressibility (1/GPa) = 0.01756073
#
# Stress axis : x y z
#
# Youngs Moduli (GPa) = 80.12482 45.91916 89.41597
#
# Poissons Ratio (x) = 0.16055 0.47160
# Poissons Ratio (y) = 0.28014 0.46228
# Poissons Ratio (z) = 0.42259 0.23740
#
# Static dielectric constant tensor:
#      x y z
#    x 1.503950 0.000000 0.000000 
#    y 0.000000 1.532010 0.000000 
#    z 0.000000 0.000000 1.539040 
# 
# From -- ./inp_files/17992.got.cif
#   From: 2010.05.17/outbox.cif.g08.bks.cpg/sg39_9_cif.got.tgz:17992.got - 2010.06.03 18:22:40.
