data_PCOD9359704
_publ_section_title
;
Structure prediction by ZEFSAII (Michael W. Deem and Ramdas Pophale) SiO2 
 PCOD9359704
Probable space group: A B M 2
;
_chemical_formula_sum "Si O2"
_cell_formula_units_Z 32
_cell_length_a 20.501578
_cell_length_b 14.113427
_cell_length_c 5.368987
_cell_angle_alpha 90.000000
_cell_angle_beta 90.000000
_cell_angle_gamma 90.000000
_cell_volume 1553.503097
_symmetry_space_group_name_H-M "A B M 2"
_symmetry_group_IT_number 39
_symmetry_cell_setting 'orthorhombic'
loop_
_space_group_symop_operation_xyz
x,y,z
-x,-y,z
-x,1/2+y,z
x,1/2-y,z
x,1/2+y,1/2+z
-x,1/2-y,1/2+z
-x,y,1/2+z
x,-y,1/2+z
loop_
_atom_site_type_symbol
_atom_site_label
_atom_site_fract_x
_atom_site_fract_y
_atom_site_fract_z
Si Si1 0.767904 0.750000 0.498590
Si Si2 0.527752 0.106857 0.024497
Si Si3 0.975239 0.641741 0.890721
Si Si4 0.320854 0.062963 0.469474
Si Si5 0.148257 0.750000 0.499701
O O1 0.725115 0.845279 0.475628
O O2 0.802592 0.750000 0.768013
O O3 0.818494 0.750000 0.267871
O O4 0.490437 0.149611 0.789872
O O5 0.604384 0.099471 0.976395
O O6 0.500000 0.000000 0.047567
O O7 0.002906 0.750000 0.854888
O O8 0.900528 0.660138 0.964888
O O9 0.985040 0.598982 0.619262
O O10 0.311306 0.998148 0.716646
#
# Coordination Sequence:
#
# PCOD9359704 Si02
#       5
#     4   8   8   8   4
#     4  12  26  37  56  91 116 166 196 220 304 356
#     4  10  16  32  60  81  97 143 184 235 309 330
#     4   8  13  24  48  78 109 148 187 238 287 314
#     4  12  23  41  62  81 120 151 195 247 289 353
#     4  10  18  35  50  79 134 146 188 256 266 342
#
# _framework density 20.598607000000001
#
# number of rings (size 3 to 8) (size 9 to 14) (size 15 to 20)
#    0.750    1.000    5.000    3.000    0.000    0.000 
#    0.000    1.250    0.000    0.000    0.000    0.000 
#    0.000  280.000    0.000    0.000    0.000    0.000 
#
# Total GULP energy -89192.127469 kJ/mol
# GULP energy per Si atom -5574.507967 kJ/mol
# Density = 2.055172 g / cm^3
# Si number density = 20.598607 Si / 1000 Ang^3
#
#
#
# Elastic Constant Matrix: (Units=GPa)
#
#
# Indices 1 2 3 4 5 6 
#
# 1 67.2273 10.7677 -15.0485 0.0000 0.0000 0.0000
# 2 10.7677 84.5859 2.0356 0.0000 0.0000 0.0000
# 3 -15.0485 2.0356 121.5052 0.0000 0.0000 0.0000
# 4 0.0000 0.0000 0.0000 -20.2250 0.0000 0.0000
# 5 0.0000 0.0000 0.0000 0.0000 40.7245 0.0000
# 6 0.0000 0.0000 0.0000 0.0000 0.0000 -7.8963
#
#
#
# Elastic Compliance Matrix: (Units=1/GPa)
#
#
# Indices 1 2 3 4 5 6 
#
# 1 0.015643 -0.002039 0.001972 0.000000 0.000000 0.000000
# 2 -0.002039 0.012093 -0.000455 0.000000 0.000000 0.000000
# 3 0.001972 -0.000455 0.008482 0.000000 0.000000 0.000000
# 4 0.000000 0.000000 0.000000 -0.049444 0.000000 0.000000
# 5 0.000000 0.000000 0.000000 0.000000 0.024555 0.000000
# 6 0.000000 0.000000 0.000000 0.000000 0.000000 -0.126641
#
#
# Mechanical properties :
#
#
# Convention : Reuss Voigt Hill
#
# Bulk Modulus (GPa) = 28.43104 29.86977 29.15041
# Shear Modulus (GPa) = -48.76002 20.89155 -13.93423
#
# Velocity S-wave (km/s) = -4.87062 3.18814 -2.60372
# Velocity P-wave (km/s) = 4.21879 5.29950 2.26787
#
# Compressibility (1/GPa) = 0.03517282
#
# Stress axis : x y z
#
# Youngs Moduli (GPa) = 63.92730 82.69395 117.89812
#
# Poissons Ratio (x) = 0.16859 -0.23244
# Poissons Ratio (y) = 0.13033 0.05365
# Poissons Ratio (z) = -0.12603 0.03763
#
# Static dielectric constant tensor:
#      x y z
#    x 1.704740 0.000000 0.000000 
#    y 0.000000 1.728740 0.000000 
#    z 0.000000 0.000000 1.809180 
# 
# From -- ./inp_files/948.got.cif
#   From: 2010.05.17/outbox.cif.g08.bks.cpg/sg39_1_cif.got.tgz:948.got - 2010.06.03 18:22:40.
