data_PCOD9359350
_publ_section_title
;
Structure prediction by ZEFSAII (Michael W. Deem and Ramdas Pophale) SiO2 
 PCOD9359350
Probable space group: A M M 2
;
_chemical_formula_sum "Si O2"
_cell_formula_units_Z 64
_cell_length_a 14.233750
_cell_length_b 9.289734
_cell_length_c 26.344461
_cell_angle_alpha 90.000000
_cell_angle_beta 90.000000
_cell_angle_gamma 90.000000
_cell_volume 3483.468838
_symmetry_space_group_name_H-M "A M M 2"
_symmetry_group_IT_number 38
_symmetry_cell_setting 'orthorhombic'
loop_
_space_group_symop_operation_xyz
x,y,z
-x,-y,z
-x,y,z
x,-y,z
x,1/2+y,1/2+z
-x,1/2-y,1/2+z
-x,1/2+y,1/2+z
x,1/2-y,1/2+z
loop_
_atom_site_type_symbol
_atom_site_label
_atom_site_fract_x
_atom_site_fract_y
_atom_site_fract_z
Si Si1 0.283922 0.171623 0.539030
Si Si2 0.114022 0.336836 0.689796
Si Si3 0.705523 0.827939 0.839790
Si Si4 0.610180 0.328013 0.934115
Si Si5 0.107053 0.327718 0.291066
Si Si6 0.386692 0.668214 0.745798
Si Si7 0.613262 0.831154 0.130158
Si Si8 0.890230 0.673405 0.575076
O O1 0.340580 0.204361 0.487657
O O2 0.339787 0.236242 0.586963
O O3 0.181982 0.246107 0.539027
O O4 0.275309 0.000000 0.543836
O O5 0.148488 0.500000 0.697066
O O6 0.138910 0.240110 0.737561
O O7 0.138500 0.287456 0.633149
O O8 0.000000 0.342311 0.689140
O O9 0.659747 0.754797 0.888446
O O10 0.815924 0.791304 0.833179
O O11 0.656272 0.766792 0.789192
O O12 0.695510 0.000000 0.842152
O O13 0.500000 0.291142 0.936203
O O14 0.617408 0.500000 0.925380
O O15 0.106103 0.500000 0.285594
O O16 0.000000 0.280089 0.301841
O O17 0.500000 0.677956 0.747765
O O18 0.362528 0.500000 0.754737
O O19 0.357953 0.705958 0.688017
O O20 0.500000 0.818372 0.127549
O O21 0.636785 0.000000 0.122093
O O22 0.882164 0.500000 0.571187
O O23 0.000000 0.709853 0.567478
#
# Coordination Sequence:
#
# PCOD9359350 Si02
#       8
#     8   8   8   8   8   8   8   8
#     4  11  23  37  58  86 115 147 189 240 293 343
#     4   8  15  29  50  76 106 144 189 229 262 308
#     4  11  23  36  56  86 113 141 187 239 286 333
#     4  10  23  44  64  81 107 146 189 233 287 349
#     4   9  19  35  52  75 113 152 183 222 275 332
#     4   9  19  36  56  79 111 150 185 221 276 345
#     4   9  19  36  57  82 113 150 190 230 280 348
#     4   9  19  36  56  81 116 155 195 236 278 332
#
# _framework density 18.372491
#
# number of rings (size 3 to 8) (size 9 to 14) (size 15 to 20)
#    0.000    2.500    0.000    3.000    1.750    6.000 
#    0.000    3.125    0.000    2.250    0.000    0.000 
#    0.000    0.000    0.000    0.000    0.000    0.000 
#
# Total GULP energy -178629.945293 kJ/mol
# GULP energy per Si atom -5582.185790 kJ/mol
# Density = 1.833067 g / cm^3
# Si number density = 18.372491 Si / 1000 Ang^3
#
#
#
# Elastic Constant Matrix: (Units=GPa)
#
#
# Indices 1 2 3 4 5 6 
#
# 1 126.0015 58.6588 84.8651 0.0000 0.0000 0.0000
# 2 58.6588 47.0516 68.2483 0.0000 0.0000 0.0000
# 3 84.8651 68.2483 132.3345 0.0000 0.0000 0.0000
# 4 0.0000 0.0000 0.0000 33.0577 0.0000 0.0000
# 5 0.0000 0.0000 0.0000 0.0000 35.3957 0.0000
# 6 0.0000 0.0000 0.0000 0.0000 0.0000 26.6402
#
#
#
# Elastic Compliance Matrix: (Units=1/GPa)
#
#
# Indices 1 2 3 4 5 6 
#
# 1 0.018914 -0.023760 0.000124 0.000000 0.000000 0.000000
# 2 -0.023760 0.114207 -0.043662 0.000000 0.000000 0.000000
# 3 0.000124 -0.043662 0.029994 0.000000 0.000000 0.000000
# 4 0.000000 0.000000 0.000000 0.030250 0.000000 0.000000
# 5 0.000000 0.000000 0.000000 0.000000 0.028252 0.000000
# 6 0.000000 0.000000 0.000000 0.000000 0.000000 0.037537
#
#
# Mechanical properties :
#
#
# Convention : Reuss Voigt Hill
#
# Bulk Modulus (GPa) = 35.06405 80.99244 58.02825
# Shear Modulus (GPa) = 12.39905 25.25975 18.82940
#
# Velocity S-wave (km/s) = 2.60065 3.71194 3.20483
# Velocity P-wave (km/s) = 5.30512 7.90889 6.73405
#
# Compressibility (1/GPa) = 0.02851923
#
# Stress axis : x y z
#
# Youngs Moduli (GPa) = 52.87080 8.75606 33.33957
#
# Poissons Ratio (x) = 0.20805 -0.00415
# Poissons Ratio (y) = 1.25623 1.45567
# Poissons Ratio (z) = -0.00658 0.38231
#
# Static dielectric constant tensor:
#      x y z
#    x 1.677160 0.000000 0.000000 
#    y 0.000000 1.606680 0.000000 
#    z 0.000000 0.000000 1.603200 
# 
# From -- ./inp_files/22952.got.cif
#   From: 2010.05.17/outbox.cif.g08.bks.cpg/sg38_12_cif.got.tgz:22952.got - 2010.06.03 18:07:57.
