data_PCOD9359920
_publ_section_title
;
Structure prediction by ZEFSAII (Michael W. Deem and Ramdas Pophale) SiO2 
 PCOD9359920
Probable space group: A B M 2
;
_chemical_formula_sum "Si O2"
_cell_formula_units_Z 64
_cell_length_a 19.968351
_cell_length_b 7.678852
_cell_length_c 21.276666
_cell_angle_alpha 90.000000
_cell_angle_beta 90.000000
_cell_angle_gamma 90.000000
_cell_volume 3262.436560
_symmetry_space_group_name_H-M "A B M 2"
_symmetry_group_IT_number 39
_symmetry_cell_setting 'orthorhombic'
loop_
_space_group_symop_operation_xyz
x,y,z
-x,-y,z
-x,1/2+y,z
x,1/2-y,z
x,1/2+y,1/2+z
-x,1/2-y,1/2+z
-x,y,1/2+z
x,-y,1/2+z
loop_
_atom_site_type_symbol
_atom_site_label
_atom_site_fract_x
_atom_site_fract_y
_atom_site_fract_z
Si Si1 0.285642 0.453608 0.709100
Si Si2 0.074814 0.541442 0.277115
Si Si3 0.290377 0.954882 0.959760
Si Si4 0.575114 0.040581 0.899473
Si Si5 0.074906 0.458755 0.632957
Si Si6 0.425143 0.457078 0.255303
Si Si7 0.211896 0.961713 0.334364
Si Si8 0.214405 0.464201 0.582657
O O1 0.267602 0.250000 0.709434
O O2 0.365205 0.471468 0.713479
O O3 0.254583 0.524146 0.773904
O O4 0.253394 0.523060 0.645408
O O5 0.080702 0.750000 0.273644
O O6 0.081860 0.474852 0.205114
O O7 0.135744 0.481706 0.320573
O O8 0.000000 0.500000 0.299135
O O9 0.300586 0.750000 0.972388
O O10 0.363550 0.027468 0.941234
O O11 0.244298 0.972705 0.898269
O O12 0.252207 0.027144 0.020445
O O13 0.580832 0.250000 0.896422
O O14 0.581517 0.974949 0.827311
O O15 0.500000 0.000000 0.921582
O O16 0.079834 0.250000 0.636327
O O17 0.137160 0.519534 0.591160
O O18 0.000000 0.500000 0.610740
O O19 0.500000 0.500000 0.233668
O O20 0.417819 0.250000 0.257056
O O21 0.214436 0.750000 0.336999
O O22 0.214661 0.250000 0.580895
#
# Coordination Sequence:
#
# PCOD9359920 Si02
#       8
#     8   8   8   8   8   8   8   8
#     4  10  18  32  54  77 100 133 171 209 255 305
#     4   9  17  30  49  75 103 130 168 213 257 304
#     4  10  20  35  53  76 104 136 174 212 251 304
#     4   9  18  31  49  73  99 128 166 207 248 297
#     4   9  16  30  51  75  99 130 170 211 254 304
#     4  10  19  32  50  77 107 134 169 214 258 304
#     4  10  19  32  52  76 103 132 167 211 258 306
#     4   9  18  34  55  75 102 139 175 207 253 312
#
# _framework density 19.617241
#
# number of rings (size 3 to 8) (size 9 to 14) (size 15 to 20)
#    0.000    2.500    2.500    0.375    0.000    1.500 
#    0.000    3.125    0.000    4.500    0.000    0.000 
#    0.000    0.000    0.000    0.000    0.000    0.000 
#
# Total GULP energy -178492.288706 kJ/mol
# GULP energy per Si atom -5577.884022 kJ/mol
# Density = 1.957259 g / cm^3
# Si number density = 19.617241 Si / 1000 Ang^3
#
#
#
# Elastic Constant Matrix: (Units=GPa)
#
#
# Indices 1 2 3 4 5 6 
#
# 1 180.7008 -10.9637 76.9354 0.0000 0.0000 0.0000
# 2 -10.9637 29.1461 -2.7394 0.0000 0.0000 0.0000
# 3 76.9354 -2.7394 106.8001 0.0000 0.0000 0.0000
# 4 0.0000 0.0000 0.0000 9.2121 0.0000 0.0000
# 5 0.0000 0.0000 0.0000 0.0000 26.9690 0.0000
# 6 0.0000 0.0000 0.0000 0.0000 0.0000 22.0345
#
#
#
# Elastic Compliance Matrix: (Units=1/GPa)
#
#
# Indices 1 2 3 4 5 6 
#
# 1 0.008163 0.002524 -0.005816 0.000000 0.000000 0.000000
# 2 0.002524 0.035173 -0.000916 0.000000 0.000000 0.000000
# 3 -0.005816 -0.000916 0.013529 0.000000 0.000000 0.000000
# 4 0.000000 0.000000 0.000000 0.108553 0.000000 0.000000
# 5 0.000000 0.000000 0.000000 0.000000 0.037080 0.000000
# 6 0.000000 0.000000 0.000000 0.000000 0.000000 0.045383
#
#
# Mechanical properties :
#
#
# Convention : Reuss Voigt Hill
#
# Bulk Modulus (GPa) = 20.63971 49.23463 34.93717
# Shear Modulus (GPa) = 18.35217 28.53744 23.44480
#
# Velocity S-wave (km/s) = 3.06193 3.81821 3.46079
# Velocity P-wave (km/s) = 4.80048 6.67760 5.81528
#
# Compressibility (1/GPa) = 0.04845028
#
# Stress axis : x y z
#
# Youngs Moduli (GPa) = 122.49915 28.43065 73.91335
#
# Poissons Ratio (x) = -0.07176 0.42987
# Poissons Ratio (y) = -0.30920 0.06771
# Poissons Ratio (z) = 0.71244 0.02605
#
# Static dielectric constant tensor:
#      x y z
#    x 1.703140 0.000000 0.000000 
#    y 0.000000 2.004460 0.000000 
#    z 0.000000 0.000000 1.664360 
# 
# From -- ./inp_files/13114.got.cif
#   From: 2010.05.17/outbox.cif.g08.bks.cpg/sg39_7_cif.got.tgz:13114.got - 2010.06.03 18:22:40.
