data_PCOD9359088
_publ_section_title
;
Structure prediction by ZEFSAII (Michael W. Deem and Ramdas Pophale) SiO2 
 PCOD9359088
Probable space group: A M M 2
;
_chemical_formula_sum "Si O2"
_cell_formula_units_Z 58
_cell_length_a 20.997880
_cell_length_b 7.644336
_cell_length_c 15.869283
_cell_angle_alpha 90.000000
_cell_angle_beta 90.000000
_cell_angle_gamma 90.000000
_cell_volume 2547.255580
_symmetry_space_group_name_H-M "A M M 2"
_symmetry_group_IT_number 38
_symmetry_cell_setting 'orthorhombic'
loop_
_space_group_symop_operation_xyz
x,y,z
-x,-y,z
-x,y,z
x,-y,z
x,1/2+y,1/2+z
-x,1/2-y,1/2+z
-x,1/2+y,1/2+z
x,1/2-y,1/2+z
loop_
_atom_site_type_symbol
_atom_site_label
_atom_site_fract_x
_atom_site_fract_y
_atom_site_fract_z
Si Si1 0.135318 0.215402 0.354590
Si Si2 0.156761 0.702395 0.673364
Si Si3 0.269781 0.788472 0.427436
Si Si4 0.591537 0.208196 0.373040
Si Si5 0.289975 0.205591 0.616527
Si Si6 0.500000 0.500000 0.440231
Si Si7 0.930752 0.707525 0.020315
Si Si8 0.568849 0.291904 0.675959
O O1 0.127331 0.278392 0.259113
O O2 0.205395 0.271850 0.384911
O O3 0.088111 0.275596 0.427913
O O4 0.134300 0.000000 0.352937
O O5 0.140789 0.500000 0.672939
O O6 0.233654 0.717951 0.673963
O O7 0.125465 0.770432 0.587836
O O8 0.333762 0.751217 0.376855
O O9 0.278875 0.723006 0.522506
O O10 0.265620 0.000000 0.432204
O O11 0.554690 0.343748 0.431861
O O12 0.569683 0.236276 0.276769
O O13 0.582253 0.000000 0.393477
O O14 0.363705 0.228386 0.641103
O O15 0.277180 0.000000 0.615864
O O16 0.936020 0.500000 0.010588
O O17 0.000000 0.775629 0.048459
O O18 0.500000 0.223090 0.643757
O O19 0.568175 0.500000 0.660553
#
# Coordination Sequence:
#
# PCOD9359088 Si02
#       8
#     8   8   8   8   8   2   8   8
#     4   9  18  37  64  89 121 165 214 248 301 377
#     4  11  22  38  64  96 126 165 210 262 313 373
#     4   9  18  37  60  83 113 158 203 256 311 370
#     4  10  21  39  60  82 116 156 206 260 322 388
#     4  11  22  37  62  88 119 159 209 262 315 380
#     4  12  22  36  60  90 112 156 204 266 324 394
#     4  10  21  40  66  93 127 168 207 252 306 372
#     4  10  21  39  58  80 115 161 200 258 327 380
#
# _framework density 22.769603
#
# number of rings (size 3 to 8) (size 9 to 14) (size 15 to 20)
#    0.000    1.931    2.069    1.862    0.966    3.310 
#    3.724    2.759    0.000    0.000    0.000    0.000 
#    0.000    0.000    0.000    0.000    0.000    0.000 
#
# Total GULP energy -161670.727425 kJ/mol
# GULP energy per Si atom -5574.852670 kJ/mol
# Density = 2.271778 g / cm^3
# Si number density = 22.769603 Si / 1000 Ang^3
#
#
#
# Elastic Constant Matrix: (Units=GPa)
#
#
# Indices 1 2 3 4 5 6 
#
# 1 111.5451 4.7960 27.0134 0.0000 0.0000 0.0000
# 2 4.7960 57.4260 4.0186 0.0000 0.0000 0.0000
# 3 27.0134 4.0186 90.6643 0.0000 0.0000 0.0000
# 4 0.0000 0.0000 0.0000 8.8667 0.0000 0.0000
# 5 0.0000 0.0000 0.0000 0.0000 29.2295 0.0000
# 6 0.0000 0.0000 0.0000 0.0000 0.0000 15.5628
#
#
#
# Elastic Compliance Matrix: (Units=1/GPa)
#
#
# Indices 1 2 3 4 5 6 
#
# 1 0.009683 -0.000609 -0.002858 0.000000 0.000000 0.000000
# 2 -0.000609 0.017506 -0.000595 0.000000 0.000000 0.000000
# 3 -0.002858 -0.000595 0.011908 0.000000 0.000000 0.000000
# 4 0.000000 0.000000 0.000000 0.112782 0.000000 0.000000
# 5 0.000000 0.000000 0.000000 0.000000 0.034212 0.000000
# 6 0.000000 0.000000 0.000000 0.000000 0.000000 0.064256
#
#
# Mechanical properties :
#
#
# Convention : Reuss Voigt Hill
#
# Bulk Modulus (GPa) = 32.28490 36.81016 34.54753
# Shear Modulus (GPa) = 18.60158 25.65229 22.12694
#
# Velocity S-wave (km/s) = 2.86133 3.36013 3.12071
# Velocity P-wave (km/s) = 5.01259 5.59066 5.30949
#
# Compressibility (1/GPa) = 0.03097423
#
# Stress axis : x y z
#
# Youngs Moduli (GPa) = 103.27025 57.12273 83.97969
#
# Poissons Ratio (x) = 0.03477 0.24003
# Poissons Ratio (y) = 0.06286 0.04993
# Poissons Ratio (z) = 0.29516 0.03396
#
# Static dielectric constant tensor:
#      x y z
#    x 1.853240 0.000000 0.000000 
#    y 0.000000 1.857700 0.000000 
#    z 0.000000 0.000000 1.885850 
# 
# From -- ./inp_files/15721.got.cif
#   From: 2010.05.17/outbox.cif.g08.bks.cpg/sg38_8_cif.got.tgz:15721.got - 2010.06.03 18:07:57.
