data_PCOD9359597
_publ_section_title
;
Structure prediction by ZEFSAII (Michael W. Deem and Ramdas Pophale) SiO2 
 PCOD9359597
Probable space group: A M M 2
;
_chemical_formula_sum "Si O2"
_cell_formula_units_Z 32
_cell_length_a 18.000000
_cell_length_b 9.000000
_cell_length_c 21.000000
_cell_angle_alpha 90.000000
_cell_angle_beta 90.000000
_cell_angle_gamma 90.000000
_cell_volume 3402.000000
_symmetry_space_group_name_H-M "A M M 2"
_symmetry_group_IT_number 38
_symmetry_cell_setting 'orthorhombic'
loop_
_space_group_symop_operation_xyz
x,y,z
-x,-y,z
-x,y,z
x,-y,z
x,1/2+y,1/2+z
-x,1/2-y,1/2+z
-x,1/2+y,1/2+z
x,1/2-y,1/2+z
loop_
_atom_site_type_symbol
_atom_site_label
_atom_site_fract_x
_atom_site_fract_y
_atom_site_fract_z
Si Si1 0.322790 0.678825 0.094680
Si Si2 0.084311 0.181166 0.466005
Si Si3 0.413685 0.822731 0.979891
Si Si4 0.148303 0.321158 0.102144
Si Si5 0.357467 0.678664 0.849841
Si Si6 0.815353 0.319230 0.848781
Si Si7 0.085526 0.320782 0.729609
Si Si8 0.413640 0.676805 0.220589
O O1 0.329852 0.500000 0.087333
O O2 0.235686 0.714789 0.098589
O O3 0.363098 0.721385 0.160622
O O4 0.361843 0.755574 0.034821
O O5 0.109685 0.226286 0.536340
O O6 0.141193 0.231558 0.411747
O O7 0.000000 0.227798 0.452496
O O8 0.085313 0.000000 0.465207
O O9 0.500000 0.792348 0.995450
O O10 0.394604 0.749533 0.912064
O O11 0.403698 0.000000 0.975750
O O12 0.141437 0.500000 0.107384
O O13 0.110872 0.247299 0.163002
O O14 0.362495 0.500000 0.853258
O O15 0.270564 0.723499 0.848870
O O16 0.393623 0.737014 0.784809
O O17 0.817003 0.500000 0.849060
O O18 0.859780 0.270575 0.786058
O O19 0.089672 0.500000 0.725976
O O20 0.000000 0.281537 0.743871
O O21 0.500000 0.700324 0.204458
O O22 0.402684 0.500000 0.231513
#
# Coordination Sequence:
#
# PCOD9359597 Si02
#       8
#     8   8   8   8   8   8   8   8
#     4  10  21  38  60  84 111 146 187 230 278 334
#     4   9  16  28  49  75 102 134 172 213 256 303
#     4  11  24  40  58  82 113 147 183 228 282 338
#     4  10  20  34  54  81 111 141 176 221 271 323
#     4  11  22  36  57  82 109 144 186 231 277 329
#     4   9  18  33  52  76 105 136 176 224 267 311
#     4  10  20  34  54  80 110 145 183 224 272 325
#     4  10  21  37  56  79 109 143 179 223 275 329
#
# _framework density 9.4062319999999993
#
# number of rings (size 3 to 8) (size 9 to 14) (size 15 to 20)
#    0.000    2.000    0.000    3.750    0.000    8.500 
#    0.000    0.625    0.000    0.750    0.000    0.000 
#    0.000    0.000    0.000    0.000    0.000    0.000 
#
# Total GULP energy -178771.187035 kJ/mol
# GULP energy per Si atom -5586.599595 kJ/mol
# Density = 0.938482 g / cm^3
# Si number density = 9.406232 Si / 1000 Ang^3
#
#
#
# Elastic Constant Matrix: (Units=GPa)
#
#
# Indices 1 2 3 4 5 6 
#
# 1 47.8224 8.1182 -23.2900 0.0000 0.0000 0.0000
# 2 8.1182 12.7013 0.2657 0.0000 0.0000 0.0000
# 3 -23.2900 0.2657 49.7912 0.0000 0.0000 0.0000
# 4 0.0000 0.0000 0.0000 34.7802 0.0000 0.0000
# 5 0.0000 0.0000 0.0000 0.0000 45.4932 0.0000
# 6 0.0000 0.0000 0.0000 0.0000 0.0000 20.6211
#
#
#
# Elastic Compliance Matrix: (Units=1/GPa)
#
#
# Indices 1 2 3 4 5 6 
#
# 1 0.031667 -0.020552 0.014922 0.000000 0.000000 0.000000
# 2 -0.020552 0.092080 -0.010105 0.000000 0.000000 0.000000
# 3 0.014922 -0.010105 0.027118 0.000000 0.000000 0.000000
# 4 0.000000 0.000000 0.000000 0.028752 0.000000 0.000000
# 5 0.000000 0.000000 0.000000 0.000000 0.021981 0.000000
# 6 0.000000 0.000000 0.000000 0.000000 0.000000 0.048494
#
#
# Mechanical properties :
#
#
# Convention : Reuss Voigt Hill
#
# Bulk Modulus (GPa) = 8.37565 8.94473 8.66019
# Shear Modulus (GPa) = 15.55887 28.52698 22.04293
#
# Velocity S-wave (km/s) = 2.87897 3.89831 3.42675
# Velocity P-wave (km/s) = 3.93867 5.00274 4.50225
#
# Compressibility (1/GPa) = 0.11939369
#
# Stress axis : x y z
#
# Youngs Moduli (GPa) = 31.57881 10.86014 36.87638
#
# Poissons Ratio (x) = 0.22320 -0.55027
# Poissons Ratio (y) = 0.64902 0.37263
# Poissons Ratio (z) = -0.47122 0.10974
#
# Static dielectric constant tensor:
#      x y z
#    x 1.634430 0.000000 0.000000 
#    y 0.000000 1.634540 0.000000 
#    z 0.000000 0.000000 1.611750 
# 
# From -- ./inp_files/21437.got.cif
#   From: 2010.05.17/outbox.ucp.g08.bks.cvg/sg38_11_cif.got.tgz:21437.got - 2010.06.11 10:39:43.
