data_PCOD9359059
_publ_section_title
;
Structure prediction by ZEFSAII (Michael W. Deem and Ramdas Pophale) SiO2 
 PCOD9359059
Probable space group: A M M 2
;
_chemical_formula_sum "Si O2"
_cell_formula_units_Z 56
_cell_length_a 21.353867
_cell_length_b 7.703641
_cell_length_c 15.333989
_cell_angle_alpha 90.000000
_cell_angle_beta 90.000000
_cell_angle_gamma 90.000000
_cell_volume 2522.479914
_symmetry_space_group_name_H-M "A M M 2"
_symmetry_group_IT_number 38
_symmetry_cell_setting 'orthorhombic'
loop_
_space_group_symop_operation_xyz
x,y,z
-x,-y,z
-x,y,z
x,-y,z
x,1/2+y,1/2+z
-x,1/2-y,1/2+z
-x,1/2+y,1/2+z
x,1/2-y,1/2+z
loop_
_atom_site_type_symbol
_atom_site_label
_atom_site_fract_x
_atom_site_fract_y
_atom_site_fract_z
Si Si1 0.337693 0.202599 0.626750
Si Si2 0.334985 0.796812 0.924950
Si Si3 0.201865 0.286883 0.101444
Si Si4 0.570359 0.702062 0.776592
Si Si5 0.202848 0.301880 0.402869
Si Si6 0.067058 0.702836 0.368210
Si Si7 0.933518 0.797813 0.659349
O O1 0.346735 0.222696 0.521974
O O2 0.266601 0.262881 0.648543
O O3 0.390598 0.283657 0.687065
O O4 0.339795 0.000000 0.647543
O O5 0.390941 0.780463 0.856875
O O6 0.270823 0.724569 0.880048
O O7 0.322594 0.000000 0.938987
O O8 0.202138 0.500000 0.096452
O O9 0.134500 0.227215 0.135786
O O10 0.207348 0.204287 0.006801
O O11 0.500000 0.773786 0.767532
O O12 0.565724 0.500000 0.797646
O O13 0.199021 0.500000 0.366538
O O14 0.134917 0.217266 0.387281
O O15 0.068868 0.500000 0.397811
O O16 0.064033 0.702590 0.263773
O O17 0.000000 0.776782 0.400103
O O18 0.000000 0.719957 0.627750
O O19 0.933304 0.000000 0.631026
#
# Coordination Sequence:
#
# PCOD9359059 Si02
#       7
#     8   8   8   8   8   8   8
#     4  10  21  38  61  88 120 155 192 237 285 338
#     4  10  21  38  61  88 120 155 192 237 285 338
#     4   9  18  31  50  75 104 136 178 223 269 321
#     4  11  25  43  63  89 118 149 188 232 283 345
#     4   9  18  31  50  75 104 136 178 223 269 321
#     4   8  14  25  43  68  98 134 177 222 265 312
#     4   8  14  25  43  68  98 134 177 222 265 312
#
# _framework density 22.200374
#
# number of rings (size 3 to 8) (size 9 to 14) (size 15 to 20)
#    0.000    2.714    0.000    2.143    2.000    3.429 
#    0.000    0.000    0.000    0.000    0.000    2.000 
#    0.000    0.000    0.000    0.000    0.000    0.000 
#
# Total GULP energy -155935.999886 kJ/mol
# GULP energy per Si atom -5569.142853 kJ/mol
# Density = 2.214985 g / cm^3
# Si number density = 22.200374 Si / 1000 Ang^3
#
#
#
# Elastic Constant Matrix: (Units=GPa)
#
#
# Indices 1 2 3 4 5 6 
#
# 1 238.3486 11.1489 56.5942 0.0000 0.0000 0.0000
# 2 11.1489 42.5288 -4.4453 0.0000 0.0000 0.0000
# 3 56.5942 -4.4453 51.1505 0.0000 0.0000 0.0000
# 4 0.0000 0.0000 0.0000 20.3737 0.0000 0.0000
# 5 0.0000 0.0000 0.0000 0.0000 47.2862 0.0000
# 6 0.0000 0.0000 0.0000 0.0000 0.0000 -61.3312
#
#
#
# Elastic Compliance Matrix: (Units=1/GPa)
#
#
# Indices 1 2 3 4 5 6 
#
# 1 0.005896 -0.002248 -0.006719 0.000000 0.000000 0.000000
# 2 -0.002248 0.024586 0.004624 0.000000 0.000000 0.000000
# 3 -0.006719 0.004624 0.027386 0.000000 0.000000 0.000000
# 4 0.000000 0.000000 0.000000 0.049083 0.000000 0.000000
# 5 0.000000 0.000000 0.000000 0.000000 0.021148 0.000000
# 6 0.000000 0.000000 0.000000 0.000000 0.000000 -0.016305
#
#
# Mechanical properties :
#
#
# Convention : Reuss Voigt Hill
#
# Bulk Modulus (GPa) = 20.33259 50.95817 35.64538
# Shear Modulus (GPa) = 36.53000 19.18107 27.85554
#
# Velocity S-wave (km/s) = 4.06084 2.94257 3.54606
# Velocity P-wave (km/s) = 5.58263 5.87780 5.73212
#
# Compressibility (1/GPa) = 0.04918213
#
# Stress axis : x y z
#
# Youngs Moduli (GPa) = 169.60539 40.67345 36.51506
#
# Poissons Ratio (x) = 0.09143 0.24534
# Poissons Ratio (y) = 0.38126 -0.16884
# Poissons Ratio (z) = 1.13956 -0.18807
#
# Static dielectric constant tensor:
#      x y z
#    x 1.962670 0.000000 0.000000 
#    y 0.000000 1.844190 0.000000 
#    z 0.000000 0.000000 1.774890 
# 
# From -- ./inp_files/15476.got.cif
#   From: 2010.05.17/outbox.cif.g08.bks.cpg/sg38_8_cif.got.tgz:15476.got - 2010.06.03 18:07:57.
