data_PCOD9359653
_publ_section_title
;
Structure prediction by ZEFSAII (Michael W. Deem and Ramdas Pophale) SiO2 
 PCOD9359653
Probable space group: A M M 2
;
_chemical_formula_sum "Si O2"
_cell_formula_units_Z 28
_cell_length_a 15.000000
_cell_length_b 9.000000
_cell_length_c 21.000000
_cell_angle_alpha 90.000000
_cell_angle_beta 90.000000
_cell_angle_gamma 90.000000
_cell_volume 2835.000000
_symmetry_space_group_name_H-M "A M M 2"
_symmetry_group_IT_number 38
_symmetry_cell_setting 'orthorhombic'
loop_
_space_group_symop_operation_xyz
x,y,z
-x,-y,z
-x,y,z
x,-y,z
x,1/2+y,1/2+z
-x,1/2-y,1/2+z
-x,1/2+y,1/2+z
x,1/2-y,1/2+z
loop_
_atom_site_type_symbol
_atom_site_label
_atom_site_fract_x
_atom_site_fract_y
_atom_site_fract_z
Si Si1 0.604272 0.678754 0.665640
Si Si2 0.893620 0.322701 0.597734
Si Si3 0.607538 0.165481 0.019876
Si Si4 0.600779 0.322433 0.891207
Si Si5 0.893381 0.176347 0.951862
Si Si6 0.786210 0.678146 0.838032
Si Si7 0.780780 0.823422 0.709622
O O1 0.500000 0.718503 0.676890
O O2 0.610806 0.500000 0.675083
O O3 0.628857 0.709649 0.591670
O O4 0.679536 0.762578 0.704425
O O5 0.879135 0.500000 0.605536
O O6 0.868541 0.284603 0.524762
O O7 0.836365 0.236290 0.649451
O O8 0.000000 0.295846 0.604942
O O9 0.500000 0.154315 0.020362
O O10 0.644126 0.000000 0.007174
O O11 0.627811 0.274659 0.962601
O O12 0.500000 0.265368 0.877397
O O13 0.596359 0.500000 0.887620
O O14 0.682737 0.274148 0.847796
O O15 0.840716 0.268143 0.899342
O O16 0.000000 0.198635 0.945776
O O17 0.876409 0.000000 0.943379
O O18 0.789427 0.500000 0.832398
O O19 0.820789 0.754436 0.774085
O O20 0.781626 0.000000 0.711500
#
# Coordination Sequence:
#
# PCOD9359653 Si02
#       7
#     8   8   8   8   8   8   8
#     4   9  19  37  59  83 116 160 206 250 300 358
#     4   9  20  42  70  95 120 155 198 244 301 368
#     4   8  15  29  51  79 107 141 188 237 287 342
#     4   9  19  35  54  79 114 154 196 243 292 343
#     4   9  20  41  68  95 121 151 191 243 303 364
#     4  11  24  40  59  86 121 162 207 247 297 358
#     4  12  26  40  58  88 125 163 206 253 303 357
#
# _framework density 9.8765429999999999
#
# number of rings (size 3 to 8) (size 9 to 14) (size 15 to 20)
#    0.000    2.429    0.000    3.429    2.000    4.286 
#    0.000    4.286    0.000    0.000    0.000    0.000 
#    0.000    0.000    0.000    0.000    0.000    0.000 
#
# Total GULP energy -156295.478059 kJ/mol
# GULP energy per Si atom -5581.981359 kJ/mol
# Density = 0.985406 g / cm^3
# Si number density = 9.876543 Si / 1000 Ang^3
#
#
#
# Elastic Constant Matrix: (Units=GPa)
#
#
# Indices 1 2 3 4 5 6 
#
# 1 66.7665 45.9101 62.1733 0.0000 0.0000 0.0000
# 2 45.9101 48.3053 65.9118 0.0000 0.0000 0.0000
# 3 62.1733 65.9118 135.6459 0.0000 0.0000 0.0000
# 4 0.0000 0.0000 0.0000 28.4808 0.0000 0.0000
# 5 0.0000 0.0000 0.0000 0.0000 9.6589 0.0000
# 6 0.0000 0.0000 0.0000 0.0000 0.0000 27.7709
#
#
#
# Elastic Compliance Matrix: (Units=1/GPa)
#
#
# Indices 1 2 3 4 5 6 
#
# 1 0.043238 -0.041701 0.000445 0.000000 0.000000 0.000000
# 2 -0.041701 0.101651 -0.030280 0.000000 0.000000 0.000000
# 3 0.000445 -0.030280 0.021881 0.000000 0.000000 0.000000
# 4 0.000000 0.000000 0.000000 0.035111 0.000000 0.000000
# 5 0.000000 0.000000 0.000000 0.000000 0.103531 0.000000
# 6 0.000000 0.000000 0.000000 0.000000 0.000000 0.036009
#
#
# Mechanical properties :
#
#
# Convention : Reuss Voigt Hill
#
# Bulk Modulus (GPa) = 42.19626 66.52313 54.35969
# Shear Modulus (GPa) = 10.15450 18.29696 14.22573
#
# Velocity S-wave (km/s) = 2.26977 3.04679 2.68652
# Velocity P-wave (km/s) = 5.31765 6.79174 6.09939
#
# Compressibility (1/GPa) = 0.02369878
#
# Stress axis : x y z
#
# Youngs Moduli (GPa) = 23.12794 9.83758 45.70081
#
# Poissons Ratio (x) = 0.41024 -0.02033
# Poissons Ratio (y) = 0.96446 1.38381
# Poissons Ratio (z) = -0.01029 0.29788
#
# Static dielectric constant tensor:
#      x y z
#    x 1.715450 0.000000 0.000000 
#    y 0.000000 1.659530 0.000000 
#    z 0.000000 0.000000 1.711180 
# 
# From -- ./inp_files/21023.got.cif
#   From: 2010.05.17/outbox.ucp.g08.bks.cvg/sg38_11_cif.got.tgz:21023.got - 2010.06.11 10:39:43.
