data_PCOD9359244
_publ_section_title
;
Structure prediction by ZEFSAII (Michael W. Deem and Ramdas Pophale) SiO2 
 PCOD9359244
Probable space group: A M M 2
;
_chemical_formula_sum "Si O2"
_cell_formula_units_Z 48
_cell_length_a 19.225318
_cell_length_b 15.859087
_cell_length_c 7.128685
_cell_angle_alpha 90.000000
_cell_angle_beta 90.000000
_cell_angle_gamma 90.000000
_cell_volume 2173.507476
_symmetry_space_group_name_H-M "A M M 2"
_symmetry_group_IT_number 38
_symmetry_cell_setting 'orthorhombic'
loop_
_space_group_symop_operation_xyz
x,y,z
-x,-y,z
-x,y,z
x,-y,z
x,1/2+y,1/2+z
-x,1/2-y,1/2+z
-x,1/2+y,1/2+z
x,1/2-y,1/2+z
loop_
_atom_site_type_symbol
_atom_site_label
_atom_site_fract_x
_atom_site_fract_y
_atom_site_fract_z
Si Si1 0.000000 0.598595 0.058450
Si Si2 0.212215 0.744965 0.834306
Si Si3 0.581600 0.173167 0.560748
Si Si4 0.311888 0.410817 0.804479
Si Si5 0.345186 0.656956 0.427668
Si Si6 0.893581 0.749773 0.584904
Si Si7 0.000000 0.598438 0.612589
O O1 0.064531 0.661363 0.104771
O O2 0.000000 0.500000 0.127841
O O3 0.000000 0.590904 0.835503
O O4 0.252650 0.657168 0.838010
O O5 0.271451 0.817099 0.836662
O O6 0.193533 0.748251 0.585535
O O7 0.124728 0.742081 0.835421
O O8 0.500000 0.184112 0.534949
O O9 0.617703 0.114187 0.409242
O O10 0.621536 0.262377 0.536198
O O11 0.601210 0.137365 0.763801
O O12 0.286205 0.500000 0.872530
O O13 0.329549 0.409719 0.585755
O O14 0.935449 0.660914 0.565739
O O15 0.000000 0.500000 0.543125
#
# Coordination Sequence:
#
# PCOD9359244 Si02
#       7
#     4   8   8   8   8   8   4
#     4  10  22  39  60  91 126 165 215 262 320 396
#     4  11  20  40  62  88 122 162 213 258 323 387
#     4  11  22  39  67  96 126 171 220 264 321 396
#     4  11  25  42  63  95 134 168 215 279 331 389
#     4  11  21  40  65  96 128 166 221 269 316 392
#     4  11  21  38  65  89 122 169 206 270 323 383
#     4  10  22  39  60  91 126 163 213 262 318 396
#
# _framework density 22.084119999999999
#
# number of rings (size 3 to 8) (size 9 to 14) (size 15 to 20)
#    0.000    1.167    6.667    1.500    0.000    3.000 
#    0.000    2.500    0.000    0.000    0.000    0.000 
#    0.000    0.000    0.000    0.000    0.000    0.000 
#
# Total GULP energy -133729.777253 kJ/mol
# GULP energy per Si atom -5572.074052 kJ/mol
# Density = 2.203386 g / cm^3
# Si number density = 22.084120 Si / 1000 Ang^3
#
#
#
# Elastic Constant Matrix: (Units=GPa)
#
#
# Indices 1 2 3 4 5 6 
#
# 1 139.0231 60.6763 52.3767 0.0000 0.0000 0.0000
# 2 60.6763 144.3936 34.7866 0.0000 0.0000 0.0000
# 3 52.3767 34.7866 133.1151 0.0000 0.0000 0.0000
# 4 0.0000 0.0000 0.0000 43.4947 0.0000 0.0000
# 5 0.0000 0.0000 0.0000 0.0000 40.5673 0.0000
# 6 0.0000 0.0000 0.0000 0.0000 0.0000 -2.7512
#
#
#
# Elastic Compliance Matrix: (Units=1/GPa)
#
#
# Indices 1 2 3 4 5 6 
#
# 1 0.009795 -0.003402 -0.002965 0.000000 0.000000 0.000000
# 2 -0.003402 0.008572 -0.000902 0.000000 0.000000 0.000000
# 3 -0.002965 -0.000902 0.008915 0.000000 0.000000 0.000000
# 4 0.000000 0.000000 0.000000 0.022991 0.000000 0.000000
# 5 0.000000 0.000000 0.000000 0.000000 0.024650 0.000000
# 6 0.000000 0.000000 0.000000 0.000000 0.000000 -0.363484
#
#
# Mechanical properties :
#
#
# Convention : Reuss Voigt Hill
#
# Bulk Modulus (GPa) = 78.46299 79.13453 78.79876
# Shear Modulus (GPa) = -18.53389 34.17498 7.82054
#
# Velocity S-wave (km/s) = -2.90011 3.93808 1.88386
# Velocity P-wave (km/s) = 4.93884 7.52257 6.36322
#
# Compressibility (1/GPa) = 0.01274486
#
# Stress axis : x y z
#
# Youngs Moduli (GPa) = 102.09590 116.65695 112.17581
#
# Poissons Ratio (x) = 0.39682 0.33260
# Poissons Ratio (y) = 0.34729 0.10115
# Poissons Ratio (z) = 0.30271 0.10519
#
# Static dielectric constant tensor:
#      x y z
#    x 1.747760 0.000000 0.000000 
#    y 0.000000 1.584580 0.000000 
#    z 0.000000 0.000000 2.477050 
# 
# From -- ./inp_files/6199.got.cif
#   From: 2010.05.17/outbox.cif.g08.bks.cpg/sg38_4_cif.got.tgz:6199.got - 2010.06.03 18:07:57.
