data_PCOD9359876
_publ_section_title
;
Structure prediction by ZEFSAII (Michael W. Deem and Ramdas Pophale) SiO2 
 PCOD9359876
Probable space group: A B M 2
;
_chemical_formula_sum "Si O2"
_cell_formula_units_Z 64
_cell_length_a 19.993979
_cell_length_b 8.423244
_cell_length_c 21.136096
_cell_angle_alpha 90.000000
_cell_angle_beta 90.000000
_cell_angle_gamma 90.000000
_cell_volume 3559.617931
_symmetry_space_group_name_H-M "A B M 2"
_symmetry_group_IT_number 39
_symmetry_cell_setting 'orthorhombic'
loop_
_space_group_symop_operation_xyz
x,y,z
-x,-y,z
-x,1/2+y,z
x,1/2-y,z
x,1/2+y,1/2+z
-x,1/2-y,1/2+z
-x,y,1/2+z
x,-y,1/2+z
loop_
_atom_site_type_symbol
_atom_site_label
_atom_site_fract_x
_atom_site_fract_y
_atom_site_fract_z
Si Si1 0.427646 0.441252 0.585650
Si Si2 0.714440 0.057399 0.887078
Si Si3 0.927281 0.059813 0.071413
Si Si4 0.208387 0.556604 0.013020
Si Si5 0.789273 0.059673 0.262632
Si Si6 0.426992 0.441391 0.438636
Si Si7 0.289456 0.556321 0.137860
Si Si8 0.926615 0.938698 0.214780
O O1 0.500000 0.500000 0.606559
O O2 0.427566 0.250000 0.585255
O O3 0.417537 0.492242 0.512234
O O4 0.365989 0.495315 0.628673
O O5 0.715083 0.250000 0.885413
O O6 0.756812 0.004704 0.948561
O O7 0.637347 0.006771 0.898263
O O8 0.749579 0.994157 0.824495
O O9 0.927517 0.250000 0.073414
O O10 0.914788 0.001797 0.143209
O O11 0.867659 0.006240 0.025649
O O12 0.000000 0.000000 0.051863
O O13 0.209472 0.750000 0.012117
O O14 0.250280 0.507497 0.074637
O O15 0.792412 0.250000 0.260661
O O16 0.748402 0.002533 0.200607
O O17 0.864757 0.995390 0.257213
O O18 0.500000 0.500000 0.417634
O O19 0.427675 0.250000 0.438506
O O20 0.288900 0.750000 0.139015
O O21 0.928534 0.750000 0.212804
O O22 0.000000 0.000000 0.234653
#
# Coordination Sequence:
#
# PCOD9359876 Si02
#       8
#     8   8   8   8   8   8   8   8
#     4   9  16  29  51  78 104 134 174 222 272 320
#     4  10  20  36  56  79 107 144 187 226 270 324
#     4  10  18  31  53  81 110 140 177 221 270 320
#     4   9  16  31  56  78 100 138 182 220 262 321
#     4  11  22  37  56  80 111 145 183 226 272 325
#     4   9  17  30  52  77 103 134 174 222 269 324
#     4   9  16  31  55  77 100 137 181 216 261 323
#     4  11  21  35  56  82 110 142 180 222 269 322
#
# _framework density 17.979457
#
# number of rings (size 3 to 8) (size 9 to 14) (size 15 to 20)
#    0.000    2.250    2.500    2.625    0.000    0.500 
#    0.000    3.750    0.000    4.500    0.000    0.000 
#    0.000    0.000    0.000    0.000    0.000    0.000 
#
# Total GULP energy -178495.446865 kJ/mol
# GULP energy per Si atom -5577.982715 kJ/mol
# Density = 1.793854 g / cm^3
# Si number density = 17.979457 Si / 1000 Ang^3
#
#
#
# Elastic Constant Matrix: (Units=GPa)
#
#
# Indices 1 2 3 4 5 6 
#
# 1 190.2600 31.9845 79.6892 0.0000 0.0000 0.0000
# 2 31.9845 36.2985 17.4441 0.0000 0.0000 0.0000
# 3 79.6892 17.4441 104.6143 0.0000 0.0000 0.0000
# 4 0.0000 0.0000 0.0000 10.6762 0.0000 0.0000
# 5 0.0000 0.0000 0.0000 0.0000 29.6457 0.0000
# 6 0.0000 0.0000 0.0000 0.0000 0.0000 25.6908
#
#
#
# Elastic Compliance Matrix: (Units=1/GPa)
#
#
# Indices 1 2 3 4 5 6 
#
# 1 0.008397 -0.004702 -0.005612 0.000000 0.000000 0.000000
# 2 -0.004702 0.032582 -0.001851 0.000000 0.000000 0.000000
# 3 -0.005612 -0.001851 0.014143 0.000000 0.000000 0.000000
# 4 0.000000 0.000000 0.000000 0.093666 0.000000 0.000000
# 5 0.000000 0.000000 0.000000 0.000000 0.033732 0.000000
# 6 0.000000 0.000000 0.000000 0.000000 0.000000 0.038924
#
#
# Mechanical properties :
#
#
# Convention : Reuss Voigt Hill
#
# Bulk Modulus (GPa) = 32.47725 65.48983 48.98354
# Shear Modulus (GPa) = 19.52824 26.67288 23.10056
#
# Velocity S-wave (km/s) = 3.29924 3.85583 3.58834
# Velocity P-wave (km/s) = 5.71105 7.50514 6.66870
#
# Compressibility (1/GPa) = 0.03079079
#
# Stress axis : x y z
#
# Youngs Moduli (GPa) = 119.08819 30.69166 70.70717
#
# Poissons Ratio (x) = 0.14431 0.39684
# Poissons Ratio (y) = 0.55995 0.13090
# Poissons Ratio (z) = 0.66837 0.05682
#
# Static dielectric constant tensor:
#      x y z
#    x 1.633230 0.000000 0.000000 
#    y 0.000000 1.625050 0.000000 
#    z 0.000000 0.000000 1.587900 
# 
# From -- ./inp_files/13116.got.cif
#   From: 2010.05.17/outbox.cif.g08.bks.cpg/sg39_7_cif.got.tgz:13116.got - 2010.06.03 18:22:40.
