data_PCOD9359560
_publ_section_title
;
Structure prediction by ZEFSAII (Michael W. Deem and Ramdas Pophale) SiO2 
 PCOD9359560
Probable space group: A M M 2
;
_chemical_formula_sum "Si O2"
_cell_formula_units_Z 32
_cell_length_a 24.000000
_cell_length_b 9.000000
_cell_length_c 15.000000
_cell_angle_alpha 90.000000
_cell_angle_beta 90.000000
_cell_angle_gamma 90.000000
_cell_volume 3240.000000
_symmetry_space_group_name_H-M "A M M 2"
_symmetry_group_IT_number 38
_symmetry_cell_setting 'orthorhombic'
loop_
_space_group_symop_operation_xyz
x,y,z
-x,-y,z
-x,y,z
x,-y,z
x,1/2+y,1/2+z
-x,1/2-y,1/2+z
-x,1/2+y,1/2+z
x,1/2-y,1/2+z
loop_
_atom_site_type_symbol
_atom_site_label
_atom_site_fract_x
_atom_site_fract_y
_atom_site_fract_z
Si Si1 0.148222 0.177815 0.677500
Si Si2 0.561921 0.323377 0.107794
Si Si3 0.120026 0.680499 0.864376
Si Si4 0.235458 0.668749 0.923324
Si Si5 0.379370 0.820938 0.257782
Si Si6 0.260579 0.330512 0.709906
Si Si7 0.060034 0.180523 0.532871
Si Si8 0.646932 0.317684 0.958621
O O1 0.123426 0.244579 0.768894
O O2 0.211362 0.235060 0.668796
O O3 0.109208 0.229887 0.597247
O O4 0.148407 0.000000 0.682000
O O5 0.500000 0.298356 0.073094
O O6 0.569756 0.500000 0.119240
O O7 0.570658 0.244985 0.201961
O O8 0.606146 0.268153 0.035633
O O9 0.124117 0.500000 0.853656
O O10 0.174266 0.733869 0.920694
O O11 0.069610 0.717213 0.929404
O O12 0.229711 0.500000 0.957820
O O13 0.250052 0.661890 0.817415
O O14 0.289533 0.737712 0.968605
O O15 0.323033 0.769948 0.206545
O O16 0.375310 0.775380 0.360752
O O17 0.379419 0.000000 0.255717
O O18 0.257999 0.500000 0.677049
O O19 0.000000 0.233251 0.564413
O O20 0.060911 0.000000 0.536564
O O21 0.649374 0.500000 0.958714
#
# Coordination Sequence:
#
# PCOD9359560 Si02
#       8
#     8   8   8   8   8   8   8   8
#     4  10  19  31  51  78 104 130 163 207 256 299
#     4  10  21  34  48  72 104 133 165 208 252 291
#     4   9  17  32  53  72  95 130 167 204 250 302
#     4   7  11  23  46  72  91 114 155 200 237 282
#     4   9  18  34  56  77  97 129 170 208 246 294
#     4   8  15  30  51  75 103 130 159 199 250 306
#     4   9  19  34  50  71 100 135 176 214 246 290
#     4   8  15  30  51  71  94 127 165 201 239 291
#
# _framework density 9.8765429999999999
#
# number of rings (size 3 to 8) (size 9 to 14) (size 15 to 20)
#    0.000    3.250    0.000    2.625    0.000    2.750 
#    0.000    5.625    0.000    8.625    0.000    0.000 
#    0.000    0.000    0.000    0.000    0.000    0.000 
#
# Total GULP energy -178163.258182 kJ/mol
# GULP energy per Si atom -5567.601818 kJ/mol
# Density = 0.985406 g / cm^3
# Si number density = 9.876543 Si / 1000 Ang^3
#
#
#
# Elastic Constant Matrix: (Units=GPa)
#
#
# Indices 1 2 3 4 5 6 
#
# 1 57.9815 12.8415 37.7221 0.0000 0.0000 0.0000
# 2 12.8415 10.0607 10.2141 0.0000 0.0000 0.0000
# 3 37.7221 10.2141 75.8842 0.0000 0.0000 0.0000
# 4 0.0000 0.0000 0.0000 13.4004 0.0000 0.0000
# 5 0.0000 0.0000 0.0000 0.0000 19.8951 0.0000
# 6 0.0000 0.0000 0.0000 0.0000 0.0000 15.5731
#
#
#
# Elastic Compliance Matrix: (Units=1/GPa)
#
#
# Indices 1 2 3 4 5 6 
#
# 1 0.030970 -0.027683 -0.011669 0.000000 0.000000 0.000000
# 2 -0.027683 0.139875 -0.005066 0.000000 0.000000 0.000000
# 3 -0.011669 -0.005066 0.019660 0.000000 0.000000 0.000000
# 4 0.000000 0.000000 0.000000 0.074625 0.000000 0.000000
# 5 0.000000 0.000000 0.000000 0.000000 0.050264 0.000000
# 6 0.000000 0.000000 0.000000 0.000000 0.000000 0.064213
#
#
# Mechanical properties :
#
#
# Convention : Reuss Voigt Hill
#
# Bulk Modulus (GPa) = 9.83581 29.49798 19.66690
# Shear Modulus (GPa) = 9.95356 15.31698 12.63527
#
# Velocity S-wave (km/s) = 2.24720 2.78766 2.53189
# Velocity P-wave (km/s) = 3.42395 5.03261 4.30410
#
# Compressibility (1/GPa) = 0.10166929
#
# Stress axis : x y z
#
# Youngs Moduli (GPa) = 32.28968 7.14922 50.86347
#
# Poissons Ratio (x) = 0.19791 0.59352
# Poissons Ratio (y) = 0.89388 0.25768
# Poissons Ratio (z) = 0.37678 0.03622
#
# Static dielectric constant tensor:
#      x y z
#    x 1.794070 0.000000 0.000000 
#    y 0.000000 1.670410 0.000000 
#    z 0.000000 0.000000 1.691230 
# 
# From -- ./inp_files/15809.got.cif
#   From: 2010.05.17/outbox.ucp.g08.bks.cvg/sg38_8_cif.got.tgz:15809.got - 2010.06.11 10:39:43.
