data_PCOD9359127
_publ_section_title
;
Structure prediction by ZEFSAII (Michael W. Deem and Ramdas Pophale) SiO2 
 PCOD9359127
Probable space group: A M M 2
;
_chemical_formula_sum "Si O2"
_cell_formula_units_Z 34
_cell_length_a 7.946627
_cell_length_b 7.545093
_cell_length_c 27.946319
_cell_angle_alpha 90.000000
_cell_angle_beta 90.000000
_cell_angle_gamma 90.000000
_cell_volume 1675.606506
_symmetry_space_group_name_H-M "A M M 2"
_symmetry_group_IT_number 38
_symmetry_cell_setting 'orthorhombic'
loop_
_space_group_symop_operation_xyz
x,y,z
-x,-y,z
-x,y,z
x,-y,z
x,1/2+y,1/2+z
-x,1/2-y,1/2+z
-x,1/2+y,1/2+z
x,1/2-y,1/2+z
loop_
_atom_site_type_symbol
_atom_site_label
_atom_site_fract_x
_atom_site_fract_y
_atom_site_fract_z
Si Si1 0.000000 0.283306 0.120281
Si Si2 0.693868 0.286927 0.446954
Si Si3 0.000000 0.000000 0.202412
Si Si4 0.803720 0.793648 0.843104
Si Si5 0.691865 0.791392 0.553665
Si Si6 0.683784 0.000000 0.272715
O O1 0.166372 0.227976 0.090261
O O2 0.000000 0.500000 0.125718
O O3 0.000000 0.174919 0.169288
O O4 0.500000 0.227659 0.443270
O O5 0.698008 0.500000 0.447756
O O6 0.784138 0.232495 0.398227
O O7 0.755073 0.229225 0.499017
O O8 0.834710 0.000000 0.235252
O O9 0.703733 0.669367 0.807367
O O10 0.000000 0.783331 0.830258
O O11 0.750399 0.000000 0.840619
O O12 0.500000 0.716409 0.556830
O O13 0.677112 0.000000 0.562665
O O14 0.500000 0.000000 0.249759
#
# Coordination Sequence:
#
# PCOD9359127 Si02
#       6
#     4   8   2   8   8   4
#     4  10  24  44  65  89 121 159 204 272 324 375
#     4   9  18  31  51  87 130 170 208 245 296 369
#     4  12  28  48  66  98 118 154 224 276 334 388
#     4  10  21  39  63  94 135 174 210 259 314 380
#     4   9  19  36  58  88 125 166 208 248 305 374
#     4  12  26  46  70  96 128 166 216 272 331 388
#
# _framework density 20.291160999999999
#
# number of rings (size 3 to 8) (size 9 to 14) (size 15 to 20)
#    0.000    2.118    1.176    0.706    4.941    3.294 
#    0.000    0.000    0.000    0.000    0.000    0.000 
#    0.000    0.000    0.000    0.000    0.000    0.000 
#
# Total GULP energy -94893.089593 kJ/mol
# GULP energy per Si atom -5581.946447 kJ/mol
# Density = 2.024498 g / cm^3
# Si number density = 20.291161 Si / 1000 Ang^3
#
#
#
# Elastic Constant Matrix: (Units=GPa)
#
#
# Indices 1 2 3 4 5 6 
#
# 1 114.0638 33.5593 72.8253 0.0000 0.0000 0.0000
# 2 33.5593 71.1029 35.2450 0.0000 0.0000 0.0000
# 3 72.8253 35.2450 120.1786 0.0000 0.0000 0.0000
# 4 0.0000 0.0000 0.0000 35.0623 0.0000 0.0000
# 5 0.0000 0.0000 0.0000 0.0000 -44.8680 0.0000
# 6 0.0000 0.0000 0.0000 0.0000 0.0000 -8.2724
#
#
#
# Elastic Compliance Matrix: (Units=1/GPa)
#
#
# Indices 1 2 3 4 5 6 
#
# 1 0.014818 -0.002975 -0.008107 0.000000 0.000000 0.000000
# 2 -0.002975 0.017054 -0.003198 0.000000 0.000000 0.000000
# 3 -0.008107 -0.003198 0.014172 0.000000 0.000000 0.000000
# 4 0.000000 0.000000 0.000000 0.028521 0.000000 0.000000
# 5 0.000000 0.000000 0.000000 0.000000 -0.022288 0.000000
# 6 0.000000 0.000000 0.000000 0.000000 0.000000 -0.120884
#
#
# Mechanical properties :
#
#
# Convention : Reuss Voigt Hill
#
# Bulk Modulus (GPa) = 57.20089 65.40051 61.30070
# Shear Modulus (GPa) = -146.12149 7.29877 -69.41136
#
# Velocity S-wave (km/s) = -8.49522 1.89864 -5.85508
# Velocity P-wave (km/s) = 8.24462 6.09159 3.92850
#
# Compressibility (1/GPa) = 0.01748224
#
# Stress axis : x y z
#
# Youngs Moduli (GPa) = 67.48346 58.63765 70.56375
#
# Poissons Ratio (x) = 0.17448 0.57206
# Poissons Ratio (y) = 0.20080 0.22569
# Poissons Ratio (z) = 0.54709 0.18754
#
# Static dielectric constant tensor:
#      x y z
#    x 1.740610 0.000000 0.000000 
#    y 0.000000 1.731120 0.000000 
#    z 0.000000 0.000000 1.690900 
# 
# From -- ./inp_files/23167.got.cif
#   From: 2010.05.17/outbox.cif.g08.bks.cpg/sg38_12_cif.got.tgz:23167.got - 2010.06.03 18:07:57.
