data_PCOD9359882
_publ_section_title
;
Structure prediction by ZEFSAII (Michael W. Deem and Ramdas Pophale) SiO2 
 PCOD9359882
Probable space group: A B M 2
;
_chemical_formula_sum "Si O2"
_cell_formula_units_Z 64
_cell_length_a 11.882454
_cell_length_b 23.809648
_cell_length_c 12.467033
_cell_angle_alpha 90.000000
_cell_angle_beta 90.000000
_cell_angle_gamma 90.000000
_cell_volume 3527.136163
_symmetry_space_group_name_H-M "A B M 2"
_symmetry_group_IT_number 39
_symmetry_cell_setting 'orthorhombic'
loop_
_space_group_symop_operation_xyz
x,y,z
-x,-y,z
-x,1/2+y,z
x,1/2-y,z
x,1/2+y,1/2+z
-x,1/2-y,1/2+z
-x,y,1/2+z
x,-y,1/2+z
loop_
_atom_site_type_symbol
_atom_site_label
_atom_site_fract_x
_atom_site_fract_y
_atom_site_fract_z
Si Si1 0.399973 0.816568 0.141440
Si Si2 0.057081 0.812835 0.059494
Si Si3 0.190490 0.186475 0.784451
Si Si4 0.271309 0.641785 0.937749
Si Si5 0.655302 0.684053 0.205888
Si Si6 0.152740 0.891589 0.611722
Si Si7 0.860137 0.547971 0.337896
Si Si8 0.112939 0.572057 0.394954
O O1 0.608599 0.750000 0.613329
O O2 0.317293 0.824406 0.243010
O O3 0.527331 0.829285 0.173595
O O4 0.352997 0.850331 0.039150
O O5 0.017991 0.750000 0.033976
O O6 0.119064 0.812069 0.174536
O O7 0.953255 0.854159 0.074989
O O8 0.152272 0.830415 0.973941
O O9 0.183959 0.250000 0.831963
O O10 0.145559 0.133580 0.851227
O O11 0.320147 0.670684 0.830916
O O12 0.238539 0.578780 0.903105
O O13 0.674302 0.750000 0.187980
O O14 0.741526 0.648002 0.135319
O O15 0.129608 0.923829 0.721645
O O16 0.166356 0.933299 0.512538
O O17 0.844818 0.481369 0.327424
O O18 0.978409 0.562489 0.395806
#
# Coordination Sequence:
#
# PCOD9359882 Si02
#       8
#     8   8   8   8   8   8   8   8
#     4   9  19  36  60  85 113 158 205 241 287 349
#     4  10  18  31  54  84 117 152 185 231 293 357
#     4   9  19  35  56  85 116 145 188 239 288 345
#     4  10  19  37  58  83 115 158 199 241 297 351
#     4  10  21  36  56  86 122 157 198 246 291 347
#     4  11  22  36  54  86 117 146 194 241 289 348
#     4  10  23  38  57  82 116 156 197 234 290 359
#     4  11  22  38  58  85 116 154 187 241 296 352
#
# _framework density 18.145032
#
# number of rings (size 3 to 8) (size 9 to 14) (size 15 to 20)
#    0.000    2.000    2.500    2.250    0.000    6.000 
#    0.000    2.500    0.000    9.750    0.000    0.000 
#    0.000    0.000    0.000    0.000    0.000    0.000 
#
# Total GULP energy -178446.112796 kJ/mol
# GULP energy per Si atom -5576.441025 kJ/mol
# Density = 1.810373 g / cm^3
# Si number density = 18.145032 Si / 1000 Ang^3
#
#
#
# Elastic Constant Matrix: (Units=GPa)
#
#
# Indices 1 2 3 4 5 6 
#
# 1 96.8222 41.3109 39.9096 0.0000 0.0000 0.0000
# 2 41.3109 103.7747 37.8386 0.0000 0.0000 0.0000
# 3 39.9096 37.8386 73.7461 0.0000 0.0000 0.0000
# 4 0.0000 0.0000 0.0000 19.9636 0.0000 0.0000
# 5 0.0000 0.0000 0.0000 0.0000 22.5920 0.0000
# 6 0.0000 0.0000 0.0000 0.0000 0.0000 18.8441
#
#
#
# Elastic Compliance Matrix: (Units=1/GPa)
#
#
# Indices 1 2 3 4 5 6 
#
# 1 0.014270 -0.003524 -0.005914 0.000000 0.000000 0.000000
# 2 -0.003524 0.012724 -0.004622 0.000000 0.000000 0.000000
# 3 -0.005914 -0.004622 0.019132 0.000000 0.000000 0.000000
# 4 0.000000 0.000000 0.000000 0.050091 0.000000 0.000000
# 5 0.000000 0.000000 0.000000 0.000000 0.044263 0.000000
# 6 0.000000 0.000000 0.000000 0.000000 0.000000 0.053067
#
#
# Mechanical properties :
#
#
# Convention : Reuss Voigt Hill
#
# Bulk Modulus (GPa) = 55.53658 56.94013 56.23835
# Shear Modulus (GPa) = 21.96168 22.63220 22.29694
#
# Velocity S-wave (km/s) = 3.48277 3.53554 3.50925
# Velocity P-wave (km/s) = 6.84444 6.93653 6.89064
#
# Compressibility (1/GPa) = 0.01800615
#
# Stress axis : x y z
#
# Youngs Moduli (GPa) = 70.07904 78.59013 52.26848
#
# Poissons Ratio (x) = 0.27695 0.30913
# Poissons Ratio (y) = 0.24696 0.24156
# Poissons Ratio (z) = 0.41446 0.36321
#
# Static dielectric constant tensor:
#      x y z
#    x 1.613120 0.000000 0.000000 
#    y 0.000000 1.640020 0.000000 
#    z 0.000000 0.000000 1.622920 
# 
# From -- ./inp_files/6088.got.cif
#   From: 2010.05.17/outbox.cif.g08.bks.cpg/sg39_4_cif.got.tgz:6088.got - 2010.06.03 18:22:40.
