data_PCOD9359999
_publ_section_title
;
Structure prediction by ZEFSAII (Michael W. Deem and Ramdas Pophale) SiO2 
 PCOD9359999
Probable space group: A B M 2
;
_chemical_formula_sum "Si O2"
_cell_formula_units_Z 64
_cell_length_a 15.920462
_cell_length_b 8.524681
_cell_length_c 24.435150
_cell_angle_alpha 90.000000
_cell_angle_beta 90.000000
_cell_angle_gamma 90.000000
_cell_volume 3316.261830
_symmetry_space_group_name_H-M "A B M 2"
_symmetry_group_IT_number 39
_symmetry_cell_setting 'orthorhombic'
loop_
_space_group_symop_operation_xyz
x,y,z
-x,-y,z
-x,1/2+y,z
x,1/2-y,z
x,1/2+y,1/2+z
-x,1/2-y,1/2+z
-x,y,1/2+z
x,-y,1/2+z
loop_
_atom_site_type_symbol
_atom_site_label
_atom_site_fract_x
_atom_site_fract_y
_atom_site_fract_z
Si Si1 0.750752 0.939948 0.945430
Si Si2 0.409828 0.060600 0.253252
Si Si3 0.090321 0.563929 0.253541
Si Si4 0.653275 0.440736 0.635545
Si Si5 0.247404 0.938060 0.822320
Si Si6 0.590815 0.439513 0.517196
Si Si7 0.909543 0.560825 0.018124
Si Si8 0.149897 0.560201 0.637987
O O1 0.751186 0.750000 0.944112
O O2 0.752464 0.003092 0.884251
O O3 0.666780 0.989310 0.977783
O O4 0.832853 0.990570 0.979589
O O5 0.410904 0.250000 0.253018
O O6 0.391701 0.005861 0.190992
O O7 0.332058 0.009441 0.290912
O O8 0.500000 0.000000 0.271925
O O9 0.090047 0.750000 0.256497
O O10 0.166278 0.498472 0.289870
O O11 0.106528 0.510679 0.191105
O O12 0.000000 0.500000 0.271723
O O13 0.650984 0.250000 0.635194
O O14 0.611295 0.494498 0.579130
O O15 0.751554 0.483620 0.637224
O O16 0.246061 0.750000 0.821145
O O17 0.500000 0.500000 0.499889
O O18 0.589947 0.250000 0.517730
O O19 0.910048 0.750000 0.017954
O O20 0.891031 0.510543 0.080634
O O21 0.000000 0.500000 0.000161
O O22 0.145411 0.750000 0.641739
#
# Coordination Sequence:
#
# PCOD9359999 Si02
#       8
#     8   8   8   8   8   8   8   8
#     4  10  22  41  61  83 115 159 203 245 297 355
#     4  10  21  37  60  87 118 154 194 241 297 354
#     4  12  25  41  63  92 123 157 197 244 298 358
#     4   9  16  33  60  86 117 157 193 236 296 356
#     4  11  24  43  64  86 116 158 203 253 304 352
#     4  10  20  36  60  87 118 157 198 242 297 355
#     4  10  21  37  61  88 118 156 193 236 292 351
#     4  10  18  36  63  89 122 159 195 238 294 357
#
# _framework density 19.298838
#
# number of rings (size 3 to 8) (size 9 to 14) (size 15 to 20)
#    0.000    1.750    2.500    2.250    0.000    4.500 
#    0.000    4.375    0.000    0.000    0.000    0.000 
#    0.000    0.000    0.000    0.000    0.000    0.000 
#
# Total GULP energy -178818.102831 kJ/mol
# GULP energy per Si atom -5588.065713 kJ/mol
# Density = 1.925491 g / cm^3
# Si number density = 19.298838 Si / 1000 Ang^3
#
#
#
# Elastic Constant Matrix: (Units=GPa)
#
#
# Indices 1 2 3 4 5 6 
#
# 1 204.6535 34.2905 95.5710 0.0000 0.0000 0.0000
# 2 34.2905 23.9080 33.2605 0.0000 0.0000 0.0000
# 3 95.5710 33.2605 160.0024 0.0000 0.0000 0.0000
# 4 0.0000 0.0000 0.0000 26.5215 0.0000 0.0000
# 5 0.0000 0.0000 0.0000 0.0000 0.0336 0.0000
# 6 0.0000 0.0000 0.0000 0.0000 0.0000 29.8064
#
#
#
# Elastic Compliance Matrix: (Units=1/GPa)
#
#
# Indices 1 2 3 4 5 6 
#
# 1 0.007390 -0.006272 -0.003110 0.000000 0.000000 0.000000
# 2 -0.006272 0.064168 -0.009593 0.000000 0.000000 0.000000
# 3 -0.003110 -0.009593 0.010102 0.000000 0.000000 0.000000
# 4 0.000000 0.000000 0.000000 0.037705 0.000000 0.000000
# 5 0.000000 0.000000 0.000000 0.000000 29.738909 0.000000
# 6 0.000000 0.000000 0.000000 0.000000 0.000000 0.033550
#
#
# Mechanical properties :
#
#
# Convention : Reuss Voigt Hill
#
# Bulk Modulus (GPa) = 22.87821 79.42312 51.15066
# Shear Modulus (GPa) = 0.16698 26.30175 13.23436
#
# Velocity S-wave (km/s) = 0.29446 3.69571 2.62154
# Velocity P-wave (km/s) = 3.46353 7.71069 5.97707
#
# Compressibility (1/GPa) = 0.04370971
#
# Stress axis : x y z
#
# Youngs Moduli (GPa) = 135.32582 15.58417 98.99370
#
# Poissons Ratio (x) = 0.09774 0.30788
# Poissons Ratio (y) = 0.84875 0.94961
# Poissons Ratio (z) = 0.42088 0.14949
#
# Static dielectric constant tensor:
#      x y z
#    x 1.605610 0.000000 0.000000 
#    y 0.000000 1.660850 0.000000 
#    z 0.000000 0.000000 1.652930 
# 
# From -- ./inp_files/16158.got.cif
#   From: 2010.05.17/outbox.cif.g08.bks.cpg/sg39_9_cif.got.tgz:16158.got - 2010.06.03 18:22:40.
