data_PCOD9359213
_publ_section_title
;
Structure prediction by ZEFSAII (Michael W. Deem and Ramdas Pophale) SiO2 
 PCOD9359213
Probable space group: A M M 2
;
_chemical_formula_sum "Si O2"
_cell_formula_units_Z 58
_cell_length_a 15.940951
_cell_length_b 7.717393
_cell_length_c 24.542182
_cell_angle_alpha 90.000000
_cell_angle_beta 90.000000
_cell_angle_gamma 90.000000
_cell_volume 3019.242638
_symmetry_space_group_name_H-M "A M M 2"
_symmetry_group_IT_number 38
_symmetry_cell_setting 'orthorhombic'
loop_
_space_group_symop_operation_xyz
x,y,z
-x,-y,z
-x,y,z
x,-y,z
x,1/2+y,1/2+z
-x,1/2-y,1/2+z
-x,1/2+y,1/2+z
x,1/2-y,1/2+z
loop_
_atom_site_type_symbol
_atom_site_label
_atom_site_fract_x
_atom_site_fract_y
_atom_site_fract_z
Si Si1 0.594717 0.289621 0.307170
Si Si2 0.000000 0.000000 0.263563
Si Si3 0.228487 0.795255 0.147144
Si Si4 0.865672 0.690556 0.254305
Si Si5 0.092173 0.206839 0.931489
Si Si6 0.906954 0.207713 0.558809
Si Si7 0.406342 0.793916 0.180334
Si Si8 0.755488 0.799209 0.861484
O O1 0.500000 0.236026 0.320482
O O2 0.598518 0.500000 0.307459
O O3 0.611108 0.234888 0.244669
O O4 0.663876 0.223398 0.349810
O O5 0.928075 0.152180 0.261591
O O6 0.179669 0.705690 0.196387
O O7 0.171154 0.771722 0.093983
O O8 0.324922 0.730706 0.147032
O O9 0.231471 0.000000 0.159404
O O10 0.905152 0.500000 0.258631
O O11 0.797544 0.699646 0.302117
O O12 0.173663 0.279358 0.900903
O O13 0.000000 0.276061 0.913651
O O14 0.090355 0.000000 0.920797
O O15 0.099047 0.235752 0.995993
O O16 0.000000 0.266702 0.579237
O O17 0.906657 0.000000 0.560713
O O18 0.500000 0.721215 0.168964
O O19 0.411505 0.000000 0.171197
O O20 0.743681 0.000000 0.879549
#
# Coordination Sequence:
#
# PCOD9359213 Si02
#       8
#     8   2   8   8   8   8   8   8
#     4   9  16  28  49  77 108 141 177 216 263 327
#     4  12  26  40  48  78 114 156 198 224 276 352
#     4  11  21  35  55  81 111 144 186 228 276 341
#     4  11  23  38  54  79 115 151 188 233 280 336
#     4   9  18  35  55  74  97 136 185 232 279 329
#     4  10  22  38  54  76 102 138 184 233 283 328
#     4   9  18  32  51  76 109 144 179 223 272 327
#     4   9  18  33  54  78 109 143 180 224 277 329
#
# _framework density 19.210114999999998
#
# number of rings (size 3 to 8) (size 9 to 14) (size 15 to 20)
#    0.000    2.207    2.069    1.034    1.931    1.379 
#    1.241    0.000    0.000    0.828    0.000    3.862 
#    0.000    0.000    0.000    0.000    0.000    0.000 
#
# Total GULP energy -161443.819472 kJ/mol
# GULP energy per Si atom -5567.028258 kJ/mol
# Density = 1.916639 g / cm^3
# Si number density = 19.210115 Si / 1000 Ang^3
#
#
#
# Elastic Constant Matrix: (Units=GPa)
#
#
# Indices 1 2 3 4 5 6 
#
# 1 183.2269 15.4241 50.1568 0.0000 0.0000 0.0000
# 2 15.4241 73.5303 -10.2208 0.0000 0.0000 0.0000
# 3 50.1568 -10.2208 50.3298 0.0000 0.0000 0.0000
# 4 0.0000 0.0000 0.0000 10.6243 0.0000 0.0000
# 5 0.0000 0.0000 0.0000 0.0000 26.0762 0.0000
# 6 0.0000 0.0000 0.0000 0.0000 0.0000 17.2786
#
#
#
# Elastic Compliance Matrix: (Units=1/GPa)
#
#
# Indices 1 2 3 4 5 6 
#
# 1 0.008060 -0.002889 -0.008619 0.000000 0.000000 0.000000
# 2 -0.002889 0.015030 0.005931 0.000000 0.000000 0.000000
# 3 -0.008619 0.005931 0.029663 0.000000 0.000000 0.000000
# 4 0.000000 0.000000 0.000000 0.094124 0.000000 0.000000
# 5 0.000000 0.000000 0.000000 0.000000 0.038349 0.000000
# 6 0.000000 0.000000 0.000000 0.000000 0.000000 0.057875
#
#
# Mechanical properties :
#
#
# Convention : Reuss Voigt Hill
#
# Bulk Modulus (GPa) = 24.03851 46.42302 35.23076
# Shear Modulus (GPa) = 18.64818 27.57760 23.11289
#
# Velocity S-wave (km/s) = 3.11906 3.79301 3.47243
# Velocity P-wave (km/s) = 5.05094 6.58794 5.86997
#
# Compressibility (1/GPa) = 0.04159992
#
# Stress axis : x y z
#
# Youngs Moduli (GPa) = 124.06361 66.53237 33.71180
#
# Poissons Ratio (x) = 0.19220 0.29057
# Poissons Ratio (y) = 0.35841 -0.19995
# Poissons Ratio (z) = 1.06935 -0.39462
#
# Static dielectric constant tensor:
#      x y z
#    x 1.732810 0.000000 0.000000 
#    y 0.000000 1.696470 0.000000 
#    z 0.000000 0.000000 1.631770 
# 
# From -- ./inp_files/22866.got.cif
#   From: 2010.05.17/outbox.cif.g08.bks.cpg/sg38_12_cif.got.tgz:22866.got - 2010.06.03 18:07:57.
