data_PCOD9359098
_publ_section_title
;
Structure prediction by ZEFSAII (Michael W. Deem and Ramdas Pophale) SiO2 
 PCOD9359098
Probable space group: A M M 2
;
_chemical_formula_sum "Si O2"
_cell_formula_units_Z 64
_cell_length_a 7.843401
_cell_length_b 31.831900
_cell_length_c 12.238836
_cell_angle_alpha 90.000000
_cell_angle_beta 90.000000
_cell_angle_gamma 90.000000
_cell_volume 3055.674545
_symmetry_space_group_name_H-M "A M M 2"
_symmetry_group_IT_number 38
_symmetry_cell_setting 'orthorhombic'
loop_
_space_group_symop_operation_xyz
x,y,z
-x,-y,z
-x,y,z
x,-y,z
x,1/2+y,1/2+z
-x,1/2-y,1/2+z
-x,1/2+y,1/2+z
x,1/2-y,1/2+z
loop_
_atom_site_type_symbol
_atom_site_label
_atom_site_fract_x
_atom_site_fract_y
_atom_site_fract_z
Si Si1 0.196848 0.337938 0.461680
Si Si2 0.700194 0.197925 0.734707
Si Si3 0.708275 0.453436 0.214824
Si Si4 0.293767 0.374314 0.070899
Si Si5 0.200433 0.545714 0.696447
Si Si6 0.304176 0.432060 0.456952
Si Si7 0.793430 0.292327 0.681099
Si Si8 0.203232 0.371883 0.818113
O O1 0.209865 0.314254 0.347268
O O2 0.296170 0.381563 0.456349
O O3 0.255281 0.308638 0.560842
O O4 0.000000 0.349378 0.484462
O O5 0.500000 0.189216 0.751263
O O6 0.760717 0.166992 0.638193
O O7 0.724682 0.246385 0.706131
O O8 0.500000 0.451603 0.217382
O O9 0.757540 0.500000 0.176968
O O10 0.765142 0.415527 0.137412
O O11 0.766133 0.446795 0.339977
O O12 0.500000 0.374867 0.069099
O O13 0.234053 0.373911 0.946670
O O14 0.274845 0.500000 0.725677
O O15 0.215363 0.552133 0.566388
O O16 0.273954 0.586658 0.757161
O O17 0.000000 0.544410 0.724117
O O18 0.500000 0.446120 0.463686
O O19 0.733355 0.328445 0.764957
O O20 0.000000 0.289414 0.685802
O O21 0.000000 0.371561 0.798040
#
# Coordination Sequence:
#
# PCOD9359098 Si02
#       8
#     8   8   8   8   8   8   8   8
#     4  11  22  40  65  90 120 157 199 242 296 357
#     4  11  24  41  61  90 123 153 193 245 301 351
#     4   9  18  35  58  83 116 154 188 232 291 348
#     4  10  22  40  58  84 118 154 195 242 294 349
#     4  10  21  39  61  86 120 159 197 244 302 358
#     4  11  20  35  60  91 124 154 195 245 298 352
#     4  10  23  42  62  86 117 156 199 241 291 352
#     4  10  22  41  60  83 116 156 199 243 292 350
#
# _framework density 20.944638999999999
#
# number of rings (size 3 to 8) (size 9 to 14) (size 15 to 20)
#    0.000    1.750    2.500    1.500    1.750    4.250 
#    0.000    0.000    0.000    1.500    0.000    0.000 
#    0.000    0.000    0.000    0.000    0.000    0.000 
#
# Total GULP energy -178821.310648 kJ/mol
# GULP energy per Si atom -5588.165958 kJ/mol
# Density = 2.089697 g / cm^3
# Si number density = 20.944639 Si / 1000 Ang^3
#
#
#
# Elastic Constant Matrix: (Units=GPa)
#
#
# Indices 1 2 3 4 5 6 
#
# 1 26.5386 -0.4269 -8.0583 0.0000 0.0000 0.0000
# 2 -0.4269 184.0826 69.1039 0.0000 0.0000 0.0000
# 3 -8.0583 69.1039 126.0702 0.0000 0.0000 0.0000
# 4 0.0000 0.0000 0.0000 -73.1675 0.0000 0.0000
# 5 0.0000 0.0000 0.0000 0.0000 22.8717 0.0000
# 6 0.0000 0.0000 0.0000 0.0000 0.0000 13.8056
#
#
#
# Elastic Compliance Matrix: (Units=1/GPa)
#
#
# Indices 1 2 3 4 5 6 
#
# 1 0.038588 -0.001053 0.003044 0.000000 0.000000 0.000000
# 2 -0.001053 0.006868 -0.003832 0.000000 0.000000 0.000000
# 3 0.003044 -0.003832 0.010227 0.000000 0.000000 0.000000
# 4 0.000000 0.000000 0.000000 -0.013667 0.000000 0.000000
# 5 0.000000 0.000000 0.000000 0.000000 0.043722 0.000000
# 6 0.000000 0.000000 0.000000 0.000000 0.000000 0.072435
#
#
# Mechanical properties :
#
#
# Convention : Reuss Voigt Hill
#
# Bulk Modulus (GPa) = 19.23045 50.88099 35.05572
# Shear Modulus (GPa) = 27.90332 11.10680 19.50506
#
# Velocity S-wave (km/s) = 3.65395 2.30531 3.05498
# Velocity P-wave (km/s) = 5.19647 5.60640 5.40532
#
# Compressibility (1/GPa) = 0.05200085
#
# Stress axis : x y z
#
# Youngs Moduli (GPa) = 25.91462 145.59232 97.77829
#
# Poissons Ratio (x) = 0.15333 -0.29762
# Poissons Ratio (y) = 0.02729 0.37471
# Poissons Ratio (z) = -0.07888 0.55794
#
# Static dielectric constant tensor:
#      x y z
#    x 1.784610 0.000000 0.000000 
#    y 0.000000 1.802390 0.000000 
#    z 0.000000 0.000000 1.705430 
# 
# From -- ./inp_files/8531.got.cif
#   From: 2010.05.17/outbox.cif.g08.bks.cpg/sg38_5_cif.got.tgz:8531.got - 2010.06.03 18:07:57.
