data_PCOD9359978
_publ_section_title
;
Structure prediction by ZEFSAII (Michael W. Deem and Ramdas Pophale) SiO2 
 PCOD9359978
Probable space group: A B M 2
;
_chemical_formula_sum "Si O2"
_cell_formula_units_Z 64
_cell_length_a 24.416929
_cell_length_b 8.502142
_cell_length_c 15.966393
_cell_angle_alpha 90.000000
_cell_angle_beta 90.000000
_cell_angle_gamma 90.000000
_cell_volume 3314.562476
_symmetry_space_group_name_H-M "A B M 2"
_symmetry_group_IT_number 39
_symmetry_cell_setting 'orthorhombic'
loop_
_space_group_symop_operation_xyz
x,y,z
-x,-y,z
-x,1/2+y,z
x,1/2-y,z
x,1/2+y,1/2+z
-x,1/2-y,1/2+z
-x,y,1/2+z
x,-y,1/2+z
loop_
_atom_site_type_symbol
_atom_site_label
_atom_site_fract_x
_atom_site_fract_y
_atom_site_fract_z
Si Si1 0.747535 0.060860 0.270930
Si Si2 0.631678 0.062746 0.825574
Si Si3 0.131105 0.440124 0.828568
Si Si4 0.938359 0.561544 0.172706
Si Si5 0.249257 0.439238 0.573387
Si Si6 0.561426 0.437901 0.171027
Si Si7 0.631492 0.557994 0.512053
Si Si8 0.866883 0.939352 0.015090
O O1 0.741034 0.250000 0.278379
O O2 0.805652 0.015847 0.310760
O O3 0.749181 0.022239 0.172143
O O4 0.695318 0.979524 0.311961
O O5 0.624922 0.250000 0.821151
O O6 0.596611 0.987329 0.751563
O O7 0.615138 0.008224 0.918777
O O8 0.128193 0.250000 0.824415
O O9 0.093135 0.507476 0.755974
O O10 0.115817 0.492434 0.922321
O O11 0.938982 0.750000 0.170536
O O12 0.904814 0.502927 0.091116
O O13 0.000000 0.500000 0.171813
O O14 0.245825 0.250000 0.566501
O O15 0.306249 0.491591 0.532154
O O16 0.195466 0.511403 0.532450
O O17 0.500000 0.500000 0.176177
O O18 0.560257 0.250000 0.167610
O O19 0.592012 0.495612 0.086726
O O20 0.631614 0.750000 0.513149
O O21 0.869111 0.750000 0.015200
#
# Coordination Sequence:
#
# PCOD9359978 Si02
#       8
#     8   8   8   8   8   8   8   8
#     4  10  19  34  59  88 121 158 190 232 290 345
#     4  11  22  37  60  90 119 153 194 238 286 342
#     4  10  21  39  61  87 120 155 192 236 289 347
#     4  11  24  41  60  83 113 151 196 244 291 341
#     4  10  18  34  60  87 117 157 192 229 287 346
#     4  11  23  43  63  83 115 153 196 243 291 346
#     4   9  20  38  59  84 119 154 190 234 284 343
#     4  10  22  38  58  88 121 150 188 239 288 341
#
# _framework density 19.308731999999999
#
# number of rings (size 3 to 8) (size 9 to 14) (size 15 to 20)
#    0.000    1.750    2.500    1.875    0.000    3.000 
#    0.000    5.625    0.000    0.000    0.000    0.000 
#    0.000    0.000    0.000    0.000    0.000    0.000 
#
# Total GULP energy -178795.012715 kJ/mol
# GULP energy per Si atom -5587.344147 kJ/mol
# Density = 1.926478 g / cm^3
# Si number density = 19.308732 Si / 1000 Ang^3
#
#
#
# Elastic Constant Matrix: (Units=GPa)
#
#
# Indices 1 2 3 4 5 6 
#
# 1 133.1129 23.3941 71.6039 0.0000 0.0000 0.0000
# 2 23.3941 19.1923 31.5727 0.0000 0.0000 0.0000
# 3 71.6039 31.5727 176.4073 0.0000 0.0000 0.0000
# 4 0.0000 0.0000 0.0000 7.1676 0.0000 0.0000
# 5 0.0000 0.0000 0.0000 0.0000 -1.2055 0.0000
# 6 0.0000 0.0000 0.0000 0.0000 0.0000 34.6749
#
#
#
# Elastic Compliance Matrix: (Units=1/GPa)
#
#
# Indices 1 2 3 4 5 6 
#
# 1 0.010440 -0.008156 -0.002778 0.000000 0.000000 0.000000
# 2 -0.008156 0.080218 -0.011047 0.000000 0.000000 0.000000
# 3 -0.002778 -0.011047 0.008773 0.000000 0.000000 0.000000
# 4 0.000000 0.000000 0.000000 0.139516 0.000000 0.000000
# 5 0.000000 0.000000 0.000000 0.000000 -0.829507 0.000000
# 6 0.000000 0.000000 0.000000 0.000000 0.000000 0.028839
#
#
# Mechanical properties :
#
#
# Convention : Reuss Voigt Hill
#
# Bulk Modulus (GPa) = 18.02755 64.65044 41.33899
# Shear Modulus (GPa) = -10.01463 21.60353 5.79445
#
# Velocity S-wave (km/s) = -2.27988 3.34855 1.73420
# Velocity P-wave (km/s) = 1.55765 6.96459 5.04638
#
# Compressibility (1/GPa) = 0.05547066
#
# Stress axis : x y z
#
# Youngs Moduli (GPa) = 95.78474 12.46602 113.98132
#
# Poissons Ratio (x) = 0.10167 0.31663
# Poissons Ratio (y) = 0.78120 1.25912
# Poissons Ratio (z) = 0.26608 0.13771
#
# Static dielectric constant tensor:
#      x y z
#    x 1.631580 0.000000 0.000000 
#    y 0.000000 1.664270 0.000000 
#    z 0.000000 0.000000 1.683610 
# 
# From -- ./inp_files/10592.got.cif
#   From: 2010.05.17/outbox.cif.g08.bks.cpg/sg39_6_cif.got.tgz:10592.got - 2010.06.03 18:22:40.
