data_PCOD9359580
_publ_section_title
;
Structure prediction by ZEFSAII (Michael W. Deem and Ramdas Pophale) SiO2 
 PCOD9359580
Probable space group: A M M 2
;
_chemical_formula_sum "Si O2"
_cell_formula_units_Z 32
_cell_length_a 9.000000
_cell_length_b 30.000000
_cell_length_c 12.000000
_cell_angle_alpha 90.000000
_cell_angle_beta 90.000000
_cell_angle_gamma 90.000000
_cell_volume 3240.000000
_symmetry_space_group_name_H-M "A M M 2"
_symmetry_group_IT_number 38
_symmetry_cell_setting 'orthorhombic'
loop_
_space_group_symop_operation_xyz
x,y,z
-x,-y,z
-x,y,z
x,-y,z
x,1/2+y,1/2+z
-x,1/2-y,1/2+z
-x,1/2+y,1/2+z
x,1/2-y,1/2+z
loop_
_atom_site_type_symbol
_atom_site_label
_atom_site_fract_x
_atom_site_fract_y
_atom_site_fract_z
Si Si1 0.666847 0.725683 0.950620
Si Si2 0.177632 0.550920 0.443335
Si Si3 0.832983 0.911152 0.513700
Si Si4 0.821452 0.867950 0.089120
Si Si5 0.331468 0.131965 0.321480
Si Si6 0.823125 0.189730 0.883394
Si Si7 0.664526 0.447020 0.220165
Si Si8 0.830522 0.816743 0.639935
O O1 0.500000 0.743755 0.949391
O O2 0.666781 0.678300 0.889201
O O3 0.778377 0.759085 0.891604
O O4 0.725495 0.716927 0.074821
O O5 0.223611 0.500000 0.462458
O O6 0.215593 0.582807 0.544810
O O7 0.245830 0.568734 0.328232
O O8 0.000000 0.551908 0.429327
O O9 0.752523 0.904127 0.396960
O O10 0.744779 0.939176 0.603953
O O11 0.838062 0.862232 0.570763
O O12 0.000000 0.927623 0.499543
O O13 0.750043 0.859454 0.206732
O O14 0.000000 0.864051 0.098070
O O15 0.765114 0.835186 0.992164
O O16 0.500000 0.117876 0.302665
O O17 0.773166 0.173051 0.763030
O O18 0.000000 0.183672 0.886033
O O19 0.500000 0.427214 0.217248
O O20 0.654176 0.500000 0.234972
O O21 0.000000 0.798884 0.646038
#
# Coordination Sequence:
#
# PCOD9359580 Si02
#       8
#     8   8   8   8   8   8   8   8
#     4  10  22  37  53  76 107 140 179 226 277 331
#     4   9  18  35  59  85 114 147 186 234 283 331
#     4  10  19  35  59  81 105 140 184 229 272 326
#     4  10  21  37  57  83 111 145 190 235 279 335
#     4  10  22  39  56  77 109 148 187 230 282 339
#     4  10  21  35  54  79 107 139 179 226 273 328
#     4  10  20  33  53  84 119 149 179 222 278 336
#     4   9  19  36  56  78 102 134 177 222 270 321
#
# _framework density 9.8765429999999999
#
# number of rings (size 3 to 8) (size 9 to 14) (size 15 to 20)
#    0.000    2.250    0.000    2.250    1.750    6.250 
#    0.000    1.875    0.000    2.250    0.000    0.000 
#    0.000    0.000    0.000    0.000    0.000    0.000 
#
# Total GULP energy -178380.129609 kJ/mol
# GULP energy per Si atom -5574.379050 kJ/mol
# Density = 0.985406 g / cm^3
# Si number density = 9.876543 Si / 1000 Ang^3
#
#
#
# Elastic Constant Matrix: (Units=GPa)
#
#
# Indices 1 2 3 4 5 6 
#
# 1 9.9215 10.2937 40.7322 0.0000 0.0000 0.0000
# 2 10.2937 12.0624 1.3432 0.0000 0.0000 0.0000
# 3 40.7322 1.3432 111.6109 0.0000 0.0000 0.0000
# 4 0.0000 0.0000 0.0000 9.4980 0.0000 0.0000
# 5 0.0000 0.0000 0.0000 0.0000 36.6546 0.0000
# 6 0.0000 0.0000 0.0000 0.0000 0.0000 0.2353
#
#
#
# Elastic Compliance Matrix: (Units=1/GPa)
#
#
# Indices 1 2 3 4 5 6 
#
# 1 -0.077388 0.062980 0.027485 0.000000 0.000000 0.000000
# 2 0.062980 0.031759 -0.023367 0.000000 0.000000 0.000000
# 3 0.027485 -0.023367 -0.000790 0.000000 0.000000 0.000000
# 4 0.000000 0.000000 0.000000 0.105285 0.000000 0.000000
# 5 0.000000 0.000000 0.000000 0.000000 0.027282 0.000000
# 6 0.000000 0.000000 0.000000 0.000000 0.000000 4.250786
#
#
# Mechanical properties :
#
#
# Convention : Reuss Voigt Hill
#
# Bulk Modulus (GPa) = 11.39243 26.48144 18.93693
# Shear Modulus (GPa) = 1.18147 14.69261 7.93704
#
# Velocity S-wave (km/s) = 0.77422 2.73025 2.00670
# Velocity P-wave (km/s) = 2.56499 4.83471 3.86998
#
# Compressibility (1/GPa) = 0.08777762
#
# Stress axis : x y z
#
# Youngs Moduli (GPa) = -12.92196 31.48707 -1266.61618
#
# Poissons Ratio (x) = -1.98305 34.81233
# Poissons Ratio (y) = 0.81382 -29.59653
# Poissons Ratio (z) = 0.35515 0.73575
#
# Static dielectric constant tensor:
#      x y z
#    x 1.715210 0.000000 0.000000 
#    y 0.000000 1.718410 0.000000 
#    z 0.000000 0.000000 1.687500 
# 
# From -- ./inp_files/8547.got.cif
#   From: 2010.05.17/outbox.ucp.g08.bks.cvg/sg38_5_cif.got.tgz:8547.got - 2010.06.11 10:39:43.
