data_PCOD9359041
_publ_section_title
;
Structure prediction by ZEFSAII (Michael W. Deem and Ramdas Pophale) SiO2 
 PCOD9359041
Probable space group: A M M 2
;
_chemical_formula_sum "Si O2"
_cell_formula_units_Z 48
_cell_length_a 17.789517
_cell_length_b 8.884030
_cell_length_c 15.608887
_cell_angle_alpha 90.000000
_cell_angle_beta 90.000000
_cell_angle_gamma 90.000000
_cell_volume 2466.869127
_symmetry_space_group_name_H-M "A M M 2"
_symmetry_group_IT_number 38
_symmetry_cell_setting 'orthorhombic'
loop_
_space_group_symop_operation_xyz
x,y,z
-x,-y,z
-x,y,z
x,-y,z
x,1/2+y,1/2+z
-x,1/2-y,1/2+z
-x,1/2+y,1/2+z
x,1/2-y,1/2+z
loop_
_atom_site_type_symbol
_atom_site_label
_atom_site_fract_x
_atom_site_fract_y
_atom_site_fract_z
Si Si1 0.000000 0.323323 0.655360
Si Si2 0.587057 0.318503 0.752450
Si Si3 0.845469 0.831129 0.389724
Si Si4 0.697500 0.318995 0.598661
Si Si5 0.000000 0.824059 0.836343
Si Si6 0.147137 0.669614 0.093738
Si Si7 0.689596 0.820125 0.897492
O O1 0.923796 0.277422 0.607587
O O2 0.000000 0.500000 0.676551
O O3 0.000000 0.215860 0.737016
O O4 0.500000 0.273549 0.746680
O O5 0.590455 0.500000 0.759657
O O6 0.632804 0.277555 0.666136
O O7 0.627000 0.248510 0.835446
O O8 0.842683 0.842607 0.492093
O O9 0.770507 0.741346 0.365717
O O10 0.923482 0.750490 0.369660
O O11 0.844738 0.000000 0.352368
O O12 0.707666 0.500000 0.600838
O O13 0.775344 0.240706 0.626540
O O14 0.680395 0.279373 0.498825
O O15 0.000000 0.000000 0.854935
O O16 0.134071 0.500000 0.127894
O O17 0.688742 0.000000 0.892248
#
# Coordination Sequence:
#
# PCOD9359041 Si02
#       7
#     4   8   8   8   4   8   8
#     4  12  25  38  55  81 117 159 199 240 293 350
#     4  10  22  40  62  88 120 158 197 243 303 369
#     4  10  21  39  61  84 115 156 196 239 297 356
#     4   9  20  39  62  87 118 159 203 243 296 362
#     4  12  25  38  55  83 117 153 199 250 293 340
#     4  10  21  38  60  85 115 151 195 245 294 346
#     4  10  21  38  62  91 121 156 200 250 299 354
#
# _framework density 19.457861999999999
#
# number of rings (size 3 to 8) (size 9 to 14) (size 15 to 20)
#    0.000    1.833    0.000    3.500    2.333    6.333 
#    0.000    1.667    0.000    0.000    0.000    0.000 
#    0.000    0.000    0.000    0.000    0.000    0.000 
#
# Total GULP energy -134002.547501 kJ/mol
# GULP energy per Si atom -5583.439479 kJ/mol
# Density = 1.941357 g / cm^3
# Si number density = 19.457862 Si / 1000 Ang^3
#
#
#
# Elastic Constant Matrix: (Units=GPa)
#
#
# Indices 1 2 3 4 5 6 
#
# 1 183.0725 52.9538 57.6691 0.0000 0.0000 0.0000
# 2 52.9538 56.4788 27.8448 0.0000 0.0000 0.0000
# 3 57.6691 27.8448 63.8257 0.0000 0.0000 0.0000
# 4 0.0000 0.0000 0.0000 30.9673 0.0000 0.0000
# 5 0.0000 0.0000 0.0000 0.0000 36.2062 0.0000
# 6 0.0000 0.0000 0.0000 0.0000 0.0000 36.4386
#
#
#
# Elastic Compliance Matrix: (Units=1/GPa)
#
#
# Indices 1 2 3 4 5 6 
#
# 1 0.008808 -0.005522 -0.005549 0.000000 0.000000 0.000000
# 2 -0.005522 0.026020 -0.006362 0.000000 0.000000 0.000000
# 3 -0.005549 -0.006362 0.023457 0.000000 0.000000 0.000000
# 4 0.000000 0.000000 0.000000 0.032292 0.000000 0.000000
# 5 0.000000 0.000000 0.000000 0.000000 0.027620 0.000000
# 6 0.000000 0.000000 0.000000 0.000000 0.000000 0.027443
#
#
# Mechanical properties :
#
#
# Convention : Reuss Voigt Hill
#
# Bulk Modulus (GPa) = 42.70191 64.47914 53.59053
# Shear Modulus (GPa) = 26.55178 31.71638 29.13408
#
# Velocity S-wave (km/s) = 3.69803 4.04171 3.87368
# Velocity P-wave (km/s) = 6.34250 7.41555 6.89992
#
# Compressibility (1/GPa) = 0.02341816
#
# Stress axis : x y z
#
# Youngs Moduli (GPa) = 113.53912 38.43221 42.63160
#
# Poissons Ratio (x) = 0.21223 0.23656
# Poissons Ratio (y) = 0.62698 0.27122
# Poissons Ratio (z) = 0.63001 0.24450
#
# Static dielectric constant tensor:
#      x y z
#    x 1.725020 0.000000 0.000000 
#    y 0.000000 1.678510 0.000000 
#    z 0.000000 0.000000 1.703890 
# 
# From -- ./inp_files/18189.got.cif
#   From: 2010.05.17/outbox.cif.g08.bks.cpg/sg38_10_cif.got.tgz:18189.got - 2010.06.03 18:07:57.
