data_PCOD9359848
_publ_section_title
;
Structure prediction by ZEFSAII (Michael W. Deem and Ramdas Pophale) SiO2 
 PCOD9359848
Probable space group: A B M 2
;
_chemical_formula_sum "Si O2"
_cell_formula_units_Z 64
_cell_length_a 25.388098
_cell_length_b 8.111603
_cell_length_c 14.591221
_cell_angle_alpha 90.000000
_cell_angle_beta 90.000000
_cell_angle_gamma 90.000000
_cell_volume 3004.889379
_symmetry_space_group_name_H-M "A B M 2"
_symmetry_group_IT_number 39
_symmetry_cell_setting 'orthorhombic'
loop_
_space_group_symop_operation_xyz
x,y,z
-x,-y,z
-x,1/2+y,z
x,1/2-y,z
x,1/2+y,1/2+z
-x,1/2-y,1/2+z
-x,y,1/2+z
x,-y,1/2+z
loop_
_atom_site_type_symbol
_atom_site_label
_atom_site_fract_x
_atom_site_fract_y
_atom_site_fract_z
Si Si1 0.628303 0.051231 0.464110
Si Si2 0.866844 0.054250 0.325068
Si Si3 0.059183 0.553467 0.675601
Si Si4 0.243830 0.941018 0.808497
Si Si5 0.851979 0.451963 0.535578
Si Si6 0.558755 0.445616 0.118411
Si Si7 0.261392 0.941382 0.511810
Si Si8 0.648939 0.949421 0.754804
O O1 0.631156 0.250000 0.465107
O O2 0.680159 0.984633 0.518313
O O3 0.632786 0.000006 0.358447
O O4 0.576469 0.997620 0.516898
O O5 0.859977 0.250000 0.321646
O O6 0.866102 0.001910 0.431185
O O7 0.919845 0.006184 0.273654
O O8 0.815747 0.972664 0.277165
O O9 0.060973 0.750000 0.673530
O O10 0.102643 0.489830 0.603327
O O11 0.000000 0.500000 0.655820
O O12 0.249077 0.750000 0.833774
O O13 0.251255 0.048758 0.901143
O O14 0.291579 0.986021 0.741120
O O15 0.850177 0.250000 0.538904
O O16 0.792218 0.512711 0.553830
O O17 0.500000 0.500000 0.141116
O O18 0.560341 0.250000 0.124605
O O19 0.604136 0.511981 0.186262
O O20 0.264288 0.750000 0.539802
O O21 0.650796 0.750000 0.751491
#
# Coordination Sequence:
#
# PCOD9359848 Si02
#       8
#     8   8   8   8   8   8   8   8
#     4   9  18  35  59  84 112 144 178 220 278 334
#     4  10  20  38  60  83 113 149 183 225 278 329
#     4  11  23  39  56  80 110 145 191 236 276 326
#     4  10  18  30  54  88 117 143 179 224 271 329
#     4   8  17  35  59  82 109 144 181 221 273 329
#     4  11  24  40  57  79 109 144 189 235 276 325
#     4   8  15  32  56  81 111 146 179 219 273 332
#     4   9  20  39  59  81 112 149 182 222 276 332
#
# _framework density 21.298622000000002
#
# number of rings (size 3 to 8) (size 9 to 14) (size 15 to 20)
#    0.000    2.500    0.000    3.750    0.000    5.000 
#    0.000   10.000    0.000    0.000    0.000    0.000 
#    0.000    0.000    0.000    0.000    0.000    0.000 
#
# Total GULP energy -178632.438063 kJ/mol
# GULP energy per Si atom -5582.263689 kJ/mol
# Density = 2.125015 g / cm^3
# Si number density = 21.298622 Si / 1000 Ang^3
#
#
#
# Elastic Constant Matrix: (Units=GPa)
#
#
# Indices 1 2 3 4 5 6 
#
# 1 117.7750 6.2904 27.6066 0.0000 0.0000 0.0000
# 2 6.2904 35.5540 4.6551 0.0000 0.0000 0.0000
# 3 27.6066 4.6551 51.3126 0.0000 0.0000 0.0000
# 4 0.0000 0.0000 0.0000 11.7677 0.0000 0.0000
# 5 0.0000 0.0000 0.0000 0.0000 33.4702 0.0000
# 6 0.0000 0.0000 0.0000 0.0000 0.0000 17.6828
#
#
#
# Elastic Compliance Matrix: (Units=1/GPa)
#
#
# Indices 1 2 3 4 5 6 
#
# 1 0.009755 -0.001051 -0.005153 0.000000 0.000000 0.000000
# 2 -0.001051 0.028578 -0.002027 0.000000 0.000000 0.000000
# 3 -0.005153 -0.002027 0.022445 0.000000 0.000000 0.000000
# 4 0.000000 0.000000 0.000000 0.084979 0.000000 0.000000
# 5 0.000000 0.000000 0.000000 0.000000 0.029877 0.000000
# 6 0.000000 0.000000 0.000000 0.000000 0.000000 0.056552
#
#
# Mechanical properties :
#
#
# Convention : Reuss Voigt Hill
#
# Bulk Modulus (GPa) = 22.56581 31.30512 26.93546
# Shear Modulus (GPa) = 18.98119 23.65676 21.31898
#
# Velocity S-wave (km/s) = 2.98853 3.33636 3.16722
# Velocity P-wave (km/s) = 4.74619 5.43800 5.10383
#
# Compressibility (1/GPa) = 0.04431483
#
# Stress axis : x y z
#
# Youngs Moduli (GPa) = 102.51445 34.99246 44.55428
#
# Poissons Ratio (x) = 0.03678 0.22958
# Poissons Ratio (y) = 0.10776 0.09031
# Poissons Ratio (z) = 0.52823 0.07093
#
# Static dielectric constant tensor:
#      x y z
#    x 1.797500 0.000000 0.000000 
#    y 0.000000 1.742960 0.000000 
#    z 0.000000 0.000000 1.797650 
# 
# From -- ./inp_files/10654.got.cif
#   From: 2010.05.17/outbox.cif.g08.bks.cpg/sg39_6_cif.got.tgz:10654.got - 2010.06.03 18:22:40.
