data_PCOD9359121
_publ_section_title
;
Structure prediction by ZEFSAII (Michael W. Deem and Ramdas Pophale) SiO2 
 PCOD9359121
Probable space group: A M M 2
;
_chemical_formula_sum "Si O2"
_cell_formula_units_Z 48
_cell_length_a 19.179500
_cell_length_b 8.709138
_cell_length_c 15.655233
_cell_angle_alpha 90.000000
_cell_angle_beta 90.000000
_cell_angle_gamma 90.000000
_cell_volume 2615.001781
_symmetry_space_group_name_H-M "A M M 2"
_symmetry_group_IT_number 38
_symmetry_cell_setting 'orthorhombic'
loop_
_space_group_symop_operation_xyz
x,y,z
-x,-y,z
-x,y,z
x,-y,z
x,1/2+y,1/2+z
-x,1/2-y,1/2+z
-x,1/2+y,1/2+z
x,1/2-y,1/2+z
loop_
_atom_site_type_symbol
_atom_site_label
_atom_site_fract_x
_atom_site_fract_y
_atom_site_fract_z
Si Si1 0.676289 0.815867 0.342460
Si Si2 0.918367 0.683806 0.004070
Si Si3 0.918179 0.316322 0.690355
Si Si4 0.418189 0.315396 0.491395
Si Si5 0.579304 0.186762 0.186919
Si Si6 0.168802 0.317075 0.347200
O O1 0.630871 0.767263 0.424131
O O2 0.633842 0.763189 0.258198
O O3 0.752198 0.742177 0.346131
O O4 0.682931 0.000000 0.339494
O O5 0.911626 0.500000 0.005716
O O6 0.900389 0.751669 0.096835
O O7 0.000000 0.720967 0.987434
O O8 0.870916 0.752296 0.930048
O O9 0.910363 0.500000 0.690925
O O10 0.871269 0.243854 0.763696
O O11 0.000000 0.280540 0.706223
O O12 0.500000 0.282481 0.474920
O O13 0.409099 0.500000 0.484944
O O14 0.403353 0.269210 0.589613
O O15 0.500000 0.237622 0.206406
O O16 0.578256 0.000000 0.188011
O O17 0.167320 0.500000 0.348832
#
# Coordination Sequence:
#
# PCOD9359121 Si02
#       6
#     8   8   8   8   8   8
#     4  11  22  36  55  80 112 147 187 234 283 338
#     4  10  21  39  63  89 115 145 187 238 288 340
#     4  10  21  39  63  89 116 148 188 233 283 341
#     4   9  18  35  58  82 109 142 182 228 280 341
#     4   8  16  33  57  81 105 139 181 223 272 332
#     4  12  25  39  56  81 117 157 195 236 286 341
#
# _framework density 18.355626999999998
#
# number of rings (size 3 to 8) (size 9 to 14) (size 15 to 20)
#    0.000    2.000    0.000    5.000    0.000    6.333 
#    0.000    6.667    0.000    2.000    0.000    0.000 
#    0.000    0.000    0.000    0.000    0.000    0.000 
#
# Total GULP energy -134084.068634 kJ/mol
# GULP energy per Si atom -5586.836193 kJ/mol
# Density = 1.831385 g / cm^3
# Si number density = 18.355627 Si / 1000 Ang^3
#
#
#
# Elastic Constant Matrix: (Units=GPa)
#
#
# Indices 1 2 3 4 5 6 
#
# 1 124.3940 58.9331 120.5052 0.0000 0.0000 0.0000
# 2 58.9331 66.7168 59.6072 0.0000 0.0000 0.0000
# 3 120.5052 59.6072 166.5568 0.0000 0.0000 0.0000
# 4 0.0000 0.0000 0.0000 35.3243 0.0000 0.0000
# 5 0.0000 0.0000 0.0000 0.0000 10.7834 0.0000
# 6 0.0000 0.0000 0.0000 0.0000 0.0000 24.0750
#
#
#
# Elastic Compliance Matrix: (Units=1/GPa)
#
#
# Indices 1 2 3 4 5 6 
#
# 1 0.031544 -0.010986 -0.018890 0.000000 0.000000 0.000000
# 2 -0.010986 0.025860 -0.001306 0.000000 0.000000 0.000000
# 3 -0.018890 -0.001306 0.020139 0.000000 0.000000 0.000000
# 4 0.000000 0.000000 0.000000 0.028309 0.000000 0.000000
# 5 0.000000 0.000000 0.000000 0.000000 0.092735 0.000000
# 6 0.000000 0.000000 0.000000 0.000000 0.000000 0.041537
#
#
# Mechanical properties :
#
#
# Convention : Reuss Voigt Hill
#
# Bulk Modulus (GPa) = 65.88893 92.86207 79.37550
# Shear Modulus (GPa) = 16.25764 21.94470 19.10117
#
# Velocity S-wave (km/s) = 2.97931 3.46139 3.22936
# Velocity P-wave (km/s) = 6.91438 8.16550 7.56585
#
# Compressibility (1/GPa) = 0.01517706
#
# Stress axis : x y z
#
# Youngs Moduli (GPa) = 31.70221 38.66949 49.65557
#
# Poissons Ratio (x) = 0.42483 0.93801
# Poissons Ratio (y) = 0.34828 0.06486
# Poissons Ratio (z) = 0.59886 0.05051
#
# Static dielectric constant tensor:
#      x y z
#    x 1.603610 0.000000 0.000000 
#    y 0.000000 1.614920 0.000000 
#    z 0.000000 0.000000 1.609430 
# 
# From -- ./inp_files/14979.got.cif
#   From: 2010.05.17/outbox.cif.g08.bks.cpg/sg38_8_cif.got.tgz:14979.got - 2010.06.03 18:07:57.
