data_PCOD9359419
_publ_section_title
;
Structure prediction by ZEFSAII (Michael W. Deem and Ramdas Pophale) SiO2 
 PCOD9359419
Probable space group: A M M 2
;
_chemical_formula_sum "Si O2"
_cell_formula_units_Z 56
_cell_length_a 13.119126
_cell_length_b 21.719545
_cell_length_c 9.971369
_cell_angle_alpha 90.000000
_cell_angle_beta 90.000000
_cell_angle_gamma 90.000000
_cell_volume 2841.256317
_symmetry_space_group_name_H-M "A M M 2"
_symmetry_group_IT_number 38
_symmetry_cell_setting 'orthorhombic'
loop_
_space_group_symop_operation_xyz
x,y,z
-x,-y,z
-x,y,z
x,-y,z
x,1/2+y,1/2+z
-x,1/2-y,1/2+z
-x,1/2+y,1/2+z
x,1/2-y,1/2+z
loop_
_atom_site_type_symbol
_atom_site_label
_atom_site_fract_x
_atom_site_fract_y
_atom_site_fract_z
Si Si1 0.163918 0.069666 0.359620
Si Si2 0.122300 0.433939 0.389037
Si Si3 0.885237 0.148181 0.120450
Si Si4 0.880816 0.362884 0.134676
Si Si5 0.737725 0.251536 0.231770
Si Si6 0.383807 0.790874 0.490541
Si Si7 0.614052 0.931220 0.429185
O O1 0.111398 0.092072 0.225084
O O2 0.140030 0.115470 0.483075
O O3 0.286251 0.070338 0.336813
O O4 0.134138 0.000000 0.395539
O O5 0.165432 0.500000 0.427945
O O6 0.157538 0.378071 0.481384
O O7 0.136822 0.420567 0.233112
O O8 0.000000 0.435198 0.411671
O O9 0.810055 0.196313 0.185920
O O10 0.000000 0.173223 0.101698
O O11 0.808027 0.310696 0.196275
O O12 0.000000 0.344607 0.145584
O O13 0.694489 0.235494 0.378842
O O14 0.643420 0.259560 0.130794
O O15 0.500000 0.777981 0.449768
O O16 0.376422 0.865857 0.506319
O O17 0.500000 0.929354 0.368436
O O18 0.620500 0.000000 0.497073
#
# Coordination Sequence:
#
# PCOD9359419 Si02
#       7
#     8   8   8   8   8   8   8
#     4  11  21  36  59  88 114 143 191 248 290 329
#     4   9  19  35  52  72 104 147 187 221 267 322
#     4  11  22  36  55  81 114 153 189 230 275 331
#     4  11  22  36  55  81 114 153 189 230 275 331
#     4  12  22  40  56  84 114 150 188 228 276 342
#     4  11  23  40  63  86 112 144 186 238 289 340
#     4   9  18  36  60  85 111 142 183 235 295 345
#
# _framework density 19.709591
#
# number of rings (size 3 to 8) (size 9 to 14) (size 15 to 20)
#    0.000    1.429    2.857    3.000    0.000    2.286 
#    0.000    4.286    0.000    0.000    0.000    0.000 
#    0.000   16.000    0.000    0.000    0.000    0.000 
#
# Total GULP energy -155967.502862 kJ/mol
# GULP energy per Si atom -5570.267959 kJ/mol
# Density = 1.966473 g / cm^3
# Si number density = 19.709591 Si / 1000 Ang^3
#
#
#
# Elastic Constant Matrix: (Units=GPa)
#
#
# Indices 1 2 3 4 5 6 
#
# 1 77.5975 16.2236 -3.3682 0.0000 0.0000 0.0000
# 2 16.2236 72.9880 9.6382 0.0000 0.0000 0.0000
# 3 -3.3682 9.6382 73.0371 0.0000 0.0000 0.0000
# 4 0.0000 0.0000 0.0000 13.7984 0.0000 0.0000
# 5 0.0000 0.0000 0.0000 0.0000 14.0561 0.0000
# 6 0.0000 0.0000 0.0000 0.0000 0.0000 21.8537
#
#
#
# Elastic Compliance Matrix: (Units=1/GPa)
#
#
# Indices 1 2 3 4 5 6 
#
# 1 0.013593 -0.003159 0.001044 0.000000 0.000000 0.000000
# 2 -0.003159 0.014678 -0.002083 0.000000 0.000000 0.000000
# 3 0.001044 -0.002083 0.014015 0.000000 0.000000 0.000000
# 4 0.000000 0.000000 0.000000 0.072472 0.000000 0.000000
# 5 0.000000 0.000000 0.000000 0.000000 0.071144 0.000000
# 6 0.000000 0.000000 0.000000 0.000000 0.000000 0.045759
#
#
# Mechanical properties :
#
#
# Convention : Reuss Voigt Hill
#
# Bulk Modulus (GPa) = 29.50779 29.84553 29.67666
# Shear Modulus (GPa) = 19.89234 23.35023 21.62129
#
# Velocity S-wave (km/s) = 3.18035 3.44570 3.31568
# Velocity P-wave (km/s) = 5.33760 5.56830 5.45417
#
# Compressibility (1/GPa) = 0.03388935
#
# Stress axis : x y z
#
# Youngs Moduli (GPa) = 73.56822 68.12862 71.35396
#
# Poissons Ratio (x) = 0.21523 -0.07448
# Poissons Ratio (y) = 0.23242 0.14861
# Poissons Ratio (z) = -0.07679 0.14189
#
# Static dielectric constant tensor:
#      x y z
#    x 1.715120 0.000000 0.000000 
#    y 0.000000 1.756820 0.000000 
#    z 0.000000 0.000000 1.644830 
# 
# From -- ./inp_files/5724.got.cif
#   From: 2010.05.17/outbox.cif.g08.bks.cpg/sg38_3_cif.got.tgz:5724.got - 2010.06.03 18:07:57.
