data_PCOD9359490
_publ_section_title
;
Structure prediction by ZEFSAII (Michael W. Deem and Ramdas Pophale) SiO2 
 PCOD9359490
Probable space group: A M M 2
;
_chemical_formula_sum "Si O2"
_cell_formula_units_Z 34
_cell_length_a 7.130952
_cell_length_b 24.415449
_cell_length_c 7.031834
_cell_angle_alpha 90.000000
_cell_angle_beta 90.000000
_cell_angle_gamma 90.000000
_cell_volume 1224.280235
_symmetry_space_group_name_H-M "A M M 2"
_symmetry_group_IT_number 38
_symmetry_cell_setting 'orthorhombic'
loop_
_space_group_symop_operation_xyz
x,y,z
-x,-y,z
-x,y,z
x,-y,z
x,1/2+y,1/2+z
-x,1/2-y,1/2+z
-x,1/2+y,1/2+z
x,1/2-y,1/2+z
loop_
_atom_site_type_symbol
_atom_site_label
_atom_site_fract_x
_atom_site_fract_y
_atom_site_fract_z
Si Si1 0.713984 0.706037 0.720780
Si Si2 0.000000 0.500000 0.982247
Si Si3 0.274206 0.588898 0.820770
Si Si4 0.273338 0.560316 0.377616
Si Si5 0.285829 0.175729 0.778479
O O1 0.500000 0.715058 0.787592
O O2 0.783372 0.653235 0.836691
O O3 0.798750 0.766704 0.711526
O O4 0.707613 0.685098 0.505976
O O5 0.162865 0.547606 0.949518
O O6 0.500000 0.585932 0.846092
O O7 0.235068 0.569315 0.602477
O O8 0.500000 0.559437 0.358863
O O9 0.199561 0.500000 0.323403
O O10 0.206697 0.614671 0.269354
O O11 0.500000 0.172573 0.705476
#
# Coordination Sequence:
#
# PCOD9359490 Si02
#       5
#     8   2   8   8   8
#     4   8  14  25  40  62  90 120 154 187 229 276
#     4  12  18  24  44  66  88 122 156 188 236 288
#     4   9  17  27  40  63  95 120 146 192 239 275
#     4   8  12  21  37  59  87 115 144 183 230 269
#     4   8  13  21  38  62  86 120 154 185 229 277
#
# _framework density 27.771421
#
# number of rings (size 3 to 8) (size 9 to 14) (size 15 to 20)
#    0.000    3.529    1.176    3.176    0.000    0.000 
#    0.000    0.000    0.000    5.647    3.059    0.000 
#    0.000    7.529    0.000    0.941    0.000    0.000 
#
# Total GULP energy -94827.584682 kJ/mol
# GULP energy per Si atom -5578.093217 kJ/mol
# Density = 2.770821 g / cm^3
# Si number density = 27.771421 Si / 1000 Ang^3
#
#
#
# Elastic Constant Matrix: (Units=GPa)
#
#
# Indices 1 2 3 4 5 6 
#
# 1 159.5599 47.3598 1.8247 0.0000 0.0000 0.0000
# 2 47.3598 382.4193 74.2105 0.0000 0.0000 0.0000
# 3 1.8247 74.2105 93.6695 0.0000 0.0000 0.0000
# 4 0.0000 0.0000 0.0000 63.0509 0.0000 0.0000
# 5 0.0000 0.0000 0.0000 0.0000 -35.6479 0.0000
# 6 0.0000 0.0000 0.0000 0.0000 0.0000-2965.9232
#
#
#
# Elastic Compliance Matrix: (Units=1/GPa)
#
#
# Indices 1 2 3 4 5 6 
#
# 1 0.006536 -0.000927 0.000607 0.000000 0.000000 0.000000
# 2 -0.000927 0.003222 -0.002534 0.000000 0.000000 0.000000
# 3 0.000607 -0.002534 0.012672 0.000000 0.000000 0.000000
# 4 0.000000 0.000000 0.000000 0.015860 0.000000 0.000000
# 5 0.000000 0.000000 0.000000 0.000000 -0.028052 0.000000
# 6 0.000000 0.000000 0.000000 0.000000 0.000000 -0.000337
#
#
# Mechanical properties :
#
#
# Convention : Reuss Voigt Hill
#
# Bulk Modulus (GPa) = 59.80689 98.04877 78.92783
# Shear Modulus (GPa) = 236.05474 -553.55380 -158.74953
#
# Velocity S-wave (km/s) = 9.22950 -14.13357 -7.56882
# Velocity P-wave (km/s) = 11.62585 15.19741 6.92102
#
# Compressibility (1/GPa) = 0.01672048
#
# Stress axis : x y z
#
# Youngs Moduli (GPa) = 153.01033 310.41028 78.91555
#
# Poissons Ratio (x) = 0.28782 -0.04792
# Poissons Ratio (y) = 0.14187 0.19999
# Poissons Ratio (z) = -0.09292 0.78665
#
# Static dielectric constant tensor:
#      x y z
#    x 2.048390 0.000000 0.000000 
#    y 0.000000 2.164390 0.000000 
#    z 0.000000 0.000000 2.220830 
# 
# From -- ./inp_files/3166.got.cif
#   From: 2010.05.17/outbox.cif.g08.bks.cpg/sg38_2_cif.got.tgz:3166.got - 2010.06.03 18:07:57.
