data_PCOD9359351
_publ_section_title
;
Structure prediction by ZEFSAII (Michael W. Deem and Ramdas Pophale) SiO2 
 PCOD9359351
Probable space group: A M M 2
;
_chemical_formula_sum "Si O2"
_cell_formula_units_Z 40
_cell_length_a 8.028427
_cell_length_b 17.621095
_cell_length_c 13.181364
_cell_angle_alpha 90.000000
_cell_angle_beta 90.000000
_cell_angle_gamma 90.000000
_cell_volume 1864.763279
_symmetry_space_group_name_H-M "A M M 2"
_symmetry_group_IT_number 38
_symmetry_cell_setting 'orthorhombic'
loop_
_space_group_symop_operation_xyz
x,y,z
-x,-y,z
-x,y,z
x,-y,z
x,1/2+y,1/2+z
-x,1/2-y,1/2+z
-x,1/2+y,1/2+z
x,1/2-y,1/2+z
loop_
_atom_site_type_symbol
_atom_site_label
_atom_site_fract_x
_atom_site_fract_y
_atom_site_fract_z
Si Si1 0.300918 0.088556 0.898240
Si Si2 0.802830 0.828891 0.104168
Si Si3 0.191160 0.409929 0.019598
Si Si4 0.310612 0.826783 0.699109
Si Si5 0.796127 0.413060 0.803605
O O1 0.500000 0.083262 0.883483
O O2 0.234984 0.138267 0.802491
O O3 0.239306 0.000000 0.902553
O O4 0.269791 0.135716 0.001330
O O5 0.772443 0.742228 0.137276
O O6 0.736774 0.872969 0.202824
O O7 0.000000 0.841138 0.096194
O O8 0.183714 0.500000 0.004398
O O9 0.301780 0.392609 0.115671
O O10 0.000000 0.384561 0.037918
O O11 0.253723 0.377590 0.911784
O O12 0.500000 0.803552 0.720691
O O13 0.742803 0.500000 0.798180
O O14 0.000000 0.411350 0.804838
#
# Coordination Sequence:
#
# PCOD9359351 Si02
#       5
#     8   8   8   8   8
#     4  10  23  44  66  89 124 169 212 256 309 372
#     4  11  23  38  61  91 123 158 204 256 306 362
#     4   9  18  35  60  88 117 150 193 244 298 358
#     4  11  24  40  59  86 124 163 204 252 305 365
#     4   8  16  33  57  85 116 147 183 237 299 353
#
# _framework density 21.450443
#
# number of rings (size 3 to 8) (size 9 to 14) (size 15 to 20)
#    0.000    2.200    0.000    3.600    2.800    4.000 
#    0.000    1.000    0.000    2.400    0.000    0.000 
#    0.000    0.000    0.000    0.000    0.000    0.000 
#
# Total GULP energy -111465.886222 kJ/mol
# GULP energy per Si atom -5573.294311 kJ/mol
# Density = 2.140162 g / cm^3
# Si number density = 21.450443 Si / 1000 Ang^3
#
#
#
# Elastic Constant Matrix: (Units=GPa)
#
#
# Indices 1 2 3 4 5 6 
#
# 1 16.9815 2.6177 5.4094 0.0000 0.0000 0.0000
# 2 2.6177 83.7859 53.0679 0.0000 0.0000 0.0000
# 3 5.4094 53.0679 179.6138 0.0000 0.0000 0.0000
# 4 0.0000 0.0000 0.0000 95.2916 0.0000 0.0000
# 5 0.0000 0.0000 0.0000 0.0000 14.7229 0.0000
# 6 0.0000 0.0000 0.0000 0.0000 0.0000 4.9619
#
#
#
# Elastic Compliance Matrix: (Units=1/GPa)
#
#
# Indices 1 2 3 4 5 6 
#
# 1 0.059512 -0.000891 -0.001529 0.000000 0.000000 0.000000
# 2 -0.000891 0.014696 -0.004315 0.000000 0.000000 0.000000
# 3 -0.001529 -0.004315 0.006889 0.000000 0.000000 0.000000
# 4 0.000000 0.000000 0.000000 0.010494 0.000000 0.000000
# 5 0.000000 0.000000 0.000000 0.000000 0.067921 0.000000
# 6 0.000000 0.000000 0.000000 0.000000 0.000000 0.201535
#
#
# Mechanical properties :
#
#
# Convention : Reuss Voigt Hill
#
# Bulk Modulus (GPa) = 14.78712 44.73013 29.75863
# Shear Modulus (GPa) = 12.59257 37.61435 25.10346
#
# Velocity S-wave (km/s) = 2.42555 4.19208 3.42468
# Velocity P-wave (km/s) = 3.84096 6.65803 5.43518
#
# Compressibility (1/GPa) = 0.06762643
#
# Stress axis : x y z
#
# Youngs Moduli (GPa) = 16.80331 68.04488 145.16915
#
# Poissons Ratio (x) = 0.06061 0.22198
# Poissons Ratio (y) = 0.01497 0.62644
# Poissons Ratio (z) = 0.02569 0.29363
#
# Static dielectric constant tensor:
#      x y z
#    x 1.860080 0.000000 0.000000 
#    y 0.000000 0.464600 0.000000 
#    z 0.000000 0.000000 1.805970 
# 
# From -- ./inp_files/7763.got.cif
#   From: 2010.05.17/outbox.cif.g08.bks.cpg/sg38_4_cif.got.tgz:7763.got - 2010.06.03 18:07:57.
