data_PCOD9359378
_publ_section_title
;
Structure prediction by ZEFSAII (Michael W. Deem and Ramdas Pophale) SiO2 
 PCOD9359378
Probable space group: A M M 2
;
_chemical_formula_sum "Si O2"
_cell_formula_units_Z 64
_cell_length_a 14.561303
_cell_length_b 8.919167
_cell_length_c 32.171201
_cell_angle_alpha 90.000000
_cell_angle_beta 90.000000
_cell_angle_gamma 90.000000
_cell_volume 4178.224860
_symmetry_space_group_name_H-M "A M M 2"
_symmetry_group_IT_number 38
_symmetry_cell_setting 'orthorhombic'
loop_
_space_group_symop_operation_xyz
x,y,z
-x,-y,z
-x,y,z
x,-y,z
x,1/2+y,1/2+z
-x,1/2-y,1/2+z
-x,1/2+y,1/2+z
x,1/2-y,1/2+z
loop_
_atom_site_type_symbol
_atom_site_label
_atom_site_fract_x
_atom_site_fract_y
_atom_site_fract_z
Si Si1 0.388383 0.826648 0.100470
Si Si2 0.606283 0.319853 0.186270
Si Si3 0.393919 0.317184 0.509273
Si Si4 0.104834 0.179440 0.298304
Si Si5 0.609294 0.821547 0.347938
Si Si6 0.712178 0.320046 0.269099
Si Si7 0.895179 0.820585 0.396920
Si Si8 0.287469 0.320081 0.426638
O O1 0.500000 0.823492 0.099279
O O2 0.360199 0.739854 0.141783
O O3 0.360268 0.000000 0.104274
O O4 0.360409 0.767208 0.054966
O O5 0.500000 0.270543 0.192131
O O6 0.606291 0.500000 0.185103
O O7 0.666686 0.272129 0.225542
O O8 0.500000 0.269943 0.502994
O O9 0.394751 0.500000 0.510819
O O10 0.332243 0.272386 0.470379
O O11 0.183625 0.264516 0.273707
O O12 0.116764 0.210784 0.347614
O O13 0.000000 0.219640 0.287170
O O14 0.114972 0.000000 0.293181
O O15 0.500000 0.795298 0.347846
O O16 0.655372 0.750206 0.307244
O O17 0.655047 0.750170 0.388703
O O18 0.626248 0.000000 0.347948
O O19 0.707921 0.500000 0.271986
O O20 0.816602 0.735371 0.421604
O O21 0.000000 0.780458 0.408043
O O22 0.884949 0.000000 0.402016
O O23 0.291829 0.500000 0.423801
#
# Coordination Sequence:
#
# PCOD9359378 Si02
#       8
#     8   8   8   8   8   8   8   8
#     4   8  14  27  47  67  87 117 157 193 224 265
#     4   9  18  31  45  65  96 126 151 186 231 274
#     4   8  15  28  45  67  96 125 152 186 228 272
#     4   9  18  33  51  68  90 121 154 193 238 278
#     4  11  23  35  45  61  92 131 165 193 221 263
#     4  11  21  32  48  70  94 123 156 192 234 278
#     4   9  18  33  50  66  90 123 155 193 238 278
#     4  11  20  30  48  72  95 122 155 193 235 277
#
# _framework density 15.31751
#
# number of rings (size 3 to 8) (size 9 to 14) (size 15 to 20)
#    0.000    2.500    1.250    3.375    0.000    3.500 
#    0.000    3.750    0.000    3.000    0.000    0.875 
#    0.000    1.000    0.000    0.000    0.000    0.000 
#
# Total GULP energy -178392.031770 kJ/mol
# GULP energy per Si atom -5574.750993 kJ/mol
# Density = 1.528265 g / cm^3
# Si number density = 15.317510 Si / 1000 Ang^3
#
#
#
# Elastic Constant Matrix: (Units=GPa)
#
#
# Indices 1 2 3 4 5 6 
#
# 1 101.1629 41.1686 75.3616 0.0000 0.0000 0.0000
# 2 41.1686 31.7810 41.5772 0.0000 0.0000 0.0000
# 3 75.3616 41.5772 148.8590 0.0000 0.0000 0.0000
# 4 0.0000 0.0000 0.0000 21.9032 0.0000 0.0000
# 5 0.0000 0.0000 0.0000 0.0000 7.8855 0.0000
# 6 0.0000 0.0000 0.0000 0.0000 0.0000 23.7767
#
#
#
# Elastic Compliance Matrix: (Units=1/GPa)
#
#
# Indices 1 2 3 4 5 6 
#
# 1 0.023289 -0.023233 -0.005301 0.000000 0.000000 0.000000
# 2 -0.023233 0.072760 -0.008560 0.000000 0.000000 0.000000
# 3 -0.005301 -0.008560 0.011793 0.000000 0.000000 0.000000
# 4 0.000000 0.000000 0.000000 0.045655 0.000000 0.000000
# 5 0.000000 0.000000 0.000000 0.000000 0.126815 0.000000
# 6 0.000000 0.000000 0.000000 0.000000 0.000000 0.042058
#
#
# Mechanical properties :
#
#
# Convention : Reuss Voigt Hill
#
# Bulk Modulus (GPa) = 29.71553 66.44640 48.08097
# Shear Modulus (GPa) = 12.26166 18.95946 15.61056
#
# Velocity S-wave (km/s) = 2.83238 3.52200 3.19585
# Velocity P-wave (km/s) = 5.48984 7.74680 6.71384
#
# Compressibility (1/GPa) = 0.03365244
#
# Stress axis : x y z
#
# Youngs Moduli (GPa) = 42.93909 13.74389 84.79945
#
# Poissons Ratio (x) = 0.31931 0.44954
# Poissons Ratio (y) = 0.99759 0.72592
# Poissons Ratio (z) = 0.22763 0.11765
#
# Static dielectric constant tensor:
#      x y z
#    x 1.501870 0.000000 0.000000 
#    y 0.000000 1.515800 0.000000 
#    z 0.000000 0.000000 1.504050 
# 
# From -- ./inp_files/25089.got.cif
#   From: 2010.05.17/outbox.cif.g08.bks.cpg/sg38_13_cif.got.tgz:25089.got - 2010.06.03 18:07:57.
