data_PCOD9359450
_publ_section_title
;
Structure prediction by ZEFSAII (Michael W. Deem and Ramdas Pophale) SiO2 
 PCOD9359450
Probable space group: A M M 2
;
_chemical_formula_sum "Si O2"
_cell_formula_units_Z 48
_cell_length_a 14.101293
_cell_length_b 11.965094
_cell_length_c 15.349169
_cell_angle_alpha 90.000000
_cell_angle_beta 90.000000
_cell_angle_gamma 90.000000
_cell_volume 2589.762389
_symmetry_space_group_name_H-M "A M M 2"
_symmetry_group_IT_number 38
_symmetry_cell_setting 'orthorhombic'
loop_
_space_group_symop_operation_xyz
x,y,z
-x,-y,z
-x,y,z
x,-y,z
x,1/2+y,1/2+z
-x,1/2-y,1/2+z
-x,1/2+y,1/2+z
x,1/2-y,1/2+z
loop_
_atom_site_type_symbol
_atom_site_label
_atom_site_fract_x
_atom_site_fract_y
_atom_site_fract_z
Si Si1 0.891044 0.633384 0.084000
Si Si2 0.613194 0.000000 0.522718
Si Si3 0.612880 0.217985 0.219327
Si Si4 0.896160 0.365486 0.290930
Si Si5 0.694908 0.365274 0.366151
Si Si6 0.385714 0.000000 0.326574
Si Si7 0.299809 0.235384 0.541907
O O1 0.873303 0.500000 0.071719
O O2 0.882755 0.656644 0.187897
O O3 0.811625 0.707273 0.037954
O O4 0.000000 0.655437 0.058558
O O5 0.650610 0.884383 0.559191
O O6 0.500000 0.000000 0.526074
O O7 0.650671 0.000000 0.423932
O O8 0.500000 0.217117 0.201616
O O9 0.637732 0.323668 0.280901
O O10 0.640444 0.111908 0.277737
O O11 0.670315 0.203329 0.130135
O O12 0.899920 0.500000 0.297933
O O13 0.803892 0.332304 0.344427
O O14 0.000000 0.321246 0.317597
O O15 0.687461 0.500000 0.376580
O O16 0.667126 0.299390 0.454678
O O17 0.500000 0.000000 0.332403
#
# Coordination Sequence:
#
# PCOD9359450 Si02
#       7
#     8   4   8   8   8   4   8
#     4   9  17  32  57  88 116 147 195 248 291 341
#     4  11  22  38  59  84 112 149 203 246 281 343
#     4  11  24  41  61  84 115 157 197 241 295 349
#     4   8  15  32  56  80 111 150 189 232 283 343
#     4  11  24  39  58  90 122 152 196 243 293 351
#     4   9  20  42  62  78 110 155 198 236 290 353
#     4  12  23  37  61  89 119 155 194 244 297 350
#
# _framework density 18.534517999999998
#
# number of rings (size 3 to 8) (size 9 to 14) (size 15 to 20)
#    0.000    1.833    4.167    1.500    2.333    1.667 
#    0.000    0.000    0.000    0.000    0.000    1.167 
#    0.000    0.000    0.000    0.000    0.000    0.000 
#
# Total GULP energy -133762.511831 kJ/mol
# GULP energy per Si atom -5573.437993 kJ/mol
# Density = 1.849233 g / cm^3
# Si number density = 18.534518 Si / 1000 Ang^3
#
#
#
# Elastic Constant Matrix: (Units=GPa)
#
#
# Indices 1 2 3 4 5 6 
#
# 1 61.2469 0.7793 -1.9419 0.0000 0.0000 0.0000
# 2 0.7793 36.2150 -7.0166 0.0000 0.0000 0.0000
# 3 -1.9419 -7.0166 47.9903 0.0000 0.0000 0.0000
# 4 0.0000 0.0000 0.0000 -6.1199 0.0000 0.0000
# 5 0.0000 0.0000 0.0000 0.0000 18.0735 0.0000
# 6 0.0000 0.0000 0.0000 0.0000 0.0000 15.0169
#
#
#
# Elastic Compliance Matrix: (Units=1/GPa)
#
#
# Indices 1 2 3 4 5 6 
#
# 1 0.016350 -0.000230 0.000628 0.000000 0.000000 0.000000
# 2 -0.000230 0.028421 0.004146 0.000000 0.000000 0.000000
# 3 0.000628 0.004146 0.021469 0.000000 0.000000 0.000000
# 4 0.000000 0.000000 0.000000 -0.163401 0.000000 0.000000
# 5 0.000000 0.000000 0.000000 0.000000 0.055330 0.000000
# 6 0.000000 0.000000 0.000000 0.000000 0.000000 0.066592
#
#
# Mechanical properties :
#
#
# Convention : Reuss Voigt Hill
#
# Bulk Modulus (GPa) = 13.27523 14.34375 13.80949
# Shear Modulus (GPa) = 122.60048 15.63619 69.11833
#
# Velocity S-wave (km/s) = 8.14191 2.90767 6.11332
# Velocity P-wave (km/s) = 9.77577 4.36217 7.56948
#
# Compressibility (1/GPa) = 0.07532824
#
# Stress axis : x y z
#
# Youngs Moduli (GPa) = 61.16138 35.18506 46.57846
#
# Poissons Ratio (x) = 0.00810 -0.02925
# Poissons Ratio (y) = 0.01408 -0.19312
# Poissons Ratio (z) = -0.03841 -0.14588
#
# Static dielectric constant tensor:
#      x y z
#    x 1.672130 0.000000 0.000000 
#    y 0.000000 1.813020 0.000000 
#    z 0.000000 0.000000 1.621410 
# 
# From -- ./inp_files/14495.got.cif
#   From: 2010.05.17/outbox.cif.g08.bks.cpg/sg38_8_cif.got.tgz:14495.got - 2010.06.03 18:07:57.
