data_PCOD9359174
_publ_section_title
;
Structure prediction by ZEFSAII (Michael W. Deem and Ramdas Pophale) SiO2 
 PCOD9359174
Probable space group: A M M 2
;
_chemical_formula_sum "Si O2"
_cell_formula_units_Z 58
_cell_length_a 18.318160
_cell_length_b 7.678626
_cell_length_c 17.192645
_cell_angle_alpha 90.000000
_cell_angle_beta 90.000000
_cell_angle_gamma 90.000000
_cell_volume 2418.288212
_symmetry_space_group_name_H-M "A M M 2"
_symmetry_group_IT_number 38
_symmetry_cell_setting 'orthorhombic'
loop_
_space_group_symop_operation_xyz
x,y,z
-x,-y,z
-x,y,z
x,-y,z
x,1/2+y,1/2+z
-x,1/2-y,1/2+z
-x,1/2+y,1/2+z
x,1/2-y,1/2+z
loop_
_atom_site_type_symbol
_atom_site_label
_atom_site_fract_x
_atom_site_fract_y
_atom_site_fract_z
Si Si1 0.665504 0.208300 0.558520
Si Si2 0.880542 0.193183 0.229976
Si Si3 0.373661 0.303538 0.892536
Si Si4 0.831442 0.799086 0.574882
Si Si5 0.082491 0.288914 0.424650
Si Si6 0.416224 0.290796 0.719858
Si Si7 0.774926 0.205439 0.831791
Si Si8 0.000000 0.500000 0.247211
O O1 0.621884 0.274386 0.480385
O O2 0.749826 0.270057 0.557152
O O3 0.630303 0.239350 0.643569
O O4 0.667461 0.000000 0.547025
O O5 0.876965 0.193110 0.136818
O O6 0.792956 0.236563 0.245120
O O7 0.936509 0.348434 0.247683
O O8 0.901303 0.000000 0.255980
O O9 0.404425 0.500000 0.895467
O O10 0.398934 0.224138 0.808587
O O11 0.286817 0.305406 0.876740
O O12 0.882273 0.793330 0.499889
O O13 0.823885 0.000000 0.601216
O O14 0.081030 0.500000 0.430533
O O15 0.144558 0.248294 0.362077
O O16 0.000000 0.232361 0.409717
O O17 0.500000 0.244362 0.703536
O O18 0.409034 0.500000 0.725589
O O19 0.761514 0.000000 0.838383
#
# Coordination Sequence:
#
# PCOD9359174 Si02
#       8
#     8   8   8   8   8   8   8   2
#     4  10  22  40  67  98 135 180 230 283 339 419
#     4  12  26  42  66  89 124 173 223 284 360 424
#     4  10  21  41  67  97 131 178 236 280 339 427
#     4  11  22  41  62  91 128 165 220 284 337 404
#     4  10  23  38  58  85 123 169 219 272 334 396
#     4  10  23  42  66  98 136 174 220 284 354 422
#     4  11  22  40  64  92 130 170 221 282 338 404
#     4  12  26  48  60  94 128 168 232 294 360 426
#
# _framework density 23.983906999999999
#
# number of rings (size 3 to 8) (size 9 to 14) (size 15 to 20)
#    0.000    1.379    2.759    1.862    1.931    6.069 
#    0.000    1.379    0.000    0.000    0.000    0.000 
#    0.000    0.000    0.000    0.000    0.000    0.000 
#
# Total GULP energy -161479.158792 kJ/mol
# GULP energy per Si atom -5568.246855 kJ/mol
# Density = 2.392932 g / cm^3
# Si number density = 23.983907 Si / 1000 Ang^3
#
#
#
# Elastic Constant Matrix: (Units=GPa)
#
#
# Indices 1 2 3 4 5 6 
#
# 1 99.0868 8.4373 39.3471 0.0000 0.0000 0.0000
# 2 8.4373 114.4518 16.4998 0.0000 0.0000 0.0000
# 3 39.3471 16.4998 102.1539 0.0000 0.0000 0.0000
# 4 0.0000 0.0000 0.0000 18.8936 0.0000 0.0000
# 5 0.0000 0.0000 0.0000 0.0000 -123.6252 0.0000
# 6 0.0000 0.0000 0.0000 0.0000 0.0000 18.3412
#
#
#
# Elastic Compliance Matrix: (Units=1/GPa)
#
#
# Indices 1 2 3 4 5 6 
#
# 1 0.011920 -0.000222 -0.004555 0.000000 0.000000 0.000000
# 2 -0.000222 0.008950 -0.001360 0.000000 0.000000 0.000000
# 3 -0.004555 -0.001360 0.011763 0.000000 0.000000 0.000000
# 4 0.000000 0.000000 0.000000 0.052928 0.000000 0.000000
# 5 0.000000 0.000000 0.000000 0.000000 -0.008089 0.000000
# 6 0.000000 0.000000 0.000000 0.000000 0.000000 0.054522
#
#
# Mechanical properties :
#
#
# Convention : Reuss Voigt Hill
#
# Bulk Modulus (GPa) = 49.12012 49.36232 49.24122
# Shear Modulus (GPa) = 33.10042 -0.51753 16.29144
#
# Velocity S-wave (km/s) = 3.71901 -0.46503 2.60910
# Velocity P-wave (km/s) = 6.24230 4.50974 5.44537
#
# Compressibility (1/GPa) = 0.02035826
#
# Stress axis : x y z
#
# Youngs Moduli (GPa) = 83.89253 111.73516 85.00905
#
# Poissons Ratio (x) = 0.02481 0.38725
# Poissons Ratio (y) = 0.01862 0.11562
# Poissons Ratio (z) = 0.38217 0.15196
#
# Static dielectric constant tensor:
#      x y z
#    x 3.452280 0.000000 0.000000 
#    y 0.000000 4.111770 0.000000 
#    z 0.000000 0.000000 2.191370 
# 
# From -- ./inp_files/18675.got.cif
#   From: 2010.05.17/outbox.cif.g08.bks.cpg/sg38_10_cif.got.tgz:18675.got - 2010.06.03 18:07:57.
