data_PCOD9359672
_publ_section_title
;
Structure prediction by ZEFSAII (Michael W. Deem and Ramdas Pophale) SiO2 
 PCOD9359672
Probable space group: A B M 2
;
_chemical_formula_sum "Si O2"
_cell_formula_units_Z 52
_cell_length_a 26.740727
_cell_length_b 16.127118
_cell_length_c 5.294780
_cell_angle_alpha 90.000000
_cell_angle_beta 90.000000
_cell_angle_gamma 90.000000
_cell_volume 2283.378427
_symmetry_space_group_name_H-M "A B M 2"
_symmetry_group_IT_number 39
_symmetry_cell_setting 'orthorhombic'
loop_
_space_group_symop_operation_xyz
x,y,z
-x,-y,z
-x,1/2+y,z
x,1/2-y,z
x,1/2+y,1/2+z
-x,1/2-y,1/2+z
-x,y,1/2+z
x,-y,1/2+z
loop_
_atom_site_type_symbol
_atom_site_label
_atom_site_fract_x
_atom_site_fract_y
_atom_site_fract_z
Si Si1 0.674747 0.648211 0.784340
Si Si2 0.115429 0.155677 0.063414
Si Si3 0.830208 0.554230 0.409843
Si Si4 0.771005 0.155709 0.584485
Si Si5 0.374096 0.654244 0.784164
Si Si6 0.468146 0.250000 0.404986
Si Si7 0.979390 0.094204 0.309318
O O1 0.673892 0.750000 0.762036
O O2 0.728793 0.624691 0.896303
O O3 0.656960 0.615407 0.513557
O O4 0.636266 0.620982 0.005610
O O5 0.097706 0.250000 0.067860
O O6 0.124909 0.117621 0.342467
O O7 0.173015 0.156873 0.965433
O O8 0.076949 0.100287 0.908567
O O9 0.832619 0.490660 0.172952
O O10 0.779693 0.604125 0.340338
O O11 0.759267 0.250000 0.653476
O O12 0.355451 0.750000 0.762230
O O13 0.431477 0.670831 0.861634
O O14 0.490838 0.250000 0.684047
O O15 0.988949 0.133532 0.037852
O O16 0.000000 0.000000 0.279021
#
# Coordination Sequence:
#
# PCOD9359672 Si02
#       7
#     8   8   8   8   8   4   8
#     4   9  14  28  42  63  93 122 173 222 274 316
#     4   9  21  42  61  89 115 142 190 236 281 339
#     4  10  22  37  59  81 112 146 180 222 285 340
#     4   8  18  35  57  81 108 143 179 240 272 337
#     4   8  16  23  38  60  88 133 176 233 257 322
#     4  10  16  24  36  58  94 142 198 234 264 312
#     4  10  23  38  61  84 110 146 181 222 286 343
#
# _framework density 22.773274000000001
#
# number of rings (size 3 to 8) (size 9 to 14) (size 15 to 20)
#    1.385    1.538    0.000    0.923    4.308    1.846 
#    0.000    6.154    0.000    0.000    0.000    0.000 
#    0.000    0.000    0.000    0.000    0.000   53.846 
#
# Total GULP energy -144802.712085 kJ/mol
# GULP energy per Si atom -5569.335080 kJ/mol
# Density = 2.272144 g / cm^3
# Si number density = 22.773274 Si / 1000 Ang^3
#
#
#
# Elastic Constant Matrix: (Units=GPa)
#
#
# Indices 1 2 3 4 5 6 
#
# 1 77.6749 3.9132 -12.1076 0.0000 0.0000 0.0000
# 2 3.9132 56.4442 7.5088 0.0000 0.0000 0.0000
# 3 -12.1076 7.5088 79.9033 0.0000 0.0000 0.0000
# 4 0.0000 0.0000 0.0000 2.9183 0.0000 0.0000
# 5 0.0000 0.0000 0.0000 0.0000 34.8534 0.0000
# 6 0.0000 0.0000 0.0000 0.0000 0.0000 5.7506
#
#
#
# Elastic Compliance Matrix: (Units=1/GPa)
#
#
# Indices 1 2 3 4 5 6 
#
# 1 0.013266 -0.001202 0.002123 0.000000 0.000000 0.000000
# 2 -0.001202 0.018050 -0.001878 0.000000 0.000000 0.000000
# 3 0.002123 -0.001878 0.013013 0.000000 0.000000 0.000000
# 4 0.000000 0.000000 0.000000 0.342669 0.000000 0.000000
# 5 0.000000 0.000000 0.000000 0.000000 0.028692 0.000000
# 6 0.000000 0.000000 0.000000 0.000000 0.000000 0.173894
#
#
# Mechanical properties :
#
#
# Convention : Reuss Voigt Hill
#
# Bulk Modulus (GPa) = 23.57709 23.62791 23.60250
# Shear Modulus (GPa) = 8.25578 23.01833 15.63705
#
# Velocity S-wave (km/s) = 1.90606 3.18270 2.62323
# Velocity P-wave (km/s) = 3.90122 4.88916 4.42286
#
# Compressibility (1/GPa) = 0.04241406
#
# Stress axis : x y z
#
# Youngs Moduli (GPa) = 75.38259 55.40216 76.84417
#
# Poissons Ratio (x) = 0.06660 -0.16315
# Poissons Ratio (y) = 0.09062 0.14434
# Poissons Ratio (z) = -0.16004 0.10407
#
# Static dielectric constant tensor:
#      x y z
#    x 1.916350 0.000000 0.000000 
#    y 0.000000 2.206940 0.000000 
#    z 0.000000 0.000000 1.911740 
# 
# From -- ./inp_files/1421.got.cif
#   From: 2010.05.17/outbox.cif.g08.bks.cpg/sg39_1_cif.got.tgz:1421.got - 2010.06.03 18:22:40.
