data_PCOD9359845
_publ_section_title
;
Structure prediction by ZEFSAII (Michael W. Deem and Ramdas Pophale) SiO2 
 PCOD9359845
Probable space group: A B M 2
;
_chemical_formula_sum "Si O2"
_cell_formula_units_Z 48
_cell_length_a 10.158404
_cell_length_b 27.598368
_cell_length_c 7.745207
_cell_angle_alpha 90.000000
_cell_angle_beta 90.000000
_cell_angle_gamma 90.000000
_cell_volume 2171.410389
_symmetry_space_group_name_H-M "A B M 2"
_symmetry_group_IT_number 39
_symmetry_cell_setting 'orthorhombic'
loop_
_space_group_symop_operation_xyz
x,y,z
-x,-y,z
-x,1/2+y,z
x,1/2-y,z
x,1/2+y,1/2+z
-x,1/2-y,1/2+z
-x,y,1/2+z
x,-y,1/2+z
loop_
_atom_site_type_symbol
_atom_site_label
_atom_site_fract_x
_atom_site_fract_y
_atom_site_fract_z
Si Si1 0.125821 0.097522 0.450960
Si Si2 0.541814 0.062922 0.700025
Si Si3 0.865383 0.355612 0.320775
Si Si4 0.695844 0.147515 0.656099
Si Si5 0.965310 0.750000 0.909782
Si Si6 0.684201 0.021002 0.030727
Si Si7 0.780673 0.750000 0.248062
O O1 0.159081 0.127174 0.625747
O O2 0.207037 0.118321 0.287266
O O3 0.172051 0.042205 0.492672
O O4 0.975606 0.108097 0.401260
O O5 0.559830 0.119198 0.669524
O O6 0.596698 0.044879 0.881162
O O7 0.390742 0.047197 0.688755
O O8 0.644404 0.033931 0.572147
O O9 0.749300 0.354387 0.461055
O O10 0.924519 0.300995 0.322263
O O11 0.697249 0.201876 0.724743
O O12 0.124201 0.750000 0.914093
O O13 0.887761 0.750000 0.091016
#
# Coordination Sequence:
#
# PCOD9359845 Si02
#       7
#     8   8   8   8   4   8   4
#     4  11  21  35  57  88 112 154 187 234 290 341
#     4  10  21  40  60  89 109 145 199 245 281 343
#     4  11  20  34  56  80 124 148 192 235 283 337
#     4  10  22  35  57  85 117 152 191 236 289 333
#     4  10  18  30  54  80 106 155 199 232 271 329
#     4  10  22  37  65  85 109 148 198 236 295 334
#     4  10  18  32  54  82 112 155 187 238 279 335
#
# _framework density 22.105447000000002
#
# number of rings (size 3 to 8) (size 9 to 14) (size 15 to 20)
#    0.000    1.667    3.333    3.000    4.667    0.000 
#    0.000    0.833    0.000    6.000    0.000    0.000 
#    0.000    0.000    0.000    0.000    0.000    0.000 
#
# Total GULP energy -133767.985502 kJ/mol
# GULP energy per Si atom -5573.666063 kJ/mol
# Density = 2.205513 g / cm^3
# Si number density = 22.105447 Si / 1000 Ang^3
#
#
#
# Elastic Constant Matrix: (Units=GPa)
#
#
# Indices 1 2 3 4 5 6 
#
# 1 14.8326 9.6527 -17.2443 0.0000 0.0000 0.0000
# 2 9.6527 83.4333 -19.4112 0.0000 0.0000 0.0000
# 3 -17.2443 -19.4112 89.5773 0.0000 0.0000 0.0000
# 4 0.0000 0.0000 0.0000 16.5913 0.0000 0.0000
# 5 0.0000 0.0000 0.0000 0.0000 9.7102 0.0000
# 6 0.0000 0.0000 0.0000 0.0000 0.0000 36.9892
#
#
#
# Elastic Compliance Matrix: (Units=1/GPa)
#
#
# Indices 1 2 3 4 5 6 
#
# 1 0.090325 -0.006745 0.015927 0.000000 0.000000 0.000000
# 2 -0.006745 0.013126 0.001546 0.000000 0.000000 0.000000
# 3 0.015927 0.001546 0.014565 0.000000 0.000000 0.000000
# 4 0.000000 0.000000 0.000000 0.060273 0.000000 0.000000
# 5 0.000000 0.000000 0.000000 0.000000 0.102984 0.000000
# 6 0.000000 0.000000 0.000000 0.000000 0.000000 0.027035
#
#
# Mechanical properties :
#
#
# Convention : Reuss Voigt Hill
#
# Bulk Modulus (GPa) = 7.16995 14.87084 11.02039
# Shear Modulus (GPa) = 14.99967 26.98121 20.99044
#
# Velocity S-wave (km/s) = 2.60773 3.49745 3.08484
# Velocity P-wave (km/s) = 3.50964 4.80119 4.20529
#
# Compressibility (1/GPa) = 0.13947099
#
# Stress axis : x y z
#
# Youngs Moduli (GPa) = 11.07116 76.18709 68.65987
#
# Poissons Ratio (x) = 0.51385 -1.09353
# Poissons Ratio (y) = 0.07467 -0.10614
# Poissons Ratio (z) = -0.17633 -0.11778
#
# Static dielectric constant tensor:
#      x y z
#    x 1.854110 0.000000 0.000000 
#    y 0.000000 1.843970 0.000000 
#    z 0.000000 0.000000 1.920480 
# 
# From -- ./inp_files/2775.got.cif
#   From: 2010.05.17/outbox.cif.g08.bks.cpg/sg39_2_cif.got.tgz:2775.got - 2010.06.03 18:22:40.
