data_PCOD9359305
_publ_section_title
;
Structure prediction by ZEFSAII (Michael W. Deem and Ramdas Pophale) SiO2 
 PCOD9359305
Probable space group: A M M 2
;
_chemical_formula_sum "Si O2"
_cell_formula_units_Z 48
_cell_length_a 17.166591
_cell_length_b 8.788442
_cell_length_c 16.269007
_cell_angle_alpha 90.000000
_cell_angle_beta 90.000000
_cell_angle_gamma 90.000000
_cell_volume 2454.465867
_symmetry_space_group_name_H-M "A M M 2"
_symmetry_group_IT_number 38
_symmetry_cell_setting 'orthorhombic'
loop_
_space_group_symop_operation_xyz
x,y,z
-x,-y,z
-x,y,z
x,-y,z
x,1/2+y,1/2+z
-x,1/2-y,1/2+z
-x,1/2+y,1/2+z
x,1/2-y,1/2+z
loop_
_atom_site_type_symbol
_atom_site_label
_atom_site_fract_x
_atom_site_fract_y
_atom_site_fract_z
Si Si1 0.816914 0.182229 0.817980
Si Si2 0.500000 0.179110 0.631248
Si Si3 0.500000 0.178914 0.307310
Si Si4 0.666565 0.819257 0.389401
Si Si5 0.339272 0.181037 0.068195
Si Si6 0.185020 0.816693 0.635556
Si Si7 0.909153 0.183636 0.472641
O O1 0.730412 0.250545 0.828401
O O2 0.846617 0.221705 0.726314
O O3 0.867528 0.247276 0.892844
O O4 0.813655 0.000000 0.824823
O O5 0.500000 0.216286 0.727704
O O6 0.577610 0.252302 0.594038
O O7 0.500000 0.000000 0.614939
O O8 0.421464 0.204853 0.358632
O O9 0.500000 0.000000 0.281728
O O10 0.678103 0.738399 0.476394
O O11 0.679266 0.000000 0.398371
O O12 0.270087 0.244981 0.124316
O O13 0.341088 0.000000 0.072013
O O14 0.132788 0.768729 0.557682
O O15 0.192312 0.000000 0.631873
O O16 0.000000 0.224863 0.474437
O O17 0.903123 0.000000 0.467759
#
# Coordination Sequence:
#
# PCOD9359305 Si02
#       7
#     8   4   4   8   8   8   8
#     4  11  23  39  63  96 128 165 213 263 313 371
#     4  12  25  40  59  85 123 167 211 259 314 371
#     4  10  23  40  59  87 121 161 211 263 312 365
#     4  11  22  39  62  88 124 168 211 257 316 375
#     4  12  24  39  62  91 124 162 212 264 312 368
#     4  10  22  41  65  93 129 169 210 255 315 381
#     4  10  22  42  67  93 125 168 211 256 316 383
#
# _framework density 19.556190000000001
#
# number of rings (size 3 to 8) (size 9 to 14) (size 15 to 20)
#    0.000    1.167    1.667    4.750    0.000    7.000 
#    0.000    1.667    0.000    0.000    0.000    0.000 
#    0.000    0.000    0.000    0.000    0.000    0.000 
#
# Total GULP energy -134209.394105 kJ/mol
# GULP energy per Si atom -5592.058088 kJ/mol
# Density = 1.951168 g / cm^3
# Si number density = 19.556190 Si / 1000 Ang^3
#
#
#
# Elastic Constant Matrix: (Units=GPa)
#
#
# Indices 1 2 3 4 5 6 
#
# 1 130.2792 38.3412 65.1578 0.0000 0.0000 0.0000
# 2 38.3412 51.4770 52.2155 0.0000 0.0000 0.0000
# 3 65.1578 52.2155 155.9782 0.0000 0.0000 0.0000
# 4 0.0000 0.0000 0.0000 29.6143 0.0000 0.0000
# 5 0.0000 0.0000 0.0000 0.0000 9.0497 0.0000
# 6 0.0000 0.0000 0.0000 0.0000 0.0000 15.1698
#
#
#
# Elastic Compliance Matrix: (Units=1/GPa)
#
#
# Indices 1 2 3 4 5 6 
#
# 1 0.010524 -0.005116 -0.002683 0.000000 0.000000 0.000000
# 2 -0.005116 0.031902 -0.008542 0.000000 0.000000 0.000000
# 3 -0.002683 -0.008542 0.010392 0.000000 0.000000 0.000000
# 4 0.000000 0.000000 0.000000 0.033767 0.000000 0.000000
# 5 0.000000 0.000000 0.000000 0.000000 0.110501 0.000000
# 6 0.000000 0.000000 0.000000 0.000000 0.000000 0.065921
#
#
# Mechanical properties :
#
#
# Convention : Reuss Voigt Hill
#
# Bulk Modulus (GPa) = 49.66924 72.12926 60.89925
# Shear Modulus (GPa) = 16.53435 22.90143 19.71789
#
# Velocity S-wave (km/s) = 2.91087 3.42578 3.17877
# Velocity P-wave (km/s) = 6.06225 7.25335 6.68439
#
# Compressibility (1/GPa) = 0.02013319
#
# Stress axis : x y z
#
# Youngs Moduli (GPa) = 95.02442 31.34640 96.23112
#
# Poissons Ratio (x) = 0.16038 0.25822
# Poissons Ratio (y) = 0.48618 0.82202
# Poissons Ratio (z) = 0.25498 0.26776
#
# Static dielectric constant tensor:
#      x y z
#    x 1.685280 0.000000 0.000000 
#    y 0.000000 1.654480 0.000000 
#    z 0.000000 0.000000 1.699530 
# 
# From -- ./inp_files/15006.got.cif
#   From: 2010.05.17/outbox.cif.g08.bks.cpg/sg38_8_cif.got.tgz:15006.got - 2010.06.03 18:07:57.
