data_PCOD9359381
_publ_section_title
;
Structure prediction by ZEFSAII (Michael W. Deem and Ramdas Pophale) SiO2 
 PCOD9359381
Probable space group: A M M 2
;
_chemical_formula_sum "Si O2"
_cell_formula_units_Z 64
_cell_length_a 8.534445
_cell_length_b 20.255971
_cell_length_c 21.383945
_cell_angle_alpha 90.000000
_cell_angle_beta 90.000000
_cell_angle_gamma 90.000000
_cell_volume 3696.716783
_symmetry_space_group_name_H-M "A M M 2"
_symmetry_group_IT_number 38
_symmetry_cell_setting 'orthorhombic'
loop_
_space_group_symop_operation_xyz
x,y,z
-x,-y,z
-x,y,z
x,-y,z
x,1/2+y,1/2+z
-x,1/2-y,1/2+z
-x,1/2+y,1/2+z
x,1/2-y,1/2+z
loop_
_atom_site_type_symbol
_atom_site_label
_atom_site_fract_x
_atom_site_fract_y
_atom_site_fract_z
Si Si1 0.186796 0.210405 0.881560
Si Si2 0.810775 0.927178 0.690624
Si Si3 0.310672 0.926750 0.549079
Si Si4 0.687413 0.787815 0.500870
Si Si5 0.688560 0.925804 0.075968
Si Si6 0.812777 0.709225 0.621386
Si Si7 0.191328 0.288635 0.243448
Si Si8 0.311260 0.074342 0.928322
O O1 0.242302 0.231896 0.812640
O O2 0.233641 0.134078 0.891784
O O3 0.000000 0.215472 0.883965
O O4 0.254840 0.252883 0.938193
O O5 0.754574 0.918843 0.619240
O O6 0.757541 0.863871 0.729511
O O7 0.000000 0.926912 0.690744
O O8 0.757876 0.000000 0.712427
O O9 0.500000 0.925551 0.552502
O O10 0.260127 0.863929 0.508540
O O11 0.263263 0.000000 0.526643
O O12 0.500000 0.785772 0.501151
O O13 0.745732 0.748263 0.561733
O O14 0.500000 0.921678 0.080489
O O15 0.763238 0.866644 0.114363
O O16 0.736289 0.000000 0.094594
O O17 0.727210 0.917807 0.002198
O O18 0.757464 0.742885 0.685864
O O19 0.000000 0.714436 0.619086
O O20 0.000000 0.288315 0.243288
O O21 0.500000 0.078878 0.923110
O O22 0.264143 0.000000 0.909317
#
# Coordination Sequence:
#
# PCOD9359381 Si02
#       8
#     8   8   8   8   8   8   8   8
#     4  11  22  35  52  75 104 141 179 216 254 305
#     4   9  16  29  50  73 101 136 169 202 245 298
#     4   9  18  32  51  76 103 130 165 210 256 301
#     4  11  21  34  53  77 105 136 170 215 265 308
#     4   9  18  33  53  77 107 137 166 210 264 310
#     4  11  20  33  55  80 104 134 174 217 257 306
#     4   9  20  35  49  73 108 139 171 212 259 301
#     4   9  18  33  51  73 106 142 172 209 257 305
#
# _framework density 17.312660000000001
#
# number of rings (size 3 to 8) (size 9 to 14) (size 15 to 20)
#    0.000    2.250    2.500    1.875    0.000    1.500 
#    0.000    6.250    0.000    2.250    0.000    3.500 
#    0.000    0.000    0.000    0.000    0.000    0.000 
#
# Total GULP energy -178488.746331 kJ/mol
# GULP energy per Si atom -5577.773323 kJ/mol
# Density = 1.727326 g / cm^3
# Si number density = 17.312660 Si / 1000 Ang^3
#
#
#
# Elastic Constant Matrix: (Units=GPa)
#
#
# Indices 1 2 3 4 5 6 
#
# 1 18.7788 24.8748 22.7939 0.0000 0.0000 0.0000
# 2 24.8748 125.9495 76.7467 0.0000 0.0000 0.0000
# 3 22.7939 76.7467 123.8617 0.0000 0.0000 0.0000
# 4 0.0000 0.0000 0.0000 20.1679 0.0000 0.0000
# 5 0.0000 0.0000 0.0000 0.0000 -30.2051 0.0000
# 6 0.0000 0.0000 0.0000 0.0000 0.0000 20.5237
#
#
#
# Elastic Compliance Matrix: (Units=1/GPa)
#
#
# Indices 1 2 3 4 5 6 
#
# 1 0.076280 -0.010461 -0.007556 0.000000 0.000000 0.000000
# 2 -0.010461 0.014190 -0.006867 0.000000 0.000000 0.000000
# 3 -0.007556 -0.006867 0.013719 0.000000 0.000000 0.000000
# 4 0.000000 0.000000 0.000000 0.049584 0.000000 0.000000
# 5 0.000000 0.000000 0.000000 0.000000 -0.033107 0.000000
# 6 0.000000 0.000000 0.000000 0.000000 0.000000 0.048724
#
#
# Mechanical properties :
#
#
# Convention : Reuss Voigt Hill
#
# Bulk Modulus (GPa) = 18.37536 57.49122 37.93329
# Shear Modulus (GPa) = 21.07047 11.70892 16.38970
#
# Velocity S-wave (km/s) = 3.49242 2.60344 3.08017
# Velocity P-wave (km/s) = 5.18647 6.50514 5.88287
#
# Compressibility (1/GPa) = 0.05442071
#
# Stress axis : x y z
#
# Youngs Moduli (GPa) = 13.10966 70.47015 72.89074
#
# Poissons Ratio (x) = 0.73720 0.55074
# Poissons Ratio (y) = 0.13714 0.50058
# Poissons Ratio (z) = 0.09905 0.48395
#
# Static dielectric constant tensor:
#      x y z
#    x 1.590710 0.000000 0.000000 
#    y 0.000000 1.611700 0.000000 
#    z 0.000000 0.000000 1.572260 
# 
# From -- ./inp_files/20232.got.cif
#   From: 2010.05.17/outbox.cif.g08.bks.cpg/sg38_11_cif.got.tgz:20232.got - 2010.06.03 18:07:57.
