data_PCOD9359254
_publ_section_title
;
Structure prediction by ZEFSAII (Michael W. Deem and Ramdas Pophale) SiO2 
 PCOD9359254
Probable space group: A M M 2
;
_chemical_formula_sum "Si O2"
_cell_formula_units_Z 56
_cell_length_a 7.607746
_cell_length_b 21.487690
_cell_length_c 14.875552
_cell_angle_alpha 90.000000
_cell_angle_beta 90.000000
_cell_angle_gamma 90.000000
_cell_volume 2431.749441
_symmetry_space_group_name_H-M "A M M 2"
_symmetry_group_IT_number 38
_symmetry_cell_setting 'orthorhombic'
loop_
_space_group_symop_operation_xyz
x,y,z
-x,-y,z
-x,y,z
x,-y,z
x,1/2+y,1/2+z
-x,1/2-y,1/2+z
-x,1/2+y,1/2+z
x,1/2-y,1/2+z
loop_
_atom_site_type_symbol
_atom_site_label
_atom_site_fract_x
_atom_site_fract_y
_atom_site_fract_z
Si Si1 0.704727 0.500000 0.081780
Si Si2 0.700080 0.871300 0.300872
Si Si3 0.200904 0.185328 0.815144
Si Si4 0.285494 0.928270 0.124475
Si Si5 0.711992 0.571757 0.422274
Si Si6 0.201079 0.000000 0.378851
Si Si7 0.786692 0.358003 0.126552
Si Si8 0.802424 0.717722 0.952092
O O1 0.500000 0.500000 0.060551
O O2 0.740153 0.432035 0.126790
O O3 0.802324 0.500000 0.986406
O O4 0.500000 0.847254 0.297058
O O5 0.773047 0.880776 0.200895
O O6 0.807241 0.831035 0.370363
O O7 0.701801 0.939940 0.342210
O O8 0.201550 0.115244 0.850075
O O9 0.277175 0.179490 0.715008
O O10 0.283114 0.224218 0.898441
O O11 0.000000 0.208263 0.805914
O O12 0.500000 0.928930 0.128089
O O13 0.230163 0.000000 0.141557
O O14 0.234344 0.911056 0.023797
O O15 0.500000 0.577414 0.416115
O O16 0.756294 0.500000 0.408902
O O17 0.000000 0.000000 0.346210
O O18 0.000000 0.356967 0.126377
O O19 0.725944 0.320456 0.036937
O O20 0.000000 0.736828 0.979792
#
# Coordination Sequence:
#
# PCOD9359254 Si02
#       8
#     4   8   8   8   8   4   8   8
#     4  12  24  38  62  95 124 157 212 265 306 366
#     4  11  20  33  57  87 117 155 202 251 297 354
#     4  10  23  41  61  86 117 159 205 249 305 374
#     4   8  15  30  52  79 113 149 184 229 292 349
#     4   9  19  37  60  84 113 152 195 247 310 363
#     4  12  22  34  54  85 124 161 194 243 314 370
#     4  10  22  41  63  88 125 167 203 252 322 372
#     4  10  22  40  59  82 118 162 203 244 301 371
#
# _framework density 23.028689
#
# number of rings (size 3 to 8) (size 9 to 14) (size 15 to 20)
#    0.000    2.000    2.143    2.571    1.000    2.571 
#    0.000    2.857    0.000    0.000    0.000    0.000 
#    0.000    0.000    0.000    0.000    0.000    0.000 
#
# Total GULP energy -156201.732738 kJ/mol
# GULP energy per Si atom -5578.633312 kJ/mol
# Density = 2.297628 g / cm^3
# Si number density = 23.028689 Si / 1000 Ang^3
#
#
#
# Elastic Constant Matrix: (Units=GPa)
#
#
# Indices 1 2 3 4 5 6 
#
# 1 66.4482 3.9014 9.7020 0.0000 0.0000 0.0000
# 2 3.9014 78.4207 58.3132 0.0000 0.0000 0.0000
# 3 9.7020 58.3132 132.4192 0.0000 0.0000 0.0000
# 4 0.0000 0.0000 0.0000 17.9056 0.0000 0.0000
# 5 0.0000 0.0000 0.0000 0.0000 11.1000 0.0000
# 6 0.0000 0.0000 0.0000 0.0000 0.0000 14.3486
#
#
#
# Elastic Compliance Matrix: (Units=1/GPa)
#
#
# Indices 1 2 3 4 5 6 
#
# 1 0.015213 0.000107 -0.001162 0.000000 0.000000 0.000000
# 2 0.000107 0.018961 -0.008358 0.000000 0.000000 0.000000
# 3 -0.001162 -0.008358 0.011317 0.000000 0.000000 0.000000
# 4 0.000000 0.000000 0.000000 0.055849 0.000000 0.000000
# 5 0.000000 0.000000 0.000000 0.000000 0.090090 0.000000
# 6 0.000000 0.000000 0.000000 0.000000 0.000000 0.069693
#
#
# Mechanical properties :
#
#
# Convention : Reuss Voigt Hill
#
# Bulk Modulus (GPa) = 37.50049 46.79127 42.14588
# Shear Modulus (GPa) = 17.31079 22.36225 19.83652
#
# Velocity S-wave (km/s) = 2.74470 3.11957 2.93812
# Velocity P-wave (km/s) = 5.13460 5.77394 5.46363
#
# Compressibility (1/GPa) = 0.02666632
#
# Stress axis : x y z
#
# Youngs Moduli (GPa) = 65.73476 52.73930 88.35968
#
# Poissons Ratio (x) = -0.00564 0.10265
# Poissons Ratio (y) = -0.00703 0.73849
# Poissons Ratio (z) = 0.07637 0.44078
#
# Static dielectric constant tensor:
#      x y z
#    x 1.787350 0.000000 0.000000 
#    y 0.000000 1.910310 0.000000 
#    z 0.000000 0.000000 1.868400 
# 
# From -- ./inp_files/12523.got.cif
#   From: 2010.05.17/outbox.cif.g08.bks.cpg/sg38_7_cif.got.tgz:12523.got - 2010.06.03 18:07:57.
