data_PCOD9359161
_publ_section_title
;
Structure prediction by ZEFSAII (Michael W. Deem and Ramdas Pophale) SiO2 
 PCOD9359161
Probable space group: A M M 2
;
_chemical_formula_sum "Si O2"
_cell_formula_units_Z 48
_cell_length_a 8.386900
_cell_length_b 18.849136
_cell_length_c 15.262495
_cell_angle_alpha 90.000000
_cell_angle_beta 90.000000
_cell_angle_gamma 90.000000
_cell_volume 2412.784018
_symmetry_space_group_name_H-M "A M M 2"
_symmetry_group_IT_number 38
_symmetry_cell_setting 'orthorhombic'
loop_
_space_group_symop_operation_xyz
x,y,z
-x,-y,z
-x,y,z
x,-y,z
x,1/2+y,1/2+z
-x,1/2-y,1/2+z
-x,1/2+y,1/2+z
x,1/2-y,1/2+z
loop_
_atom_site_type_symbol
_atom_site_label
_atom_site_fract_x
_atom_site_fract_y
_atom_site_fract_z
Si Si1 0.811176 0.380599 0.060130
Si Si2 0.684858 0.263371 0.618085
Si Si3 0.807420 0.154831 0.955990
Si Si4 0.689798 0.922644 0.375474
Si Si5 0.193605 0.000000 0.693932
Si Si6 0.189694 0.772342 0.311336
Si Si7 0.804890 0.000000 0.893550
O O1 0.712947 0.308874 0.064748
O O2 0.759728 0.431050 0.139366
O O3 0.000000 0.364946 0.067291
O O4 0.777361 0.418407 0.968770
O O5 0.500000 0.276381 0.635200
O O6 0.753105 0.322338 0.552565
O O7 0.771763 0.253520 0.710992
O O8 0.753768 0.212370 0.881518
O O9 0.000000 0.155920 0.953235
O O10 0.753869 0.074679 0.935109
O O11 0.500000 0.920670 0.389309
O O12 0.738707 0.850494 0.327189
O O13 0.728251 0.000000 0.334317
O O14 0.248784 0.000000 0.792773
O O15 0.000000 0.000000 0.694589
O O16 0.000000 0.777487 0.323033
O O17 0.000000 0.000000 0.894522
#
# Coordination Sequence:
#
# PCOD9359161 Si02
#       7
#     8   8   8   8   4   8   4
#     4  11  20  35  60  90 123 160 207 253 304 373
#     4  12  25  40  61  89 125 166 208 259 319 375
#     4  10  21  40  66  92 122 160 206 260 310 372
#     4  11  23  39  60  90 130 165 199 251 318 379
#     4   9  18  32  57  92 123 152 195 255 312 364
#     4  11  23  41  67  93 121 162 216 262 307 375
#     4   9  18  36  61  90 121 154 197 255 314 360
#
# _framework density 19.894031999999999
#
# number of rings (size 3 to 8) (size 9 to 14) (size 15 to 20)
#    0.000    1.333    2.500    4.000    0.000    4.333 
#    1.500    0.417    0.000    2.000    0.000    0.000 
#    0.000    0.000    0.000    0.000    0.000    0.000 
#
# Total GULP energy -134016.083385 kJ/mol
# GULP energy per Si atom -5584.003474 kJ/mol
# Density = 1.984875 g / cm^3
# Si number density = 19.894032 Si / 1000 Ang^3
#
#
#
# Elastic Constant Matrix: (Units=GPa)
#
#
# Indices 1 2 3 4 5 6 
#
# 1 30.4935 16.8984 3.1611 0.0000 0.0000 0.0000
# 2 16.8984 120.7029 15.8163 0.0000 0.0000 0.0000
# 3 3.1611 15.8163 52.7612 0.0000 0.0000 0.0000
# 4 0.0000 0.0000 0.0000 26.4332 0.0000 0.0000
# 5 0.0000 0.0000 0.0000 0.0000 14.5941 0.0000
# 6 0.0000 0.0000 0.0000 0.0000 0.0000 14.8050
#
#
#
# Elastic Compliance Matrix: (Units=1/GPa)
#
#
# Indices 1 2 3 4 5 6 
#
# 1 0.035575 -0.004893 -0.000664 0.000000 0.000000 0.000000
# 2 -0.004893 0.009297 -0.002494 0.000000 0.000000 0.000000
# 3 -0.000664 -0.002494 0.019741 0.000000 0.000000 0.000000
# 4 0.000000 0.000000 0.000000 0.037831 0.000000 0.000000
# 5 0.000000 0.000000 0.000000 0.000000 0.068521 0.000000
# 6 0.000000 0.000000 0.000000 0.000000 0.000000 0.067545
#
#
# Mechanical properties :
#
#
# Convention : Reuss Voigt Hill
#
# Bulk Modulus (GPa) = 20.61484 30.63435 25.62460
# Shear Modulus (GPa) = 18.46509 22.37192 20.41851
#
# Velocity S-wave (km/s) = 3.04990 3.35708 3.20717
# Velocity P-wave (km/s) = 4.77361 5.51895 5.15975
#
# Compressibility (1/GPa) = 0.04850874
#
# Stress axis : x y z
#
# Youngs Moduli (GPa) = 28.11002 107.56578 50.65686
#
# Poissons Ratio (x) = 0.52636 0.03366
# Poissons Ratio (y) = 0.13755 0.12632
# Poissons Ratio (z) = 0.01868 0.26824
#
# Static dielectric constant tensor:
#      x y z
#    x 1.683510 0.000000 0.000000 
#    y 0.000000 1.739490 0.000000 
#    z 0.000000 0.000000 1.675990 
# 
# From -- ./inp_files/12079.got.cif
#   From: 2010.05.17/outbox.cif.g08.bks.cpg/sg38_7_cif.got.tgz:12079.got - 2010.06.03 18:07:57.
