data_PCOD9359948
_publ_section_title
;
Structure prediction by ZEFSAII (Michael W. Deem and Ramdas Pophale) SiO2 
 PCOD9359948
Probable space group: A B M 2
;
_chemical_formula_sum "Si O2"
_cell_formula_units_Z 64
_cell_length_a 15.033477
_cell_length_b 8.553673
_cell_length_c 25.226864
_cell_angle_alpha 90.000000
_cell_angle_beta 90.000000
_cell_angle_gamma 90.000000
_cell_volume 3243.958928
_symmetry_space_group_name_H-M "A B M 2"
_symmetry_group_IT_number 39
_symmetry_cell_setting 'orthorhombic'
loop_
_space_group_symop_operation_xyz
x,y,z
-x,-y,z
-x,1/2+y,z
x,1/2-y,z
x,1/2+y,1/2+z
-x,1/2-y,1/2+z
-x,y,1/2+z
x,-y,1/2+z
loop_
_atom_site_type_symbol
_atom_site_label
_atom_site_fract_x
_atom_site_fract_y
_atom_site_fract_z
Si Si1 0.219684 0.563106 0.805550
Si Si2 0.594098 0.565221 0.529275
Si Si3 0.366935 0.565938 0.643327
Si Si4 0.088433 0.434774 0.210886
Si Si5 0.899255 0.063527 0.400869
Si Si6 0.787896 0.437839 0.504782
Si Si7 0.406135 0.061158 0.263467
Si Si8 0.180597 0.067148 0.617050
O O1 0.220886 0.750000 0.814450
O O2 0.170374 0.535325 0.749862
O O3 0.160711 0.488193 0.851250
O O4 0.321055 0.508054 0.797487
O O5 0.500000 0.500000 0.508583
O O6 0.598034 0.750000 0.522026
O O7 0.596910 0.525595 0.592318
O O8 0.684037 0.490214 0.505077
O O9 0.387564 0.750000 0.637422
O O10 0.396219 0.511424 0.701576
O O11 0.261583 0.538272 0.638707
O O12 0.082225 0.250000 0.201510
O O13 0.101208 0.528472 0.156523
O O14 0.000000 0.500000 0.238128
O O15 0.905314 0.250000 0.401310
O O16 0.844067 0.014878 0.453336
O O17 0.000000 0.000000 0.399276
O O18 0.789826 0.250000 0.510093
O O19 0.831227 0.516169 0.556631
O O20 0.404910 0.250000 0.262913
O O21 0.500000 0.000000 0.283787
O O22 0.204047 0.250000 0.619362
#
# Coordination Sequence:
#
# PCOD9359948 Si02
#       8
#     8   8   8   8   8   8   8   8
#     4  10  22  42  64  87 121 159 200 250 303 355
#     4  11  21  34  55  87 123 163 207 248 300 358
#     4  10  18  33  54  80 120 163 205 248 294 349
#     4  11  22  38  58  85 120 158 198 243 301 365
#     4  11  25  44  69  95 117 151 199 251 308 364
#     4  10  22  41  62  87 121 158 201 253 304 358
#     4  10  21  36  56  86 120 161 202 244 295 351
#     4  11  21  34  56  87 121 160 200 242 300 359
#
# _framework density 19.728978999999999
#
# number of rings (size 3 to 8) (size 9 to 14) (size 15 to 20)
#    0.000    1.500    1.250    6.000    0.000    7.000 
#    0.000    1.875    0.000    1.500    0.000    0.000 
#    0.000    0.000    0.000    0.000    0.000    0.000 
#
# Total GULP energy -178726.532439 kJ/mol
# GULP energy per Si atom -5585.204139 kJ/mol
# Density = 1.968407 g / cm^3
# Si number density = 19.728979 Si / 1000 Ang^3
#
#
#
# Elastic Constant Matrix: (Units=GPa)
#
#
# Indices 1 2 3 4 5 6 
#
# 1 144.5240 29.3189 60.2549 0.0000 0.0000 0.0000
# 2 29.3189 51.8728 32.0443 0.0000 0.0000 0.0000
# 3 60.2549 32.0443 102.8119 0.0000 0.0000 0.0000
# 4 0.0000 0.0000 0.0000 13.9245 0.0000 0.0000
# 5 0.0000 0.0000 0.0000 0.0000 11.2802 0.0000
# 6 0.0000 0.0000 0.0000 0.0000 0.0000 31.5638
#
#
#
# Elastic Compliance Matrix: (Units=1/GPa)
#
#
# Indices 1 2 3 4 5 6 
#
# 1 0.009384 -0.002361 -0.004764 0.000000 0.000000 0.000000
# 2 -0.002361 0.024469 -0.006243 0.000000 0.000000 0.000000
# 3 -0.004764 -0.006243 0.014464 0.000000 0.000000 0.000000
# 4 0.000000 0.000000 0.000000 0.071816 0.000000 0.000000
# 5 0.000000 0.000000 0.000000 0.000000 0.088651 0.000000
# 6 0.000000 0.000000 0.000000 0.000000 0.000000 0.031682
#
#
# Mechanical properties :
#
#
# Convention : Reuss Voigt Hill
#
# Bulk Modulus (GPa) = 46.33509 60.27166 53.30338
# Shear Modulus (GPa) = 18.22187 23.19307 20.70747
#
# Velocity S-wave (km/s) = 3.04239 3.43240 3.24326
# Velocity P-wave (km/s) = 5.98985 6.80622 6.41104
#
# Compressibility (1/GPa) = 0.02158191
#
# Stress axis : x y z
#
# Youngs Moduli (GPa) = 106.55878 40.86825 69.13606
#
# Poissons Ratio (x) = 0.09650 0.32937
# Poissons Ratio (y) = 0.25161 0.43159
# Poissons Ratio (z) = 0.50765 0.25512
#
# Static dielectric constant tensor:
#      x y z
#    x 1.754560 0.000000 0.000000 
#    y 0.000000 1.665660 0.000000 
#    z 0.000000 0.000000 1.687840 
# 
# From -- ./inp_files/16278.got.cif
#   From: 2010.05.17/outbox.cif.g08.bks.cpg/sg39_9_cif.got.tgz:16278.got - 2010.06.03 18:22:40.
