data_PCOD9359748
_publ_section_title
;
Structure prediction by ZEFSAII (Michael W. Deem and Ramdas Pophale) SiO2 
 PCOD9359748
Probable space group: A B M 2
;
_chemical_formula_sum "Si O2"
_cell_formula_units_Z 40
_cell_length_a 9.268408
_cell_length_b 8.597604
_cell_length_c 27.219965
_cell_angle_alpha 90.000000
_cell_angle_beta 90.000000
_cell_angle_gamma 90.000000
_cell_volume 2169.052899
_symmetry_space_group_name_H-M "A B M 2"
_symmetry_group_IT_number 39
_symmetry_cell_setting 'orthorhombic'
loop_
_space_group_symop_operation_xyz
x,y,z
-x,-y,z
-x,1/2+y,z
x,1/2-y,z
x,1/2+y,1/2+z
-x,1/2-y,1/2+z
-x,y,1/2+z
x,-y,1/2+z
loop_
_atom_site_type_symbol
_atom_site_label
_atom_site_fract_x
_atom_site_fract_y
_atom_site_fract_z
Si Si1 0.835364 0.564538 0.464440
Si Si2 0.338425 0.062597 0.659673
Si Si3 0.163371 0.564160 0.566977
Si Si4 0.162631 0.437310 0.755697
Si Si5 0.164361 0.936642 0.363616
O O1 0.838870 0.750000 0.466003
O O2 0.773550 0.497720 0.515152
O O3 0.768003 0.507484 0.413021
O O4 0.000000 0.500000 0.463854
O O5 0.337682 0.250000 0.657700
O O6 0.258338 0.011928 0.709809
O O7 0.500000 0.000000 0.659467
O O8 0.253528 0.996829 0.612890
O O9 0.158817 0.750000 0.566066
O O10 0.000000 0.500000 0.571411
O O11 0.154521 0.250000 0.754932
O O12 0.223587 0.480538 0.809753
O O13 0.000000 0.500000 0.750758
O O14 0.161797 0.750000 0.368276
O O15 0.000000 0.000000 0.361987
#
# Coordination Sequence:
#
# PCOD9359748 Si02
#       5
#     8   8   8   8   8
#     4  10  17  27  45  73 105 136 168 209 256 308
#     4  11  23  39  55  76 104 139 178 219 265 316
#     4  11  21  35  55  80 107 139 175 218 263 311
#     4   9  19  33  53  78 106 136 172 213 257 307
#     4   9  15  26  44  71 103 134 165 205 254 306
#
# _framework density 18.441229
#
# number of rings (size 3 to 8) (size 9 to 14) (size 15 to 20)
#    0.000    2.000    0.000    7.800    0.000    4.000 
#    0.000    0.000    0.000    1.200    0.000    5.600 
#    0.000    0.000    0.000    0.000    0.000    0.000 
#
# Total GULP energy -111557.162497 kJ/mol
# GULP energy per Si atom -5577.858125 kJ/mol
# Density = 1.839926 g / cm^3
# Si number density = 18.441229 Si / 1000 Ang^3
#
#
#
# Elastic Constant Matrix: (Units=GPa)
#
#
# Indices 1 2 3 4 5 6 
#
# 1 54.6415 24.8750 67.6666 0.0000 0.0000 0.0000
# 2 24.8750 118.3279 72.9266 0.0000 0.0000 0.0000
# 3 67.6666 72.9266 241.2077 0.0000 0.0000 0.0000
# 4 0.0000 0.0000 0.0000 32.8216 0.0000 0.0000
# 5 0.0000 0.0000 0.0000 0.0000 -11.8823 0.0000
# 6 0.0000 0.0000 0.0000 0.0000 0.0000 19.1588
#
#
#
# Elastic Compliance Matrix: (Units=1/GPa)
#
#
# Indices 1 2 3 4 5 6 
#
# 1 0.028204 -0.001294 -0.007521 0.000000 0.000000 0.000000
# 2 -0.001294 0.010446 -0.002795 0.000000 0.000000 0.000000
# 3 -0.007521 -0.002795 0.007101 0.000000 0.000000 0.000000
# 4 0.000000 0.000000 0.000000 0.030468 0.000000 0.000000
# 5 0.000000 0.000000 0.000000 0.000000 -0.084159 0.000000
# 6 0.000000 0.000000 0.000000 0.000000 0.000000 0.052195
#
#
# Mechanical properties :
#
#
# Convention : Reuss Voigt Hill
#
# Bulk Modulus (GPa) = 44.38431 82.79037 63.58734
# Shear Modulus (GPa) = 66.68022 24.60021 45.64021
#
# Velocity S-wave (km/s) = 6.01969 3.65633 4.98023
# Velocity P-wave (km/s) = 8.51093 7.92569 8.22352
#
# Compressibility (1/GPa) = 0.02253048
#
# Stress axis : x y z
#
# Youngs Moduli (GPa) = 35.45620 95.73225 140.82981
#
# Poissons Ratio (x) = 0.12386 1.05917
# Poissons Ratio (y) = 0.04587 0.39365
# Poissons Ratio (z) = 0.26666 0.26759
#
# Static dielectric constant tensor:
#      x y z
#    x 1.669690 0.000000 0.000000 
#    y 0.000000 1.620390 0.000000 
#    z 0.000000 0.000000 1.710140 
# 
# From -- ./inp_files/16737.got.cif
#   From: 2010.05.17/outbox.cif.g08.bks.cpg/sg39_9_cif.got.tgz:16737.got - 2010.06.03 18:22:40.
