data_PCOD9359864
_publ_section_title
;
Structure prediction by ZEFSAII (Michael W. Deem and Ramdas Pophale) SiO2 
 PCOD9359864
Probable space group: A B M 2
;
_chemical_formula_sum "Si O2"
_cell_formula_units_Z 48
_cell_length_a 9.472608
_cell_length_b 8.545965
_cell_length_c 32.877950
_cell_angle_alpha 90.000000
_cell_angle_beta 90.000000
_cell_angle_gamma 90.000000
_cell_volume 2661.554760
_symmetry_space_group_name_H-M "A B M 2"
_symmetry_group_IT_number 39
_symmetry_cell_setting 'orthorhombic'
loop_
_space_group_symop_operation_xyz
x,y,z
-x,-y,z
-x,1/2+y,z
x,1/2-y,z
x,1/2+y,1/2+z
-x,1/2-y,1/2+z
-x,y,1/2+z
x,-y,1/2+z
loop_
_atom_site_type_symbol
_atom_site_label
_atom_site_fract_x
_atom_site_fract_y
_atom_site_fract_z
Si Si1 0.159895 0.939208 0.210910
Si Si2 0.340244 0.436337 0.958462
Si Si3 0.160402 0.438501 0.622417
Si Si4 0.661128 0.563462 0.373458
Si Si5 0.659840 0.061912 0.288481
Si Si6 0.839336 0.938609 0.533439
O O1 0.156354 0.750000 0.211542
O O2 0.219776 0.988574 0.166399
O O3 0.251912 0.990813 0.249259
O O4 0.000000 0.000000 0.214287
O O5 0.500000 0.500000 0.962364
O O6 0.344951 0.250000 0.956233
O O7 0.277744 0.501665 0.915940
O O8 0.250955 0.492191 0.996895
O O9 0.158431 0.250000 0.622336
O O10 0.219471 0.486286 0.578332
O O11 0.000000 0.500000 0.622562
O O12 0.500000 0.500000 0.373468
O O13 0.659475 0.750000 0.373338
O O14 0.722669 0.500601 0.331094
O O15 0.656581 0.250000 0.290054
O O16 0.500000 0.000000 0.284965
O O17 0.839669 0.750000 0.530927
O O18 0.000000 0.000000 0.530796
#
# Coordination Sequence:
#
# PCOD9359864 Si02
#       6
#     8   8   8   8   8   8
#     4   9  18  32  51  74 100 130 165 204 245 290
#     4  11  21  35  54  76 102 132 168 208 252 300
#     4   8  15  29  49  71  97 130 166 202 240 289
#     4  10  18  31  51  73  97 128 166 203 245 297
#     4  10  19  32  50  73 100 130 165 203 245 292
#     4  10  19  33  53  77 104 134 169 208 251 298
#
# _framework density 18.034571
#
# number of rings (size 3 to 8) (size 9 to 14) (size 15 to 20)
#    0.000    2.333    0.000    6.000    0.000    2.000 
#    0.000    1.667    0.000    4.000    0.000    0.000 
#    0.000    0.000    0.000    0.000    0.000    0.000 
#
# Total GULP energy -133730.401068 kJ/mol
# GULP energy per Si atom -5572.100044 kJ/mol
# Density = 1.799352 g / cm^3
# Si number density = 18.034571 Si / 1000 Ang^3
#
#
#
# Elastic Constant Matrix: (Units=GPa)
#
#
# Indices 1 2 3 4 5 6 
#
# 1 35.9962 16.4403 59.5098 0.0000 0.0000 0.0000
# 2 16.4403 89.2968 56.0743 0.0000 0.0000 0.0000
# 3 59.5098 56.0743 241.2152 0.0000 0.0000 0.0000
# 4 0.0000 0.0000 0.0000 24.2068 0.0000 0.0000
# 5 0.0000 0.0000 0.0000 0.0000 34.1501 0.0000
# 6 0.0000 0.0000 0.0000 0.0000 0.0000 20.2650
#
#
#
# Elastic Compliance Matrix: (Units=1/GPa)
#
#
# Indices 1 2 3 4 5 6 
#
# 1 0.047113 -0.001610 -0.011249 0.000000 0.000000 0.000000
# 2 -0.001610 0.013168 -0.002664 0.000000 0.000000 0.000000
# 3 -0.011249 -0.002664 0.007540 0.000000 0.000000 0.000000
# 4 0.000000 0.000000 0.000000 0.041311 0.000000 0.000000
# 5 0.000000 0.000000 0.000000 0.000000 0.029283 0.000000
# 6 0.000000 0.000000 0.000000 0.000000 0.000000 0.049346
#
#
# Mechanical properties :
#
#
# Convention : Reuss Voigt Hill
#
# Bulk Modulus (GPa) = 27.19223 70.06190 48.62706
# Shear Modulus (GPa) = 21.63900 31.35663 26.49782
#
# Velocity S-wave (km/s) = 3.46766 4.17429 3.83728
# Velocity P-wave (km/s) = 5.58063 7.88454 6.83042
#
# Compressibility (1/GPa) = 0.03677522
#
# Stress axis : x y z
#
# Youngs Moduli (GPa) = 21.22560 75.94278 132.62399
#
# Poissons Ratio (x) = 0.12228 1.49187
# Poissons Ratio (y) = 0.03418 0.35329
# Poissons Ratio (z) = 0.23876 0.20230
#
# Static dielectric constant tensor:
#      x y z
#    x 1.548890 0.000000 0.000000 
#    y 0.000000 1.602450 0.000000 
#    z 0.000000 0.000000 1.694420 
# 
# From -- ./inp_files/16900.got.cif
#   From: 2010.05.17/outbox.cif.g08.bks.cpg/sg39_9_cif.got.tgz:16900.got - 2010.06.03 18:22:40.
