data_PCOD9359066
_publ_section_title
;
Structure prediction by ZEFSAII (Michael W. Deem and Ramdas Pophale) SiO2 
 PCOD9359066
Probable space group: A M M 2
;
_chemical_formula_sum "Si O2"
_cell_formula_units_Z 40
_cell_length_a 8.430380
_cell_length_b 12.536070
_cell_length_c 17.089168
_cell_angle_alpha 90.000000
_cell_angle_beta 90.000000
_cell_angle_gamma 90.000000
_cell_volume 1806.048791
_symmetry_space_group_name_H-M "A M M 2"
_symmetry_group_IT_number 38
_symmetry_cell_setting 'orthorhombic'
loop_
_space_group_symop_operation_xyz
x,y,z
-x,-y,z
-x,y,z
x,-y,z
x,1/2+y,1/2+z
-x,1/2-y,1/2+z
-x,1/2+y,1/2+z
x,1/2-y,1/2+z
loop_
_atom_site_type_symbol
_atom_site_label
_atom_site_fract_x
_atom_site_fract_y
_atom_site_fract_z
Si Si1 0.178954 0.379783 0.825610
Si Si2 0.680037 0.173230 0.772931
Si Si3 0.190320 0.000000 0.894085
Si Si4 0.681538 0.883117 0.490243
Si Si5 0.807907 0.500000 0.578872
Si Si6 0.812032 0.763228 0.119025
O O1 0.203169 0.500000 0.797502
O O2 0.307296 0.295681 0.799283
O O3 0.196764 0.381191 0.918824
O O4 0.000000 0.346262 0.802251
O O5 0.500000 0.139620 0.758541
O O6 0.751538 0.100868 0.842190
O O7 0.774463 0.185195 0.691851
O O8 0.242812 0.000000 0.985973
O O9 0.000000 0.000000 0.895264
O O10 0.500000 0.875888 0.461312
O O11 0.719435 0.787781 0.547187
O O12 0.696677 0.000000 0.529176
O O13 0.763074 0.388682 0.621640
O O14 0.000000 0.500000 0.577662
O O15 0.000000 0.761223 0.104862
#
# Coordination Sequence:
#
# PCOD9359066 Si02
#       6
#     8   8   4   8   4   8
#     4  10  21  39  64  92 123 164 214 263 314 384
#     4  12  26  42  62  94 134 171 213 271 331 388
#     4  11  23  45  73  99 128 173 224 273 331 401
#     4  10  21  38  61  91 127 163 204 261 323 384
#     4   9  22  43  69  97 126 163 218 277 323 383
#     4  11  23  41  65  93 127 169 216 268 324 390
#
# _framework density 22.147794999999999
#
# number of rings (size 3 to 8) (size 9 to 14) (size 15 to 20)
#    0.000    1.400    0.000    5.100    2.800    4.000 
#    0.000    4.500    0.000    0.000    0.000    0.000 
#    0.000    0.000    0.000    0.000    0.000    0.000 
#
# Total GULP energy -111623.870381 kJ/mol
# GULP energy per Si atom -5581.193519 kJ/mol
# Density = 2.209739 g / cm^3
# Si number density = 22.147795 Si / 1000 Ang^3
#
#
#
# Elastic Constant Matrix: (Units=GPa)
#
#
# Indices 1 2 3 4 5 6 
#
# 1 71.4070 22.0778 -2.4972 0.0000 0.0000 0.0000
# 2 22.0778 59.6793 7.9517 0.0000 0.0000 0.0000
# 3 -2.4972 7.9517 51.6344 0.0000 0.0000 0.0000
# 4 0.0000 0.0000 0.0000 37.2365 0.0000 0.0000
# 5 0.0000 0.0000 0.0000 0.0000 25.2658 0.0000
# 6 0.0000 0.0000 0.0000 0.0000 0.0000 -20.8133
#
#
#
# Elastic Compliance Matrix: (Units=1/GPa)
#
#
# Indices 1 2 3 4 5 6 
#
# 1 0.015961 -0.006133 0.001716 0.000000 0.000000 0.000000
# 2 -0.006133 0.019464 -0.003294 0.000000 0.000000 0.000000
# 3 0.001716 -0.003294 0.019957 0.000000 0.000000 0.000000
# 4 0.000000 0.000000 0.000000 0.026855 0.000000 0.000000
# 5 0.000000 0.000000 0.000000 0.000000 0.039579 0.000000
# 6 0.000000 0.000000 0.000000 0.000000 0.000000 -0.048046
#
#
# Mechanical properties :
#
#
# Convention : Reuss Voigt Hill
#
# Bulk Modulus (GPa) = 25.02495 26.42060 25.72277
# Shear Modulus (GPa) = 48.77486 18.68370 33.72928
#
# Velocity S-wave (km/s) = 4.69790 2.90762 3.90669
# Velocity P-wave (km/s) = 6.38362 4.81948 5.65588
#
# Compressibility (1/GPa) = 0.03996013
#
# Stress axis : x y z
#
# Youngs Moduli (GPa) = 62.65461 51.37683 50.10718
#
# Poissons Ratio (x) = 0.31510 -0.08600
# Poissons Ratio (y) = 0.38427 0.16506
# Poissons Ratio (z) = -0.10754 0.16924
#
# Static dielectric constant tensor:
#      x y z
#    x 1.752950 0.000000 0.000000 
#    y 0.000000 1.827390 0.000000 
#    z 0.000000 0.000000 1.870480 
# 
# From -- ./inp_files/16325.got.cif
#   From: 2010.05.17/outbox.cif.g08.bks.cpg/sg38_9_cif.got.tgz:16325.got - 2010.06.03 18:07:57.
