data_PCOD9359564
_publ_section_title
;
Structure prediction by ZEFSAII (Michael W. Deem and Ramdas Pophale) SiO2 
 PCOD9359564
Probable space group: A M M 2
;
_chemical_formula_sum "Si O2"
_cell_formula_units_Z 32
_cell_length_a 18.000000
_cell_length_b 21.000000
_cell_length_c 9.000000
_cell_angle_alpha 90.000000
_cell_angle_beta 90.000000
_cell_angle_gamma 90.000000
_cell_volume 3402.000000
_symmetry_space_group_name_H-M "A M M 2"
_symmetry_group_IT_number 38
_symmetry_cell_setting 'orthorhombic'
loop_
_space_group_symop_operation_xyz
x,y,z
-x,-y,z
-x,y,z
x,-y,z
x,1/2+y,1/2+z
-x,1/2-y,1/2+z
-x,1/2+y,1/2+z
x,1/2-y,1/2+z
loop_
_atom_site_type_symbol
_atom_site_label
_atom_site_fract_x
_atom_site_fract_y
_atom_site_fract_z
Si Si1 0.088905 0.071459 0.948310
Si Si2 0.584854 0.570474 0.796303
Si Si3 0.911095 0.928541 0.282936
Si Si4 0.314099 0.186662 0.294569
Si Si5 0.152219 0.311755 0.290398
Si Si6 0.584854 0.929526 0.934943
Si Si7 0.847781 0.188245 0.440848
Si Si8 0.314099 0.313338 0.436678
O O1 0.111048 0.123584 0.829920
O O2 0.000000 0.068758 0.953945
O O3 0.116496 0.000000 0.916176
O O4 0.115203 0.089229 0.115623
O O5 0.500000 0.581687 0.843334
O O6 0.607774 0.500000 0.845285
O O7 0.639593 0.625544 0.842366
O O8 0.584656 0.570313 0.615623
O O9 0.888952 0.876416 0.401327
O O10 0.000000 0.931242 0.277301
O O11 0.883504 0.000000 0.315070
O O12 0.231975 0.182168 0.361597
O O13 0.348496 0.250000 0.365623
O O14 0.311475 0.190961 0.115623
O O15 0.114840 0.250000 0.365623
O O16 0.231975 0.317832 0.369650
O O17 0.160119 0.301759 0.115623
O O18 0.500000 0.918313 0.887913
O O19 0.639593 0.874456 0.888880
O O20 0.607774 0.000000 0.885962
#
# Coordination Sequence:
#
# PCOD9359564 Si02
#       8
#     8   8   8   8   8   8   8   8
#     4   9  19  37  59  81 106 136 170 209 254 306
#     4   8  15  29  49  73  99 128 166 209 250 297
#     4   9  19  37  59  81 106 136 170 209 254 306
#     4  10  19  32  51  74 101 133 168 209 256 305
#     4  11  22  36  54  76 105 139 175 216 258 304
#     4   8  15  29  49  73  99 128 166 209 250 297
#     4  11  22  36  54  76 105 139 175 216 258 304
#     4  10  19  32  51  74 101 133 168 209 256 305
#
# _framework density 9.4062319999999993
#
# number of rings (size 3 to 8) (size 9 to 14) (size 15 to 20)
#    0.000    2.500    0.000    6.000    0.000    3.000 
#    0.000    3.750    0.000    4.500    0.000    7.000 
#    0.000    0.000    0.000    0.000    0.000    0.000 
#
# Total GULP energy -178322.542240 kJ/mol
# GULP energy per Si atom -5572.579445 kJ/mol
# Density = 0.938482 g / cm^3
# Si number density = 9.406232 Si / 1000 Ang^3
#
#
#
# Elastic Constant Matrix: (Units=GPa)
#
#
# Indices 1 2 3 4 5 6 
#
# 1 23.7479 44.1041 16.7389 0.0000 0.0000 0.0000
# 2 44.1041 107.4413 50.0174 0.0000 0.0000 0.0000
# 3 16.7389 50.0174 86.9764 0.0000 0.0000 0.0000
# 4 0.0000 0.0000 0.0000 24.7378 0.0000 0.0000
# 5 0.0000 0.0000 0.0000 0.0000 10.4196 0.0000
# 6 0.0000 0.0000 0.0000 0.0000 0.0000 32.0857
#
#
#
# Elastic Compliance Matrix: (Units=1/GPa)
#
#
# Indices 1 2 3 4 5 6 
#
# 1 0.184587 -0.080889 0.010992 0.000000 0.000000 0.000000
# 2 -0.080889 0.048157 -0.012126 0.000000 0.000000 0.000000
# 3 0.010992 -0.012126 0.016355 0.000000 0.000000 0.000000
# 4 0.000000 0.000000 0.000000 0.040424 0.000000 0.000000
# 5 0.000000 0.000000 0.000000 0.000000 0.095973 0.000000
# 6 0.000000 0.000000 0.000000 0.000000 0.000000 0.031166
#
#
# Mechanical properties :
#
#
# Convention : Reuss Voigt Hill
#
# Bulk Modulus (GPa) = 11.75736 48.87626 30.31681
# Shear Modulus (GPa) = 8.20938 20.60231 14.40584
#
# Velocity S-wave (km/s) = 2.09124 3.31288 2.77024
# Velocity P-wave (km/s) = 3.47770 6.37736 5.13640
#
# Compressibility (1/GPa) = 0.08505312
#
# Stress axis : x y z
#
# Youngs Moduli (GPa) = 5.41751 20.76534 61.14244
#
# Poissons Ratio (x) = 1.67969 -0.67211
# Poissons Ratio (y) = 0.43822 0.74143
# Poissons Ratio (z) = -0.05955 0.25181
#
# Static dielectric constant tensor:
#      x y z
#    x 1.650470 0.000000 0.000000 
#    y 0.000000 1.712940 0.000000 
#    z 0.000000 0.000000 1.639700 
# 
# From -- ./inp_files/6522.got.cif
#   From: 2010.05.17/outbox.ucp.g08.bks.cvg/sg38_4_cif.got.tgz:6522.got - 2010.06.11 10:39:43.
