data_PCOD9359679
_publ_section_title
;
Structure prediction by ZEFSAII (Michael W. Deem and Ramdas Pophale) SiO2 
 PCOD9359679
Probable space group: A B M 2
;
_chemical_formula_sum "Si O2"
_cell_formula_units_Z 56
_cell_length_a 33.979993
_cell_length_b 14.248051
_cell_length_c 5.365316
_cell_angle_alpha 90.000000
_cell_angle_beta 90.000000
_cell_angle_gamma 90.000000
_cell_volume 2597.610623
_symmetry_space_group_name_H-M "A B M 2"
_symmetry_group_IT_number 39
_symmetry_cell_setting 'orthorhombic'
loop_
_space_group_symop_operation_xyz
x,y,z
-x,-y,z
-x,1/2+y,z
x,1/2-y,z
x,1/2+y,1/2+z
-x,1/2-y,1/2+z
-x,y,1/2+z
x,-y,1/2+z
loop_
_atom_site_type_symbol
_atom_site_label
_atom_site_fract_x
_atom_site_fract_y
_atom_site_fract_z
Si Si1 0.106834 0.400510 0.118160
Si Si2 0.400938 0.057675 0.070185
Si Si3 0.207053 0.250000 0.511994
Si Si4 0.138075 0.886168 0.117629
Si Si5 0.741978 0.250000 0.512605
Si Si6 0.518291 0.360060 0.431219
Si Si7 0.016191 0.105187 0.965197
Si Si8 0.310204 0.562548 0.532700
O O1 0.128510 0.502281 0.143443
O O2 0.109639 0.357284 0.391447
O O3 0.061864 0.404860 0.032457
O O4 0.129008 0.350487 0.893380
O O5 0.436595 0.126338 0.007979
O O6 0.356257 0.092492 0.037792
O O7 0.404906 0.021597 0.353824
O O8 0.179727 0.343182 0.538154
O O9 0.228123 0.250000 0.245689
O O10 0.236537 0.250000 0.745304
O O11 0.716239 0.344759 0.532163
O O12 0.509477 0.250000 0.410622
O O13 0.508184 0.399097 0.157830
O O14 0.992930 0.148458 0.197218
O O15 0.000000 0.000000 0.932189
O O16 0.303554 0.500782 0.281384
#
# Coordination Sequence:
#
# PCOD9359679 Si02
#       8
#     8   8   4   8   4   8   8   8
#     4  10  19  35  57  85 113 158 202 239 309 342
#     4  10  21  37  61  88 119 159 211 258 309 382
#     4  12  26  44  62  96 122 156 208 246 324 390
#     4  10  20  37  55  80 115 147 194 242 285 375
#     4  12  26  48  70  98 132 168 206 272 336 400
#     4  10  21  35  52  83 123 165 211 256 308 364
#     4  10  16  25  46  82 113 142 191 257 291 329
#     4  10  23  46  69 101 131 169 219 266 331 400
#
# _framework density 21.558271999999999
#
# number of rings (size 3 to 8) (size 9 to 14) (size 15 to 20)
#    0.000    1.714    0.000    6.857    1.000    1.714 
#   15.429    0.000    0.000    0.000    0.000   37.000 
#    0.000    0.000    0.000    0.000    0.000    0.000 
#
# Total GULP energy -156201.288451 kJ/mol
# GULP energy per Si atom -5578.617445 kJ/mol
# Density = 2.150920 g / cm^3
# Si number density = 21.558272 Si / 1000 Ang^3
#
#
#
# Elastic Constant Matrix: (Units=GPa)
#
#
# Indices 1 2 3 4 5 6 
#
# 1 70.7360 22.5759 7.0296 0.0000 0.0000 0.0000
# 2 22.5759 93.5739 7.9116 0.0000 0.0000 0.0000
# 3 7.0296 7.9116 119.2689 0.0000 0.0000 0.0000
# 4 0.0000 0.0000 0.0000 0.8123 0.0000 0.0000
# 5 0.0000 0.0000 0.0000 0.0000 42.5587 0.0000
# 6 0.0000 0.0000 0.0000 0.0000 0.0000 75.1596
#
#
#
# Elastic Compliance Matrix: (Units=1/GPa)
#
#
# Indices 1 2 3 4 5 6 
#
# 1 0.015368 -0.003652 -0.000664 0.000000 0.000000 0.000000
# 2 -0.003652 0.011615 -0.000555 0.000000 0.000000 0.000000
# 3 -0.000664 -0.000555 0.008460 0.000000 0.000000 0.000000
# 4 0.000000 0.000000 0.000000 1.231031 0.000000 0.000000
# 5 0.000000 0.000000 0.000000 0.000000 0.023497 0.000000
# 6 0.000000 0.000000 0.000000 0.000000 0.000000 0.013305
#
#
# Mechanical properties :
#
#
# Convention : Reuss Voigt Hill
#
# Bulk Modulus (GPa) = 38.90673 39.84589 39.37631
# Shear Modulus (GPa) = 3.78334 40.11025 21.94679
#
# Velocity S-wave (km/s) = 1.32618 4.31809 3.19411
# Velocity P-wave (km/s) = 4.52011 6.58667 5.64870
#
# Compressibility (1/GPa) = 0.02570249
#
# Stress axis : x y z
#
# Youngs Moduli (GPa) = 65.06823 86.09775 118.19835
#
# Poissons Ratio (x) = 0.31441 0.07843
# Poissons Ratio (y) = 0.23761 0.06563
# Poissons Ratio (z) = 0.04318 0.04780
#
# Static dielectric constant tensor:
#      x y z
#    x 1.763930 0.000000 0.000000 
#    y 0.000000 1.788300 0.000000 
#    z 0.000000 0.000000 1.841460 
# 
# From -- ./inp_files/1506.got.cif
#   From: 2010.05.17/outbox.cif.g08.bks.cpg/sg39_1_cif.got.tgz:1506.got - 2010.06.03 18:22:40.
