data_PCOD9359258
_publ_section_title
;
Structure prediction by ZEFSAII (Michael W. Deem and Ramdas Pophale) SiO2 
 PCOD9359258
Probable space group: A M M 2
;
_chemical_formula_sum "Si O2"
_cell_formula_units_Z 56
_cell_length_a 8.489729
_cell_length_b 20.946716
_cell_length_c 15.917325
_cell_angle_alpha 90.000000
_cell_angle_beta 90.000000
_cell_angle_gamma 90.000000
_cell_volume 2830.608821
_symmetry_space_group_name_H-M "A M M 2"
_symmetry_group_IT_number 38
_symmetry_cell_setting 'orthorhombic'
loop_
_space_group_symop_operation_xyz
x,y,z
-x,-y,z
-x,y,z
x,-y,z
x,1/2+y,1/2+z
-x,1/2-y,1/2+z
-x,1/2+y,1/2+z
x,1/2-y,1/2+z
loop_
_atom_site_type_symbol
_atom_site_label
_atom_site_fract_x
_atom_site_fract_y
_atom_site_fract_z
Si Si1 0.175878 0.426972 0.752700
Si Si2 0.188909 0.712547 0.133776
Si Si3 0.187430 0.927471 0.582831
Si Si4 0.809275 0.426698 0.573684
Si Si5 0.310256 0.747064 0.815457
Si Si6 0.312321 0.194132 0.985212
Si Si7 0.319083 0.883520 0.408468
O O1 0.154274 0.500000 0.726971
O O2 0.234970 0.398042 0.665820
O O3 0.295904 0.427561 0.828188
O O4 0.000000 0.402941 0.776270
O O5 0.245525 0.637990 0.127950
O O6 0.239505 0.741488 0.223720
O O7 0.246846 0.754074 0.053199
O O8 0.000000 0.712459 0.129394
O O9 0.221181 0.910994 0.485327
O O10 0.000000 0.930138 0.596533
O O11 0.249137 0.000000 0.601215
O O12 0.756951 0.500000 0.560190
O O13 0.738826 0.376361 0.510446
O O14 0.000000 0.425532 0.570824
O O15 0.500000 0.745757 0.805575
O O16 0.264755 0.681944 0.864176
O O17 0.263483 0.796533 0.888109
O O18 0.500000 0.201755 0.988240
O O19 0.500000 0.876918 0.435273
#
# Coordination Sequence:
#
# PCOD9359258 Si02
#       7
#     8   8   8   8   8   8   8
#     4   9  18  32  49  73 109 148 182 223 280 342
#     4  11  23  39  63  91 118 156 206 256 305 366
#     4  10  22  40  60  84 118 158 199 250 310 366
#     4   9  19  36  57  83 115 152 196 244 295 352
#     4  10  23  40  58  83 118 156 195 246 304 362
#     4  11  22  39  61  86 120 157 195 245 303 365
#     4  11  21  34  53  82 114 148 191 239 293 354
#
# _framework density 19.783729000000001
#
# number of rings (size 3 to 8) (size 9 to 14) (size 15 to 20)
#    0.000    1.857    1.429    3.429    0.000    8.286 
#    0.000    2.143    0.000    2.571    0.000    0.000 
#    0.000    0.000    0.000    0.000    0.000    0.000 
#
# Total GULP energy -155941.032190 kJ/mol
# GULP energy per Si atom -5569.322578 kJ/mol
# Density = 1.973870 g / cm^3
# Si number density = 19.783729 Si / 1000 Ang^3
#
#
#
# Elastic Constant Matrix: (Units=GPa)
#
#
# Indices 1 2 3 4 5 6 
#
# 1 19.4158 12.1961 10.7806 0.0000 0.0000 0.0000
# 2 12.1961 105.5820 25.4188 0.0000 0.0000 0.0000
# 3 10.7806 25.4188 79.2123 0.0000 0.0000 0.0000
# 4 0.0000 0.0000 0.0000 26.6863 0.0000 0.0000
# 5 0.0000 0.0000 0.0000 0.0000 22.0316 0.0000
# 6 0.0000 0.0000 0.0000 0.0000 0.0000 72.8567
#
#
#
# Elastic Compliance Matrix: (Units=1/GPa)
#
#
# Indices 1 2 3 4 5 6 
#
# 1 0.058258 -0.005224 -0.006252 0.000000 0.000000 0.000000
# 2 -0.005224 0.010733 -0.002733 0.000000 0.000000 0.000000
# 3 -0.006252 -0.002733 0.014352 0.000000 0.000000 0.000000
# 4 0.000000 0.000000 0.000000 0.037472 0.000000 0.000000
# 5 0.000000 0.000000 0.000000 0.000000 0.045389 0.000000
# 6 0.000000 0.000000 0.000000 0.000000 0.000000 0.013726
#
#
# Mechanical properties :
#
#
# Convention : Reuss Voigt Hill
#
# Bulk Modulus (GPa) = 18.20719 33.44458 25.82588
# Shear Modulus (GPa) = 22.05976 34.70255 28.38116
#
# Velocity S-wave (km/s) = 3.34285 4.19274 3.79168
# Velocity P-wave (km/s) = 4.91148 6.35457 5.67905
#
# Compressibility (1/GPa) = 0.05492336
#
# Stress axis : x y z
#
# Youngs Moduli (GPa) = 17.16515 93.17249 69.67549
#
# Poissons Ratio (x) = 0.48676 0.43563
# Poissons Ratio (y) = 0.08968 0.19043
# Poissons Ratio (z) = 0.10732 0.25465
#
# Static dielectric constant tensor:
#      x y z
#    x 1.718700 0.000000 0.000000 
#    y 0.000000 1.684710 0.000000 
#    z 0.000000 0.000000 1.700240 
# 
# From -- ./inp_files/12376.got.cif
#   From: 2010.05.17/outbox.cif.g08.bks.cpg/sg38_7_cif.got.tgz:12376.got - 2010.06.03 18:07:57.
