data_PCOD9359745
_publ_section_title
;
Structure prediction by ZEFSAII (Michael W. Deem and Ramdas Pophale) SiO2 
 PCOD9359745
Probable space group: A B M 2
;
_chemical_formula_sum "Si O2"
_cell_formula_units_Z 48
_cell_length_a 16.365148
_cell_length_b 8.803320
_cell_length_c 16.208035
_cell_angle_alpha 90.000000
_cell_angle_beta 90.000000
_cell_angle_gamma 90.000000
_cell_volume 2335.053265
_symmetry_space_group_name_H-M "A B M 2"
_symmetry_group_IT_number 39
_symmetry_cell_setting 'orthorhombic'
loop_
_space_group_symop_operation_xyz
x,y,z
-x,-y,z
-x,1/2+y,z
x,1/2-y,z
x,1/2+y,1/2+z
-x,1/2-y,1/2+z
-x,y,1/2+z
x,-y,1/2+z
loop_
_atom_site_type_symbol
_atom_site_label
_atom_site_fract_x
_atom_site_fract_y
_atom_site_fract_z
Si Si1 0.416053 0.931289 0.820240
Si Si2 0.759576 0.421108 0.512338
Si Si3 0.581363 0.566708 0.005998
Si Si4 0.917264 0.930219 0.254828
Si Si5 0.751757 0.922464 0.814511
Si Si6 0.080523 0.071006 0.572239
O O1 0.416948 0.750000 0.815454
O O2 0.500000 0.000000 0.784471
O O3 0.416182 0.984485 0.916524
O O4 0.331775 0.998554 0.784921
O O5 0.780658 0.250000 0.541459
O O6 0.669806 0.463130 0.546584
O O7 0.748211 0.414153 0.413836
O O8 0.833803 0.531893 0.530376
O O9 0.500000 0.500000 0.047927
O O10 0.574887 0.750000 0.995202
O O11 0.923117 0.750000 0.256279
O O12 0.833209 0.986309 0.293905
O O13 0.914780 0.992069 0.161467
O O14 0.000000 0.000000 0.293402
O O15 0.757495 0.750000 0.782451
O O16 0.069317 0.250000 0.580836
O O17 0.000000 0.000000 0.529659
#
# Coordination Sequence:
#
# PCOD9359745 Si02
#       6
#     8   8   8   8   8   8
#     4  10  17  27  45  71 103 138 174 211 255 305
#     4   9  19  34  52  77 108 138 170 213 259 303
#     4   9  16  27  45  70 102 137 171 210 254 302
#     4  11  22  38  58  78 103 136 174 213 258 313
#     4  10  20  35  54  79 109 138 173 217 263 307
#     4  11  22  37  57  77 101 135 174 214 257 310
#
# _framework density 20.556274999999999
#
# number of rings (size 3 to 8) (size 9 to 14) (size 15 to 20)
#    0.000    2.000    0.000    8.500    0.000    4.667 
#    0.000    0.000    0.000    1.000    0.000    4.667 
#    0.000    0.000    0.000    0.000    0.000    0.000 
#
# Total GULP energy -133913.595193 kJ/mol
# GULP energy per Si atom -5579.733133 kJ/mol
# Density = 2.050949 g / cm^3
# Si number density = 20.556275 Si / 1000 Ang^3
#
#
#
# Elastic Constant Matrix: (Units=GPa)
#
#
# Indices 1 2 3 4 5 6 
#
# 1 213.5371 106.9503 13.8423 0.0000 0.0000 0.0000
# 2 106.9503 200.0952 6.5275 0.0000 0.0000 0.0000
# 3 13.8423 6.5275 6.1581 0.0000 0.0000 0.0000
# 4 0.0000 0.0000 0.0000 15.7428 0.0000 0.0000
# 5 0.0000 0.0000 0.0000 0.0000 27.7362 0.0000
# 6 0.0000 0.0000 0.0000 0.0000 0.0000 50.7949
#
#
#
# Elastic Compliance Matrix: (Units=1/GPa)
#
#
# Indices 1 2 3 4 5 6 
#
# 1 0.007228 -0.003453 -0.012588 0.000000 0.000000 0.000000
# 2 -0.003453 0.006826 0.000526 0.000000 0.000000 0.000000
# 3 -0.012588 0.000526 0.190126 0.000000 0.000000 0.000000
# 4 0.000000 0.000000 0.000000 0.063521 0.000000 0.000000
# 5 0.000000 0.000000 0.000000 0.000000 0.036054 0.000000
# 6 0.000000 0.000000 0.000000 0.000000 0.000000 0.019687
#
#
# Mechanical properties :
#
#
# Convention : Reuss Voigt Hill
#
# Bulk Modulus (GPa) = 5.77533 74.93675 40.35604
# Shear Modulus (GPa) = 12.13035 38.35280 25.24158
#
# Velocity S-wave (km/s) = 2.43184 4.32411 3.50798
# Velocity P-wave (km/s) = 3.27120 7.83991 6.00687
#
# Compressibility (1/GPa) = 0.17315027
#
# Stress axis : x y z
#
# Youngs Moduli (GPa) = 138.34230 146.49777 5.25967
#
# Poissons Ratio (x) = 0.50585 0.06621
# Poissons Ratio (y) = 0.47769 -0.00277
# Poissons Ratio (z) = 1.74148 -0.07707
#
# Static dielectric constant tensor:
#      x y z
#    x 1.816060 0.000000 0.000000 
#    y 0.000000 1.710530 0.000000 
#    z 0.000000 0.000000 1.769130 
# 
# From -- ./inp_files/14588.got.cif
#   From: 2010.05.17/outbox.cif.g08.bks.cpg/sg39_8_cif.got.tgz:14588.got - 2010.06.03 18:22:40.
