data_PCOD9359846
_publ_section_title
;
Structure prediction by ZEFSAII (Michael W. Deem and Ramdas Pophale) SiO2 
 PCOD9359846
Probable space group: A B M 2
;
_chemical_formula_sum "Si O2"
_cell_formula_units_Z 64
_cell_length_a 12.364608
_cell_length_b 16.854519
_cell_length_c 16.260495
_cell_angle_alpha 90.000000
_cell_angle_beta 90.000000
_cell_angle_gamma 90.000000
_cell_volume 3388.679360
_symmetry_space_group_name_H-M "A B M 2"
_symmetry_group_IT_number 39
_symmetry_cell_setting 'orthorhombic'
loop_
_space_group_symop_operation_xyz
x,y,z
-x,-y,z
-x,1/2+y,z
x,1/2-y,z
x,1/2+y,1/2+z
-x,1/2-y,1/2+z
-x,y,1/2+z
x,-y,1/2+z
loop_
_atom_site_type_symbol
_atom_site_label
_atom_site_fract_x
_atom_site_fract_y
_atom_site_fract_z
Si Si1 0.373274 0.496893 0.461370
Si Si2 0.267456 0.094622 0.221393
Si Si3 0.263120 0.657845 0.897959
Si Si4 0.126570 0.157074 0.560705
Si Si5 0.529250 0.839756 0.126690
Si Si6 0.319960 0.338510 0.964209
Si Si7 0.881381 0.157424 0.582506
Si Si8 0.313027 0.056014 0.636166
O O1 0.500000 0.500000 0.470316
O O2 0.346174 0.411699 0.422644
O O3 0.336273 0.578323 0.417148
O O4 0.321099 0.496551 0.552565
O O5 0.230599 0.131901 0.306881
O O6 0.376240 0.139137 0.190956
O O7 0.174050 0.109505 0.155249
O O8 0.297393 0.001891 0.213263
O O9 0.301198 0.750000 0.899775
O O10 0.171151 0.650654 0.967514
O O11 0.129788 0.250000 0.581920
O O12 0.210193 0.111545 0.619410
O O13 0.002703 0.129664 0.564811
O O14 0.491291 0.750000 0.138898
O O15 0.426292 0.896678 0.135862
O O16 0.589893 0.841800 0.037862
O O17 0.330397 0.250000 0.925993
O O18 0.201588 0.343657 0.006057
O O19 0.885600 0.250000 0.607891
#
# Coordination Sequence:
#
# PCOD9359846 Si02
#       8
#     8   8   8   8   8   8   8   8
#     4  11  19  34  53  83 118 153 191 237 285 337
#     4  11  20  35  57  84 114 144 188 238 286 343
#     4  10  23  39  56  83 117 154 191 233 292 357
#     4   9  20  37  58  82 109 146 191 239 290 339
#     4  10  18  30  54  84 112 147 193 240 282 327
#     4   9  17  30  53  84 110 141 190 241 285 327
#     4   9  17  33  59  82 103 141 192 241 280 327
#     4  11  19  32  54  82 117 149 193 238 281 331
#
# _framework density 18.886415
#
# number of rings (size 3 to 8) (size 9 to 14) (size 15 to 20)
#    0.000    2.000    3.750    2.625    0.000    2.500 
#    0.000    0.000    5.500    1.500    0.000    0.000 
#    0.000    0.000    0.000    0.000    0.000    0.000 
#
# Total GULP energy -178299.177075 kJ/mol
# GULP energy per Si atom -5571.849284 kJ/mol
# Density = 1.884343 g / cm^3
# Si number density = 18.886415 Si / 1000 Ang^3
#
#
#
# Elastic Constant Matrix: (Units=GPa)
#
#
# Indices 1 2 3 4 5 6 
#
# 1 101.4259 47.5892 -1.1291 0.0000 0.0000 0.0000
# 2 47.5892 133.3250 27.8258 0.0000 0.0000 0.0000
# 3 -1.1291 27.8258 27.3016 0.0000 0.0000 0.0000
# 4 0.0000 0.0000 0.0000 20.7222 0.0000 0.0000
# 5 0.0000 0.0000 0.0000 0.0000 3.9722 0.0000
# 6 0.0000 0.0000 0.0000 0.0000 0.0000 23.8927
#
#
#
# Elastic Compliance Matrix: (Units=1/GPa)
#
#
# Indices 1 2 3 4 5 6 
#
# 1 0.012699 -0.005897 0.006535 0.000000 0.000000 0.000000
# 2 -0.005897 0.012265 -0.012744 0.000000 0.000000 0.000000
# 3 0.006535 -0.012744 0.049887 0.000000 0.000000 0.000000
# 4 0.000000 0.000000 0.000000 0.048257 0.000000 0.000000
# 5 0.000000 0.000000 0.000000 0.000000 0.251749 0.000000
# 6 0.000000 0.000000 0.000000 0.000000 0.000000 0.041854
#
#
# Mechanical properties :
#
#
# Convention : Reuss Voigt Hill
#
# Bulk Modulus (GPa) = 19.74752 45.62490 32.68621
# Shear Modulus (GPa) = 10.92172 22.23520 16.57846
#
# Velocity S-wave (km/s) = 2.40736 3.43492 2.96598
# Velocity P-wave (km/s) = 4.26683 6.31993 5.39200
#
# Compressibility (1/GPa) = 0.05063927
#
# Stress axis : x y z
#
# Youngs Moduli (GPa) = 78.74700 81.53228 20.04516
#
# Poissons Ratio (x) = 0.48077 -0.13100
# Poissons Ratio (y) = 0.46435 0.25546
# Poissons Ratio (z) = -0.51462 1.03908
#
# Static dielectric constant tensor:
#      x y z
#    x 1.630740 0.000000 0.000000 
#    y 0.000000 1.732630 0.000000 
#    z 0.000000 0.000000 1.692560 
# 
# From -- ./inp_files/12425.got.cif
#   From: 2010.05.17/outbox.cif.g08.bks.cpg/sg39_7_cif.got.tgz:12425.got - 2010.06.03 18:22:40.
