data_PCOD9359747
_publ_section_title
;
Structure prediction by ZEFSAII (Michael W. Deem and Ramdas Pophale) SiO2 
 PCOD9359747
Probable space group: A B M 2
;
_chemical_formula_sum "Si O2"
_cell_formula_units_Z 64
_cell_length_a 21.638918
_cell_length_b 8.513293
_cell_length_c 18.923289
_cell_angle_alpha 90.000000
_cell_angle_beta 90.000000
_cell_angle_gamma 90.000000
_cell_volume 3486.018952
_symmetry_space_group_name_H-M "A B M 2"
_symmetry_group_IT_number 39
_symmetry_cell_setting 'orthorhombic'
loop_
_space_group_symop_operation_xyz
x,y,z
-x,-y,z
-x,1/2+y,z
x,1/2-y,z
x,1/2+y,1/2+z
-x,1/2-y,1/2+z
-x,y,1/2+z
x,-y,1/2+z
loop_
_atom_site_type_symbol
_atom_site_label
_atom_site_fract_x
_atom_site_fract_y
_atom_site_fract_z
Si Si1 0.185953 0.061373 0.349990
Si Si2 0.564023 0.562957 0.264746
Si Si3 0.694991 0.061605 0.267246
Si Si4 0.067429 0.561393 0.266512
Si Si5 0.933322 0.439229 0.102372
Si Si6 0.436623 0.562350 0.103263
Si Si7 0.301984 0.941187 0.102533
Si Si8 0.815447 0.057953 0.013114
O O1 0.188470 0.250000 0.347602
O O2 0.185437 0.010183 0.431731
O O3 0.246122 0.994291 0.310941
O O4 0.123672 0.004681 0.311852
O O5 0.500000 0.500000 0.297888
O O6 0.561852 0.750000 0.262493
O O7 0.629753 0.506597 0.294925
O O8 0.564418 0.495481 0.184629
O O9 0.691025 0.250000 0.267945
O O10 0.703420 0.011413 0.184858
O O11 0.067978 0.750000 0.269557
O O12 0.075856 0.512768 0.184225
O O13 0.000000 0.500000 0.289339
O O14 0.934218 0.250000 0.101196
O O15 0.877096 0.493941 0.053776
O O16 0.000000 0.500000 0.078693
O O17 0.500000 0.500000 0.070107
O O18 0.439247 0.750000 0.103654
O O19 0.369803 0.511660 0.074229
O O20 0.300683 0.750000 0.102370
O O21 0.245035 0.996225 0.055640
O O22 0.815208 0.250000 0.014575
#
# Coordination Sequence:
#
# PCOD9359747 Si02
#       8
#     8   8   8   8   8   8   8   8
#     4  11  22  34  51  76 105 136 170 209 253 303
#     4  10  17  27  45  72 104 133 166 209 258 307
#     4  10  19  33  53  75 101 134 173 214 255 301
#     4  10  20  36  58  80 104 133 167 208 252 300
#     4   9  18  34  56  78  99 128 164 204 248 294
#     4   9  15  24  42  69  99 129 162 204 254 303
#     4   8  15  29  50  72  93 126 170 210 249 294
#     4   9  18  33  51  72  99 131 168 206 247 296
#
# _framework density 18.359051000000001
#
# number of rings (size 3 to 8) (size 9 to 14) (size 15 to 20)
#    0.000    2.500    0.000    4.875    0.000    3.000 
#    0.000    2.500    0.000   11.250    0.000    1.750 
#    0.000    0.000    0.000    0.000    0.000    0.000 
#
# Total GULP energy -178430.127478 kJ/mol
# GULP energy per Si atom -5575.941484 kJ/mol
# Density = 1.831727 g / cm^3
# Si number density = 18.359051 Si / 1000 Ang^3
#
#
#
# Elastic Constant Matrix: (Units=GPa)
#
#
# Indices 1 2 3 4 5 6 
#
# 1 231.7692 40.0974 91.0723 0.0000 0.0000 0.0000
# 2 40.0974 46.8585 18.6984 0.0000 0.0000 0.0000
# 3 91.0723 18.6984 72.7129 0.0000 0.0000 0.0000
# 4 0.0000 0.0000 0.0000 12.5645 0.0000 0.0000
# 5 0.0000 0.0000 0.0000 0.0000 -5.3222 0.0000
# 6 0.0000 0.0000 0.0000 0.0000 0.0000 52.9551
#
#
#
# Elastic Compliance Matrix: (Units=1/GPa)
#
#
# Indices 1 2 3 4 5 6 
#
# 1 0.009002 -0.003570 -0.010357 0.000000 0.000000 0.000000
# 2 -0.003570 0.025197 -0.002008 0.000000 0.000000 0.000000
# 3 -0.010357 -0.002008 0.027241 0.000000 0.000000 0.000000
# 4 0.000000 0.000000 0.000000 0.079589 0.000000 0.000000
# 5 0.000000 0.000000 0.000000 0.000000 -0.187891 0.000000
# 6 0.000000 0.000000 0.000000 0.000000 0.000000 0.018884
#
#
# Mechanical properties :
#
#
# Convention : Reuss Voigt Hill
#
# Bulk Modulus (GPa) = 33.81776 72.34186 53.07981
# Shear Modulus (GPa) = 363.69387 25.47098 194.58243
#
# Velocity S-wave (km/s) = 14.09009 3.72880 10.30618
# Velocity P-wave (km/s) = 16.82759 7.61761 13.06131
#
# Compressibility (1/GPa) = 0.02957026
#
# Stress axis : x y z
#
# Youngs Moduli (GPa) = 111.08719 39.68693 36.70967
#
# Poissons Ratio (x) = 0.14169 0.38019
# Poissons Ratio (y) = 0.39662 0.07371
# Poissons Ratio (z) = 1.15050 0.07968
#
# Static dielectric constant tensor:
#      x y z
#    x 1.655540 0.000000 0.000000 
#    y 0.000000 1.627550 0.000000 
#    z 0.000000 0.000000 1.606800 
# 
# From -- ./inp_files/13142.got.cif
#   From: 2010.05.17/outbox.cif.g08.bks.cpg/sg39_7_cif.got.tgz:13142.got - 2010.06.03 18:22:40.
