data_PCOD9359953
_publ_section_title
;
Structure prediction by ZEFSAII (Michael W. Deem and Ramdas Pophale) SiO2 
 PCOD9359953
Probable space group: A B M 2
;
_chemical_formula_sum "Si O2"
_cell_formula_units_Z 64
_cell_length_a 20.466379
_cell_length_b 7.800222
_cell_length_c 20.881872
_cell_angle_alpha 90.000000
_cell_angle_beta 90.000000
_cell_angle_gamma 90.000000
_cell_volume 3333.630069
_symmetry_space_group_name_H-M "A B M 2"
_symmetry_group_IT_number 39
_symmetry_cell_setting 'orthorhombic'
loop_
_space_group_symop_operation_xyz
x,y,z
-x,-y,z
-x,1/2+y,z
x,1/2-y,z
x,1/2+y,1/2+z
-x,1/2-y,1/2+z
-x,y,1/2+z
x,-y,1/2+z
loop_
_atom_site_type_symbol
_atom_site_label
_atom_site_fract_x
_atom_site_fract_y
_atom_site_fract_z
Si Si1 0.825241 0.960341 0.283360
Si Si2 0.196617 0.456814 0.425844
Si Si3 0.682321 0.451239 0.740451
Si Si4 0.171254 0.047368 0.064997
Si Si5 0.682381 0.551706 0.597435
Si Si6 0.655290 0.459501 0.959211
Si Si7 0.425185 0.956459 0.839504
Si Si8 0.924269 0.955915 0.175206
O O1 0.825552 0.750000 0.282420
O O2 0.830430 0.013923 0.357338
O O3 0.754686 0.019564 0.256590
O O4 0.882760 0.018448 0.236389
O O5 0.195732 0.250000 0.426715
O O6 0.160492 0.518388 0.489707
O O7 0.272818 0.509118 0.433135
O O8 0.686539 0.250000 0.755892
O O9 0.668180 0.468238 0.665411
O O10 0.625051 0.522335 0.785424
O O11 0.180829 0.250000 0.076168
O O12 0.113489 0.985344 0.111076
O O13 0.239857 0.961067 0.083892
O O14 0.664165 0.750000 0.603417
O O15 0.649818 0.479979 0.532535
O O16 0.655081 0.250000 0.961388
O O17 0.601183 0.516609 0.908715
O O18 0.421014 0.750000 0.840063
O O19 0.500000 0.000000 0.827651
O O20 0.920209 0.750000 0.175516
O O21 0.000000 0.000000 0.176813
#
# Coordination Sequence:
#
# PCOD9359953 Si02
#       8
#     8   8   8   8   8   8   8   8
#     4   9  16  32  56  78 101 137 178 215 262 320
#     4   9  16  30  55  80 101 129 174 219 259 311
#     4  10  18  33  56  78 105 141 178 217 266 317
#     4  10  19  33  52  76 107 138 170 214 267 319
#     4  10  19  31  53  81 106 131 172 225 266 310
#     4   8  15  30  51  74  99 133 171 208 255 308
#     4  10  20  35  55  76 104 143 179 216 263 320
#     4  10  21  36  54  75 104 143 181 217 263 321
#
# _framework density 19.198291000000001
#
# number of rings (size 3 to 8) (size 9 to 14) (size 15 to 20)
#    0.000    2.500    2.500    1.500    0.000    1.500 
#    0.000    5.625    0.000    6.000    0.000    0.000 
#    0.000    0.000    0.000    0.000    0.000    0.000 
#
# Total GULP energy -178460.479031 kJ/mol
# GULP energy per Si atom -5576.889970 kJ/mol
# Density = 1.915459 g / cm^3
# Si number density = 19.198291 Si / 1000 Ang^3
#
#
#
# Elastic Constant Matrix: (Units=GPa)
#
#
# Indices 1 2 3 4 5 6 
#
# 1 103.3663 -3.8982 71.9111 0.0000 0.0000 0.0000
# 2 -3.8982 20.6425 -5.0173 0.0000 0.0000 0.0000
# 3 71.9111 -5.0173 155.9461 0.0000 0.0000 0.0000
# 4 0.0000 0.0000 0.0000 22.9394 0.0000 0.0000
# 5 0.0000 0.0000 0.0000 0.0000 27.4488 0.0000
# 6 0.0000 0.0000 0.0000 0.0000 0.0000 19.0253
#
#
#
# Elastic Compliance Matrix: (Units=1/GPa)
#
#
# Indices 1 2 3 4 5 6 
#
# 1 0.014269 0.001104 -0.006544 0.000000 0.000000 0.000000
# 2 0.001104 0.048911 0.001065 0.000000 0.000000 0.000000
# 3 -0.006544 0.001065 0.009464 0.000000 0.000000 0.000000
# 4 0.000000 0.000000 0.000000 0.043593 0.000000 0.000000
# 5 0.000000 0.000000 0.000000 0.000000 0.036431 0.000000
# 6 0.000000 0.000000 0.000000 0.000000 0.000000 0.052561
#
#
# Mechanical properties :
#
#
# Convention : Reuss Voigt Hill
#
# Bulk Modulus (GPa) = 15.65119 45.10511 30.37815
# Shear Modulus (GPa) = 21.25134 28.34665 24.79900
#
# Velocity S-wave (km/s) = 3.33068 3.84672 3.59796
# Velocity P-wave (km/s) = 4.79180 6.57837 5.75484
#
# Compressibility (1/GPa) = 0.06389291
#
# Stress axis : x y z
#
# Youngs Moduli (GPa) = 70.08347 20.44527 105.65882
#
# Poissons Ratio (x) = -0.02257 0.69145
# Poissons Ratio (y) = -0.07737 -0.11248
# Poissons Ratio (z) = 0.45864 -0.02177
#
# Static dielectric constant tensor:
#      x y z
#    x 1.633950 0.000000 0.000000 
#    y 0.000000 1.715980 0.000000 
#    z 0.000000 0.000000 1.692240 
# 
# From -- ./inp_files/15038.got.cif
#   From: 2010.05.17/outbox.cif.g08.bks.cpg/sg39_8_cif.got.tgz:15038.got - 2010.06.03 18:22:40.
