data_PCOD9359997
_publ_section_title
;
Structure prediction by ZEFSAII (Michael W. Deem and Ramdas Pophale) SiO2 
 PCOD9359997
Probable space group: A B M 2
;
_chemical_formula_sum "Si O2"
_cell_formula_units_Z 64
_cell_length_a 11.638141
_cell_length_b 19.608419
_cell_length_c 14.842087
_cell_angle_alpha 90.000000
_cell_angle_beta 90.000000
_cell_angle_gamma 90.000000
_cell_volume 3387.046554
_symmetry_space_group_name_H-M "A B M 2"
_symmetry_group_IT_number 39
_symmetry_cell_setting 'orthorhombic'
loop_
_space_group_symop_operation_xyz
x,y,z
-x,-y,z
-x,1/2+y,z
x,1/2-y,z
x,1/2+y,1/2+z
-x,1/2-y,1/2+z
-x,y,1/2+z
x,-y,1/2+z
loop_
_atom_site_type_symbol
_atom_site_label
_atom_site_fract_x
_atom_site_fract_y
_atom_site_fract_z
Si Si1 0.004924 0.583133 0.005790
Si Si2 0.322538 0.461950 0.091135
Si Si3 0.079867 0.065622 0.188828
Si Si4 0.188026 0.411480 0.365083
Si Si5 0.556952 0.608458 0.602133
Si Si6 0.411698 0.329201 0.405230
Si Si7 0.639537 0.327978 0.283848
Si Si8 0.218028 0.430435 0.899388
O O1 0.983251 0.605779 0.107789
O O2 0.000000 0.500000 0.011217
O O3 0.899917 0.599554 0.939625
O O4 0.122250 0.603642 0.958402
O O5 0.203596 0.455443 0.145754
O O6 0.369563 0.538790 0.094440
O O7 0.426129 0.414076 0.124797
O O8 0.297231 0.441181 0.987797
O O9 0.109227 0.105777 0.279393
O O10 0.000000 0.000000 0.209996
O O11 0.309382 0.374883 0.365635
O O12 0.200422 0.493586 0.361072
O O13 0.560910 0.645317 0.505960
O O14 0.608192 0.653396 0.681876
O O15 0.377128 0.250000 0.407185
O O16 0.524178 0.335291 0.343569
O O17 0.679354 0.250000 0.291343
O O18 0.728223 0.381396 0.325841
#
# Coordination Sequence:
#
# PCOD9359997 Si02
#       8
#     8   8   8   8   8   8   8   8
#     4   8  18  33  54  87 119 146 189 246 306 364
#     4  10  20  35  57  93 118 153 199 253 299 354
#     4  10  19  32  56  89 123 153 191 245 312 363
#     4  11  20  36  60  86 117 156 199 253 304 362
#     4  11  21  38  59  85 123 157 201 255 304 361
#     4  11  24  40  59  84 120 164 205 254 312 373
#     4  11  24  39  58  86 121 165 205 246 309 374
#     4  10  18  36  59  85 117 148 197 248 302 355
#
# _framework density 18.895519
#
# number of rings (size 3 to 8) (size 9 to 14) (size 15 to 20)
#    0.000    1.750    2.500    3.750    0.000    1.500 
#    0.000    0.625    0.000    0.750    0.000    0.000 
#    0.000    0.000    0.000    0.000    0.000    0.000 
#
# Total GULP energy -178665.466717 kJ/mol
# GULP energy per Si atom -5583.295835 kJ/mol
# Density = 1.885251 g / cm^3
# Si number density = 18.895519 Si / 1000 Ang^3
#
#
#
# Elastic Constant Matrix: (Units=GPa)
#
#
# Indices 1 2 3 4 5 6 
#
# 1 55.2010 16.6359 9.0122 0.0000 0.0000 0.0000
# 2 16.6359 52.1921 17.6653 0.0000 0.0000 0.0000
# 3 9.0122 17.6653 94.5865 0.0000 0.0000 0.0000
# 4 0.0000 0.0000 0.0000 15.0887 0.0000 0.0000
# 5 0.0000 0.0000 0.0000 0.0000 32.5409 0.0000
# 6 0.0000 0.0000 0.0000 0.0000 0.0000 6.8488
#
#
#
# Elastic Compliance Matrix: (Units=1/GPa)
#
#
# Indices 1 2 3 4 5 6 
#
# 1 0.020093 -0.006145 -0.000767 0.000000 0.000000 0.000000
# 2 -0.006145 0.022332 -0.003585 0.000000 0.000000 0.000000
# 3 -0.000767 -0.003585 0.011315 0.000000 0.000000 0.000000
# 4 0.000000 0.000000 0.000000 0.066275 0.000000 0.000000
# 5 0.000000 0.000000 0.000000 0.000000 0.030731 0.000000
# 6 0.000000 0.000000 0.000000 0.000000 0.000000 0.146012
#
#
# Mechanical properties :
#
#
# Convention : Reuss Voigt Hill
#
# Bulk Modulus (GPa) = 30.53828 32.06740 31.30284
# Shear Modulus (GPa) = 15.21299 21.47340 18.34320
#
# Velocity S-wave (km/s) = 2.84053 3.37475 3.11910
# Velocity P-wave (km/s) = 5.19181 5.67389 5.43819
#
# Compressibility (1/GPa) = 0.03274578
#
# Stress axis : x y z
#
# Youngs Moduli (GPa) = 49.76935 44.77848 88.37817
#
# Poissons Ratio (x) = 0.27516 0.06777
# Poissons Ratio (y) = 0.30583 0.31687
# Poissons Ratio (z) = 0.03816 0.16055
#
# Static dielectric constant tensor:
#      x y z
#    x 1.671140 0.000000 0.000000 
#    y 0.000000 1.618480 0.000000 
#    z 0.000000 0.000000 1.685460 
# 
# From -- ./inp_files/9488.got.cif
#   From: 2010.05.17/outbox.cif.g08.bks.cpg/sg39_5_cif.got.tgz:9488.got - 2010.06.03 18:22:40.
