data_PCOD9359275
_publ_section_title
;
Structure prediction by ZEFSAII (Michael W. Deem and Ramdas Pophale) SiO2 
 PCOD9359275
Probable space group: A M M 2
;
_chemical_formula_sum "Si O2"
_cell_formula_units_Z 44
_cell_length_a 13.387023
_cell_length_b 26.567754
_cell_length_c 5.280534
_cell_angle_alpha 90.000000
_cell_angle_beta 90.000000
_cell_angle_gamma 90.000000
_cell_volume 1878.091271
_symmetry_space_group_name_H-M "A M M 2"
_symmetry_group_IT_number 38
_symmetry_cell_setting 'orthorhombic'
loop_
_space_group_symop_operation_xyz
x,y,z
-x,-y,z
-x,y,z
x,-y,z
x,1/2+y,1/2+z
-x,1/2-y,1/2+z
-x,1/2+y,1/2+z
x,1/2-y,1/2+z
loop_
_atom_site_type_symbol
_atom_site_label
_atom_site_fract_x
_atom_site_fract_y
_atom_site_fract_z
Si Si1 0.112757 0.555966 0.314480
Si Si2 0.609281 0.853413 0.858391
Si Si3 0.226560 0.866360 0.495739
Si Si4 0.118531 0.717733 0.704395
Si Si5 0.691205 0.556561 0.644873
Si Si6 0.500000 0.282723 0.674869
O O1 0.121192 0.500000 0.187728
O O2 0.196669 0.555814 0.529983
O O3 0.000000 0.560316 0.411088
O O4 0.138993 0.603218 0.138150
O O5 0.500000 0.850795 0.730947
O O6 0.702143 0.836900 0.690136
O O7 0.594078 0.818094 0.105450
O O8 0.627787 0.909746 0.953923
O O9 0.181183 0.831477 0.278818
O O10 0.298185 0.910767 0.395463
O O11 0.137975 0.757687 0.931483
O O12 0.000000 0.705660 0.714276
O O13 0.655964 0.500000 0.679711
O O14 0.500000 0.257650 0.945557
#
# Coordination Sequence:
#
# PCOD9359275 Si02
#       6
#     8   8   8   8   8   4
#     4   9  19  36  58  90 128 165 211 269 332 396
#     4   9  24  42  63  93 128 166 220 271 343 403
#     4  11  22  38  65  92 126 172 222 277 330 406
#     4  10  24  43  64  96 137 179 227 277 335 403
#     4  10  22  40  62  93 131 170 219 275 334 404
#     4  10  24  44  71  96 131 168 216 276 332 400
#
# _framework density 23.428041
#
# number of rings (size 3 to 8) (size 9 to 14) (size 15 to 20)
#    0.545    1.636    0.000    1.091    7.636    4.727 
#    0.000    1.818    0.000    0.000    0.000    0.000 
#    0.000    0.000    0.000    0.000    0.000    0.000 
#
# Total GULP energy -122916.062070 kJ/mol
# GULP energy per Si atom -5587.093730 kJ/mol
# Density = 2.337472 g / cm^3
# Si number density = 23.428041 Si / 1000 Ang^3
#
#
#
# Elastic Constant Matrix: (Units=GPa)
#
#
# Indices 1 2 3 4 5 6 
#
# 1 90.6220 42.8795 18.7139 0.0000 0.0000 0.0000
# 2 42.8795 105.9912 23.0257 0.0000 0.0000 0.0000
# 3 18.7139 23.0257 58.3098 0.0000 0.0000 0.0000
# 4 0.0000 0.0000 0.0000 40.5769 0.0000 0.0000
# 5 0.0000 0.0000 0.0000 0.0000 10.1908 0.0000
# 6 0.0000 0.0000 0.0000 0.0000 0.0000 21.7649
#
#
#
# Elastic Compliance Matrix: (Units=1/GPa)
#
#
# Indices 1 2 3 4 5 6 
#
# 1 0.013963 -0.005114 -0.002462 0.000000 0.000000 0.000000
# 2 -0.005114 0.012193 -0.003174 0.000000 0.000000 0.000000
# 3 -0.002462 -0.003174 0.019193 0.000000 0.000000 0.000000
# 4 0.000000 0.000000 0.000000 0.024645 0.000000 0.000000
# 5 0.000000 0.000000 0.000000 0.000000 0.098128 0.000000
# 6 0.000000 0.000000 0.000000 0.000000 0.000000 0.045945
#
#
# Mechanical properties :
#
#
# Convention : Reuss Voigt Hill
#
# Bulk Modulus (GPa) = 41.92818 47.12904 44.52861
# Shear Modulus (GPa) = 20.53252 25.86011 23.19631
#
# Velocity S-wave (km/s) = 2.96363 3.32597 3.15001
# Velocity P-wave (km/s) = 5.44484 5.90843 5.68137
#
# Compressibility (1/GPa) = 0.02385031
#
# Stress axis : x y z
#
# Youngs Moduli (GPa) = 71.61768 82.01357 52.10209
#
# Poissons Ratio (x) = 0.41942 0.12827
# Poissons Ratio (y) = 0.36626 0.16535
# Poissons Ratio (z) = 0.17631 0.26028
#
# Static dielectric constant tensor:
#      x y z
#    x 1.868170 0.000000 0.000000 
#    y 0.000000 1.916240 0.000000 
#    z 0.000000 0.000000 1.919220 
# 
# From -- ./inp_files/1293.got.cif
#   From: 2010.05.17/outbox.cif.g08.bks.cpg/sg38_1_cif.got.tgz:1293.got - 2010.06.03 18:07:57.
