data_PCOD9359606
_publ_section_title
;
Structure prediction by ZEFSAII (Michael W. Deem and Ramdas Pophale) SiO2 
 PCOD9359606
Probable space group: A M M 2
;
_chemical_formula_sum "Si O2"
_cell_formula_units_Z 32
_cell_length_a 15.000000
_cell_length_b 9.000000
_cell_length_c 24.000000
_cell_angle_alpha 90.000000
_cell_angle_beta 90.000000
_cell_angle_gamma 90.000000
_cell_volume 3240.000000
_symmetry_space_group_name_H-M "A M M 2"
_symmetry_group_IT_number 38
_symmetry_cell_setting 'orthorhombic'
loop_
_space_group_symop_operation_xyz
x,y,z
-x,-y,z
-x,y,z
x,-y,z
x,1/2+y,1/2+z
-x,1/2-y,1/2+z
-x,1/2+y,1/2+z
x,1/2-y,1/2+z
loop_
_atom_site_type_symbol
_atom_site_label
_atom_site_fract_x
_atom_site_fract_y
_atom_site_fract_z
Si Si1 0.402046 0.319522 0.613020
Si Si2 0.897361 0.822916 0.428897
Si Si3 0.395373 0.671370 0.290553
Si Si4 0.731862 0.823638 0.205125
Si Si5 0.733072 0.327587 0.395673
Si Si6 0.401471 0.318925 0.484866
Si Si7 0.107475 0.167073 0.046098
Si Si8 0.103632 0.677287 0.162905
O O1 0.500000 0.270966 0.634102
O O2 0.402419 0.500000 0.614479
O O3 0.320098 0.270421 0.649789
O O4 0.393508 0.275251 0.549015
O O5 0.823451 0.762419 0.386415
O O6 0.872664 0.751709 0.488899
O O7 0.000000 0.779866 0.416060
O O8 0.894051 0.000000 0.432651
O O9 0.500000 0.708735 0.295711
O O10 0.390099 0.500000 0.269697
O O11 0.338871 0.780280 0.252035
O O12 0.341874 0.674516 0.348325
O O13 0.826402 0.741989 0.207037
O O14 0.746167 0.000000 0.203241
O O15 0.758358 0.500000 0.404828
O O16 0.680180 0.264475 0.448741
O O17 0.500000 0.274077 0.464395
O O18 0.399581 0.500000 0.482306
O O19 0.129031 0.252916 0.102807
O O20 0.000000 0.155439 0.046589
O O21 0.146140 0.000000 0.046456
O O22 0.109581 0.500000 0.160282
O O23 0.000000 0.716959 0.174198
#
# Coordination Sequence:
#
# PCOD9359606 Si02
#       8
#     8   8   8   8   8   8   8   8
#     4   8  15  28  47  76 112 142 173 221 280 339
#     4  10  21  36  53  78 116 157 193 232 286 347
#     4  10  22  41  62  85 115 151 193 242 294 350
#     4  11  22  35  57  86 114 149 197 243 289 347
#     4  10  20  34  58  86 109 142 193 241 287 343
#     4   8  14  27  49  78 110 139 171 221 282 339
#     4   9  17  31  53  80 111 150 195 238 277 327
#     4  10  21  37  56  81 117 157 194 236 292 352
#
# _framework density 9.8765429999999999
#
# number of rings (size 3 to 8) (size 9 to 14) (size 15 to 20)
#    0.000    2.500    0.000    3.000    1.750    5.750 
#    0.000    0.625    0.000    1.875    0.000    1.750 
#    0.000    0.000    0.000    0.000    0.000    0.000 
#
# Total GULP energy -178411.946503 kJ/mol
# GULP energy per Si atom -5575.373328 kJ/mol
# Density = 0.985406 g / cm^3
# Si number density = 9.876543 Si / 1000 Ang^3
#
#
#
# Elastic Constant Matrix: (Units=GPa)
#
#
# Indices 1 2 3 4 5 6 
#
# 1 140.9692 45.5044 38.7973 0.0000 0.0000 0.0000
# 2 45.5044 49.7762 13.8138 0.0000 0.0000 0.0000
# 3 38.7973 13.8138 18.8861 0.0000 0.0000 0.0000
# 4 0.0000 0.0000 0.0000 21.5679 0.0000 0.0000
# 5 0.0000 0.0000 0.0000 0.0000 24.9534 0.0000
# 6 0.0000 0.0000 0.0000 0.0000 0.0000 21.9927
#
#
#
# Elastic Compliance Matrix: (Units=1/GPa)
#
#
# Indices 1 2 3 4 5 6 
#
# 1 0.018561 -0.008013 -0.032269 0.000000 0.000000 0.000000
# 2 -0.008013 0.028666 -0.004506 0.000000 0.000000 0.000000
# 3 -0.032269 -0.004506 0.122535 0.000000 0.000000 0.000000
# 4 0.000000 0.000000 0.000000 0.046365 0.000000 0.000000
# 5 0.000000 0.000000 0.000000 0.000000 0.040075 0.000000
# 6 0.000000 0.000000 0.000000 0.000000 0.000000 0.045470
#
#
# Mechanical properties :
#
#
# Convention : Reuss Voigt Hill
#
# Bulk Modulus (GPa) = 12.47109 45.09584 28.78347
# Shear Modulus (GPa) = 11.96240 21.13722 16.54981
#
# Velocity S-wave (km/s) = 2.46356 3.27474 2.89768
# Velocity P-wave (km/s) = 3.79728 6.09737 5.07924
#
# Compressibility (1/GPa) = 0.08018547
#
# Stress axis : x y z
#
# Youngs Moduli (GPa) = 53.87500 34.88478 8.16096
#
# Poissons Ratio (x) = 0.27954 0.26335
# Poissons Ratio (y) = 0.43171 0.03677
# Poissons Ratio (z) = 1.73851 0.15718
#
# Static dielectric constant tensor:
#      x y z
#    x 1.731460 0.000000 0.000000 
#    y 0.000000 1.672100 0.000000 
#    z 0.000000 0.000000 1.771310 
# 
# From -- ./inp_files/22915.got.cif
#   From: 2010.05.17/outbox.ucp.g08.bks.cvg/sg38_12_cif.got.tgz:22915.got - 2010.06.11 10:39:43.
