data_PCOD9359175
_publ_section_title
;
Structure prediction by ZEFSAII (Michael W. Deem and Ramdas Pophale) SiO2 
 PCOD9359175
Probable space group: A M M 2
;
_chemical_formula_sum "Si O2"
_cell_formula_units_Z 48
_cell_length_a 8.467528
_cell_length_b 18.788913
_cell_length_c 15.243641
_cell_angle_alpha 90.000000
_cell_angle_beta 90.000000
_cell_angle_gamma 90.000000
_cell_volume 2425.196926
_symmetry_space_group_name_H-M "A M M 2"
_symmetry_group_IT_number 38
_symmetry_cell_setting 'orthorhombic'
loop_
_space_group_symop_operation_xyz
x,y,z
-x,-y,z
-x,y,z
x,-y,z
x,1/2+y,1/2+z
-x,1/2-y,1/2+z
-x,1/2+y,1/2+z
x,1/2-y,1/2+z
loop_
_atom_site_type_symbol
_atom_site_label
_atom_site_fract_x
_atom_site_fract_y
_atom_site_fract_z
Si Si1 0.686378 0.729257 0.627680
Si Si2 0.189321 0.655970 0.985334
Si Si3 0.808860 0.500000 0.036389
Si Si4 0.317494 0.106288 0.878464
Si Si5 0.814104 0.078817 0.064154
Si Si6 0.814294 0.248378 0.322413
Si Si7 0.811546 0.000000 0.741748
O O1 0.500000 0.737820 0.639509
O O2 0.742405 0.786373 0.554376
O O3 0.724868 0.648407 0.598594
O O4 0.771575 0.740357 0.720908
O O5 0.215153 0.681143 0.885415
O O6 0.000000 0.656285 0.000642
O O7 0.249133 0.575560 0.999367
O O8 0.775562 0.500000 0.139706
O O9 0.000000 0.500000 0.024620
O O10 0.500000 0.090685 0.896904
O O11 0.288732 0.189007 0.863912
O O12 0.262053 0.067289 0.790741
O O13 0.213558 0.080459 0.959694
O O14 0.000000 0.086780 0.083313
O O15 0.763013 0.000000 0.095975
O O16 0.000000 0.266951 0.330370
O O17 0.000000 0.000000 0.752745
#
# Coordination Sequence:
#
# PCOD9359175 Si02
#       7
#     8   8   4   8   8   8   4
#     4  12  25  41  65  94 130 166 211 267 324 382
#     4  10  21  41  68  92 124 165 213 265 315 375
#     4   9  20  39  63  92 119 156 209 265 310 360
#     4  12  23  36  59  91 128 161 204 262 321 376
#     4  11  23  41  65  91 124 165 211 257 316 388
#     4  11  23  40  64  91 124 168 217 260 313 387
#     4  11  21  35  59  90 127 166 205 253 318 392
#
# _framework density 19.792207000000001
#
# number of rings (size 3 to 8) (size 9 to 14) (size 15 to 20)
#    0.000    1.000    2.500    5.250    0.000    3.000 
#    1.500    1.250    0.000    0.000    0.000    0.000 
#    0.000    0.000    0.000    0.000    0.000    0.000 
#
# Total GULP energy -134106.690284 kJ/mol
# GULP energy per Si atom -5587.778762 kJ/mol
# Density = 1.974716 g / cm^3
# Si number density = 19.792207 Si / 1000 Ang^3
#
#
#
# Elastic Constant Matrix: (Units=GPa)
#
#
# Indices 1 2 3 4 5 6 
#
# 1 43.5032 8.1242 7.4606 0.0000 0.0000 0.0000
# 2 8.1242 120.9588 21.2329 0.0000 0.0000 0.0000
# 3 7.4606 21.2329 64.2672 0.0000 0.0000 0.0000
# 4 0.0000 0.0000 0.0000 103.3602 0.0000 0.0000
# 5 0.0000 0.0000 0.0000 0.0000 -10.1715 0.0000
# 6 0.0000 0.0000 0.0000 0.0000 0.0000 -17.8540
#
#
#
# Elastic Compliance Matrix: (Units=1/GPa)
#
#
# Indices 1 2 3 4 5 6 
#
# 1 0.023609 -0.001173 -0.002353 0.000000 0.000000 0.000000
# 2 -0.001173 0.008834 -0.002783 0.000000 0.000000 0.000000
# 3 -0.002353 -0.002783 0.016753 0.000000 0.000000 0.000000
# 4 0.000000 0.000000 0.000000 0.009675 0.000000 0.000000
# 5 0.000000 0.000000 0.000000 0.000000 -0.098314 0.000000
# 6 0.000000 0.000000 0.000000 0.000000 0.000000 -0.056010
#
#
# Mechanical properties :
#
#
# Convention : Reuss Voigt Hill
#
# Bulk Modulus (GPa) = 27.33789 33.59605 30.46697
# Shear Modulus (GPa) = -70.77877 27.86106 -21.45886
#
# Velocity S-wave (km/s) = -5.98653 3.75597 -3.29630
# Velocity P-wave (km/s) = 5.82600 5.98507 0.96920
#
# Compressibility (1/GPa) = 0.03657927
#
# Stress axis : x y z
#
# Youngs Moduli (GPa) = 42.35601 113.19267 59.69229
#
# Poissons Ratio (x) = 0.13273 0.14048
# Poissons Ratio (y) = 0.04967 0.16610
# Poissons Ratio (z) = 0.09968 0.31498
#
# Static dielectric constant tensor:
#      x y z
#    x 1.674790 0.000000 0.000000 
#    y 0.000000 1.688700 0.000000 
#    z 0.000000 0.000000 1.666680 
# 
# From -- ./inp_files/12119.got.cif
#   From: 2010.05.17/outbox.cif.g08.bks.cpg/sg38_7_cif.got.tgz:12119.got - 2010.06.03 18:07:57.
