data_PCOD9359749
_publ_section_title
;
Structure prediction by ZEFSAII (Michael W. Deem and Ramdas Pophale) SiO2 
 PCOD9359749
Probable space group: A B M 2
;
_chemical_formula_sum "Si O2"
_cell_formula_units_Z 64
_cell_length_a 25.682553
_cell_length_b 8.285921
_cell_length_c 15.061919
_cell_angle_alpha 90.000000
_cell_angle_beta 90.000000
_cell_angle_gamma 90.000000
_cell_volume 3205.230665
_symmetry_space_group_name_H-M "A B M 2"
_symmetry_group_IT_number 39
_symmetry_cell_setting 'orthorhombic'
loop_
_space_group_symop_operation_xyz
x,y,z
-x,-y,z
-x,1/2+y,z
x,1/2-y,z
x,1/2+y,1/2+z
-x,1/2-y,1/2+z
-x,y,1/2+z
x,-y,1/2+z
loop_
_atom_site_type_symbol
_atom_site_label
_atom_site_fract_x
_atom_site_fract_y
_atom_site_fract_z
Si Si1 0.557144 0.056713 0.380010
Si Si2 0.168534 0.554706 0.370612
Si Si3 0.946901 0.940748 0.181064
Si Si4 0.443033 0.444737 0.676085
Si Si5 0.163144 0.554874 0.164438
Si Si6 0.635993 0.555431 0.527382
Si Si7 0.754326 0.444563 0.018528
Si Si8 0.944479 0.438596 0.383265
O O1 0.558233 0.250000 0.381635
O O2 0.563346 0.000761 0.277926
O O3 0.500000 0.000000 0.410746
O O4 0.602616 0.991023 0.441607
O O5 0.167651 0.750000 0.372680
O O6 0.172437 0.506482 0.267109
O O7 0.215911 0.494825 0.429478
O O8 0.112479 0.493663 0.408308
O O9 0.949788 0.750000 0.196524
O O10 0.892632 0.984282 0.135355
O O11 0.945339 0.031696 0.276388
O O12 0.000000 0.000000 0.135707
O O13 0.500000 0.500000 0.644721
O O14 0.442639 0.250000 0.675917
O O15 0.397238 0.502979 0.612060
O O16 0.159642 0.750000 0.162100
O O17 0.209534 0.501213 0.100523
O O18 0.638047 0.750000 0.532602
O O19 0.695177 0.494935 0.523956
O O20 0.752722 0.250000 0.021780
O O21 0.943558 0.250000 0.401964
O O22 0.000000 0.500000 0.417413
#
# Coordination Sequence:
#
# PCOD9359749 Si02
#       8
#     8   8   8   8   8   8   8   8
#     4  10  20  35  57  85 113 144 177 215 261 313
#     4   9  19  35  55  77 105 138 175 219 267 317
#     4  10  17  27  48  77 105 134 170 216 267 323
#     4   9  19  35  56  81 111 142 175 212 258 311
#     4   9  19  37  56  75 103 142 179 217 269 325
#     4  10  21  37  55  79 110 144 180 222 265 311
#     4  10  22  38  56  77 105 141 183 224 264 311
#     4   9  16  28  48  75 104 135 170 213 266 325
#
# _framework density 19.967361
#
# number of rings (size 3 to 8) (size 9 to 14) (size 15 to 20)
#    0.000    2.500    0.000    3.750    0.000    6.500 
#    0.000    3.125    0.000    1.500    0.000    0.000 
#    0.000    0.000    0.000    0.000    0.000    0.000 
#
# Total GULP energy -178566.835994 kJ/mol
# GULP energy per Si atom -5580.213625 kJ/mol
# Density = 1.992191 g / cm^3
# Si number density = 19.967361 Si / 1000 Ang^3
#
#
#
# Elastic Constant Matrix: (Units=GPa)
#
#
# Indices 1 2 3 4 5 6 
#
# 1 225.5190 15.8293 82.1868 0.0000 0.0000 0.0000
# 2 15.8293 5.9477 3.2597 0.0000 0.0000 0.0000
# 3 82.1868 3.2597 87.8387 0.0000 0.0000 0.0000
# 4 0.0000 0.0000 0.0000 45.8916 0.0000 0.0000
# 5 0.0000 0.0000 0.0000 0.0000 -18.9920 0.0000
# 6 0.0000 0.0000 0.0000 0.0000 0.0000 29.1784
#
#
#
# Elastic Compliance Matrix: (Units=1/GPa)
#
#
# Indices 1 2 3 4 5 6 
#
# 1 0.008292 -0.018187 -0.007084 0.000000 0.000000 0.000000
# 2 -0.018187 0.211513 0.009168 0.000000 0.000000 0.000000
# 3 -0.007084 0.009168 0.017672 0.000000 0.000000 0.000000
# 4 0.000000 0.000000 0.000000 0.021790 0.000000 0.000000
# 5 0.000000 0.000000 0.000000 0.000000 -0.052654 0.000000
# 6 0.000000 0.000000 0.000000 0.000000 0.000000 0.034272
#
#
# Mechanical properties :
#
#
# Convention : Reuss Voigt Hill
#
# Bulk Modulus (GPa) = 4.87161 57.98409 31.42785
# Shear Modulus (GPa) = 14.64057 25.75091 20.19574
#
# Velocity S-wave (km/s) = 2.71075 3.59507 3.18376
# Velocity P-wave (km/s) = 3.49895 6.80699 5.41192
#
# Compressibility (1/GPa) = 0.20527106
#
# Stress axis : x y z
#
# Youngs Moduli (GPa) = 120.59215 4.72784 56.58538
#
# Poissons Ratio (x) = 0.08599 0.40085
# Poissons Ratio (y) = 2.19324 -0.51876
# Poissons Ratio (z) = 0.85427 -0.04334
#
# Static dielectric constant tensor:
#      x y z
#    x 1.716810 0.000000 0.000000 
#    y 0.000000 1.681470 0.000000 
#    z 0.000000 0.000000 1.720590 
# 
# From -- ./inp_files/10650.got.cif
#   From: 2010.05.17/outbox.cif.g08.bks.cpg/sg39_6_cif.got.tgz:10650.got - 2010.06.03 18:22:40.
