data_PCOD9359302
_publ_section_title
;
Structure prediction by ZEFSAII (Michael W. Deem and Ramdas Pophale) SiO2 
 PCOD9359302
Probable space group: A M M 2
;
_chemical_formula_sum "Si O2"
_cell_formula_units_Z 22
_cell_length_a 7.214517
_cell_length_b 14.696595
_cell_length_c 11.402845
_cell_angle_alpha 90.000000
_cell_angle_beta 90.000000
_cell_angle_gamma 90.000000
_cell_volume 1209.030365
_symmetry_space_group_name_H-M "A M M 2"
_symmetry_group_IT_number 38
_symmetry_cell_setting 'orthorhombic'
loop_
_space_group_symop_operation_xyz
x,y,z
-x,-y,z
-x,y,z
x,-y,z
x,1/2+y,1/2+z
-x,1/2-y,1/2+z
-x,1/2+y,1/2+z
x,1/2-y,1/2+z
loop_
_atom_site_type_symbol
_atom_site_label
_atom_site_fract_x
_atom_site_fract_y
_atom_site_fract_z
Si Si1 0.500000 0.183462 0.694890
Si Si2 0.220963 0.340918 0.746263
Si Si3 0.500000 0.103323 0.443269
Si Si4 0.780618 0.000000 0.060529
Si Si5 0.500000 0.500000 0.348715
O O1 0.320948 0.245082 0.723988
O O2 0.500000 0.165159 0.556898
O O3 0.500000 0.090477 0.769008
O O4 0.321485 0.379485 0.861699
O O5 0.263056 0.411470 0.640371
O O6 0.000000 0.334512 0.758554
O O7 0.500000 0.000000 0.483742
O O8 0.000000 0.000000 0.039902
O O9 0.672264 0.000000 0.939028
#
# Coordination Sequence:
#
# PCOD9359302 Si02
#       5
#     4   8   4   4   2
#     4  11  26  39  61  90 126 162 197 245 308 360
#     4  10  23  42  65  91 117 159 208 249 295 355
#     4  11  21  41  65  89 121 158 200 254 303 353
#     4  10  22  41  65  89 117 158 205 248 294 357
#     4  12  24  42  58  86 130 162 194 248 304 358
#
# _framework density 18.196400000000001
#
# number of rings (size 3 to 8) (size 9 to 14) (size 15 to 20)
#    0.000    1.455    2.727    2.182   10.182    2.909 
#    0.000    0.000    0.000    0.000    0.000    0.000 
#    0.000    0.000    0.000    0.000    0.000    0.000 
#
# Total GULP energy -61438.862858 kJ/mol
# GULP energy per Si atom -5585.351169 kJ/mol
# Density = 1.815498 g / cm^3
# Si number density = 18.196400 Si / 1000 Ang^3
#
#
#
# Elastic Constant Matrix: (Units=GPa)
#
#
# Indices 1 2 3 4 5 6 
#
# 1 129.3709 44.8880 36.9911 0.0000 0.0000 0.0000
# 2 44.8880 123.5265 29.1684 0.0000 0.0000 0.0000
# 3 36.9911 29.1684 82.8732 0.0000 0.0000 0.0000
# 4 0.0000 0.0000 0.0000 15.3695 0.0000 0.0000
# 5 0.0000 0.0000 0.0000 0.0000 1.8589 0.0000
# 6 0.0000 0.0000 0.0000 0.0000 0.0000 17.7163
#
#
#
# Elastic Compliance Matrix: (Units=1/GPa)
#
#
# Indices 1 2 3 4 5 6 
#
# 1 0.009625 -0.002708 -0.003343 0.000000 0.000000 0.000000
# 2 -0.002708 0.009591 -0.002167 0.000000 0.000000 0.000000
# 3 -0.003343 -0.002167 0.014322 0.000000 0.000000 0.000000
# 4 0.000000 0.000000 0.000000 0.065064 0.000000 0.000000
# 5 0.000000 0.000000 0.000000 0.000000 0.537952 0.000000
# 6 0.000000 0.000000 0.000000 0.000000 0.000000 0.056445
#
#
# Mechanical properties :
#
#
# Convention : Reuss Voigt Hill
#
# Bulk Modulus (GPa) = 58.47456 61.98508 60.22982
# Shear Modulus (GPa) = 6.99167 21.97048 14.48108
#
# Velocity S-wave (km/s) = 1.96231 3.47855 2.82409
# Velocity P-wave (km/s) = 6.11058 7.09029 6.61859
#
# Compressibility (1/GPa) = 0.01710145
#
# Stress axis : x y z
#
# Youngs Moduli (GPa) = 103.89272 104.26153 69.82501
#
# Poissons Ratio (x) = 0.28237 0.23343
# Poissons Ratio (y) = 0.28137 0.15130
# Poissons Ratio (z) = 0.34732 0.22592
#
# Static dielectric constant tensor:
#      x y z
#    x 1.610790 0.000000 0.000000 
#    y 0.000000 1.631170 0.000000 
#    z 0.000000 0.000000 1.583260 
# 
# From -- ./inp_files/2726.got.cif
#   From: 2010.05.17/outbox.cif.g08.bks.cpg/sg38_2_cif.got.tgz:2726.got - 2010.06.03 18:07:57.
