data_PCOD9359056
_publ_section_title
;
Structure prediction by ZEFSAII (Michael W. Deem and Ramdas Pophale) SiO2 
 PCOD9359056
Probable space group: A M M 2
;
_chemical_formula_sum "Si O2"
_cell_formula_units_Z 56
_cell_length_a 19.811850
_cell_length_b 9.169731
_cell_length_c 16.336063
_cell_angle_alpha 90.000000
_cell_angle_beta 90.000000
_cell_angle_gamma 90.000000
_cell_volume 2967.761704
_symmetry_space_group_name_H-M "A M M 2"
_symmetry_group_IT_number 38
_symmetry_cell_setting 'orthorhombic'
loop_
_space_group_symop_operation_xyz
x,y,z
-x,-y,z
-x,y,z
x,-y,z
x,1/2+y,1/2+z
-x,1/2-y,1/2+z
-x,1/2+y,1/2+z
x,1/2-y,1/2+z
loop_
_atom_site_type_symbol
_atom_site_label
_atom_site_fract_x
_atom_site_fract_y
_atom_site_fract_z
Si Si1 0.576013 0.329417 0.334670
Si Si2 0.292828 0.325956 0.096270
Si Si3 0.079786 0.674718 0.184933
Si Si4 0.424389 0.329514 0.532027
Si Si5 0.706339 0.171844 0.266163
Si Si6 0.154172 0.822904 0.519062
Si Si7 0.150523 0.326369 0.838563
O O1 0.500000 0.286166 0.308765
O O2 0.585671 0.500000 0.312558
O O3 0.578122 0.320354 0.433359
O O4 0.635824 0.233942 0.298650
O O5 0.294781 0.500000 0.102142
O O6 0.364750 0.264783 0.068828
O O7 0.275838 0.256929 0.183605
O O8 0.232400 0.284503 0.034879
O O9 0.090515 0.500000 0.190035
O O10 0.112364 0.725150 0.098728
O O11 0.113810 0.748331 0.263534
O O12 0.000000 0.702771 0.184381
O O13 0.500000 0.284606 0.557899
O O14 0.415376 0.500000 0.553969
O O15 0.768783 0.193486 0.327792
O O16 0.700514 0.000000 0.249859
O O17 0.130753 0.773108 0.429414
O O18 0.150519 0.000000 0.517206
O O19 0.137268 0.500000 0.832854
#
# Coordination Sequence:
#
# PCOD9359056 Si02
#       7
#     8   8   8   8   8   8   8
#     4   9  19  36  56  78 107 147 193 238 290 352
#     4  11  21  35  57  81 110 148 194 242 289 346
#     4  10  21  39  62  88 120 155 191 232 282 344
#     4   9  19  36  55  77 109 146 186 237 295 350
#     4  11  22  35  54  82 115 148 191 244 295 343
#     4   9  19  37  60  86 116 153 194 234 283 343
#     4  10  21  38  61  88 118 153 194 239 288 344
#
# _framework density 18.869437999999999
#
# number of rings (size 3 to 8) (size 9 to 14) (size 15 to 20)
#    0.000    2.143    1.429    2.571    0.000    4.286 
#    0.000    5.000    0.000    0.000    0.000    0.000 
#    0.000    0.000    0.000    0.000    0.000    0.000 
#
# Total GULP energy -156276.558027 kJ/mol
# GULP energy per Si atom -5581.305644 kJ/mol
# Density = 1.882649 g / cm^3
# Si number density = 18.869438 Si / 1000 Ang^3
#
#
#
# Elastic Constant Matrix: (Units=GPa)
#
#
# Indices 1 2 3 4 5 6 
#
# 1 103.4296 48.3995 63.2635 0.0000 0.0000 0.0000
# 2 48.3995 44.2161 38.2368 0.0000 0.0000 0.0000
# 3 63.2635 38.2368 130.6296 0.0000 0.0000 0.0000
# 4 0.0000 0.0000 0.0000 22.8940 0.0000 0.0000
# 5 0.0000 0.0000 0.0000 0.0000 15.3387 0.0000
# 6 0.0000 0.0000 0.0000 0.0000 0.0000 24.7157
#
#
#
# Elastic Compliance Matrix: (Units=1/GPa)
#
#
# Indices 1 2 3 4 5 6 
#
# 1 0.021856 -0.019777 -0.004796 0.000000 0.000000 0.000000
# 2 -0.019777 0.048176 -0.004524 0.000000 0.000000 0.000000
# 3 -0.004796 -0.004524 0.011302 0.000000 0.000000 0.000000
# 4 0.000000 0.000000 0.000000 0.043680 0.000000 0.000000
# 5 0.000000 0.000000 0.000000 0.000000 0.065194 0.000000
# 6 0.000000 0.000000 0.000000 0.000000 0.000000 0.040460
#
#
# Mechanical properties :
#
#
# Convention : Reuss Voigt Hill
#
# Bulk Modulus (GPa) = 43.21293 64.23056 53.72175
# Shear Modulus (GPa) = 16.85906 21.14805 19.00355
#
# Velocity S-wave (km/s) = 2.99232 3.35140 3.17694
# Velocity P-wave (km/s) = 5.90672 7.00637 6.47992
#
# Compressibility (1/GPa) = 0.02314122
#
# Stress axis : x y z
#
# Youngs Moduli (GPa) = 45.75303 20.75713 88.47846
#
# Poissons Ratio (x) = 0.41051 0.42435
# Poissons Ratio (y) = 0.90485 0.40027
# Poissons Ratio (z) = 0.21944 0.09390
#
# Static dielectric constant tensor:
#      x y z
#    x 1.650360 0.000000 0.000000 
#    y 0.000000 1.630210 0.000000 
#    z 0.000000 0.000000 1.665360 
# 
# From -- ./inp_files/15435.got.cif
#   From: 2010.05.17/outbox.cif.g08.bks.cpg/sg38_8_cif.got.tgz:15435.got - 2010.06.03 18:07:57.
