data_PCOD9359727
_publ_section_title
;
Structure prediction by ZEFSAII (Michael W. Deem and Ramdas Pophale) SiO2 
 PCOD9359727
Probable space group: A B M 2
;
_chemical_formula_sum "Si O2"
_cell_formula_units_Z 48
_cell_length_a 16.290552
_cell_length_b 8.794627
_cell_length_c 19.037724
_cell_angle_alpha 90.000000
_cell_angle_beta 90.000000
_cell_angle_gamma 90.000000
_cell_volume 2727.521933
_symmetry_space_group_name_H-M "A B M 2"
_symmetry_group_IT_number 39
_symmetry_cell_setting 'orthorhombic'
loop_
_space_group_symop_operation_xyz
x,y,z
-x,-y,z
-x,1/2+y,z
x,1/2-y,z
x,1/2+y,1/2+z
-x,1/2-y,1/2+z
-x,y,1/2+z
x,-y,1/2+z
loop_
_atom_site_type_symbol
_atom_site_label
_atom_site_fract_x
_atom_site_fract_y
_atom_site_fract_z
Si Si1 0.086168 0.068651 0.035290
Si Si2 0.763759 0.431791 0.119882
Si Si3 0.416616 0.068508 0.281956
Si Si4 0.246612 0.933133 0.285514
Si Si5 0.913795 0.067046 0.371924
Si Si6 0.582294 0.432589 0.123783
O O1 0.081124 0.250000 0.037787
O O2 0.163651 0.012407 0.079052
O O3 0.095659 0.021487 0.953559
O O4 0.000000 0.000000 0.061260
O O5 0.773886 0.250000 0.113927
O O6 0.765639 0.469385 0.202975
O O7 0.671777 0.469749 0.092615
O O8 0.420999 0.250000 0.280760
O O9 0.500000 0.000000 0.314635
O O10 0.330086 0.011255 0.312336
O O11 0.415205 0.002897 0.202232
O O12 0.256686 0.750000 0.290563
O O13 0.165844 0.979878 0.328016
O O14 0.918681 0.250000 0.368901
O O15 0.000000 0.000000 0.345748
O O16 0.500000 0.500000 0.089424
O O17 0.575732 0.250000 0.129348
#
# Coordination Sequence:
#
# PCOD9359727 Si02
#       6
#     8   8   8   8   8   8
#     4  10  20  34  52  71  93 125 161 196 236 285
#     4   9  18  31  48  72 100 127 155 195 240 277
#     4  10  17  26  43  68  97 128 160 193 233 280
#     4   9  18  33  50  71  99 126 157 198 240 279
#     4   9  19  35  53  71  93 124 160 197 237 283
#     4   9  16  27  44  67  96 128 159 193 234 278
#
# _framework density 17.598389999999998
#
# number of rings (size 3 to 8) (size 9 to 14) (size 15 to 20)
#    0.000    2.667    0.000    4.500    0.000    5.333 
#    0.000    1.667    0.000    1.000    0.000    2.333 
#    0.000    0.000    0.000    0.000    0.000    0.000 
#
# Total GULP energy -133727.716532 kJ/mol
# GULP energy per Si atom -5571.988189 kJ/mol
# Density = 1.755834 g / cm^3
# Si number density = 17.598390 Si / 1000 Ang^3
#
#
#
# Elastic Constant Matrix: (Units=GPa)
#
#
# Indices 1 2 3 4 5 6 
#
# 1 223.3092 68.7772 54.6364 0.0000 0.0000 0.0000
# 2 68.7772 56.7180 21.1387 0.0000 0.0000 0.0000
# 3 54.6364 21.1387 25.9382 0.0000 0.0000 0.0000
# 4 0.0000 0.0000 0.0000 13.4617 0.0000 0.0000
# 5 0.0000 0.0000 0.0000 0.0000 -17.6111 0.0000
# 6 0.0000 0.0000 0.0000 0.0000 0.0000 38.7671
#
#
#
# Elastic Compliance Matrix: (Units=1/GPa)
#
#
# Indices 1 2 3 4 5 6 
#
# 1 0.010715 -0.006580 -0.017207 0.000000 0.000000 0.000000
# 2 -0.006580 0.029363 -0.010070 0.000000 0.000000 0.000000
# 3 -0.017207 -0.010070 0.083005 0.000000 0.000000 0.000000
# 4 0.000000 0.000000 0.000000 0.074285 0.000000 0.000000
# 5 0.000000 0.000000 0.000000 0.000000 -0.056782 0.000000
# 6 0.000000 0.000000 0.000000 0.000000 0.000000 0.025795
#
#
# Mechanical properties :
#
#
# Convention : Reuss Voigt Hill
#
# Bulk Modulus (GPa) = 18.06082 66.11889 42.08985
# Shear Modulus (GPa) = 19.79804 17.68441 18.74122
#
# Velocity S-wave (km/s) = 3.35773 3.17344 3.26688
# Velocity P-wave (km/s) = 5.03165 7.14704 6.18052
#
# Compressibility (1/GPa) = 0.05536848
#
# Stress axis : x y z
#
# Youngs Moduli (GPa) = 93.33121 34.05666 12.04744
#
# Poissons Ratio (x) = 0.22408 0.20730
# Poissons Ratio (y) = 0.61408 0.12132
# Poissons Ratio (z) = 1.60595 0.34297
#
# Static dielectric constant tensor:
#      x y z
#    x 1.639760 0.000000 0.000000 
#    y 0.000000 1.587240 0.000000 
#    z 0.000000 0.000000 1.584360 
# 
# From -- ./inp_files/12666.got.cif
#   From: 2010.05.17/outbox.cif.g08.bks.cpg/sg39_7_cif.got.tgz:12666.got - 2010.06.03 18:22:40.
