data_PCOD9359119
_publ_section_title
;
Structure prediction by ZEFSAII (Michael W. Deem and Ramdas Pophale) SiO2 
 PCOD9359119
Probable space group: A M M 2
;
_chemical_formula_sum "Si O2"
_cell_formula_units_Z 40
_cell_length_a 7.331985
_cell_length_b 9.145816
_cell_length_c 30.314094
_cell_angle_alpha 90.000000
_cell_angle_beta 90.000000
_cell_angle_gamma 90.000000
_cell_volume 2032.771769
_symmetry_space_group_name_H-M "A M M 2"
_symmetry_group_IT_number 38
_symmetry_cell_setting 'orthorhombic'
loop_
_space_group_symop_operation_xyz
x,y,z
-x,-y,z
-x,y,z
x,-y,z
x,1/2+y,1/2+z
-x,1/2-y,1/2+z
-x,1/2+y,1/2+z
x,1/2-y,1/2+z
loop_
_atom_site_type_symbol
_atom_site_label
_atom_site_fract_x
_atom_site_fract_y
_atom_site_fract_z
Si Si1 0.715107 0.327333 0.030810
Si Si2 0.277627 0.167976 0.941571
Si Si3 0.000000 0.325223 0.700125
Si Si4 0.718540 0.327670 0.263297
Si Si5 0.721875 0.832401 0.353458
Si Si6 0.000000 0.674636 0.105929
O O1 0.500000 0.301686 0.037389
O O2 0.741105 0.500000 0.021557
O O3 0.827284 0.292707 0.074641
O O4 0.777468 0.238086 0.988008
O O5 0.500000 0.170945 0.941329
O O6 0.217506 0.260340 0.899230
O O7 0.221248 0.000000 0.937875
O O8 0.173738 0.259801 0.726040
O O9 0.000000 0.500000 0.701591
O O10 0.000000 0.265337 0.650480
O O11 0.500000 0.310679 0.258584
O O12 0.760525 0.500000 0.261081
O O13 0.772703 0.262351 0.310885
O O14 0.500000 0.833326 0.354448
O O15 0.781713 0.000000 0.349231
O O16 0.000000 0.500000 0.115797
#
# Coordination Sequence:
#
# PCOD9359119 Si02
#       6
#     8   8   4   8   8   4
#     4   9  18  34  56  80 107 141 181 227 279 332
#     4   9  16  27  47  77 112 148 185 224 269 327
#     4  12  26  42  61  86 117 150 188 239 295 351
#     4  10  21  39  63  88 116 152 194 239 287 341
#     4   9  16  28  50  81 116 151 187 228 276 332
#     4  10  22  40  59  80 107 140 184 235 285 341
#
# _framework density 19.677567
#
# number of rings (size 3 to 8) (size 9 to 14) (size 15 to 20)
#    0.000    2.400    0.000    2.700    0.000    7.600 
#    0.000    3.000    0.000    1.200    0.000    0.000 
#    0.000    0.000    0.000    0.000    0.000    0.000 
#
# Total GULP energy -111767.968634 kJ/mol
# GULP energy per Si atom -5588.398432 kJ/mol
# Density = 1.963278 g / cm^3
# Si number density = 19.677567 Si / 1000 Ang^3
#
#
#
# Elastic Constant Matrix: (Units=GPa)
#
#
# Indices 1 2 3 4 5 6 
#
# 1 83.4008 50.3939 49.7074 0.0000 0.0000 0.0000
# 2 50.3939 167.2249 120.2179 0.0000 0.0000 0.0000
# 3 49.7074 120.2179 185.8948 0.0000 0.0000 0.0000
# 4 0.0000 0.0000 0.0000 43.3305 0.0000 0.0000
# 5 0.0000 0.0000 0.0000 0.0000 31.9955 0.0000
# 6 0.0000 0.0000 0.0000 0.0000 0.0000 11.1541
#
#
#
# Elastic Compliance Matrix: (Units=1/GPa)
#
#
# Indices 1 2 3 4 5 6 
#
# 1 0.015063 -0.003072 -0.002041 0.000000 0.000000 0.000000
# 2 -0.003072 0.011802 -0.006811 0.000000 0.000000 0.000000
# 3 -0.002041 -0.006811 0.010330 0.000000 0.000000 0.000000
# 4 0.000000 0.000000 0.000000 0.023078 0.000000 0.000000
# 5 0.000000 0.000000 0.000000 0.000000 0.031254 0.000000
# 6 0.000000 0.000000 0.000000 0.000000 0.000000 0.089653
#
#
# Mechanical properties :
#
#
# Convention : Reuss Voigt Hill
#
# Bulk Modulus (GPa) = 74.92425 97.46210 86.19317
# Shear Modulus (GPa) = 23.86888 31.70944 27.78916
#
# Velocity S-wave (km/s) = 3.48659 4.01864 3.76204
# Velocity P-wave (km/s) = 7.37340 8.43622 7.92265
#
# Compressibility (1/GPa) = 0.01334681
#
# Stress axis : x y z
#
# Youngs Moduli (GPa) = 66.38785 84.73053 96.80669
#
# Poissons Ratio (x) = 0.26028 0.19760
# Poissons Ratio (y) = 0.20394 0.65935
# Poissons Ratio (z) = 0.13551 0.57710
#
# Static dielectric constant tensor:
#      x y z
#    x 1.745240 0.000000 0.000000 
#    y 0.000000 1.655830 0.000000 
#    z 0.000000 0.000000 1.634210 
# 
# From -- ./inp_files/23248.got.cif
#   From: 2010.05.17/outbox.cif.g08.bks.cpg/sg38_12_cif.got.tgz:23248.got - 2010.06.03 18:07:57.
