data_PCOD9359830
_publ_section_title
;
Structure prediction by ZEFSAII (Michael W. Deem and Ramdas Pophale) SiO2 
 PCOD9359830
Probable space group: A B M 2
;
_chemical_formula_sum "Si O2"
_cell_formula_units_Z 64
_cell_length_a 15.136005
_cell_length_b 7.709830
_cell_length_c 25.608694
_cell_angle_alpha 90.000000
_cell_angle_beta 90.000000
_cell_angle_gamma 90.000000
_cell_volume 2988.432806
_symmetry_space_group_name_H-M "A B M 2"
_symmetry_group_IT_number 39
_symmetry_cell_setting 'orthorhombic'
loop_
_space_group_symop_operation_xyz
x,y,z
-x,-y,z
-x,1/2+y,z
x,1/2-y,z
x,1/2+y,1/2+z
-x,1/2-y,1/2+z
-x,y,1/2+z
x,-y,1/2+z
loop_
_atom_site_type_symbol
_atom_site_label
_atom_site_fract_x
_atom_site_fract_y
_atom_site_fract_z
Si Si1 0.294655 0.537247 0.405440
Si Si2 0.097731 0.552864 0.425612
Si Si3 0.869787 0.548324 0.542301
Si Si4 0.404218 0.456114 0.125018
Si Si5 0.670520 0.960025 0.020096
Si Si6 0.903418 0.958788 0.658557
Si Si7 0.270488 0.050488 0.710673
Si Si8 0.603624 0.959099 0.801989
O O1 0.292861 0.750000 0.404946
O O2 0.191959 0.473102 0.407110
O O3 0.339277 0.484074 0.460321
O O4 0.352008 0.480889 0.356147
O O5 0.105732 0.750000 0.409751
O O6 0.098109 0.539048 0.488870
O O7 0.000000 0.500000 0.407491
O O8 0.895932 0.750000 0.538962
O O9 0.764411 0.530289 0.539635
O O10 0.898252 0.475272 0.598488
O O11 0.500000 0.500000 0.146826
O O12 0.390028 0.250000 0.128040
O O13 0.398064 0.512098 0.064553
O O14 0.328681 0.545662 0.158359
O O15 0.675634 0.750000 0.019690
O O16 0.892264 0.750000 0.654840
O O17 0.823783 0.027452 0.694352
O O18 0.000000 0.000000 0.679586
O O19 0.253227 0.250000 0.726251
O O20 0.333575 0.973213 0.755275
O O21 0.608143 0.750000 0.800878
O O22 0.500000 0.000000 0.796991
#
# Coordination Sequence:
#
# PCOD9359830 Si02
#       8
#     8   8   8   8   8   8   8   8
#     4   8  17  35  56  78 106 141 178 220 270 325
#     4  10  19  32  51  77 112 148 187 224 265 321
#     4  10  18  30  50  76 109 147 185 223 267 318
#     4  11  22  34  53  80 110 146 180 221 276 334
#     4   9  18  33  52  76 109 146 181 219 271 327
#     4  10  21  34  51  77 109 144 180 221 267 321
#     4  10  21  39  58  79 109 143 183 230 275 326
#     4  10  21  39  63  83 104 137 181 230 280 328
#
# _framework density 21.415908000000002
#
# number of rings (size 3 to 8) (size 9 to 14) (size 15 to 20)
#    0.000    2.250    1.250    2.625    0.000    5.000 
#    0.000    3.750    0.000    0.000    0.000    0.000 
#    0.000    0.000    0.000    0.000    0.000    0.000 
#
# Total GULP energy -178481.996562 kJ/mol
# GULP energy per Si atom -5577.562393 kJ/mol
# Density = 2.136716 g / cm^3
# Si number density = 21.415908 Si / 1000 Ang^3
#
#
#
# Elastic Constant Matrix: (Units=GPa)
#
#
# Indices 1 2 3 4 5 6 
#
# 1 155.8618 -9.9396 69.4492 0.0000 0.0000 0.0000
# 2 -9.9396 28.8713 1.1304 0.0000 0.0000 0.0000
# 3 69.4492 1.1304 117.2110 0.0000 0.0000 0.0000
# 4 0.0000 0.0000 0.0000 -5.6680 0.0000 0.0000
# 5 0.0000 0.0000 0.0000 0.0000 7.4625 0.0000
# 6 0.0000 0.0000 0.0000 0.0000 0.0000 24.7396
#
#
#
# Elastic Compliance Matrix: (Units=1/GPa)
#
#
# Indices 1 2 3 4 5 6 
#
# 1 0.009024 0.003317 -0.005379 0.000000 0.000000 0.000000
# 2 0.003317 0.035869 -0.002312 0.000000 0.000000 0.000000
# 3 -0.005379 -0.002312 0.011741 0.000000 0.000000 0.000000
# 4 0.000000 0.000000 0.000000 -0.176429 0.000000 0.000000
# 5 0.000000 0.000000 0.000000 0.000000 0.134003 0.000000
# 6 0.000000 0.000000 0.000000 0.000000 0.000000 0.040421
#
#
# Mechanical properties :
#
#
# Convention : Reuss Voigt Hill
#
# Bulk Modulus (GPa) = 20.88199 47.02489 33.95344
# Shear Modulus (GPa) = 63.02140 21.39376 42.20758
#
# Velocity S-wave (km/s) = 5.43059 3.16407 4.44424
# Velocity P-wave (km/s) = 7.00668 5.94593 6.49798
#
# Compressibility (1/GPa) = 0.04788815
#
# Stress axis : x y z
#
# Youngs Moduli (GPa) = 110.81207 27.87916 85.17119
#
# Poissons Ratio (x) = -0.09249 0.45814
# Poissons Ratio (y) = -0.36761 0.19688
# Poissons Ratio (z) = 0.59606 0.06444
#
# Static dielectric constant tensor:
#      x y z
#    x 1.806150 0.000000 0.000000 
#    y 0.000000 3.141320 0.000000 
#    z 0.000000 0.000000 1.780250 
# 
# From -- ./inp_files/16184.got.cif
#   From: 2010.05.17/outbox.cif.g08.bks.cpg/sg39_9_cif.got.tgz:16184.got - 2010.06.03 18:22:40.
