data_PCOD9359143
_publ_section_title
;
Structure prediction by ZEFSAII (Michael W. Deem and Ramdas Pophale) SiO2 
 PCOD9359143
Probable space group: A M M 2
;
_chemical_formula_sum "Si O2"
_cell_formula_units_Z 58
_cell_length_a 12.608878
_cell_length_b 18.219358
_cell_length_c 13.376644
_cell_angle_alpha 90.000000
_cell_angle_beta 90.000000
_cell_angle_gamma 90.000000
_cell_volume 3072.958402
_symmetry_space_group_name_H-M "A M M 2"
_symmetry_group_IT_number 38
_symmetry_cell_setting 'orthorhombic'
loop_
_space_group_symop_operation_xyz
x,y,z
-x,-y,z
-x,y,z
x,-y,z
x,1/2+y,1/2+z
-x,1/2-y,1/2+z
-x,1/2+y,1/2+z
x,1/2-y,1/2+z
loop_
_atom_site_type_symbol
_atom_site_label
_atom_site_fract_x
_atom_site_fract_y
_atom_site_fract_z
Si Si1 0.830578 0.635298 0.954770
Si Si2 0.000000 0.500000 0.961160
Si Si3 0.229990 0.581596 0.466035
Si Si4 0.262561 0.797782 0.262000
Si Si5 0.374513 0.354889 0.296214
Si Si6 0.380591 0.420341 0.658935
Si Si7 0.880536 0.215107 0.065522
Si Si8 0.619477 0.411855 0.068576
O O1 0.812947 0.663923 0.842443
O O2 0.907033 0.565262 0.961086
O O3 0.874228 0.705509 0.014650
O O4 0.714564 0.617451 0.000674
O O5 0.180241 0.500000 0.457700
O O6 0.306182 0.595748 0.371804
O O7 0.303619 0.581214 0.564450
O O8 0.153628 0.650629 0.488025
O O9 0.319412 0.724755 0.300717
O O10 0.352270 0.856078 0.233167
O O11 0.197115 0.783341 0.160670
O O12 0.500000 0.353060 0.322024
O O13 0.366382 0.383482 0.182311
O O14 0.500000 0.413203 0.622057
O O15 0.368524 0.500000 0.708981
O O16 0.000000 0.199883 0.099199
O O17 0.500000 0.389342 0.036042
O O18 0.623412 0.500000 0.069515
#
# Coordination Sequence:
#
# PCOD9359143 Si02
#       8
#     8   2   8   8   8   8   8   8
#     4  12  24  45  66  95 129 167 220 267 324 387
#     4  12  28  44  74  96 122 174 224 270 320 392
#     4  10  21  40  62  92 128 168 214 266 317 379
#     4  11  24  39  61  95 125 165 207 268 321 388
#     4  11  21  36  64  98 133 172 213 262 324 391
#     4   9  19  36  57  85 125 168 209 254 310 379
#     4  11  24  44  67  89 122 168 215 275 324 377
#     4  10  22  40  64  95 134 173 213 267 326 392
#
# _framework density 18.874320000000001
#
# number of rings (size 3 to 8) (size 9 to 14) (size 15 to 20)
#    0.000    1.379    4.138    1.241    1.931    2.759 
#    0.000    1.379    1.517    0.000    0.000    0.000 
#    0.000    0.000    0.000    0.000    0.000    0.000 
#
# Total GULP energy -161561.038061 kJ/mol
# GULP energy per Si atom -5571.070278 kJ/mol
# Density = 1.883136 g / cm^3
# Si number density = 18.874320 Si / 1000 Ang^3
#
#
#
# Elastic Constant Matrix: (Units=GPa)
#
#
# Indices 1 2 3 4 5 6 
#
# 1 70.2495 31.8600 0.1922 0.0000 0.0000 0.0000
# 2 31.8600 136.0176 24.1185 0.0000 0.0000 0.0000
# 3 0.1922 24.1185 43.1975 0.0000 0.0000 0.0000
# 4 0.0000 0.0000 0.0000 14.2909 0.0000 0.0000
# 5 0.0000 0.0000 0.0000 0.0000 9.6257 0.0000
# 6 0.0000 0.0000 0.0000 0.0000 0.0000 25.9293
#
#
#
# Elastic Compliance Matrix: (Units=1/GPa)
#
#
# Indices 1 2 3 4 5 6 
#
# 1 0.016123 -0.004178 0.002261 0.000000 0.000000 0.000000
# 2 -0.004178 0.009242 -0.005142 0.000000 0.000000 0.000000
# 3 0.002261 -0.005142 0.026010 0.000000 0.000000 0.000000
# 4 0.000000 0.000000 0.000000 0.069974 0.000000 0.000000
# 5 0.000000 0.000000 0.000000 0.000000 0.103888 0.000000
# 6 0.000000 0.000000 0.000000 0.000000 0.000000 0.038566
#
#
# Mechanical properties :
#
#
# Convention : Reuss Voigt Hill
#
# Bulk Modulus (GPa) = 26.83926 40.20067 33.51997
# Shear Modulus (GPa) = 17.22111 22.85547 20.03829
#
# Velocity S-wave (km/s) = 3.02389 3.48362 3.26186
# Velocity P-wave (km/s) = 5.14225 6.12586 5.65548
#
# Compressibility (1/GPa) = 0.03725885
#
# Stress axis : x y z
#
# Youngs Moduli (GPa) = 62.02169 108.19922 38.44654
#
# Poissons Ratio (x) = 0.45200 -0.08692
# Poissons Ratio (y) = 0.25910 0.19768
# Poissons Ratio (z) = -0.14021 0.55632
#
# Static dielectric constant tensor:
#      x y z
#    x 1.644380 0.000000 0.000000 
#    y 0.000000 1.662790 0.000000 
#    z 0.000000 0.000000 1.631840 
# 
# From -- ./inp_files/13921.got.cif
#   From: 2010.05.17/outbox.cif.g08.bks.cpg/sg38_7_cif.got.tgz:13921.got - 2010.06.03 18:07:57.
