data_PCOD9359423
_publ_section_title
;
Structure prediction by ZEFSAII (Michael W. Deem and Ramdas Pophale) SiO2 
 PCOD9359423
Probable space group: A M M 2
;
_chemical_formula_sum "Si O2"
_cell_formula_units_Z 40
_cell_length_a 14.317589
_cell_length_b 18.859426
_cell_length_c 7.354024
_cell_angle_alpha 90.000000
_cell_angle_beta 90.000000
_cell_angle_gamma 90.000000
_cell_volume 1985.744667
_symmetry_space_group_name_H-M "A M M 2"
_symmetry_group_IT_number 38
_symmetry_cell_setting 'orthorhombic'
loop_
_space_group_symop_operation_xyz
x,y,z
-x,-y,z
-x,y,z
x,-y,z
x,1/2+y,1/2+z
-x,1/2-y,1/2+z
-x,1/2+y,1/2+z
x,1/2-y,1/2+z
loop_
_atom_site_type_symbol
_atom_site_label
_atom_site_fract_x
_atom_site_fract_y
_atom_site_fract_z
Si Si1 0.397540 0.860306 0.557400
Si Si2 0.108221 0.308373 0.261524
Si Si3 0.801352 0.581182 0.996029
Si Si4 0.198374 0.335678 0.630515
Si Si5 0.398149 0.701381 0.648697
O O1 0.500000 0.892402 0.596081
O O2 0.304760 0.906775 0.569420
O O3 0.389041 0.786206 0.664737
O O4 0.398614 0.832956 0.348243
O O5 0.134481 0.364898 0.107962
O O6 0.132035 0.341302 0.457446
O O7 0.170190 0.238068 0.229749
O O8 0.000000 0.288223 0.251106
O O9 0.828494 0.500000 0.018613
O O10 0.805468 0.604512 0.784554
O O11 0.304590 0.328127 0.559097
O O12 0.500000 0.687051 0.563424
#
# Coordination Sequence:
#
# PCOD9359423 Si02
#       5
#     8   8   8   8   8
#     4   9  17  31  56  88 121 157 199 245 303 367
#     4  12  24  40  66  94 118 156 214 266 309 365
#     4  11  25  42  61  91 132 166 200 255 316 370
#     4  11  21  40  66  93 123 160 209 256 308 371
#     4   9  16  29  54  90 119 149 196 253 299 351
#
# _framework density 20.143577000000001
#
# number of rings (size 3 to 8) (size 9 to 14) (size 15 to 20)
#    0.000    1.600    4.000    1.800    0.000    2.400 
#    0.000    0.000    0.000    0.000    0.000    2.800 
#    0.000    0.000    0.000    0.000    0.000    0.000 
#
# Total GULP energy -111656.192361 kJ/mol
# GULP energy per Si atom -5582.809618 kJ/mol
# Density = 2.009773 g / cm^3
# Si number density = 20.143577 Si / 1000 Ang^3
#
#
#
# Elastic Constant Matrix: (Units=GPa)
#
#
# Indices 1 2 3 4 5 6 
#
# 1 87.9194 -12.7481 -1.7504 0.0000 0.0000 0.0000
# 2 -12.7481 47.4926 -11.8298 0.0000 0.0000 0.0000
# 3 -1.7504 -11.8298 40.9688 0.0000 0.0000 0.0000
# 4 0.0000 0.0000 0.0000 14.8789 0.0000 0.0000
# 5 0.0000 0.0000 0.0000 0.0000 29.2313 0.0000
# 6 0.0000 0.0000 0.0000 0.0000 0.0000 2.9883
#
#
#
# Elastic Compliance Matrix: (Units=1/GPa)
#
#
# Indices 1 2 3 4 5 6 
#
# 1 0.011925 0.003586 0.001545 0.000000 0.000000 0.000000
# 2 0.003586 0.023766 0.007016 0.000000 0.000000 0.000000
# 3 0.001545 0.007016 0.026501 0.000000 0.000000 0.000000
# 4 0.000000 0.000000 0.000000 0.067209 0.000000 0.000000
# 5 0.000000 0.000000 0.000000 0.000000 0.034210 0.000000
# 6 0.000000 0.000000 0.000000 0.000000 0.000000 0.334635
#
#
# Mechanical properties :
#
#
# Convention : Reuss Voigt Hill
#
# Bulk Modulus (GPa) = 11.56290 13.74714 12.65502
# Shear Modulus (GPa) = 9.94469 22.93364 16.43917
#
# Velocity S-wave (km/s) = 2.22433 3.37784 2.85985
# Velocity P-wave (km/s) = 3.51419 4.69601 4.14741
#
# Compressibility (1/GPa) = 0.08648348
#
# Stress axis : x y z
#
# Youngs Moduli (GPa) = 83.85935 42.07710 37.73499
#
# Poissons Ratio (x) = -0.15087 -0.05829
# Poissons Ratio (y) = -0.30069 -0.26473
# Poissons Ratio (z) = -0.12955 -0.29520
#
# Static dielectric constant tensor:
#      x y z
#    x 1.752740 0.000000 0.000000 
#    y 0.000000 1.658350 0.000000 
#    z 0.000000 0.000000 1.746720 
# 
# From -- ./inp_files/5238.got.cif
#   From: 2010.05.17/outbox.cif.g08.bks.cpg/sg38_3_cif.got.tgz:5238.got - 2010.06.03 18:07:57.
