data_PCOD9359528
_publ_section_title
;
Structure prediction by ZEFSAII (Michael W. Deem and Ramdas Pophale) SiO2 
 PCOD9359528
Probable space group: A M M 2
;
_chemical_formula_sum "Si O2"
_cell_formula_units_Z 64
_cell_length_a 9.873590
_cell_length_b 7.637770
_cell_length_c 42.960596
_cell_angle_alpha 90.000000
_cell_angle_beta 90.000000
_cell_angle_gamma 90.000000
_cell_volume 3239.753466
_symmetry_space_group_name_H-M "A M M 2"
_symmetry_group_IT_number 38
_symmetry_cell_setting 'orthorhombic'
loop_
_space_group_symop_operation_xyz
x,y,z
-x,-y,z
-x,y,z
x,-y,z
x,1/2+y,1/2+z
-x,1/2-y,1/2+z
-x,1/2+y,1/2+z
x,1/2-y,1/2+z
loop_
_atom_site_type_symbol
_atom_site_label
_atom_site_fract_x
_atom_site_fract_y
_atom_site_fract_z
Si Si1 0.659696 0.709789 0.522270
Si Si2 0.152483 0.289942 0.897715
Si Si3 0.843899 0.286408 0.827775
Si Si4 0.153827 0.789369 0.644404
Si Si5 0.653646 0.707545 0.090177
Si Si6 0.345658 0.289989 0.454850
Si Si7 0.656078 0.714611 0.771018
Si Si8 0.845355 0.709996 0.714806
O O1 0.500000 0.757863 0.522158
O O2 0.669251 0.500000 0.522955
O O3 0.714034 0.771154 0.555480
O O4 0.710937 0.772432 0.488502
O O5 0.146200 0.500000 0.895849
O O6 0.191210 0.229016 0.862938
O O7 0.254087 0.248044 0.925307
O O8 0.000000 0.225467 0.904345
O O9 0.842864 0.500000 0.827380
O O10 0.738782 0.228785 0.801629
O O11 0.000000 0.234669 0.821197
O O12 0.252576 0.720772 0.617596
O O13 0.198606 0.749639 0.679579
O O14 0.000000 0.722504 0.640976
O O15 0.148523 0.000000 0.641535
O O16 0.500000 0.780702 0.090619
O O17 0.642319 0.500000 0.095348
O O18 0.500000 0.224485 0.450791
O O19 0.354068 0.500000 0.457365
O O20 0.500000 0.771205 0.770812
O O21 0.655112 0.500000 0.770969
O O22 0.741033 0.773074 0.740841
O O23 0.851880 0.500000 0.717980
O O24 0.000000 0.776793 0.718997
#
# Coordination Sequence:
#
# PCOD9359528 Si02
#       8
#     8   8   8   8   8   8   8   8
#     4   8  15  29  47  66  89 117 149 184 222 266
#     4   9  18  31  47  70  97 123 156 197 236 276
#     4   8  14  26  43  62  88 121 151 181 222 270
#     4   9  18  32  47  63  87 118 147 176 215 262
#     4   9  17  29  46  67  88 112 145 182 219 262
#     4   9  18  32  49  69  94 125 159 193 232 280
#     4   9  16  25  40  65  93 116 142 181 225 264
#     4   9  17  29  45  64  86 114 147 180 215 258
#
# _framework density 19.754591000000001
#
# number of rings (size 3 to 8) (size 9 to 14) (size 15 to 20)
#    0.000    3.250    0.000    1.875    0.000    4.000 
#    0.000    3.125    0.000    3.000    0.000    1.750 
#    0.000    0.000    0.000    0.000    0.000    0.000 
#
# Total GULP energy -178305.260168 kJ/mol
# GULP energy per Si atom -5572.039380 kJ/mol
# Density = 1.970963 g / cm^3
# Si number density = 19.754591 Si / 1000 Ang^3
#
#
#
# Elastic Constant Matrix: (Units=GPa)
#
#
# Indices 1 2 3 4 5 6 
#
# 1 107.2466 5.3826 128.4452 0.0000 0.0000 0.0000
# 2 5.3826 33.1578 5.0337 0.0000 0.0000 0.0000
# 3 128.4452 5.0337 222.8363 0.0000 0.0000 0.0000
# 4 0.0000 0.0000 0.0000 17.1431 0.0000 0.0000
# 5 0.0000 0.0000 0.0000 0.0000 43.1025 0.0000
# 6 0.0000 0.0000 0.0000 0.0000 0.0000 5.1359
#
#
#
# Elastic Compliance Matrix: (Units=1/GPa)
#
#
# Indices 1 2 3 4 5 6 
#
# 1 0.030282 -0.002274 -0.017403 0.000000 0.000000 0.000000
# 2 -0.002274 0.030433 0.000623 0.000000 0.000000 0.000000
# 3 -0.017403 0.000623 0.014505 0.000000 0.000000 0.000000
# 4 0.000000 0.000000 0.000000 0.058332 0.000000 0.000000
# 5 0.000000 0.000000 0.000000 0.000000 0.023201 0.000000
# 6 0.000000 0.000000 0.000000 0.000000 0.000000 0.194707
#
#
# Mechanical properties :
#
#
# Convention : Reuss Voigt Hill
#
# Bulk Modulus (GPa) = 26.94531 71.21817 49.08174
# Shear Modulus (GPa) = 12.43972 28.03493 20.23732
#
# Velocity S-wave (km/s) = 2.51213 3.77126 3.20415
# Velocity P-wave (km/s) = 4.69937 7.42246 6.21196
#
# Compressibility (1/GPa) = 0.03711221
#
# Stress axis : x y z
#
# Youngs Moduli (GPa) = 33.02316 32.85871 68.94170
#
# Poissons Ratio (x) = 0.07471 1.19982
# Poissons Ratio (y) = 0.07509 -0.04296
# Poissons Ratio (z) = 0.57471 -0.02048
#
# Static dielectric constant tensor:
#      x y z
#    x 1.684810 0.000000 0.000000 
#    y 0.000000 1.758450 0.000000 
#    z 0.000000 0.000000 1.704840 
# 
# From -- ./inp_files/24611.got.cif
#   From: 2010.05.17/outbox.cif.g08.bks.cpg/sg38_13_cif.got.tgz:24611.got - 2010.06.03 18:07:57.
