data_PCOD9359649
_publ_section_title
;
Structure prediction by ZEFSAII (Michael W. Deem and Ramdas Pophale) SiO2 
 PCOD9359649
Probable space group: A M M 2
;
_chemical_formula_sum "Si O2"
_cell_formula_units_Z 32
_cell_length_a 9.000000
_cell_length_b 21.000000
_cell_length_c 21.000000
_cell_angle_alpha 90.000000
_cell_angle_beta 90.000000
_cell_angle_gamma 90.000000
_cell_volume 3969.000000
_symmetry_space_group_name_H-M "A M M 2"
_symmetry_group_IT_number 38
_symmetry_cell_setting 'orthorhombic'
loop_
_space_group_symop_operation_xyz
x,y,z
-x,-y,z
-x,y,z
x,-y,z
x,1/2+y,1/2+z
-x,1/2-y,1/2+z
-x,1/2+y,1/2+z
x,1/2-y,1/2+z
loop_
_atom_site_type_symbol
_atom_site_label
_atom_site_fract_x
_atom_site_fract_y
_atom_site_fract_z
Si Si1 0.180393 0.427987 0.063870
Si Si2 0.177027 0.275919 0.294605
Si Si3 0.180671 0.815945 0.065603
Si Si4 0.320383 0.272954 0.431263
Si Si5 0.175151 0.377460 0.785307
Si Si6 0.678416 0.424860 0.655084
Si Si7 0.179707 0.132423 0.428251
Si Si8 0.819557 0.309262 0.151248
O O1 0.231905 0.500000 0.078082
O O2 0.230422 0.372467 0.112719
O O3 0.000000 0.428312 0.067429
O O4 0.215630 0.408919 0.990702
O O5 0.259988 0.294666 0.360749
O O6 0.193026 0.199404 0.285694
O O7 0.226997 0.304792 0.225897
O O8 0.000000 0.288570 0.302797
O O9 0.242869 0.877294 0.104302
O O10 0.219358 0.753563 0.109327
O O11 0.000000 0.818763 0.060884
O O12 0.250604 0.807012 0.994481
O O13 0.500000 0.276638 0.432927
O O14 0.263065 0.199769 0.435150
O O15 0.265128 0.406755 0.726431
O O16 0.214786 0.396668 0.858326
O O17 0.000000 0.391377 0.775355
O O18 0.500000 0.416059 0.651614
O O19 0.710750 0.500000 0.643419
O O20 0.000000 0.144204 0.428182
O O21 0.000000 0.309963 0.152901
#
# Coordination Sequence:
#
# PCOD9359649 Si02
#       8
#     8   8   8   8   8   8   8   8
#     4   9  16  27  48  79 109 136 170 216 264 302
#     4   9  17  32  52  76 103 136 176 219 263 309
#     4  11  20  36  59  79 101 136 180 227 266 309
#     4  11  21  32  50  80 109 136 171 217 271 321
#     4   9  17  30  50  74 100 138 186 223 253 300
#     4  11  24  38  51  74 110 145 175 216 272 329
#     4   9  17  31  50  73 105 144 182 216 253 306
#     4   9  16  29  52  78 103 133 173 220 264 301
#
# _framework density 8.0624839999999995
#
# number of rings (size 3 to 8) (size 9 to 14) (size 15 to 20)
#    0.000    2.250    2.500    2.625    0.000    3.500 
#    0.000    1.250    0.000    1.125    0.000    1.750 
#    0.000    0.000    0.000    0.000    0.000    0.000 
#
# Total GULP energy -178347.846097 kJ/mol
# GULP energy per Si atom -5573.370191 kJ/mol
# Density = 0.804413 g / cm^3
# Si number density = 8.062484 Si / 1000 Ang^3
#
#
#
# Elastic Constant Matrix: (Units=GPa)
#
#
# Indices 1 2 3 4 5 6 
#
# 1 66.9829 32.5779 49.5879 0.0000 0.0000 0.0000
# 2 32.5779 100.9015 70.0103 0.0000 0.0000 0.0000
# 3 49.5879 70.0103 173.6091 0.0000 0.0000 0.0000
# 4 0.0000 0.0000 0.0000 26.7391 0.0000 0.0000
# 5 0.0000 0.0000 0.0000 0.0000 23.4902 0.0000
# 6 0.0000 0.0000 0.0000 0.0000 0.0000 18.9485
#
#
#
# Elastic Compliance Matrix: (Units=1/GPa)
#
#
# Indices 1 2 3 4 5 6 
#
# 1 0.019747 -0.003419 -0.004262 0.000000 0.000000 0.000000
# 2 -0.003419 0.014353 -0.004812 0.000000 0.000000 0.000000
# 3 -0.004262 -0.004812 0.008918 0.000000 0.000000 0.000000
# 4 0.000000 0.000000 0.000000 0.037398 0.000000 0.000000
# 5 0.000000 0.000000 0.000000 0.000000 0.042571 0.000000
# 6 0.000000 0.000000 0.000000 0.000000 0.000000 0.052775
#
#
# Mechanical properties :
#
#
# Convention : Reuss Voigt Hill
#
# Bulk Modulus (GPa) = 55.45190 71.76061 63.60625
# Shear Modulus (GPa) = 24.18306 26.45672 25.31989
#
# Velocity S-wave (km/s) = 3.87683 4.05499 3.96691
# Velocity P-wave (km/s) = 7.38263 8.15618 7.77903
#
# Compressibility (1/GPa) = 0.01803365
#
# Stress axis : x y z
#
# Youngs Moduli (GPa) = 50.64106 69.67227 112.13739
#
# Poissons Ratio (x) = 0.23819 0.47789
# Poissons Ratio (y) = 0.17313 0.53955
# Poissons Ratio (z) = 0.21581 0.33523
#
# Static dielectric constant tensor:
#      x y z
#    x 1.538120 0.000000 0.000000 
#    y 0.000000 1.538700 0.000000 
#    z 0.000000 0.000000 1.556660 
# 
# From -- ./inp_files/20246.got.cif
#   From: 2010.05.17/outbox.ucp.g08.bks.cvg/sg38_11_cif.got.tgz:20246.got - 2010.06.11 10:39:43.
