data_PCOD9359387
_publ_section_title
;
Structure prediction by ZEFSAII (Michael W. Deem and Ramdas Pophale) SiO2 
 PCOD9359387
Probable space group: A M M 2
;
_chemical_formula_sum "Si O2"
_cell_formula_units_Z 64
_cell_length_a 21.454895
_cell_length_b 14.272865
_cell_length_c 9.419413
_cell_angle_alpha 90.000000
_cell_angle_beta 90.000000
_cell_angle_gamma 90.000000
_cell_volume 2884.439211
_symmetry_space_group_name_H-M "A M M 2"
_symmetry_group_IT_number 38
_symmetry_cell_setting 'orthorhombic'
loop_
_space_group_symop_operation_xyz
x,y,z
-x,-y,z
-x,y,z
x,-y,z
x,1/2+y,1/2+z
-x,1/2-y,1/2+z
-x,1/2+y,1/2+z
x,1/2-y,1/2+z
loop_
_atom_site_type_symbol
_atom_site_label
_atom_site_fract_x
_atom_site_fract_y
_atom_site_fract_z
Si Si1 0.574287 0.885896 0.944350
Si Si2 0.791760 0.140142 0.887821
Si Si3 0.729148 0.602315 0.670871
Si Si4 0.710877 0.100067 0.609550
Si Si5 0.626344 0.754352 0.192771
Si Si6 0.932659 0.161896 0.542868
Si Si7 0.929842 0.857904 0.879309
Si Si8 0.812761 0.138992 0.391955
O O1 0.500000 0.888985 0.926257
O O2 0.599658 0.813434 0.819366
O O3 0.594129 0.000000 0.943462
O O4 0.588523 0.829128 0.093413
O O5 0.759143 0.120957 0.737721
O O6 0.861384 0.097928 0.906007
O O7 0.804979 0.249978 0.903399
O O8 0.740032 0.113658 0.003789
O O9 0.703506 0.500000 0.700240
O O10 0.685324 0.681423 0.736623
O O11 0.799277 0.612207 0.731353
O O12 0.658787 0.177791 0.591985
O O13 0.755134 0.096963 0.475392
O O14 0.680816 0.000000 0.637053
O O15 0.924550 0.167377 0.711768
O O16 0.932827 0.265761 0.476948
O O17 0.876510 0.110854 0.464660
O O18 0.000000 0.118594 0.514292
O O19 0.000000 0.900638 0.895139
#
# Coordination Sequence:
#
# PCOD9359387 Si02
#       8
#     8   8   8   8   8   8   8   8
#     4  11  26  49  79 113 148 189 237 285 337 400
#     4  11  20  38  59  87 125 168 216 280 350 407
#     4  12  25  40  63  94 132 175 219 272 336 407
#     4  12  23  38  63  94 128 171 220 271 332 400
#     4  12  23  46  72 106 145 188 230 282 339 406
#     4   9  18  31  52  81 111 155 214 271 335 411
#     4   9  18  31  53  82 113 156 216 276 339 417
#     4  11  20  37  56  86 124 163 209 273 338 406
#
# _framework density 22.188020999999999
#
# number of rings (size 3 to 8) (size 9 to 14) (size 15 to 20)
#    0.000    1.125    3.750    3.375    5.250    0.000 
#    0.000    1.875    0.000    9.000    0.000    0.000 
#    0.000    0.000    0.000    0.000    0.000    0.000 
#
# Total GULP energy -178243.352721 kJ/mol
# GULP energy per Si atom -5570.104773 kJ/mol
# Density = 2.213752 g / cm^3
# Si number density = 22.188021 Si / 1000 Ang^3
#
#
#
# Elastic Constant Matrix: (Units=GPa)
#
#
# Indices 1 2 3 4 5 6 
#
# 1 92.8999 43.3113 29.8755 0.0000 0.0000 0.0000
# 2 43.3113 176.3387 27.5143 0.0000 0.0000 0.0000
# 3 29.8755 27.5143 84.5284 0.0000 0.0000 0.0000
# 4 0.0000 0.0000 0.0000 -149.5196 0.0000 0.0000
# 5 0.0000 0.0000 0.0000 0.0000 39.1106 0.0000
# 6 0.0000 0.0000 0.0000 0.0000 0.0000 -69.2244
#
#
#
# Elastic Compliance Matrix: (Units=1/GPa)
#
#
# Indices 1 2 3 4 5 6 
#
# 1 0.013227 -0.002654 -0.003811 0.000000 0.000000 0.000000
# 2 -0.002654 0.006507 -0.001180 0.000000 0.000000 0.000000
# 3 -0.003811 -0.001180 0.013561 0.000000 0.000000 0.000000
# 4 0.000000 0.000000 0.000000 -0.006688 0.000000 0.000000
# 5 0.000000 0.000000 0.000000 0.000000 0.025569 0.000000
# 6 0.000000 0.000000 0.000000 0.000000 0.000000 -0.014446
#
#
# Mechanical properties :
#
#
# Convention : Reuss Voigt Hill
#
# Bulk Modulus (GPa) = 55.53945 61.68547 58.61246
# Shear Modulus (GPa) = 84.71370 -19.05562 32.82904
#
# Velocity S-wave (km/s) = 6.18569 -2.93375 3.85071
# Velocity P-wave (km/s) = 8.72369 4.04793 6.80031
#
# Compressibility (1/GPa) = 0.01800522
#
# Stress axis : x y z
#
# Youngs Moduli (GPa) = 75.60136 153.68278 73.73874
#
# Poissons Ratio (x) = 0.40790 0.28102
# Poissons Ratio (y) = 0.20066 0.08701
# Poissons Ratio (z) = 0.28812 0.18134
#
# Static dielectric constant tensor:
#      x y z
#    x 1.859120 0.000000 0.000000 
#    y 0.000000 1.873470 0.000000 
#    z 0.000000 0.000000 1.805360 
# 
# From -- ./inp_files/6975.got.cif
#   From: 2010.05.17/outbox.cif.g08.bks.cpg/sg38_4_cif.got.tgz:6975.got - 2010.06.03 18:07:57.
