data_PCOD9359203
_publ_section_title
;
Structure prediction by ZEFSAII (Michael W. Deem and Ramdas Pophale) SiO2 
 PCOD9359203
Probable space group: A M M 2
;
_chemical_formula_sum "Si O2"
_cell_formula_units_Z 16
_cell_length_a 5.712491
_cell_length_b 23.331079
_cell_length_c 4.456124
_cell_angle_alpha 90.000000
_cell_angle_beta 90.000000
_cell_angle_gamma 90.000000
_cell_volume 593.905874
_symmetry_space_group_name_H-M "A M M 2"
_symmetry_group_IT_number 38
_symmetry_cell_setting 'orthorhombic'
loop_
_space_group_symop_operation_xyz
x,y,z
-x,-y,z
-x,y,z
x,-y,z
x,1/2+y,1/2+z
-x,1/2-y,1/2+z
-x,1/2+y,1/2+z
x,1/2-y,1/2+z
loop_
_atom_site_type_symbol
_atom_site_label
_atom_site_fract_x
_atom_site_fract_y
_atom_site_fract_z
Si Si1 0.249541 0.385006 0.558640
Si Si2 0.000000 0.791860 0.392015
Si Si3 0.748895 0.000000 0.457461
O O1 0.500000 0.379799 0.400503
O O2 0.253243 0.443335 0.751813
O O3 0.000000 0.386390 0.384468
O O4 0.214895 0.331217 0.783367
O O5 0.000000 0.769641 0.727061
O O6 0.500000 0.000000 0.630250
O O7 0.000000 0.000000 0.621473
#
# Coordination Sequence:
#
# PCOD9359203 Si02
#       3
#     8   4   4
#     4   8  16  30  52  78 107 140 180 226 274 324
#     4  10  22  37  56  81 112 150 188 226 272 328
#     4   8  12  24  48  76 102 134 174 222 274 322
#
# _framework density 26.940297999999999
#
# number of rings (size 3 to 8) (size 9 to 14) (size 15 to 20)
#    1.500    2.000    0.000    0.000    0.000    2.000 
#    0.000    0.000    0.000    6.000    0.000   10.500 
#    0.000    0.000    0.000    0.000    0.000    0.000 
#
# Total GULP energy -44633.812376 kJ/mol
# GULP energy per Si atom -5579.226547 kJ/mol
# Density = 2.687898 g / cm^3
# Si number density = 26.940298 Si / 1000 Ang^3
#
#
#
# Elastic Constant Matrix: (Units=GPa)
#
#
# Indices 1 2 3 4 5 6 
#
# 1 330.4798 2.7189 22.3784 0.0000 0.0000 0.0000
# 2 2.7189 219.0617 39.9622 0.0000 0.0000 0.0000
# 3 22.3784 39.9622 59.1291 0.0000 0.0000 0.0000
# 4 0.0000 0.0000 0.0000 59.6697 0.0000 0.0000
# 5 0.0000 0.0000 0.0000 0.0000 -6.2045 0.0000
# 6 0.0000 0.0000 0.0000 0.0000 0.0000 -159.8212
#
#
#
# Elastic Compliance Matrix: (Units=1/GPa)
#
#
# Indices 1 2 3 4 5 6 
#
# 1 0.003113 0.000201 -0.001314 0.000000 0.000000 0.000000
# 2 0.000201 0.005220 -0.003604 0.000000 0.000000 0.000000
# 3 -0.001314 -0.003604 0.019845 0.000000 0.000000 0.000000
# 4 0.000000 0.000000 0.000000 0.016759 0.000000 0.000000
# 5 0.000000 0.000000 0.000000 0.000000 -0.161173 0.000000
# 6 0.000000 0.000000 0.000000 0.000000 0.000000 -0.006257
#
#
# Mechanical properties :
#
#
# Convention : Reuss Voigt Hill
#
# Bulk Modulus (GPa) = 53.34950 82.08774 67.71862
# Shear Modulus (GPa) = -46.81194 14.96954 -15.92120
#
# Velocity S-wave (km/s) = -4.17300 2.35979 -2.43365
# Velocity P-wave (km/s) = 1.83649 6.16127 4.15864
#
# Compressibility (1/GPa) = 0.01874432
#
# Stress axis : x y z
#
# Youngs Moduli (GPa) = 321.20906 191.57550 50.38994
#
# Poissons Ratio (x) = -0.03852 0.06622
# Poissons Ratio (y) = -0.06459 0.18160
# Poissons Ratio (z) = 0.42212 0.69043
#
# Static dielectric constant tensor:
#      x y z
#    x 2.160780 0.000000 0.000000 
#    y 0.000000 2.024360 0.000000 
#    z 0.000000 0.000000 1.986380 
# 
# From -- ./inp_files/55.got.cif
#   From: 2010.05.17/outbox.cif.g08.bks.cpg/sg38_1_cif.got.tgz:55.got - 2010.06.03 18:07:57.
