data_PCOD9359049
_publ_section_title
;
Structure prediction by ZEFSAII (Michael W. Deem and Ramdas Pophale) SiO2 
 PCOD9359049
Probable space group: A M M 2
;
_chemical_formula_sum "Si O2"
_cell_formula_units_Z 64
_cell_length_a 24.541864
_cell_length_b 8.217556
_cell_length_c 15.884740
_cell_angle_alpha 90.000000
_cell_angle_beta 90.000000
_cell_angle_gamma 90.000000
_cell_volume 3203.541307
_symmetry_space_group_name_H-M "A M M 2"
_symmetry_group_IT_number 38
_symmetry_cell_setting 'orthorhombic'
loop_
_space_group_symop_operation_xyz
x,y,z
-x,-y,z
-x,y,z
x,-y,z
x,1/2+y,1/2+z
-x,1/2-y,1/2+z
-x,1/2+y,1/2+z
x,1/2-y,1/2+z
loop_
_atom_site_type_symbol
_atom_site_label
_atom_site_fract_x
_atom_site_fract_y
_atom_site_fract_z
Si Si1 0.864506 0.194391 0.351450
Si Si2 0.249469 0.190528 0.919551
Si Si3 0.438387 0.805366 0.500898
Si Si4 0.371301 0.691166 0.660082
Si Si5 0.363051 0.302253 0.847516
Si Si6 0.937571 0.801307 0.508976
Si Si7 0.135120 0.803026 0.667349
Si Si8 0.746139 0.308780 0.108291
O O1 0.805807 0.272490 0.369917
O O2 0.906076 0.248589 0.424355
O O3 0.882951 0.240946 0.258104
O O4 0.858639 0.000000 0.357653
O O5 0.302337 0.242004 0.867132
O O6 0.252771 0.000000 0.939122
O O7 0.249089 0.286156 0.007832
O O8 0.500000 0.740499 0.501735
O O9 0.406940 0.771421 0.587332
O O10 0.402549 0.744404 0.422284
O O11 0.441381 0.000000 0.491033
O O12 0.382988 0.500000 0.657569
O O13 0.381577 0.751494 0.754876
O O14 0.307640 0.719314 0.640004
O O15 0.361891 0.500000 0.847954
O O16 0.903409 0.749060 0.590785
O O17 0.000000 0.746259 0.510954
O O18 0.937950 0.000000 0.509579
O O19 0.197320 0.750058 0.648888
O O20 0.135240 0.000000 0.667771
O O21 0.739639 0.500000 0.127239
#
# Coordination Sequence:
#
# PCOD9359049 Si02
#       8
#     8   8   8   8   8   8   8   8
#     4  11  22  38  60  88 120 157 196 239 295 354
#     4  12  23  36  60  91 121 153 194 242 294 352
#     4  10  22  41  63  85 115 161 206 244 292 348
#     4  11  23  38  60  92 121 153 196 244 294 347
#     4  10  22  40  62  88 122 158 194 238 294 355
#     4   9  19  38  61  83 114 158 202 243 293 351
#     4  10  21  38  60  88 118 154 196 241 294 350
#     4  11  21  37  60  86 120 158 193 236 297 361
#
# _framework density 19.977891
#
# number of rings (size 3 to 8) (size 9 to 14) (size 15 to 20)
#    0.000    1.500    2.500    3.000    0.000    5.250 
#    0.000    1.250    0.000    2.625    0.000    0.000 
#    0.000    0.000    0.000    0.000    0.000    0.000 
#
# Total GULP energy -178877.936054 kJ/mol
# GULP energy per Si atom -5589.935502 kJ/mol
# Density = 1.993242 g / cm^3
# Si number density = 19.977891 Si / 1000 Ang^3
#
#
#
# Elastic Constant Matrix: (Units=GPa)
#
#
# Indices 1 2 3 4 5 6 
#
# 1 144.8674 5.9849 67.4166 0.0000 0.0000 0.0000
# 2 5.9849 13.0252 -3.9863 0.0000 0.0000 0.0000
# 3 67.4166 -3.9863 154.5150 0.0000 0.0000 0.0000
# 4 0.0000 0.0000 0.0000 25.3192 0.0000 0.0000
# 5 0.0000 0.0000 0.0000 0.0000 -1.2467 0.0000
# 6 0.0000 0.0000 0.0000 0.0000 0.0000 -4.4111
#
#
#
# Elastic Compliance Matrix: (Units=1/GPa)
#
#
# Indices 1 2 3 4 5 6 
#
# 1 0.009022 -0.005393 -0.004076 0.000000 0.000000 0.000000
# 2 -0.005393 0.080609 0.004433 0.000000 0.000000 0.000000
# 3 -0.004076 0.004433 0.008364 0.000000 0.000000 0.000000
# 4 0.000000 0.000000 0.000000 0.039496 0.000000 0.000000
# 5 0.000000 0.000000 0.000000 0.000000 -0.802135 0.000000
# 6 0.000000 0.000000 0.000000 0.000000 0.000000 -0.226699
#
#
# Mechanical properties :
#
#
# Convention : Reuss Voigt Hill
#
# Bulk Modulus (GPa) = 11.37347 50.13754 30.75551
# Shear Modulus (GPa) = -5.86881 20.13177 7.13148
#
# Velocity S-wave (km/s) = -1.71582 3.17788 1.89141
# Velocity P-wave (km/s) = 1.33417 6.21419 4.49423
#
# Compressibility (1/GPa) = 0.08792393
#
# Stress axis : x y z
#
# Youngs Moduli (GPa) = 110.83581 12.40554 119.55308
#
# Poissons Ratio (x) = 0.06690 0.48726
# Poissons Ratio (y) = 0.59774 -0.52994
# Poissons Ratio (z) = 0.45173 -0.05499
#
# Static dielectric constant tensor:
#      x y z
#    x 1.679210 0.000000 0.000000 
#    y 0.000000 1.694400 0.000000 
#    z 0.000000 0.000000 1.694840 
# 
# From -- ./inp_files/15832.got.cif
#   From: 2010.05.17/outbox.cif.g08.bks.cpg/sg38_8_cif.got.tgz:15832.got - 2010.06.03 18:07:57.
