data_PCOD9359468
_publ_section_title
;
Structure prediction by ZEFSAII (Michael W. Deem and Ramdas Pophale) SiO2 
 PCOD9359468
Probable space group: A M M 2
;
_chemical_formula_sum "Si O2"
_cell_formula_units_Z 48
_cell_length_a 7.771259
_cell_length_b 17.144465
_cell_length_c 17.688740
_cell_angle_alpha 90.000000
_cell_angle_beta 90.000000
_cell_angle_gamma 90.000000
_cell_volume 2356.742964
_symmetry_space_group_name_H-M "A M M 2"
_symmetry_group_IT_number 38
_symmetry_cell_setting 'orthorhombic'
loop_
_space_group_symop_operation_xyz
x,y,z
-x,-y,z
-x,y,z
x,-y,z
x,1/2+y,1/2+z
-x,1/2-y,1/2+z
-x,1/2+y,1/2+z
x,1/2-y,1/2+z
loop_
_atom_site_type_symbol
_atom_site_label
_atom_site_fract_x
_atom_site_fract_y
_atom_site_fract_z
Si Si1 0.705647 0.500000 0.270061
Si Si2 0.300179 0.673692 0.706883
Si Si3 0.199438 0.653817 0.177573
Si Si4 0.710819 0.500000 0.443032
Si Si5 0.707695 0.176026 0.508135
Si Si6 0.711012 0.409743 0.857092
Si Si7 0.710877 0.351002 0.539464
O O1 0.500000 0.500000 0.272730
O O2 0.760141 0.422442 0.225776
O O3 0.769707 0.500000 0.356389
O O4 0.500000 0.649878 0.705963
O O5 0.293766 0.767662 0.704877
O O6 0.227192 0.637271 0.783343
O O7 0.227621 0.644908 0.626428
O O8 0.240757 0.641160 0.089155
O O9 0.000000 0.672300 0.184466
O O10 0.500000 0.500000 0.442512
O O11 0.765777 0.422880 0.488136
O O12 0.500000 0.175920 0.506507
O O13 0.769993 0.129496 0.435174
O O14 0.763844 0.266480 0.508041
O O15 0.500000 0.406757 0.858370
O O16 0.760424 0.500000 0.852695
O O17 0.500000 0.351132 0.540784
#
# Coordination Sequence:
#
# PCOD9359468 Si02
#       7
#     4   8   8   4   8   8   8
#     4  11  23  37  59  84 109 142 188 235 281 325
#     4   9  18  34  58  84 113 145 184 227 277 332
#     4  11  23  39  57  79 112 148 188 228 280 339
#     4   9  18  29  51  84 113 138 174 225 279 327
#     4   9  18  34  56  81 111 145 186 231 280 329
#     4   9  18  30  53  89 117 141 182 236 280 323
#     4   8  15  28  48  78 110 141 175 222 275 326
#
# _framework density 20.367092
#
# number of rings (size 3 to 8) (size 9 to 14) (size 15 to 20)
#    0.000    2.667    0.000    2.750    4.667    0.000 
#    0.000    0.833    0.000    2.500    0.000    0.000 
#    0.000    0.000    0.000    0.000    0.000    0.000 
#
# Total GULP energy -133951.137415 kJ/mol
# GULP energy per Si atom -5581.297392 kJ/mol
# Density = 2.032074 g / cm^3
# Si number density = 20.367092 Si / 1000 Ang^3
#
#
#
# Elastic Constant Matrix: (Units=GPa)
#
#
# Indices 1 2 3 4 5 6 
#
# 1 30.1952 -8.4058 -0.3621 0.0000 0.0000 0.0000
# 2 -8.4058 127.0245 133.7746 0.0000 0.0000 0.0000
# 3 -0.3621 133.7746 207.6379 0.0000 0.0000 0.0000
# 4 0.0000 0.0000 0.0000 32.7730 0.0000 0.0000
# 5 0.0000 0.0000 0.0000 0.0000 -16.1393 0.0000
# 6 0.0000 0.0000 0.0000 0.0000 0.0000 -10.2810
#
#
#
# Elastic Compliance Matrix: (Units=1/GPa)
#
#
# Indices 1 2 3 4 5 6 
#
# 1 0.035015 0.007007 -0.004454 0.000000 0.000000 0.000000
# 2 0.007007 0.025889 -0.016668 0.000000 0.000000 0.000000
# 3 -0.004454 -0.016668 0.015547 0.000000 0.000000 0.000000
# 4 0.000000 0.000000 0.000000 0.030513 0.000000 0.000000
# 5 0.000000 0.000000 0.000000 0.000000 -0.061960 0.000000
# 6 0.000000 0.000000 0.000000 0.000000 0.000000 -0.097267
#
#
# Mechanical properties :
#
#
# Convention : Reuss Voigt Hill
#
# Bulk Modulus (GPa) = 20.73663 68.31898 44.52781
# Shear Modulus (GPa) = -628.07406 17.26061 -305.40673
#
# Velocity S-wave (km/s) = -17.57971 2.91430 -12.25874
# Velocity P-wave (km/s) = 20.04640 6.70379 13.35884
#
# Compressibility (1/GPa) = 0.04822384
#
# Stress axis : x y z
#
# Youngs Moduli (GPa) = 28.55903 38.62572 64.32236
#
# Poissons Ratio (x) = -0.27066 0.28646
# Poissons Ratio (y) = -0.20012 1.07210
# Poissons Ratio (z) = 0.12719 0.64380
#
# Static dielectric constant tensor:
#      x y z
#    x 1.735710 0.000000 0.000000 
#    y 0.000000 1.658450 0.000000 
#    z 0.000000 0.000000 1.712110 
# 
# From -- ./inp_files/16682.got.cif
#   From: 2010.05.17/outbox.cif.g08.bks.cpg/sg38_9_cif.got.tgz:16682.got - 2010.06.03 18:07:57.
