data_PCOD9359938
_publ_section_title
;
Structure prediction by ZEFSAII (Michael W. Deem and Ramdas Pophale) SiO2 
 PCOD9359938
Probable space group: A B M 2
;
_chemical_formula_sum "Si O2"
_cell_formula_units_Z 64
_cell_length_a 9.737169
_cell_length_b 13.790872
_cell_length_c 22.225426
_cell_angle_alpha 90.000000
_cell_angle_beta 90.000000
_cell_angle_gamma 90.000000
_cell_volume 2984.520246
_symmetry_space_group_name_H-M "A B M 2"
_symmetry_group_IT_number 39
_symmetry_cell_setting 'orthorhombic'
loop_
_space_group_symop_operation_xyz
x,y,z
-x,-y,z
-x,1/2+y,z
x,1/2-y,z
x,1/2+y,1/2+z
-x,1/2-y,1/2+z
-x,y,1/2+z
x,-y,1/2+z
loop_
_atom_site_type_symbol
_atom_site_label
_atom_site_fract_x
_atom_site_fract_y
_atom_site_fract_z
Si Si1 0.682425 0.027771 0.451650
Si Si2 0.110185 0.913522 0.878706
Si Si3 0.050518 0.145182 0.988671
Si Si4 0.653037 0.500325 0.087665
Si Si5 0.190797 0.635665 0.661428
Si Si6 0.899820 0.865463 0.607858
Si Si7 0.298527 0.559449 0.782976
Si Si8 0.414635 0.133214 0.836760
O O1 0.816270 0.088493 0.469837
O O2 0.637250 0.986457 0.515754
O O3 0.590587 0.094141 0.406605
O O4 0.747383 0.944980 0.410333
O O5 0.167550 0.887556 0.814038
O O6 0.037290 0.848689 0.927788
O O7 0.000000 0.000000 0.870494
O O8 0.092396 0.250000 0.011174
O O9 0.955730 0.104410 0.041575
O O10 0.500000 0.500000 0.113646
O O11 0.729583 0.601425 0.101455
O O12 0.757552 0.421464 0.115027
O O13 0.204867 0.750000 0.671438
O O14 0.267222 0.575826 0.713395
O O15 0.028717 0.613664 0.651739
O O16 0.876183 0.750000 0.608776
O O17 0.438945 0.610366 0.805595
O O18 0.312806 0.444880 0.802666
O O19 0.384511 0.250000 0.834311
#
# Coordination Sequence:
#
# PCOD9359938 Si02
#       8
#     8   8   8   8   8   8   8   8
#     4  10  20  36  60  95 135 174 227 276 344 422
#     4   9  19  34  58  88 122 166 207 277 336 404
#     4  10  18  32  59  92 128 168 220 281 344 403
#     4  12  26  40  69 101 143 184 227 292 359 430
#     4  11  25  45  71  98 133 187 243 298 356 420
#     4  10  22  43  68  99 138 186 238 294 351 416
#     4  10  23  42  66  94 136 181 238 290 352 417
#     4  10  22  40  68  97 137 186 230 286 359 429
#
# _framework density 21.443984
#
# number of rings (size 3 to 8) (size 9 to 14) (size 15 to 20)
#    0.000    1.750    2.500    1.125    5.250    3.000 
#    0.000    1.875    0.000    8.250    0.000    0.000 
#    0.000    0.000    0.000    0.000    0.000    0.000 
#
# Total GULP energy -178249.621180 kJ/mol
# GULP energy per Si atom -5570.300662 kJ/mol
# Density = 2.139518 g / cm^3
# Si number density = 21.443984 Si / 1000 Ang^3
#
#
#
# Elastic Constant Matrix: (Units=GPa)
#
#
# Indices 1 2 3 4 5 6 
#
# 1 134.4210 28.6030 20.0276 0.0000 0.0000 0.0000
# 2 28.6030 102.5359 7.0825 0.0000 0.0000 0.0000
# 3 20.0276 7.0825 83.4093 0.0000 0.0000 0.0000
# 4 0.0000 0.0000 0.0000 20.6273 0.0000 0.0000
# 5 0.0000 0.0000 0.0000 0.0000 29.6072 0.0000
# 6 0.0000 0.0000 0.0000 0.0000 0.0000 14.6408
#
#
#
# Elastic Compliance Matrix: (Units=1/GPa)
#
#
# Indices 1 2 3 4 5 6 
#
# 1 0.008162 -0.002154 -0.001777 0.000000 0.000000 0.000000
# 2 -0.002154 0.010379 -0.000364 0.000000 0.000000 0.000000
# 3 -0.001777 -0.000364 0.012447 0.000000 0.000000 0.000000
# 4 0.000000 0.000000 0.000000 0.048480 0.000000 0.000000
# 5 0.000000 0.000000 0.000000 0.000000 0.033776 0.000000
# 6 0.000000 0.000000 0.000000 0.000000 0.000000 0.068302
#
#
# Mechanical properties :
#
#
# Convention : Reuss Voigt Hill
#
# Bulk Modulus (GPa) = 44.64805 47.97693 46.31249
# Shear Modulus (GPa) = 25.30346 30.61860 27.96103
#
# Velocity S-wave (km/s) = 3.43881 3.78278 3.61489
# Velocity P-wave (km/s) = 6.05254 6.44212 6.25036
#
# Compressibility (1/GPa) = 0.02239740
#
# Stress axis : x y z
#
# Youngs Moduli (GPa) = 122.51207 96.35065 80.34287
#
# Poissons Ratio (x) = 0.20756 0.14277
# Poissons Ratio (y) = 0.26392 0.02925
# Poissons Ratio (z) = 0.21770 0.03507
#
# Static dielectric constant tensor:
#      x y z
#    x 1.791580 0.000000 0.000000 
#    y 0.000000 1.840620 0.000000 
#    z 0.000000 0.000000 1.849180 
# 
# From -- ./inp_files/15675.got.cif
#   From: 2010.05.17/outbox.cif.g08.bks.cpg/sg39_8_cif.got.tgz:15675.got - 2010.06.03 18:22:40.
