data_PCOD9359296
_publ_section_title
;
Structure prediction by ZEFSAII (Michael W. Deem and Ramdas Pophale) SiO2 
 PCOD9359296
Probable space group: A M M 2
;
_chemical_formula_sum "Si O2"
_cell_formula_units_Z 34
_cell_length_a 7.454975
_cell_length_b 14.214337
_cell_length_c 12.389127
_cell_angle_alpha 90.000000
_cell_angle_beta 90.000000
_cell_angle_gamma 90.000000
_cell_volume 1312.845150
_symmetry_space_group_name_H-M "A M M 2"
_symmetry_group_IT_number 38
_symmetry_cell_setting 'orthorhombic'
loop_
_space_group_symop_operation_xyz
x,y,z
-x,-y,z
-x,y,z
x,-y,z
x,1/2+y,1/2+z
-x,1/2-y,1/2+z
-x,1/2+y,1/2+z
x,1/2-y,1/2+z
loop_
_atom_site_type_symbol
_atom_site_label
_atom_site_fract_x
_atom_site_fract_y
_atom_site_fract_z
Si Si1 0.707509 0.601832 0.927780
Si Si2 0.284627 0.816486 0.961569
Si Si3 0.000000 0.000000 0.630708
Si Si4 0.294809 0.132208 0.728785
Si Si5 0.789216 0.844809 0.194874
O O1 0.500000 0.599403 0.965042
O O2 0.797604 0.500000 0.956363
O O3 0.708217 0.602445 0.796950
O O4 0.780553 0.706445 0.957678
O O5 0.500000 0.809678 0.954677
O O6 0.236759 0.871332 0.070374
O O7 0.227946 0.869707 0.852853
O O8 0.157548 0.080694 0.652364
O O9 0.500000 0.099529 0.723020
O O10 0.294468 0.241546 0.699827
O O11 0.000000 0.840606 0.216307
#
# Coordination Sequence:
#
# PCOD9359296 Si02
#       5
#     8   8   2   8   8
#     4   9  19  38  61  86 116 152 199 252 301 359
#     4   9  19  37  61  85 115 160 199 238 305 364
#     4  12  22  40  60  90 118 154 206 252 288 358
#     4  10  22  41  62  85 121 161 196 247 303 357
#     4  11  21  36  60  87 119 158 200 246 300 361
#
# _framework density 25.897953000000001
#
# number of rings (size 3 to 8) (size 9 to 14) (size 15 to 20)
#    0.000    2.118    1.176    3.882    1.647    1.412 
#    4.235    0.000    0.000    0.000    0.000    0.000 
#    0.000    0.000    0.000    0.000    0.000    0.000 
#
# Total GULP energy -94817.335325 kJ/mol
# GULP energy per Si atom -5577.490313 kJ/mol
# Density = 2.583901 g / cm^3
# Si number density = 25.897953 Si / 1000 Ang^3
#
#
#
# Elastic Constant Matrix: (Units=GPa)
#
#
# Indices 1 2 3 4 5 6 
#
# 1 108.9597 -3.9368 -38.4153 0.0000 0.0000 0.0000
# 2 -3.9368 102.3342 3.9094 0.0000 0.0000 0.0000
# 3 -38.4153 3.9094 169.6717 0.0000 0.0000 0.0000
# 4 0.0000 0.0000 0.0000 33.4319 0.0000 0.0000
# 5 0.0000 0.0000 0.0000 0.0000 -87.0924 0.0000
# 6 0.0000 0.0000 0.0000 0.0000 0.0000 -7.3706
#
#
#
# Elastic Compliance Matrix: (Units=1/GPa)
#
#
# Indices 1 2 3 4 5 6 
#
# 1 0.009983 0.000298 0.002253 0.000000 0.000000 0.000000
# 2 0.000298 0.009789 -0.000158 0.000000 0.000000 0.000000
# 3 0.002253 -0.000158 0.006408 0.000000 0.000000 0.000000
# 4 0.000000 0.000000 0.000000 0.029912 0.000000 0.000000
# 5 0.000000 0.000000 0.000000 0.000000 -0.011482 0.000000
# 6 0.000000 0.000000 0.000000 0.000000 0.000000 -0.135674
#
#
# Mechanical properties :
#
#
# Convention : Reuss Voigt Hill
#
# Bulk Modulus (GPa) = 32.29310 33.78667 33.03989
# Shear Modulus (GPa) = -58.45959 15.75434 -21.35263
#
# Velocity S-wave (km/s) = -4.75627 2.46910 -2.87451
# Velocity P-wave (km/s) = 4.20313 4.60467 1.32979
#
# Compressibility (1/GPa) = 0.03096637
#
# Stress axis : x y z
#
# Youngs Moduli (GPa) = 100.17105 102.15122 156.06561
#
# Poissons Ratio (x) = -0.03044 -0.35167
# Poissons Ratio (y) = -0.02985 0.02467
# Poissons Ratio (z) = -0.22572 0.01615
#
# Static dielectric constant tensor:
#      x y z
#    x 1.977700 0.000000 0.000000 
#    y 0.000000 2.051720 0.000000 
#    z 0.000000 0.000000 2.166410 
# 
# From -- ./inp_files/7609.got.cif
#   From: 2010.05.17/outbox.cif.g08.bks.cpg/sg38_4_cif.got.tgz:7609.got - 2010.06.03 18:07:57.
