data_PCOD9359243
_publ_section_title
;
Structure prediction by ZEFSAII (Michael W. Deem and Ramdas Pophale) SiO2 
 PCOD9359243
Probable space group: A M M 2
;
_chemical_formula_sum "Si O2"
_cell_formula_units_Z 64
_cell_length_a 18.595782
_cell_length_b 17.568158
_cell_length_c 9.739798
_cell_angle_alpha 90.000000
_cell_angle_beta 90.000000
_cell_angle_gamma 90.000000
_cell_volume 3181.930026
_symmetry_space_group_name_H-M "A M M 2"
_symmetry_group_IT_number 38
_symmetry_cell_setting 'orthorhombic'
loop_
_space_group_symop_operation_xyz
x,y,z
-x,-y,z
-x,y,z
x,-y,z
x,1/2+y,1/2+z
-x,1/2-y,1/2+z
-x,1/2+y,1/2+z
x,1/2-y,1/2+z
loop_
_atom_site_type_symbol
_atom_site_label
_atom_site_fract_x
_atom_site_fract_y
_atom_site_fract_z
Si Si1 0.299974 0.175436 0.150220
Si Si2 0.703072 0.828551 0.824372
Si Si3 0.084378 0.294855 0.123455
Si Si4 0.855102 0.373100 0.638964
Si Si5 0.416177 0.091576 0.645499
Si Si6 0.855078 0.912605 0.830026
Si Si7 0.414881 0.090896 0.330393
Si Si8 0.914533 0.918561 0.419413
O O1 0.286019 0.252415 0.235419
O O2 0.229928 0.121975 0.166512
O O3 0.368180 0.135478 0.219812
O O4 0.307796 0.188377 0.986448
O O5 0.635087 0.870273 0.756424
O O6 0.773574 0.881884 0.811603
O O7 0.125448 0.216266 0.137726
O O8 0.095559 0.352830 0.249000
O O9 0.000000 0.277385 0.106315
O O10 0.114015 0.344026 0.995593
O O11 0.871774 0.406550 0.490893
O O12 0.898947 0.411031 0.760019
O O13 0.500000 0.112494 0.664931
O O14 0.395509 0.112330 0.488134
O O15 0.411389 0.000000 0.655082
O O16 0.863043 0.000000 0.785774
O O17 0.500000 0.105375 0.313975
O O18 0.403879 0.000000 0.316812
O O19 0.000000 0.918220 0.444599
O O20 0.885475 0.000000 0.468658
#
# Coordination Sequence:
#
# PCOD9359243 Si02
#       8
#     8   8   8   8   8   8   8   8
#     4  11  24  38  62  87 123 162 208 256 311 373
#     4  11  23  40  59  89 124 161 207 261 312 377
#     4  11  23  41  64  89 120 163 207 252 310 378
#     4  11  23  40  62  88 123 162 206 254 310 375
#     4   9  19  38  64  90 120 160 203 248 304 371
#     4  11  24  41  63  91 125 163 206 262 319 372
#     4   9  20  40  64  92 126 164 208 256 311 374
#     4  10  22  39  60  88 120 155 202 255 305 365
#
# _framework density 20.113579000000001
#
# number of rings (size 3 to 8) (size 9 to 14) (size 15 to 20)
#    0.000    1.625    1.250    3.750    1.750    7.750 
#    0.000    2.500    0.000    0.000    0.000    0.000 
#    0.000    0.000    0.000    0.000    0.000    0.000 
#
# Total GULP energy -178781.634422 kJ/mol
# GULP energy per Si atom -5586.926076 kJ/mol
# Density = 2.006780 g / cm^3
# Si number density = 20.113579 Si / 1000 Ang^3
#
#
#
# Elastic Constant Matrix: (Units=GPa)
#
#
# Indices 1 2 3 4 5 6 
#
# 1 29.8942 6.3312 10.0572 0.0000 0.0000 0.0000
# 2 6.3312 79.4072 17.8769 0.0000 0.0000 0.0000
# 3 10.0572 17.8769 80.0404 0.0000 0.0000 0.0000
# 4 0.0000 0.0000 0.0000 92.1214 0.0000 0.0000
# 5 0.0000 0.0000 0.0000 0.0000 33.1624 0.0000
# 6 0.0000 0.0000 0.0000 0.0000 0.0000 106.7484
#
#
#
# Elastic Compliance Matrix: (Units=1/GPa)
#
#
# Indices 1 2 3 4 5 6 
#
# 1 0.035200 -0.001907 -0.003997 0.000000 0.000000 0.000000
# 2 -0.001907 0.013363 -0.002745 0.000000 0.000000 0.000000
# 3 -0.003997 -0.002745 0.013609 0.000000 0.000000 0.000000
# 4 0.000000 0.000000 0.000000 0.010855 0.000000 0.000000
# 5 0.000000 0.000000 0.000000 0.000000 0.030155 0.000000
# 6 0.000000 0.000000 0.000000 0.000000 0.000000 0.009368
#
#
# Mechanical properties :
#
#
# Convention : Reuss Voigt Hill
#
# Bulk Modulus (GPa) = 22.28437 28.65251 25.46844
# Shear Modulus (GPa) = 34.52903 56.74486 45.63694
#
# Velocity S-wave (km/s) = 4.14781 5.31728 4.76853
# Velocity P-wave (km/s) = 5.83458 7.20932 6.55807
#
# Compressibility (1/GPa) = 0.04487450
#
# Stress axis : x y z
#
# Youngs Moduli (GPa) = 28.40927 74.83162 73.48053
#
# Poissons Ratio (x) = 0.14268 0.29371
# Poissons Ratio (y) = 0.05417 0.20171
# Poissons Ratio (z) = 0.11355 0.20542
#
# Static dielectric constant tensor:
#      x y z
#    x 1.697000 0.000000 0.000000 
#    y 0.000000 1.704000 0.000000 
#    z 0.000000 0.000000 1.712140 
# 
# From -- ./inp_files/6839.got.cif
#   From: 2010.05.17/outbox.cif.g08.bks.cpg/sg38_4_cif.got.tgz:6839.got - 2010.06.03 18:07:57.
