data_PCOD9359874
_publ_section_title
;
Structure prediction by ZEFSAII (Michael W. Deem and Ramdas Pophale) SiO2 
 PCOD9359874
Probable space group: A B M 2
;
_chemical_formula_sum "Si O2"
_cell_formula_units_Z 56
_cell_length_a 20.390911
_cell_length_b 9.060405
_cell_length_c 15.319794
_cell_angle_alpha 90.000000
_cell_angle_beta 90.000000
_cell_angle_gamma 90.000000
_cell_volume 2830.330593
_symmetry_space_group_name_H-M "A B M 2"
_symmetry_group_IT_number 39
_symmetry_cell_setting 'orthorhombic'
loop_
_space_group_symop_operation_xyz
x,y,z
-x,-y,z
-x,1/2+y,z
x,1/2-y,z
x,1/2+y,1/2+z
-x,1/2-y,1/2+z
-x,y,1/2+z
x,-y,1/2+z
loop_
_atom_site_type_symbol
_atom_site_label
_atom_site_fract_x
_atom_site_fract_y
_atom_site_fract_z
Si Si1 0.198751 0.078992 0.549770
Si Si2 0.336174 0.426294 0.799772
Si Si3 0.066697 0.420279 0.837074
Si Si4 0.933861 0.581579 0.050738
Si Si5 0.429050 0.572160 0.942269
Si Si6 0.658646 0.571947 0.603166
Si Si7 0.799627 0.079003 0.837985
O O1 0.192981 0.250000 0.576879
O O2 0.267885 0.015793 0.583103
O O3 0.201704 0.076191 0.444105
O O4 0.133654 0.994682 0.578533
O O5 0.338806 0.250000 0.814840
O O6 0.380522 0.513542 0.867831
O O7 0.360022 0.459280 0.701980
O O8 0.261627 0.482919 0.806791
O O9 0.068859 0.250000 0.809248
O O10 0.131483 0.508551 0.809791
O O11 0.000000 0.500000 0.808796
O O12 0.066315 0.420958 0.943914
O O13 0.935483 0.750000 0.079223
O O14 0.000000 0.500000 0.078936
O O15 0.500000 0.500000 0.933095
O O16 0.433599 0.750000 0.939360
O O17 0.394550 0.524182 0.032777
O O18 0.663546 0.750000 0.593849
O O19 0.793806 0.250000 0.811166
#
# Coordination Sequence:
#
# PCOD9359874 Si02
#       7
#     8   8   8   8   8   8   8
#     4   9  16  31  53  75 105 150 192 236 288 343
#     4  11  22  38  62  92 122 156 197 242 291 346
#     4   9  16  26  42  70 107 147 195 247 299 354
#     4   9  16  25  40  69 105 143 188 240 289 344
#     4  11  23  44  67  92 123 157 193 234 287 346
#     4   9  20  39  62  87 120 158 196 237 289 347
#     4  10  18  31  53  79 112 154 197 243 296 351
#
# _framework density 19.785674
#
# number of rings (size 3 to 8) (size 9 to 14) (size 15 to 20)
#    0.000    2.286    1.429    2.143    0.000    4.571 
#    0.000    5.714    0.000    0.857    0.000    4.000 
#    0.000    0.000    0.000    0.000    0.000    0.000 
#
# Total GULP energy -156396.127683 kJ/mol
# GULP energy per Si atom -5585.575989 kJ/mol
# Density = 1.974064 g / cm^3
# Si number density = 19.785674 Si / 1000 Ang^3
#
#
#
# Elastic Constant Matrix: (Units=GPa)
#
#
# Indices 1 2 3 4 5 6 
#
# 1 132.6978 44.2997 36.3844 0.0000 0.0000 0.0000
# 2 44.2997 96.4606 28.7029 0.0000 0.0000 0.0000
# 3 36.3844 28.7029 52.2323 0.0000 0.0000 0.0000
# 4 0.0000 0.0000 0.0000 13.3372 0.0000 0.0000
# 5 0.0000 0.0000 0.0000 0.0000 -14.7768 0.0000
# 6 0.0000 0.0000 0.0000 0.0000 0.0000 36.7672
#
#
#
# Elastic Compliance Matrix: (Units=1/GPa)
#
#
# Indices 1 2 3 4 5 6 
#
# 1 0.009997 -0.003011 -0.005309 0.000000 0.000000 0.000000
# 2 -0.003011 0.013301 -0.005211 0.000000 0.000000 0.000000
# 3 -0.005309 -0.005211 0.025707 0.000000 0.000000 0.000000
# 4 0.000000 0.000000 0.000000 0.074978 0.000000 0.000000
# 5 0.000000 0.000000 0.000000 0.000000 -0.067673 0.000000
# 6 0.000000 0.000000 0.000000 0.000000 0.000000 0.027198
#
#
# Mechanical properties :
#
#
# Convention : Reuss Voigt Hill
#
# Bulk Modulus (GPa) = 45.57588 55.57386 50.57487
# Shear Modulus (GPa) = 42.41431 18.53240 30.47336
#
# Velocity S-wave (km/s) = 4.63502 3.06381 3.92876
# Velocity P-wave (km/s) = 7.19231 6.37689 6.79684
#
# Compressibility (1/GPa) = 0.02194143
#
# Stress axis : x y z
#
# Youngs Moduli (GPa) = 100.03129 75.18463 38.89973
#
# Poissons Ratio (x) = 0.22641 0.20651
# Poissons Ratio (y) = 0.30123 0.20272
# Poissons Ratio (z) = 0.53105 0.39181
#
# Static dielectric constant tensor:
#      x y z
#    x 1.666060 0.000000 0.000000 
#    y 0.000000 1.668150 0.000000 
#    z 0.000000 0.000000 1.725150 
# 
# From -- ./inp_files/10375.got.cif
#   From: 2010.05.17/outbox.cif.g08.bks.cpg/sg39_6_cif.got.tgz:10375.got - 2010.06.03 18:22:40.
