data_PCOD9359529
_publ_section_title
;
Structure prediction by ZEFSAII (Michael W. Deem and Ramdas Pophale) SiO2 
 PCOD9359529
Probable space group: A M M 2
;
_chemical_formula_sum "Si O2"
_cell_formula_units_Z 48
_cell_length_a 7.513949
_cell_length_b 9.671940
_cell_length_c 32.548968
_cell_angle_alpha 90.000000
_cell_angle_beta 90.000000
_cell_angle_gamma 90.000000
_cell_volume 2365.478800
_symmetry_space_group_name_H-M "A M M 2"
_symmetry_group_IT_number 38
_symmetry_cell_setting 'orthorhombic'
loop_
_space_group_symop_operation_xyz
x,y,z
-x,-y,z
-x,y,z
x,-y,z
x,1/2+y,1/2+z
-x,1/2-y,1/2+z
-x,1/2+y,1/2+z
x,1/2-y,1/2+z
loop_
_atom_site_type_symbol
_atom_site_label
_atom_site_fract_x
_atom_site_fract_y
_atom_site_fract_z
Si Si1 0.286242 0.660227 0.688660
Si Si2 0.717439 0.839067 0.099163
Si Si3 0.210736 0.657925 0.778710
Si Si4 0.713595 0.657394 0.023293
Si Si5 0.212626 0.342160 0.931059
Si Si6 0.218363 0.840957 0.854763
O O1 0.500000 0.659979 0.687941
O O2 0.225242 0.500000 0.689498
O O3 0.226979 0.716173 0.644296
O O4 0.234282 0.718543 0.732868
O O5 0.500000 0.837162 0.098680
O O6 0.769265 0.000000 0.095845
O O7 0.780686 0.751273 0.060464
O O8 0.283884 0.500000 0.780102
O O9 0.278992 0.756018 0.814698
O O10 0.000000 0.645977 0.785447
O O11 0.500000 0.652201 0.027083
O O12 0.781517 0.500000 0.026125
O O13 0.752324 0.708515 0.977304
O O14 0.282453 0.500000 0.927420
O O15 0.277462 0.241312 0.895407
O O16 0.000000 0.350456 0.926266
O O17 0.000000 0.842054 0.854671
O O18 0.275486 0.000000 0.854420
#
# Coordination Sequence:
#
# PCOD9359529 Si02
#       6
#     8   8   8   8   8   8
#     4   8  14  26  44  64  85 111 143 175 206 244
#     4   8  14  26  44  63  84 113 145 172 203 248
#     4   9  16  27  45  66  85 108 141 177 209 244
#     4   9  17  29  45  65  87 110 139 175 211 247
#     4   9  17  30  47  64  83 110 143 175 207 247
#     4   9  17  29  45  64  86 112 141 172 208 252
#
# _framework density 20.291874
#
# number of rings (size 3 to 8) (size 9 to 14) (size 15 to 20)
#    0.000    3.333    0.000    1.500    0.000    2.667 
#    0.000    2.500    0.000    7.500    0.000    0.000 
#    0.000    0.000    0.000    0.000    0.000    0.000 
#
# Total GULP energy -133740.491961 kJ/mol
# GULP energy per Si atom -5572.520498 kJ/mol
# Density = 2.024569 g / cm^3
# Si number density = 20.291874 Si / 1000 Ang^3
#
#
#
# Elastic Constant Matrix: (Units=GPa)
#
#
# Indices 1 2 3 4 5 6 
#
# 1 50.2184 5.1055 1.5303 0.0000 0.0000 0.0000
# 2 5.1055 87.7707 113.2543 0.0000 0.0000 0.0000
# 3 1.5303 113.2543 252.4525 0.0000 0.0000 0.0000
# 4 0.0000 0.0000 0.0000 31.3317 0.0000 0.0000
# 5 0.0000 0.0000 0.0000 0.0000 21.5595 0.0000
# 6 0.0000 0.0000 0.0000 0.0000 0.0000 1.8088
#
#
#
# Elastic Compliance Matrix: (Units=1/GPa)
#
#
# Indices 1 2 3 4 5 6 
#
# 1 0.020129 -0.002406 0.000958 0.000000 0.000000 0.000000
# 2 -0.002406 0.027342 -0.012251 0.000000 0.000000 0.000000
# 3 0.000958 -0.012251 0.009452 0.000000 0.000000 0.000000
# 4 0.000000 0.000000 0.000000 0.031917 0.000000 0.000000
# 5 0.000000 0.000000 0.000000 0.000000 0.046383 0.000000
# 6 0.000000 0.000000 0.000000 0.000000 0.000000 0.552850
#
#
# Mechanical properties :
#
#
# Convention : Reuss Voigt Hill
#
# Bulk Modulus (GPa) = 33.87386 70.02466 51.94926
# Shear Modulus (GPa) = 6.89358 28.97676 17.93517
#
# Velocity S-wave (km/s) = 1.84515 3.78299 2.97620
# Velocity P-wave (km/s) = 4.61183 7.32564 6.12103
#
# Compressibility (1/GPa) = 0.02952129
#
# Stress axis : x y z
#
# Youngs Moduli (GPa) = 49.68077 36.57402 105.80312
#
# Poissons Ratio (x) = 0.08801 -0.10131
# Poissons Ratio (y) = 0.11955 1.29624
# Poissons Ratio (z) = -0.04757 0.44808
#
# Static dielectric constant tensor:
#      x y z
#    x 1.772510 0.000000 0.000000 
#    y 0.000000 1.696230 0.000000 
#    z 0.000000 0.000000 1.733700 
# 
# From -- ./inp_files/22418.got.cif
#   From: 2010.05.17/outbox.cif.g08.bks.cpg/sg38_12_cif.got.tgz:22418.got - 2010.06.03 18:07:57.
