data_PCOD9359984
_publ_section_title
;
Structure prediction by ZEFSAII (Michael W. Deem and Ramdas Pophale) SiO2 
 PCOD9359984
Probable space group: A B M 2
;
_chemical_formula_sum "Si O2"
_cell_formula_units_Z 64
_cell_length_a 9.716906
_cell_length_b 18.294478
_cell_length_c 18.030063
_cell_angle_alpha 90.000000
_cell_angle_beta 90.000000
_cell_angle_gamma 90.000000
_cell_volume 3205.127186
_symmetry_space_group_name_H-M "A B M 2"
_symmetry_group_IT_number 39
_symmetry_cell_setting 'orthorhombic'
loop_
_space_group_symop_operation_xyz
x,y,z
-x,-y,z
-x,1/2+y,z
x,1/2-y,z
x,1/2+y,1/2+z
-x,1/2-y,1/2+z
-x,y,1/2+z
x,-y,1/2+z
loop_
_atom_site_type_symbol
_atom_site_label
_atom_site_fract_x
_atom_site_fract_y
_atom_site_fract_z
Si Si1 0.576785 0.074094 0.163630
Si Si2 0.777004 0.828189 0.313059
Si Si3 0.657712 0.339501 0.575783
Si Si4 0.842440 0.512185 0.339229
Si Si5 0.134823 0.958765 0.167254
Si Si6 0.062719 0.830638 0.662506
Si Si7 0.465547 0.333119 0.798150
Si Si8 0.394331 0.066596 0.931236
O O1 0.474355 0.125128 0.117209
O O2 0.718325 0.045486 0.127220
O O3 0.613789 0.121785 0.235798
O O4 0.500000 0.000000 0.187581
O O5 0.783483 0.750000 0.354136
O O6 0.803283 0.903611 0.353508
O O7 0.885601 0.827154 0.246909
O O8 0.626289 0.831060 0.275854
O O9 0.646758 0.250000 0.571069
O O10 0.801895 0.357152 0.617574
O O11 0.655397 0.383500 0.498900
O O12 0.838543 0.493101 0.250032
O O13 0.734798 0.465340 0.385676
O O14 0.000000 0.500000 0.361323
O O15 0.073548 0.877867 0.165968
O O16 0.000000 0.000000 0.135933
O O17 0.032539 0.750000 0.633814
O O18 0.416487 0.250000 0.806080
O O19 0.465660 0.377652 0.874014
O O20 0.500000 0.000000 0.950525
#
# Coordination Sequence:
#
# PCOD9359984 Si02
#       8
#     8   8   8   8   8   8   8   8
#     4  12  22  38  64  96 123 162 214 268 314 373
#     4  10  18  34  62  93 124 160 205 259 323 379
#     4  11  25  45  64  89 129 173 214 263 327 389
#     4  11  21  39  61  94 129 163 207 262 319 378
#     4  11  21  35  61  96 127 157 201 267 314 373
#     4  10  20  37  61  90 127 164 201 249 322 388
#     4  11  21  35  62  96 125 160 209 269 321 369
#     4  12  24  42  63  91 126 170 213 264 318 385
#
# _framework density 19.968005999999999
#
# number of rings (size 3 to 8) (size 9 to 14) (size 15 to 20)
#    0.000    1.000    6.250    3.000    0.000    1.000 
#    0.000    4.375    0.000    0.000    0.000    0.000 
#    0.000    0.000    0.000    0.000    0.000    0.000 
#
# Total GULP energy -178399.639818 kJ/mol
# GULP energy per Si atom -5574.988744 kJ/mol
# Density = 1.992256 g / cm^3
# Si number density = 19.968006 Si / 1000 Ang^3
#
#
#
# Elastic Constant Matrix: (Units=GPa)
#
#
# Indices 1 2 3 4 5 6 
#
# 1 94.7808 42.9167 -5.4816 0.0000 0.0000 0.0000
# 2 42.9167 144.2885 27.1747 0.0000 0.0000 0.0000
# 3 -5.4816 27.1747 32.1397 0.0000 0.0000 0.0000
# 4 0.0000 0.0000 0.0000 21.7367 0.0000 0.0000
# 5 0.0000 0.0000 0.0000 0.0000 14.0325 0.0000
# 6 0.0000 0.0000 0.0000 0.0000 0.0000 33.8692
#
#
#
# Elastic Compliance Matrix: (Units=1/GPa)
#
#
# Indices 1 2 3 4 5 6 
#
# 1 0.013297 -0.005212 0.006675 0.000000 0.000000 0.000000
# 2 -0.005212 0.010286 -0.009586 0.000000 0.000000 0.000000
# 3 0.006675 -0.009586 0.040358 0.000000 0.000000 0.000000
# 4 0.000000 0.000000 0.000000 0.046005 0.000000 0.000000
# 5 0.000000 0.000000 0.000000 0.000000 0.071263 0.000000
# 6 0.000000 0.000000 0.000000 0.000000 0.000000 0.029525
#
#
# Mechanical properties :
#
#
# Convention : Reuss Voigt Hill
#
# Bulk Modulus (GPa) = 20.96709 44.49207 32.72958
# Shear Modulus (GPa) = 20.58637 27.70096 24.14367
#
# Velocity S-wave (km/s) = 3.21435 3.72864 3.48101
# Velocity P-wave (km/s) = 4.92942 6.39274 5.70817
#
# Compressibility (1/GPa) = 0.04769378
#
# Stress axis : x y z
#
# Youngs Moduli (GPa) = 75.20677 97.21750 24.77834
#
# Poissons Ratio (x) = 0.50670 -0.16539
# Poissons Ratio (y) = 0.39198 0.23753
# Poissons Ratio (z) = -0.50198 0.93194
#
# Static dielectric constant tensor:
#      x y z
#    x 1.733270 0.000000 0.000000 
#    y 0.000000 1.780950 0.000000 
#    z 0.000000 0.000000 1.734620 
# 
# From -- ./inp_files/14175.got.cif
#   From: 2010.05.17/outbox.cif.g08.bks.cpg/sg39_8_cif.got.tgz:14175.got - 2010.06.03 18:22:40.
