data_PCOD9359400
_publ_section_title
;
Structure prediction by ZEFSAII (Michael W. Deem and Ramdas Pophale) SiO2 
 PCOD9359400
Probable space group: A M M 2
;
_chemical_formula_sum "Si O2"
_cell_formula_units_Z 64
_cell_length_a 22.376636
_cell_length_b 15.743456
_cell_length_c 8.756686
_cell_angle_alpha 90.000000
_cell_angle_beta 90.000000
_cell_angle_gamma 90.000000
_cell_volume 3084.854244
_symmetry_space_group_name_H-M "A M M 2"
_symmetry_group_IT_number 38
_symmetry_cell_setting 'orthorhombic'
loop_
_space_group_symop_operation_xyz
x,y,z
-x,-y,z
-x,y,z
x,-y,z
x,1/2+y,1/2+z
-x,1/2-y,1/2+z
-x,1/2+y,1/2+z
x,1/2-y,1/2+z
loop_
_atom_site_type_symbol
_atom_site_label
_atom_site_fract_x
_atom_site_fract_y
_atom_site_fract_z
Si Si1 0.306402 0.653519 0.896060
Si Si2 0.435743 0.654006 0.897155
Si Si3 0.306402 0.346473 0.529180
Si Si4 0.934326 0.398477 0.538834
Si Si5 0.186885 0.156109 0.892479
Si Si6 0.813115 0.156104 0.532749
Si Si7 0.934327 0.898477 0.386395
Si Si8 0.564257 0.154014 0.028092
O O1 0.371263 0.615175 0.939692
O O2 0.302145 0.656897 0.712620
O O3 0.307897 0.749995 0.962625
O O4 0.245776 0.612755 0.960325
O O5 0.500000 0.614894 0.943027
O O6 0.435484 0.658481 0.712623
O O7 0.435980 0.749995 0.962629
O O8 0.245777 0.387237 0.464908
O O9 0.371263 0.384816 0.485546
O O10 0.938084 0.500000 0.548095
O O11 0.877468 0.379947 0.436200
O O12 0.924258 0.366149 0.712615
O O13 0.000000 0.367364 0.486436
O O14 0.194759 0.158960 0.712614
O O15 0.185786 0.250004 0.962609
O O16 0.877469 0.120049 0.489032
O O17 0.000000 0.867363 0.438794
O O18 0.938086 0.000000 0.377129
O O19 0.500000 0.114904 0.982213
#
# Coordination Sequence:
#
# PCOD9359400 Si02
#       8
#     8   8   8   8   8   8   8   8
#     4   9  15  24  38  56  83 117 152 190 231 274
#     4   8  13  20  31  49  74 107 146 185 225 269
#     4   9  15  24  38  56  83 117 152 190 231 274
#     4   9  19  37  58  76  95 120 150 187 233 283
#     4  11  21  32  48  70  98 129 161 196 232 274
#     4  11  21  32  48  70  98 129 161 196 232 274
#     4   9  19  37  58  76  95 120 150 187 233 283
#     4   8  13  20  31  49  74 107 146 185 225 269
#
# _framework density 20.746521999999999
#
# number of rings (size 3 to 8) (size 9 to 14) (size 15 to 20)
#    0.000    2.750    0.000    5.250    0.000    2.500 
#    0.000    1.250    0.000    0.000    0.000    0.000 
#    0.000    1.000    0.000   11.500    0.000    7.500 
#
# Total GULP energy -178144.935190 kJ/mol
# GULP energy per Si atom -5567.029225 kJ/mol
# Density = 2.069930 g / cm^3
# Si number density = 20.746522 Si / 1000 Ang^3
#
#
#
# Elastic Constant Matrix: (Units=GPa)
#
#
# Indices 1 2 3 4 5 6 
#
# 1 241.3758 16.3946 75.0045 0.0000 0.0000 0.0000
# 2 16.3946 14.2536 4.0217 0.0000 0.0000 0.0000
# 3 75.0045 4.0217 89.2668 0.0000 0.0000 0.0000
# 4 0.0000 0.0000 0.0000 6.2075 0.0000 0.0000
# 5 0.0000 0.0000 0.0000 0.0000 47.3372 0.0000
# 6 0.0000 0.0000 0.0000 0.0000 0.0000 58.4990
#
#
#
# Elastic Compliance Matrix: (Units=1/GPa)
#
#
# Indices 1 2 3 4 5 6 
#
# 1 0.006013 -0.005561 -0.004801 0.000000 0.000000 0.000000
# 2 -0.005561 0.076205 0.001239 0.000000 0.000000 0.000000
# 3 -0.004801 0.001239 0.015181 0.000000 0.000000 0.000000
# 4 0.000000 0.000000 0.000000 0.161096 0.000000 0.000000
# 5 0.000000 0.000000 0.000000 0.000000 0.021125 0.000000
# 6 0.000000 0.000000 0.000000 0.000000 0.000000 0.017094
#
#
# Mechanical properties :
#
#
# Convention : Reuss Voigt Hill
#
# Bulk Modulus (GPa) = 12.63396 59.52644 36.08020
# Shear Modulus (GPa) = 14.64800 39.04042 26.84421
#
# Velocity S-wave (km/s) = 2.66004 4.34266 3.60100
# Velocity P-wave (km/s) = 3.94174 7.34162 5.89223
#
# Compressibility (1/GPa) = 0.07915176
#
# Stress axis : x y z
#
# Youngs Moduli (GPa) = 166.31694 13.12257 65.87255
#
# Poissons Ratio (x) = 0.07298 0.31628
# Poissons Ratio (y) = 0.92490 -0.08164
# Poissons Ratio (z) = 0.79856 -0.01626
#
# Static dielectric constant tensor:
#      x y z
#    x 1.882120 0.000000 0.000000 
#    y 0.000000 1.751110 0.000000 
#    z 0.000000 0.000000 1.709070 
# 
# From -- ./inp_files/6863.got.cif
#   From: 2010.05.17/outbox.cif.g08.bks.cpg/sg38_4_cif.got.tgz:6863.got - 2010.06.03 18:07:57.
