data_PCOD9359803
_publ_section_title
;
Structure prediction by ZEFSAII (Michael W. Deem and Ramdas Pophale) SiO2 
 PCOD9359803
Probable space group: A B M 2
;
_chemical_formula_sum "Si O2"
_cell_formula_units_Z 60
_cell_length_a 10.777046
_cell_length_b 15.288849
_cell_length_c 19.406541
_cell_angle_alpha 90.000000
_cell_angle_beta 90.000000
_cell_angle_gamma 90.000000
_cell_volume 3197.589153
_symmetry_space_group_name_H-M "A B M 2"
_symmetry_group_IT_number 39
_symmetry_cell_setting 'orthorhombic'
loop_
_space_group_symop_operation_xyz
x,y,z
-x,-y,z
-x,1/2+y,z
x,1/2-y,z
x,1/2+y,1/2+z
-x,1/2-y,1/2+z
-x,y,1/2+z
x,-y,1/2+z
loop_
_atom_site_type_symbol
_atom_site_label
_atom_site_fract_x
_atom_site_fract_y
_atom_site_fract_z
Si Si1 0.100018 0.077243 0.817170
Si Si2 0.934141 0.348264 0.921211
Si Si3 0.700328 0.459225 0.871699
Si Si4 0.375403 0.144774 0.079834
Si Si5 0.976204 0.354624 0.696495
Si Si6 0.500000 0.000000 0.988341
Si Si7 0.692598 0.645657 0.238417
Si Si8 0.092953 0.356487 0.046594
O O1 0.035325 0.153554 0.860151
O O2 0.087061 0.101235 0.737723
O O3 0.232102 0.046830 0.843884
O O4 0.000000 0.000000 0.829010
O O5 0.896937 0.250000 0.939193
O O6 0.812061 0.399121 0.899707
O O7 0.011726 0.389737 0.983673
O O8 0.610144 0.477429 0.934918
O O9 0.646193 0.409703 0.803967
O O10 0.396382 0.250000 0.071252
O O11 0.366774 0.128317 0.162826
O O12 0.238345 0.122588 0.049658
O O13 0.467617 0.082328 0.037787
O O14 0.989441 0.250000 0.697601
O O15 0.841031 0.373605 0.730620
O O16 0.967024 0.384326 0.618305
O O17 0.681086 0.750000 0.251215
O O18 0.090034 0.250000 0.044243
#
# Coordination Sequence:
#
# PCOD9359803 Si02
#       8
#     8   8   8   8   8   4   8   8
#     4  10  18  29  48  81 113 138 175 227 285 347
#     4  10  18  32  55  81 112 149 184 232 294 359
#     4  11  23  36  53  83 118 153 196 244 291 357
#     4   9  20  40  64  87 116 157 207 254 299 359
#     4   9  15  29  53  81 112 143 177 221 284 360
#     4  12  26  42  58  84 118 166 208 258 300 348
#     4   9  17  35  63  87 109 150 201 243 293 359
#     4   8  16  31  55  86 114 141 180 233 298 362
#
# _framework density 18.764137999999999
#
# number of rings (size 3 to 8) (size 9 to 14) (size 15 to 20)
#    0.000    2.400    2.667    3.200    0.000    1.600 
#    2.400    2.667    0.000    0.000    0.000    0.000 
#    0.000    0.000    0.000    0.000    0.000    0.000 
#
# Total GULP energy -167156.928764 kJ/mol
# GULP energy per Si atom -5571.897625 kJ/mol
# Density = 1.872143 g / cm^3
# Si number density = 18.764138 Si / 1000 Ang^3
#
#
#
# Elastic Constant Matrix: (Units=GPa)
#
#
# Indices 1 2 3 4 5 6 
#
# 1 53.7585 31.1984 43.4648 0.0000 0.0000 0.0000
# 2 31.1984 65.3445 36.5352 0.0000 0.0000 0.0000
# 3 43.4648 36.5352 105.6759 0.0000 0.0000 0.0000
# 4 0.0000 0.0000 0.0000 26.2597 0.0000 0.0000
# 5 0.0000 0.0000 0.0000 0.0000 37.1829 0.0000
# 6 0.0000 0.0000 0.0000 0.0000 0.0000 17.7493
#
#
#
# Elastic Compliance Matrix: (Units=1/GPa)
#
#
# Indices 1 2 3 4 5 6 
#
# 1 0.032341 -0.009922 -0.009872 0.000000 0.000000 0.000000
# 2 -0.009922 0.022014 -0.003530 0.000000 0.000000 0.000000
# 3 -0.009872 -0.003530 0.014744 0.000000 0.000000 0.000000
# 4 0.000000 0.000000 0.000000 0.038081 0.000000 0.000000
# 5 0.000000 0.000000 0.000000 0.000000 0.026894 0.000000
# 6 0.000000 0.000000 0.000000 0.000000 0.000000 0.056340
#
#
# Mechanical properties :
#
#
# Convention : Reuss Voigt Hill
#
# Bulk Modulus (GPa) = 44.53963 49.68620 47.11292
# Shear Modulus (GPa) = 20.44603 23.81041 22.12822
#
# Velocity S-wave (km/s) = 3.30454 3.56607 3.43779
# Velocity P-wave (km/s) = 6.19258 6.59490 6.39690
#
# Compressibility (1/GPa) = 0.02245191
#
# Stress axis : x y z
#
# Youngs Moduli (GPa) = 30.92024 45.42488 67.82550
#
# Poissons Ratio (x) = 0.45069 0.66956
# Poissons Ratio (y) = 0.30678 0.23944
# Poissons Ratio (z) = 0.30524 0.16036
#
# Static dielectric constant tensor:
#      x y z
#    x 1.628840 0.000000 0.000000 
#    y 0.000000 1.700380 0.000000 
#    z 0.000000 0.000000 1.713360 
# 
# From -- ./inp_files/12326.got.cif
#   From: 2010.05.17/outbox.cif.g08.bks.cpg/sg39_7_cif.got.tgz:12326.got - 2010.06.03 18:22:40.
