data_PCOD9359224
_publ_section_title
;
Structure prediction by ZEFSAII (Michael W. Deem and Ramdas Pophale) SiO2 
 PCOD9359224
Probable space group: A M M 2
;
_chemical_formula_sum "Si O2"
_cell_formula_units_Z 40
_cell_length_a 11.667542
_cell_length_b 7.478366
_cell_length_c 23.181245
_cell_angle_alpha 90.000000
_cell_angle_beta 90.000000
_cell_angle_gamma 90.000000
_cell_volume 2022.659814
_symmetry_space_group_name_H-M "A M M 2"
_symmetry_group_IT_number 38
_symmetry_cell_setting 'orthorhombic'
loop_
_space_group_symop_operation_xyz
x,y,z
-x,-y,z
-x,y,z
x,-y,z
x,1/2+y,1/2+z
-x,1/2-y,1/2+z
-x,1/2+y,1/2+z
x,1/2-y,1/2+z
loop_
_atom_site_type_symbol
_atom_site_label
_atom_site_fract_x
_atom_site_fract_y
_atom_site_fract_z
Si Si1 0.500000 0.500000 0.667590
Si Si2 0.756648 0.788916 0.787402
Si Si3 0.183233 0.793270 0.415959
Si Si4 0.366682 0.710755 0.006003
Si Si5 0.000000 0.000000 0.950404
Si Si6 0.863383 0.000000 0.202665
Si Si7 0.275745 0.500000 0.590088
Si Si8 0.500000 0.288914 0.265033
O O1 0.387394 0.500000 0.630040
O O2 0.500000 0.674050 0.707298
O O3 0.817065 0.744523 0.847725
O O4 0.808326 0.669797 0.736089
O O5 0.621090 0.747083 0.794914
O O6 0.768821 0.000000 0.775400
O O7 0.309450 0.766307 0.443312
O O8 0.099016 0.656062 0.446148
O O9 0.152077 0.000000 0.425787
O O10 0.500000 0.766841 0.007778
O O11 0.361984 0.500000 0.020441
O O12 0.290768 0.826991 0.049769
O O13 0.828428 0.000000 0.135214
O O14 0.000000 0.000000 0.209354
O O15 0.500000 0.500000 0.253043
#
# Coordination Sequence:
#
# PCOD9359224 Si02
#       8
#     2   8   8   8   2   4   4   4
#     4  12  20  38  66  94 126 172 226 260 328 402
#     4  11  23  41  65  99 131 171 212 274 342 404
#     4  11  24  41  65 100 132 174 225 270 330 401
#     4  10  23  43  68 101 136 172 215 278 341 400
#     4  12  24  42  64  88 130 188 222 260 320 382
#     4  12  28  45  67  95 134 179 232 285 322 387
#     4  12  23  43  66  96 129 182 231 264 330 397
#     4  10  22  38  61  95 133 163 210 276 343 406
#
# _framework density 19.775939000000001
#
# number of rings (size 3 to 8) (size 9 to 14) (size 15 to 20)
#    0.000    1.000    5.000    0.900    2.800    2.000 
#    3.600    0.000    0.000    0.000    0.000    0.000 
#    0.000    0.000    0.000    0.000    0.000    0.000 
#
# Total GULP energy -111446.284416 kJ/mol
# GULP energy per Si atom -5572.314221 kJ/mol
# Density = 1.973093 g / cm^3
# Si number density = 19.775939 Si / 1000 Ang^3
#
#
#
# Elastic Constant Matrix: (Units=GPa)
#
#
# Indices 1 2 3 4 5 6 
#
# 1 109.3280 48.9989 16.5522 0.0000 0.0000 0.0000
# 2 48.9989 108.6598 27.1549 0.0000 0.0000 0.0000
# 3 16.5522 27.1549 68.5641 0.0000 0.0000 0.0000
# 4 0.0000 0.0000 0.0000 27.8013 0.0000 0.0000
# 5 0.0000 0.0000 0.0000 0.0000 -12.0327 0.0000
# 6 0.0000 0.0000 0.0000 0.0000 0.0000 18.6543
#
#
#
# Elastic Compliance Matrix: (Units=1/GPa)
#
#
# Indices 1 2 3 4 5 6 
#
# 1 0.011503 -0.004987 -0.000802 0.000000 0.000000 0.000000
# 2 -0.004987 0.012376 -0.003698 0.000000 0.000000 0.000000
# 3 -0.000802 -0.003698 0.016243 0.000000 0.000000 0.000000
# 4 0.000000 0.000000 0.000000 0.035970 0.000000 0.000000
# 5 0.000000 0.000000 0.000000 0.000000 -0.083107 0.000000
# 6 0.000000 0.000000 0.000000 0.000000 0.000000 0.053607
#
#
# Mechanical properties :
#
#
# Convention : Reuss Voigt Hill
#
# Bulk Modulus (GPa) = 47.28306 52.44043 49.86174
# Shear Modulus (GPa) = 68.85724 19.80764 44.33244
#
# Velocity S-wave (km/s) = 5.90714 3.16824 4.73983
# Velocity P-wave (km/s) = 8.39565 6.32128 7.43120
#
# Compressibility (1/GPa) = 0.02114922
#
# Stress axis : x y z
#
# Youngs Moduli (GPa) = 86.93226 80.80261 61.56521
#
# Poissons Ratio (x) = 0.40295 0.04937
# Poissons Ratio (y) = 0.43352 0.22764
# Poissons Ratio (z) = 0.06972 0.29877
#
# Static dielectric constant tensor:
#      x y z
#    x 1.727520 0.000000 0.000000 
#    y 0.000000 1.687500 0.000000 
#    z 0.000000 0.000000 1.674110 
# 
# From -- ./inp_files/20539.got.cif
#   From: 2010.05.17/outbox.cif.g08.bks.cpg/sg38_11_cif.got.tgz:20539.got - 2010.06.03 18:07:57.
