data_PCOD9359186
_publ_section_title
;
Structure prediction by ZEFSAII (Michael W. Deem and Ramdas Pophale) SiO2 
 PCOD9359186
Probable space group: A M M 2
;
_chemical_formula_sum "Si O2"
_cell_formula_units_Z 64
_cell_length_a 8.270120
_cell_length_b 31.395893
_cell_length_c 14.972285
_cell_angle_alpha 90.000000
_cell_angle_beta 90.000000
_cell_angle_gamma 90.000000
_cell_volume 3887.520900
_symmetry_space_group_name_H-M "A M M 2"
_symmetry_group_IT_number 38
_symmetry_cell_setting 'orthorhombic'
loop_
_space_group_symop_operation_xyz
x,y,z
-x,-y,z
-x,y,z
x,-y,z
x,1/2+y,1/2+z
-x,1/2-y,1/2+z
-x,1/2+y,1/2+z
x,1/2-y,1/2+z
loop_
_atom_site_type_symbol
_atom_site_label
_atom_site_fract_x
_atom_site_fract_y
_atom_site_fract_z
Si Si1 0.691789 0.367796 0.703330
Si Si2 0.812988 0.224147 0.887124
Si Si3 0.192597 0.135258 0.557005
Si Si4 0.314485 0.684028 0.886738
Si Si5 0.194881 0.290434 0.188056
Si Si6 0.691892 0.793530 0.081069
Si Si7 0.304819 0.451607 0.999473
Si Si8 0.697713 0.451895 0.792001
O O1 0.500000 0.373584 0.684690
O O2 0.705531 0.341205 0.794991
O O3 0.758875 0.336565 0.627295
O O4 0.757795 0.414586 0.726945
O O5 0.799441 0.275289 0.890878
O O6 0.744105 0.211700 0.789971
O O7 0.000000 0.211182 0.891494
O O8 0.728110 0.207635 0.976225
O O9 0.278897 0.153327 0.468945
O O10 0.244280 0.166416 0.637281
O O11 0.235663 0.085586 0.561048
O O12 0.000000 0.139814 0.546627
O O13 0.500000 0.699317 0.891943
O O14 0.243636 0.248901 0.130622
O O15 0.000000 0.289758 0.192597
O O16 0.500000 0.792870 0.095373
O O17 0.500000 0.449415 0.001466
O O18 0.257427 0.500000 0.023007
O O19 0.254744 0.444283 0.895596
O O20 0.500000 0.450588 0.792017
O O21 0.745811 0.500000 0.767680
#
# Coordination Sequence:
#
# PCOD9359186 Si02
#       8
#     8   8   8   8   8   8   8   8
#     4   9  17  28  44  70  98 124 161 198 233 282
#     4  11  22  36  49  66  96 131 168 206 244 289
#     4  11  21  32  47  71  99 131 165 203 245 287
#     4  11  19  30  48  70  98 130 164 201 240 285
#     4  10  22  36  49  67  95 129 167 205 242 291
#     4  11  21  32  49  72  97 126 163 205 244 290
#     4   9  17  30  49  72  98 129 162 197 239 292
#     4   8  13  24  44  68  94 123 154 190 233 281
#
# _framework density 16.462934000000001
#
# number of rings (size 3 to 8) (size 9 to 14) (size 15 to 20)
#    0.000    2.000    3.750    2.250    0.000    1.250 
#    0.000    0.000    0.000    0.000    0.000    0.875 
#    0.000    3.000    0.000    0.000    0.000    0.000 
#
# Total GULP energy -178410.724601 kJ/mol
# GULP energy per Si atom -5575.335144 kJ/mol
# Density = 1.642546 g / cm^3
# Si number density = 16.462934 Si / 1000 Ang^3
#
#
#
# Elastic Constant Matrix: (Units=GPa)
#
#
# Indices 1 2 3 4 5 6 
#
# 1 12.6714 10.5524 12.3410 0.0000 0.0000 0.0000
# 2 10.5524 124.3649 49.5205 0.0000 0.0000 0.0000
# 3 12.3410 49.5205 89.2685 0.0000 0.0000 0.0000
# 4 0.0000 0.0000 0.0000 17.7530 0.0000 0.0000
# 5 0.0000 0.0000 0.0000 0.0000 3.7089 0.0000
# 6 0.0000 0.0000 0.0000 0.0000 0.0000 10.1419
#
#
#
# Elastic Compliance Matrix: (Units=1/GPa)
#
#
# Indices 1 2 3 4 5 6 
#
# 1 0.092391 -0.003534 -0.010812 0.000000 0.000000 0.000000
# 2 -0.003534 0.010456 -0.005312 0.000000 0.000000 0.000000
# 3 -0.010812 -0.005312 0.015643 0.000000 0.000000 0.000000
# 4 0.000000 0.000000 0.000000 0.056328 0.000000 0.000000
# 5 0.000000 0.000000 0.000000 0.000000 0.269624 0.000000
# 6 0.000000 0.000000 0.000000 0.000000 0.000000 0.098601
#
#
# Mechanical properties :
#
#
# Convention : Reuss Voigt Hill
#
# Bulk Modulus (GPa) = 12.63031 41.23697 26.93364
# Shear Modulus (GPa) = 8.21354 16.58015 12.39684
#
# Velocity S-wave (km/s) = 2.23605 3.17696 2.74709
# Velocity P-wave (km/s) = 3.78883 6.20968 5.14370
#
# Compressibility (1/GPa) = 0.07917464
#
# Stress axis : x y z
#
# Youngs Moduli (GPa) = 10.82352 95.64127 63.92452
#
# Poissons Ratio (x) = 0.33801 0.69117
# Poissons Ratio (y) = 0.03825 0.33954
# Poissons Ratio (z) = 0.11703 0.50801
#
# Static dielectric constant tensor:
#      x y z
#    x 1.584910 0.000000 0.000000 
#    y 0.000000 1.570960 0.000000 
#    z 0.000000 0.000000 1.549870 
# 
# From -- ./inp_files/13062.got.cif
#   From: 2010.05.17/outbox.cif.g08.bks.cpg/sg38_7_cif.got.tgz:13062.got - 2010.06.03 18:07:57.
