data_PCOD9359828
_publ_section_title
;
Structure prediction by ZEFSAII (Michael W. Deem and Ramdas Pophale) SiO2 
 PCOD9359828
Probable space group: A B M 2
;
_chemical_formula_sum "Si O2"
_cell_formula_units_Z 64
_cell_length_a 21.436755
_cell_length_b 8.985037
_cell_length_c 18.915668
_cell_angle_alpha 90.000000
_cell_angle_beta 90.000000
_cell_angle_gamma 90.000000
_cell_volume 3643.347510
_symmetry_space_group_name_H-M "A B M 2"
_symmetry_group_IT_number 39
_symmetry_cell_setting 'orthorhombic'
loop_
_space_group_symop_operation_xyz
x,y,z
-x,-y,z
-x,1/2+y,z
x,1/2-y,z
x,1/2+y,1/2+z
-x,1/2-y,1/2+z
-x,y,1/2+z
x,-y,1/2+z
loop_
_atom_site_type_symbol
_atom_site_label
_atom_site_fract_x
_atom_site_fract_y
_atom_site_fract_z
Si Si1 0.680120 0.929352 0.992760
Si Si2 0.937439 0.920397 0.071501
Si Si3 0.063778 0.577850 0.743866
Si Si4 0.686537 0.068993 0.329776
Si Si5 0.801707 0.430288 0.584629
Si Si6 0.565774 0.071242 0.242243
Si Si7 0.433929 0.572076 0.076202
Si Si8 0.193529 0.070859 0.739150
O O1 0.671950 0.750000 0.994875
O O2 0.685105 0.976618 0.911263
O O3 0.743629 0.964149 0.034729
O O4 0.622025 0.005786 0.030818
O O5 0.941049 0.750000 0.048863
O O6 0.937611 0.924900 0.157600
O O7 0.868677 0.979460 0.052733
O O8 0.000000 0.000000 0.046657
O O9 0.065944 0.750000 0.765282
O O10 0.126872 0.492561 0.764145
O O11 0.000000 0.500000 0.768156
O O12 0.686031 0.250000 0.328417
O O13 0.624619 0.019500 0.288151
O O14 0.749521 0.024179 0.289484
O O15 0.805247 0.250000 0.594346
O O16 0.794272 0.506183 0.660849
O O17 0.560907 0.250000 0.248322
O O18 0.576472 0.036387 0.159379
O O19 0.500000 0.000000 0.263835
O O20 0.500000 0.500000 0.055703
O O21 0.436908 0.750000 0.069138
O O22 0.190719 0.250000 0.735934
#
# Coordination Sequence:
#
# PCOD9359828 Si02
#       8
#     8   8   8   8   8   8   8   8
#     4  10  20  35  53  72  99 134 169 206 248 294
#     4   8  14  24  39  63  92 119 151 193 240 286
#     4   9  16  27  44  70 101 129 162 205 252 300
#     4   9  19  34  51  72  99 132 167 203 246 294
#     4   9  18  31  48  71  98 129 165 206 252 300
#     4   9  18  34  54  75  99 126 160 201 243 291
#     4  10  20  35  55  78 102 128 160 200 245 295
#     4  10  18  30  50  73  98 131 169 208 250 296
#
# _framework density 17.566264
#
# number of rings (size 3 to 8) (size 9 to 14) (size 15 to 20)
#    0.000    2.750    0.000    2.625    0.000    5.500 
#    0.000    4.375    0.000    0.750    0.000    1.750 
#    0.000    0.000    0.000    0.000    0.000    0.000 
#
# Total GULP energy -178387.908816 kJ/mol
# GULP energy per Si atom -5574.622151 kJ/mol
# Density = 1.752628 g / cm^3
# Si number density = 17.566264 Si / 1000 Ang^3
#
#
#
# Elastic Constant Matrix: (Units=GPa)
#
#
# Indices 1 2 3 4 5 6 
#
# 1 221.0511 64.2512 95.8749 0.0000 0.0000 0.0000
# 2 64.2512 43.2964 35.5256 0.0000 0.0000 0.0000
# 3 95.8749 35.5256 74.2330 0.0000 0.0000 0.0000
# 4 0.0000 0.0000 0.0000 13.3400 0.0000 0.0000
# 5 0.0000 0.0000 0.0000 0.0000 -4.0559 0.0000
# 6 0.0000 0.0000 0.0000 0.0000 0.0000 33.3745
#
#
#
# Elastic Compliance Matrix: (Units=1/GPa)
#
#
# Indices 1 2 3 4 5 6 
#
# 1 0.011849 -0.008277 -0.011343 0.000000 0.000000 0.000000
# 2 -0.008277 0.043812 -0.010277 0.000000 0.000000 0.000000
# 3 -0.011343 -0.010277 0.033039 0.000000 0.000000 0.000000
# 4 0.000000 0.000000 0.000000 0.074962 0.000000 0.000000
# 5 0.000000 0.000000 0.000000 0.000000 -0.246555 0.000000
# 6 0.000000 0.000000 0.000000 0.000000 0.000000 0.029963
#
#
# Mechanical properties :
#
#
# Convention : Reuss Voigt Hill
#
# Bulk Modulus (GPa) = 34.59370 81.09821 57.84595
# Shear Modulus (GPa) = 303.03424 18.06030 160.54727
#
# Velocity S-wave (km/s) = 13.14853 3.20992 9.57046
# Velocity P-wave (km/s) = 15.81922 7.74631 12.45498
#
# Compressibility (1/GPa) = 0.02890700
#
# Stress axis : x y z
#
# Youngs Moduli (GPa) = 84.39347 22.82461 30.26763
#
# Poissons Ratio (x) = 0.18893 0.34331
# Poissons Ratio (y) = 0.69855 0.31105
# Poissons Ratio (z) = 0.95724 0.23456
#
# Static dielectric constant tensor:
#      x y z
#    x 1.601690 0.000000 0.000000 
#    y 0.000000 1.593410 0.000000 
#    z 0.000000 0.000000 1.573180 
# 
# From -- ./inp_files/13129.got.cif
#   From: 2010.05.17/outbox.cif.g08.bks.cpg/sg39_7_cif.got.tgz:13129.got - 2010.06.03 18:22:40.
