data_PCOD9359277
_publ_section_title
;
Structure prediction by ZEFSAII (Michael W. Deem and Ramdas Pophale) SiO2 
 PCOD9359277
Probable space group: A M M 2
;
_chemical_formula_sum "Si O2"
_cell_formula_units_Z 56
_cell_length_a 8.822473
_cell_length_b 19.022036
_cell_length_c 17.135365
_cell_angle_alpha 90.000000
_cell_angle_beta 90.000000
_cell_angle_gamma 90.000000
_cell_volume 2875.680927
_symmetry_space_group_name_H-M "A M M 2"
_symmetry_group_IT_number 38
_symmetry_cell_setting 'orthorhombic'
loop_
_space_group_symop_operation_xyz
x,y,z
-x,-y,z
-x,y,z
x,-y,z
x,1/2+y,1/2+z
-x,1/2-y,1/2+z
-x,1/2+y,1/2+z
x,1/2-y,1/2+z
loop_
_atom_site_type_symbol
_atom_site_label
_atom_site_fract_x
_atom_site_fract_y
_atom_site_fract_z
Si Si1 0.817390 0.919292 0.305620
Si Si2 0.679979 0.657369 0.655487
Si Si3 0.175987 0.415913 0.506307
Si Si4 0.181984 0.791587 0.411532
Si Si5 0.818877 0.703848 0.092681
Si Si6 0.682454 0.418127 0.187640
Si Si7 0.318625 0.848236 0.853078
O O1 0.747902 0.883845 0.228897
O O2 0.780268 0.868353 0.377920
O O3 0.000000 0.919450 0.297233
O O4 0.767536 0.000000 0.314845
O O5 0.500000 0.660569 0.661516
O O6 0.731008 0.616866 0.577356
O O7 0.746153 0.735619 0.645942
O O8 0.182604 0.500000 0.509813
O O9 0.242121 0.389075 0.424814
O O10 0.000000 0.393553 0.513499
O O11 0.224794 0.783837 0.502260
O O12 0.262183 0.731701 0.360705
O O13 0.000000 0.782211 0.405799
O O14 0.761003 0.628833 0.122101
O O15 0.000000 0.707717 0.098006
O O16 0.500000 0.413190 0.179643
O O17 0.724720 0.500000 0.184928
O O18 0.723055 0.384470 0.271475
O O19 0.500000 0.850896 0.860961
#
# Coordination Sequence:
#
# PCOD9359277 Si02
#       7
#     8   8   8   8   8   8   8
#     4  10  22  41  64  90 122 161 205 255 309 361
#     4  12  24  39  61  90 124 161 203 249 304 368
#     4  11  23  38  59  88 123 161 200 247 303 363
#     4  10  22  40  63  90 122 160 204 255 307 361
#     4  11  23  40  64  92 123 161 208 256 304 362
#     4  10  23  42  62  89 127 165 203 253 310 364
#     4  11  22  38  62  90 121 159 203 250 304 366
#
# _framework density 19.473649000000002
#
# number of rings (size 3 to 8) (size 9 to 14) (size 15 to 20)
#    0.000    1.286    1.429    4.286    0.000    9.143 
#    0.000    1.429    0.000    0.000    0.000    0.000 
#    0.000    0.000    0.000    0.000    0.000    0.000 
#
# Total GULP energy -156616.395819 kJ/mol
# GULP energy per Si atom -5593.442708 kJ/mol
# Density = 1.942933 g / cm^3
# Si number density = 19.473649 Si / 1000 Ang^3
#
#
#
# Elastic Constant Matrix: (Units=GPa)
#
#
# Indices 1 2 3 4 5 6 
#
# 1 34.4943 36.4585 13.0762 0.0000 0.0000 0.0000
# 2 36.4585 146.2686 26.8709 0.0000 0.0000 0.0000
# 3 13.0762 26.8709 33.0081 0.0000 0.0000 0.0000
# 4 0.0000 0.0000 0.0000 22.9933 0.0000 0.0000
# 5 0.0000 0.0000 0.0000 0.0000 22.8966 0.0000
# 6 0.0000 0.0000 0.0000 0.0000 0.0000 27.5872
#
#
#
# Elastic Compliance Matrix: (Units=1/GPa)
#
#
# Indices 1 2 3 4 5 6 
#
# 1 0.041741 -0.008662 -0.009484 0.000000 0.000000 0.000000
# 2 -0.008662 0.009836 -0.004576 0.000000 0.000000 0.000000
# 3 -0.009484 -0.004576 0.037778 0.000000 0.000000 0.000000
# 4 0.000000 0.000000 0.000000 0.043491 0.000000 0.000000
# 5 0.000000 0.000000 0.000000 0.000000 0.043675 0.000000
# 6 0.000000 0.000000 0.000000 0.000000 0.000000 0.036249
#
#
# Mechanical properties :
#
#
# Convention : Reuss Voigt Hill
#
# Bulk Modulus (GPa) = 22.77350 40.73134 31.75242
# Shear Modulus (GPa) = 18.32505 23.85313 21.08909
#
# Velocity S-wave (km/s) = 3.07093 3.50364 3.29440
# Velocity P-wave (km/s) = 4.92890 6.10974 5.55081
#
# Compressibility (1/GPa) = 0.04391069
#
# Stress axis : x y z
#
# Youngs Moduli (GPa) = 23.95752 101.66287 26.47032
#
# Poissons Ratio (x) = 0.88058 0.25105
# Poissons Ratio (y) = 0.20751 0.12113
# Poissons Ratio (z) = 0.22722 0.46523
#
# Static dielectric constant tensor:
#      x y z
#    x 1.650870 0.000000 0.000000 
#    y 0.000000 1.680830 0.000000 
#    z 0.000000 0.000000 1.652460 
# 
# From -- ./inp_files/12452.got.cif
#   From: 2010.05.17/outbox.cif.g08.bks.cpg/sg38_7_cif.got.tgz:12452.got - 2010.06.03 18:07:57.
