data_PCOD9359264
_publ_section_title
;
Structure prediction by ZEFSAII (Michael W. Deem and Ramdas Pophale) SiO2 
 PCOD9359264
Probable space group: A M M 2
;
_chemical_formula_sum "Si O2"
_cell_formula_units_Z 48
_cell_length_a 17.862003
_cell_length_b 14.397211
_cell_length_c 9.463532
_cell_angle_alpha 90.000000
_cell_angle_beta 90.000000
_cell_angle_gamma 90.000000
_cell_volume 2433.670526
_symmetry_space_group_name_H-M "A M M 2"
_symmetry_group_IT_number 38
_symmetry_cell_setting 'orthorhombic'
loop_
_space_group_symop_operation_xyz
x,y,z
-x,-y,z
-x,y,z
x,-y,z
x,1/2+y,1/2+z
-x,1/2-y,1/2+z
-x,1/2+y,1/2+z
x,1/2-y,1/2+z
loop_
_atom_site_type_symbol
_atom_site_label
_atom_site_fract_x
_atom_site_fract_y
_atom_site_fract_z
Si Si1 0.123993 0.750853 0.411760
Si Si2 0.352570 0.888505 0.284815
Si Si3 0.000000 0.890631 0.521726
Si Si4 0.228651 0.757623 0.161643
Si Si5 0.500000 0.613102 0.611381
Si Si6 0.000000 0.892565 0.862921
Si Si7 0.500000 0.387001 0.287977
Si Si8 0.350630 0.888623 0.617105
O O1 0.153365 0.759689 0.253198
O O2 0.198888 0.739615 0.502807
O O3 0.071847 0.660942 0.421892
O O4 0.072895 0.837389 0.460751
O O5 0.281856 0.840319 0.212268
O O6 0.426367 0.860162 0.198250
O O7 0.358919 0.864557 0.450875
O O8 0.345892 0.000000 0.277079
O O9 0.000000 0.882640 0.692126
O O10 0.000000 0.000000 0.486366
O O11 0.278818 0.665216 0.176641
O O12 0.500000 0.500000 0.606184
O O13 0.500000 0.647059 0.449700
O O14 0.000000 0.000000 0.898756
O O15 0.500000 0.500000 0.292811
O O16 0.425072 0.361579 0.203105
O O17 0.341487 0.000000 0.627531
#
# Coordination Sequence:
#
# PCOD9359264 Si02
#       8
#     8   8   4   8   4   4   4   8
#     4  11  24  42  63  95 129 156 195 255 300 358
#     4  10  22  40  61  86 121 167 211 253 307 363
#     4  10  22  43  72  93 118 165 205 236 294 372
#     4  12  24  40  61  93 131 159 197 254 310 358
#     4   9  19  36  59  88 122 158 208 268 307 347
#     4  10  22  43  70  95 120 161 203 240 298 366
#     4   9  19  36  59  88 120 158 212 266 303 353
#     4  10  22  40  62  86 119 168 214 250 303 369
#
# _framework density 19.723293000000002
#
# number of rings (size 3 to 8) (size 9 to 14) (size 15 to 20)
#    0.000    1.667    3.333    0.500    2.333    5.333 
#    0.000    0.833    0.000    0.000    0.000    0.000 
#    0.000    0.000    0.000    0.000    0.000    0.000 
#
# Total GULP energy -134077.598408 kJ/mol
# GULP energy per Si atom -5586.566600 kJ/mol
# Density = 1.967840 g / cm^3
# Si number density = 19.723293 Si / 1000 Ang^3
#
#
#
# Elastic Constant Matrix: (Units=GPa)
#
#
# Indices 1 2 3 4 5 6 
#
# 1 108.4071 49.6214 19.9276 0.0000 0.0000 0.0000
# 2 49.6214 103.9150 33.3741 0.0000 0.0000 0.0000
# 3 19.9276 33.3741 66.5392 0.0000 0.0000 0.0000
# 4 0.0000 0.0000 0.0000 21.7931 0.0000 0.0000
# 5 0.0000 0.0000 0.0000 0.0000 41.0225 0.0000
# 6 0.0000 0.0000 0.0000 0.0000 0.0000 17.2213
#
#
#
# Elastic Compliance Matrix: (Units=1/GPa)
#
#
# Indices 1 2 3 4 5 6 
#
# 1 0.011845 -0.005384 -0.000847 0.000000 0.000000 0.000000
# 2 -0.005384 0.013918 -0.005369 0.000000 0.000000 0.000000
# 3 -0.000847 -0.005369 0.017975 0.000000 0.000000 0.000000
# 4 0.000000 0.000000 0.000000 0.045886 0.000000 0.000000
# 5 0.000000 0.000000 0.000000 0.000000 0.024377 0.000000
# 6 0.000000 0.000000 0.000000 0.000000 0.000000 0.058068
#
#
# Mechanical properties :
#
#
# Convention : Reuss Voigt Hill
#
# Bulk Modulus (GPa) = 48.68751 53.85639 51.27195
# Shear Modulus (GPa) = 24.73846 27.73657 26.23752
#
# Velocity S-wave (km/s) = 3.54542 3.75411 3.65126
# Velocity P-wave (km/s) = 6.44196 6.79385 6.62025
#
# Compressibility (1/GPa) = 0.02053915
#
# Stress axis : x y z
#
# Youngs Moduli (GPa) = 84.42659 71.84693 55.63245
#
# Poissons Ratio (x) = 0.38683 0.04711
# Poissons Ratio (y) = 0.45456 0.29867
# Poissons Ratio (z) = 0.07149 0.38572
#
# Static dielectric constant tensor:
#      x y z
#    x 1.672370 0.000000 0.000000 
#    y 0.000000 1.680930 0.000000 
#    z 0.000000 0.000000 1.665650 
# 
# From -- ./inp_files/6241.got.cif
#   From: 2010.05.17/outbox.cif.g08.bks.cpg/sg38_4_cif.got.tgz:6241.got - 2010.06.03 18:07:57.
