data_PCOD9359698
_publ_section_title
;
Structure prediction by ZEFSAII (Michael W. Deem and Ramdas Pophale) SiO2 
 PCOD9359698
Probable space group: A B M 2
;
_chemical_formula_sum "Si O2"
_cell_formula_units_Z 48
_cell_length_a 19.252557
_cell_length_b 22.995931
_cell_length_c 5.459605
_cell_angle_alpha 90.000000
_cell_angle_beta 90.000000
_cell_angle_gamma 90.000000
_cell_volume 2417.133500
_symmetry_space_group_name_H-M "A B M 2"
_symmetry_group_IT_number 39
_symmetry_cell_setting 'orthorhombic'
loop_
_space_group_symop_operation_xyz
x,y,z
-x,-y,z
-x,1/2+y,z
x,1/2-y,z
x,1/2+y,1/2+z
-x,1/2-y,1/2+z
-x,y,1/2+z
x,-y,1/2+z
loop_
_atom_site_type_symbol
_atom_site_label
_atom_site_fract_x
_atom_site_fract_y
_atom_site_fract_z
Si Si1 0.528232 0.932600 0.377200
Si Si2 0.919263 0.475787 0.767497
Si Si3 0.809894 0.117060 0.861687
Si Si4 0.317408 0.534060 0.966121
Si Si5 0.813419 0.315146 0.370277
Si Si6 0.977653 0.183712 0.394148
O O1 0.491359 0.906434 0.615370
O O2 0.610266 0.932671 0.420740
O O3 0.500000 0.000000 0.363335
O O4 0.891392 0.485623 0.493168
O O5 0.886046 0.413364 0.838653
O O6 0.000000 0.500000 0.749512
O O7 0.752229 0.069142 0.916692
O O8 0.790303 0.147148 0.603697
O O9 0.806980 0.158948 0.097813
O O10 0.318594 0.486249 0.748438
O O11 0.784150 0.250000 0.379474
O O12 0.896123 0.311280 0.412827
O O13 0.008999 0.250000 0.383995
O O14 0.005065 0.154271 0.638225
#
# Coordination Sequence:
#
# PCOD9359698 Si02
#       6
#     8   8   8   8   8   8
#     4  10  16  30  50  82 117 164 186 213 281 335
#     4  10  21  41  58  78 112 150 193 237 278 341
#     4  12  24  39  59  89 113 154 205 232 295 360
#     4  12  21  34  58  85 128 162 187 238 276 342
#     4  11  24  43  60  81 113 147 191 259 303 342
#     4   9  17  33  54  75  97 125 166 227 305 350
#
# _framework density 19.858232000000001
#
# number of rings (size 3 to 8) (size 9 to 14) (size 15 to 20)
#    0.000    1.333    3.333    4.500    0.000    2.667 
#   18.000    0.000    0.000    0.000    0.000    0.000 
#    0.000   13.333    0.000    0.000    0.000    0.000 
#
# Total GULP energy -133723.166367 kJ/mol
# GULP energy per Si atom -5571.798599 kJ/mol
# Density = 1.981303 g / cm^3
# Si number density = 19.858232 Si / 1000 Ang^3
#
#
#
# Elastic Constant Matrix: (Units=GPa)
#
#
# Indices 1 2 3 4 5 6 
#
# 1 58.5727 10.9897 -24.0850 0.0000 0.0000 0.0000
# 2 10.9897 28.0541 -0.8886 0.0000 0.0000 0.0000
# 3 -24.0850 -0.8886 80.2354 0.0000 0.0000 0.0000
# 4 0.0000 0.0000 0.0000 23.5683 0.0000 0.0000
# 5 0.0000 0.0000 0.0000 0.0000 15.7129 0.0000
# 6 0.0000 0.0000 0.0000 0.0000 0.0000 4.7293
#
#
#
# Elastic Compliance Matrix: (Units=1/GPa)
#
#
# Indices 1 2 3 4 5 6 
#
# 1 0.021167 -0.008093 0.006264 0.000000 0.000000 0.000000
# 2 -0.008093 0.038753 -0.002000 0.000000 0.000000 0.000000
# 3 0.006264 -0.002000 0.014322 0.000000 0.000000 0.000000
# 4 0.000000 0.000000 0.000000 0.042430 0.000000 0.000000
# 5 0.000000 0.000000 0.000000 0.000000 0.063642 0.000000
# 6 0.000000 0.000000 0.000000 0.000000 0.000000 0.211447
#
#
# Mechanical properties :
#
#
# Convention : Reuss Voigt Hill
#
# Bulk Modulus (GPa) = 15.01899 15.43272 15.22585
# Shear Modulus (GPa) = 11.85922 20.85851 16.35886
#
# Velocity S-wave (km/s) = 2.44641 3.24446 2.87327
# Velocity P-wave (km/s) = 3.94454 4.67158 4.32337
#
# Compressibility (1/GPa) = 0.06658240
#
# Stress axis : x y z
#
# Youngs Moduli (GPa) = 47.24287 25.80475 69.82467
#
# Poissons Ratio (x) = 0.20885 -0.43740
# Poissons Ratio (y) = 0.38236 0.13967
# Poissons Ratio (z) = -0.29594 0.05162
#
# Static dielectric constant tensor:
#      x y z
#    x 1.747820 0.000000 0.000000 
#    y 0.000000 1.751660 0.000000 
#    z 0.000000 0.000000 1.809170 
# 
# From -- ./inp_files/805.got.cif
#   From: 2010.05.17/outbox.cif.g08.bks.cpg/sg39_1_cif.got.tgz:805.got - 2010.06.03 18:22:40.
