data_PCOD9359616
_publ_section_title
;
Structure prediction by ZEFSAII (Michael W. Deem and Ramdas Pophale) SiO2 
 PCOD9359616
Probable space group: A M M 2
;
_chemical_formula_sum "Si O2"
_cell_formula_units_Z 20
_cell_length_a 9.000000
_cell_length_b 12.000000
_cell_length_c 21.000000
_cell_angle_alpha 90.000000
_cell_angle_beta 90.000000
_cell_angle_gamma 90.000000
_cell_volume 2268.000000
_symmetry_space_group_name_H-M "A M M 2"
_symmetry_group_IT_number 38
_symmetry_cell_setting 'orthorhombic'
loop_
_space_group_symop_operation_xyz
x,y,z
-x,-y,z
-x,y,z
x,-y,z
x,1/2+y,1/2+z
-x,1/2-y,1/2+z
-x,1/2+y,1/2+z
x,1/2-y,1/2+z
loop_
_atom_site_type_symbol
_atom_site_label
_atom_site_fract_x
_atom_site_fract_y
_atom_site_fract_z
Si Si1 0.675819 0.500000 0.685781
Si Si2 0.324328 0.000000 0.033202
Si Si3 0.821540 0.211654 0.253435
Si Si4 0.178873 0.630256 0.138134
Si Si5 0.679199 0.131653 0.381701
Si Si6 0.319698 0.249325 0.015181
O O1 0.500000 0.500000 0.701321
O O2 0.691186 0.500000 0.609695
O O3 0.754402 0.606810 0.715566
O O4 0.267279 0.879817 0.009582
O O5 0.500000 0.000000 0.018037
O O6 0.784039 0.315765 0.207080
O O7 0.752841 0.201167 0.324112
O O8 0.000000 0.204409 0.257975
O O9 0.220024 0.500000 0.135760
O O10 0.253722 0.695752 0.079264
O O11 0.000000 0.639174 0.130979
O O12 0.500000 0.137697 0.375224
O O13 0.717953 0.181460 0.451280
O O14 0.720809 0.000000 0.377110
O O15 0.500000 0.249232 0.021270
#
# Coordination Sequence:
#
# PCOD9359616 Si02
#       6
#     4   4   8   8   8   8
#     4  11  19  33  59  87 113 138 175 230 283 325
#     4   9  18  33  57  85 113 142 175 226 279 323
#     4  11  22  36  57  83 111 146 187 227 274 334
#     4  10  22  39  57  80 112 147 183 230 280 327
#     4  10  21  36  55  80 112 148 184 229 278 323
#     4  10  20  37  59  84 112 145 185 227 275 331
#
# _framework density 8.8183419999999995
#
# number of rings (size 3 to 8) (size 9 to 14) (size 15 to 20)
#    0.000    1.800    3.000    1.500    0.000    2.800 
#    1.800    0.500    0.000    0.000    0.000    0.000 
#    0.000    0.000    0.000    0.000    0.000    0.000 
#
# Total GULP energy -111591.568119 kJ/mol
# GULP energy per Si atom -5579.578406 kJ/mol
# Density = 0.879827 g / cm^3
# Si number density = 8.818342 Si / 1000 Ang^3
#
#
#
# Elastic Constant Matrix: (Units=GPa)
#
#
# Indices 1 2 3 4 5 6 
#
# 1 31.3767 24.9439 37.5443 0.0000 0.0000 0.0000
# 2 24.9439 132.3314 69.6156 0.0000 0.0000 0.0000
# 3 37.5443 69.6156 134.3273 0.0000 0.0000 0.0000
# 4 0.0000 0.0000 0.0000 36.1077 0.0000 0.0000
# 5 0.0000 0.0000 0.0000 0.0000 31.1665 0.0000
# 6 0.0000 0.0000 0.0000 0.0000 0.0000 21.2942
#
#
#
# Elastic Compliance Matrix: (Units=1/GPa)
#
#
# Indices 1 2 3 4 5 6 
#
# 1 0.048614 -0.002771 -0.012151 0.000000 0.000000 0.000000
# 2 -0.002771 0.010547 -0.004692 0.000000 0.000000 0.000000
# 3 -0.012151 -0.004692 0.013272 0.000000 0.000000 0.000000
# 4 0.000000 0.000000 0.000000 0.027695 0.000000 0.000000
# 5 0.000000 0.000000 0.000000 0.000000 0.032086 0.000000
# 6 0.000000 0.000000 0.000000 0.000000 0.000000 0.046961
#
#
# Mechanical properties :
#
#
# Convention : Reuss Voigt Hill
#
# Bulk Modulus (GPa) = 30.11588 62.47145 46.29367
# Shear Modulus (GPa) = 21.78923 28.77579 25.28251
#
# Velocity S-wave (km/s) = 3.51871 4.04367 3.79029
# Velocity P-wave (km/s) = 5.79838 7.56967 6.74245
#
# Compressibility (1/GPa) = 0.03320507
#
# Stress axis : x y z
#
# Youngs Moduli (GPa) = 20.57039 94.81141 75.34518
#
# Poissons Ratio (x) = 0.26272 0.91554
# Poissons Ratio (y) = 0.05700 0.35349
# Poissons Ratio (z) = 0.24996 0.44482
#
# Static dielectric constant tensor:
#      x y z
#    x 1.594750 0.000000 0.000000 
#    y 0.000000 1.614340 0.000000 
#    z 0.000000 0.000000 1.583560 
# 
# From -- ./inp_files/19490.got.cif
#   From: 2010.05.17/outbox.ucp.g08.bks.cvg/sg38_10_cif.got.tgz:19490.got - 2010.06.11 10:39:43.
