data_PCOD9359755
_publ_section_title
;
Structure prediction by ZEFSAII (Michael W. Deem and Ramdas Pophale) SiO2 
 PCOD9359755
Probable space group: A B M 2
;
_chemical_formula_sum "Si O2"
_cell_formula_units_Z 48
_cell_length_a 8.135560
_cell_length_b 29.406912
_cell_length_c 8.606363
_cell_angle_alpha 90.000000
_cell_angle_beta 90.000000
_cell_angle_gamma 90.000000
_cell_volume 2059.000889
_symmetry_space_group_name_H-M "A B M 2"
_symmetry_group_IT_number 39
_symmetry_cell_setting 'orthorhombic'
loop_
_space_group_symop_operation_xyz
x,y,z
-x,-y,z
-x,1/2+y,z
x,1/2-y,z
x,1/2+y,1/2+z
-x,1/2-y,1/2+z
-x,y,1/2+z
x,-y,1/2+z
loop_
_atom_site_type_symbol
_atom_site_label
_atom_site_fract_x
_atom_site_fract_y
_atom_site_fract_z
Si Si1 0.896023 0.338801 0.188700
Si Si2 0.691665 0.934634 0.317151
Si Si3 0.736848 0.750000 0.827633
Si Si4 0.908994 0.438752 0.294363
Si Si5 0.239864 0.336402 0.336494
Si Si6 0.730742 0.994522 0.057247
Si Si7 0.600502 0.250000 0.681695
O O1 0.836810 0.296054 0.291250
O O2 0.843608 0.388317 0.253942
O O3 0.092480 0.340064 0.210867
O O4 0.837593 0.333370 0.010123
O O5 0.651432 0.882116 0.332967
O O6 0.642163 0.968272 0.452719
O O7 0.893449 0.935897 0.310591
O O8 0.631630 0.960197 0.165313
O O9 0.594625 0.750000 0.697237
O O10 0.667490 0.750000 0.004513
O O11 0.845519 0.473474 0.164361
O O12 0.836307 0.460678 0.449429
O O13 0.339688 0.293348 0.279566
#
# Coordination Sequence:
#
# PCOD9359755 Si02
#       7
#     8   8   4   8   8   8   4
#     4  11  23  39  62  95 131 164 204 254 310 362
#     4  10  18  27  48  78 124 164 203 239 300 348
#     4  12  27  48  71  90 116 156 204 256 315 378
#     4  10  18  27  48  78 124 164 203 239 300 348
#     4  11  23  39  62  95 131 164 204 254 310 362
#     4  10  17  28  44  78 121 168 201 244 289 356
#     4  12  27  48  71  90 116 156 204 256 315 378
#
# _framework density 23.312277000000002
#
# number of rings (size 3 to 8) (size 9 to 14) (size 15 to 20)
#    0.000    1.333    1.667    7.000    9.333    0.000 
#    0.000    0.000    0.000    0.000    0.000    7.000 
#    0.000    0.000    0.000    0.000    0.000    0.000 
#
# Total GULP energy -134238.035727 kJ/mol
# GULP energy per Si atom -5593.251489 kJ/mol
# Density = 2.325922 g / cm^3
# Si number density = 23.312277 Si / 1000 Ang^3
#
#
#
# Elastic Constant Matrix: (Units=GPa)
#
#
# Indices 1 2 3 4 5 6 
#
# 1 32.3701 23.1050 11.9965 0.0000 0.0000 0.0000
# 2 23.1050 200.5162 46.8591 0.0000 0.0000 0.0000
# 3 11.9965 46.8591 132.1285 0.0000 0.0000 0.0000
# 4 0.0000 0.0000 0.0000 6.7286 0.0000 0.0000
# 5 0.0000 0.0000 0.0000 0.0000 25.5651 0.0000
# 6 0.0000 0.0000 0.0000 0.0000 0.0000 4.3637
#
#
#
# Elastic Compliance Matrix: (Units=1/GPa)
#
#
# Indices 1 2 3 4 5 6 
#
# 1 0.034073 -0.003493 -0.001855 0.000000 0.000000 0.000000
# 2 -0.003493 0.005796 -0.001738 0.000000 0.000000 0.000000
# 3 -0.001855 -0.001738 0.008353 0.000000 0.000000 0.000000
# 4 0.000000 0.000000 0.000000 0.148618 0.000000 0.000000
# 5 0.000000 0.000000 0.000000 0.000000 0.039116 0.000000
# 6 0.000000 0.000000 0.000000 0.000000 0.000000 0.229162
#
#
# Mechanical properties :
#
#
# Convention : Reuss Voigt Hill
#
# Bulk Modulus (GPa) = 29.36836 58.77067 44.06951
# Shear Modulus (GPa) = 10.19076 26.20177 18.19627
#
# Velocity S-wave (km/s) = 2.09306 3.35617 2.79685
# Velocity P-wave (km/s) = 4.29725 6.34692 5.41986
#
# Compressibility (1/GPa) = 0.03405025
#
# Stress axis : x y z
#
# Youngs Moduli (GPa) = 29.34866 172.53809 119.71292
#
# Poissons Ratio (x) = 0.60262 0.22206
# Poissons Ratio (y) = 0.10251 0.20810
# Poissons Ratio (z) = 0.05444 0.29993
#
# Static dielectric constant tensor:
#      x y z
#    x 1.898880 0.000000 0.000000 
#    y 0.000000 1.896660 0.000000 
#    z 0.000000 0.000000 1.889910 
# 
# From -- ./inp_files/2335.got.cif
#   From: 2010.05.17/outbox.cif.g08.bks.cpg/sg39_2_cif.got.tgz:2335.got - 2010.06.03 18:22:40.
