data_PCOD9359822
_publ_section_title
;
Structure prediction by ZEFSAII (Michael W. Deem and Ramdas Pophale) SiO2 
 PCOD9359822
Probable space group: A B M 2
;
_chemical_formula_sum "Si O2"
_cell_formula_units_Z 64
_cell_length_a 19.922533
_cell_length_b 8.987615
_cell_length_c 20.857796
_cell_angle_alpha 90.000000
_cell_angle_beta 90.000000
_cell_angle_gamma 90.000000
_cell_volume 3734.714698
_symmetry_space_group_name_H-M "A B M 2"
_symmetry_group_IT_number 39
_symmetry_cell_setting 'orthorhombic'
loop_
_space_group_symop_operation_xyz
x,y,z
-x,-y,z
-x,1/2+y,z
x,1/2-y,z
x,1/2+y,1/2+z
-x,1/2-y,1/2+z
-x,y,1/2+z
x,-y,1/2+z
loop_
_atom_site_type_symbol
_atom_site_label
_atom_site_fract_x
_atom_site_fract_y
_atom_site_fract_z
Si Si1 0.573639 0.570793 0.397420
Si Si2 0.426843 0.570983 0.640098
Si Si3 0.931696 0.920776 0.721395
Si Si4 0.342448 0.571771 0.025444
Si Si5 0.208359 0.072257 0.065522
Si Si6 0.068539 0.578048 0.065312
Si Si7 0.650907 0.930462 0.270125
Si Si8 0.792434 0.928647 0.217812
O O1 0.500000 0.500000 0.400301
O O2 0.566213 0.750000 0.393627
O O3 0.617009 0.537399 0.460609
O O4 0.614679 0.518673 0.334745
O O5 0.500000 0.500000 0.635424
O O6 0.429926 0.750000 0.634923
O O7 0.381197 0.505244 0.583970
O O8 0.393584 0.531684 0.708239
O O9 0.931241 0.750000 0.741766
O O10 0.932934 0.923856 0.643345
O O11 0.862465 0.000678 0.739605
O O12 0.000000 0.000000 0.743284
O O13 0.341036 0.750000 0.033651
O O14 0.267445 0.507350 0.026936
O O15 0.211662 0.250000 0.058409
O O16 0.217906 0.038393 0.141851
O O17 0.135394 0.010572 0.046710
O O18 0.071628 0.750000 0.045325
O O19 0.000000 0.500000 0.043339
O O20 0.653904 0.750000 0.272853
O O21 0.727074 0.980983 0.256774
O O22 0.797552 0.750000 0.222715
#
# Coordination Sequence:
#
# PCOD9359822 Si02
#       8
#     8   8   8   8   8   8   8   8
#     4  10  22  39  57  75 100 133 171 213 258 310
#     4  11  21  35  54  77 101 130 165 208 257 310
#     4   9  16  25  39  64  98 135 169 204 244 293
#     4  11  22  35  52  76 103 135 170 211 259 311
#     4  10  18  30  49  73 101 136 172 213 259 305
#     4   9  16  26  41  66 101 139 174 211 252 303
#     4   9  18  35  55  75 100 132 170 209 257 308
#     4   9  16  29  48  70  97 131 166 206 253 299
#
# _framework density 17.136516
#
# number of rings (size 3 to 8) (size 9 to 14) (size 15 to 20)
#    0.000    2.250    1.250    2.625    0.000    5.500 
#    0.000    1.250    0.000    0.000    0.000    0.875 
#    0.000    4.000    0.000    0.000    0.000    0.000 
#
# Total GULP energy -178506.046079 kJ/mol
# GULP energy per Si atom -5578.313940 kJ/mol
# Density = 1.709751 g / cm^3
# Si number density = 17.136516 Si / 1000 Ang^3
#
#
#
# Elastic Constant Matrix: (Units=GPa)
#
#
# Indices 1 2 3 4 5 6 
#
# 1 184.1905 60.6929 55.3859 0.0000 0.0000 0.0000
# 2 60.6929 62.1233 37.4852 0.0000 0.0000 0.0000
# 3 55.3859 37.4852 78.6116 0.0000 0.0000 0.0000
# 4 0.0000 0.0000 0.0000 13.9453 0.0000 0.0000
# 5 0.0000 0.0000 0.0000 0.0000 16.9226 0.0000
# 6 0.0000 0.0000 0.0000 0.0000 0.0000 33.3028
#
#
#
# Elastic Compliance Matrix: (Units=1/GPa)
#
#
# Indices 1 2 3 4 5 6 
#
# 1 0.008431 -0.006532 -0.002825 0.000000 0.000000 0.000000
# 2 -0.006532 0.027660 -0.008587 0.000000 0.000000 0.000000
# 3 -0.002825 -0.008587 0.018806 0.000000 0.000000 0.000000
# 4 0.000000 0.000000 0.000000 0.071709 0.000000 0.000000
# 5 0.000000 0.000000 0.000000 0.000000 0.059092 0.000000
# 6 0.000000 0.000000 0.000000 0.000000 0.000000 0.030028
#
#
# Mechanical properties :
#
#
# Convention : Reuss Voigt Hill
#
# Bulk Modulus (GPa) = 52.60958 70.22815 61.41886
# Shear Modulus (GPa) = 19.38342 24.25823 21.82082
#
# Velocity S-wave (km/s) = 3.36686 3.76651 3.57228
# Velocity P-wave (km/s) = 6.77357 7.74506 7.27555
#
# Compressibility (1/GPa) = 0.01900794
#
# Stress axis : x y z
#
# Youngs Moduli (GPa) = 118.60714 36.15271 53.17397
#
# Poissons Ratio (x) = 0.23616 0.15024
# Poissons Ratio (y) = 0.77477 0.45662
# Poissons Ratio (z) = 0.33511 0.31046
#
# Static dielectric constant tensor:
#      x y z
#    x 1.583380 0.000000 0.000000 
#    y 0.000000 1.575730 0.000000 
#    z 0.000000 0.000000 1.565870 
# 
# From -- ./inp_files/16349.got.cif
#   From: 2010.05.17/outbox.cif.g08.bks.cpg/sg39_9_cif.got.tgz:16349.got - 2010.06.03 18:22:40.
