data_PCOD9359866
_publ_section_title
;
Structure prediction by ZEFSAII (Michael W. Deem and Ramdas Pophale) SiO2 
 PCOD9359866
Probable space group: A B M 2
;
_chemical_formula_sum "Si O2"
_cell_formula_units_Z 64
_cell_length_a 15.183954
_cell_length_b 8.271389
_cell_length_c 25.641794
_cell_angle_alpha 90.000000
_cell_angle_beta 90.000000
_cell_angle_gamma 90.000000
_cell_volume 3220.414195
_symmetry_space_group_name_H-M "A B M 2"
_symmetry_group_IT_number 39
_symmetry_cell_setting 'orthorhombic'
loop_
_space_group_symop_operation_xyz
x,y,z
-x,-y,z
-x,1/2+y,z
x,1/2-y,z
x,1/2+y,1/2+z
-x,1/2-y,1/2+z
-x,y,1/2+z
x,-y,1/2+z
loop_
_atom_site_type_symbol
_atom_site_label
_atom_site_fract_x
_atom_site_fract_y
_atom_site_fract_z
Si Si1 0.840670 0.061892 0.599550
Si Si2 0.908576 0.939634 0.496355
Si Si3 0.348045 0.557067 0.067068
Si Si4 0.101881 0.554297 0.812778
Si Si5 0.407068 0.944416 0.677569
Si Si6 0.595243 0.944295 0.451267
Si Si7 0.221809 0.552110 0.910266
Si Si8 0.787910 0.447297 0.711574
O O1 0.862746 0.250000 0.601647
O O2 0.835524 0.996973 0.658305
O O3 0.901432 0.980696 0.556897
O O4 0.742653 0.036100 0.577120
O O5 0.906262 0.750000 0.491000
O O6 0.827265 0.003666 0.462874
O O7 0.000000 0.000000 0.473724
O O8 0.330193 0.750000 0.064068
O O9 0.402171 0.520211 0.119448
O O10 0.389576 0.505924 0.011930
O O11 0.100851 0.750000 0.812953
O O12 0.161012 0.500554 0.862121
O O13 0.155978 0.500397 0.761383
O O14 0.000000 0.500000 0.814147
O O15 0.406222 0.750000 0.673120
O O16 0.315815 0.993300 0.706853
O O17 0.500000 0.000000 0.701642
O O18 0.596563 0.750000 0.451355
O O19 0.677132 0.000955 0.415877
O O20 0.500000 0.000000 0.433347
O O21 0.223540 0.750000 0.908906
O O22 0.788019 0.250000 0.711085
#
# Coordination Sequence:
#
# PCOD9359866 Si02
#       8
#     8   8   8   8   8   8   8   8
#     4  10  19  33  52  78 112 147 182 221 271 328
#     4  11  21  35  53  79 110 143 182 223 274 338
#     4  10  18  31  51  75 110 149 187 225 268 321
#     4  10  20  39  64  83 103 137 180 230 281 328
#     4  10  19  32  50  77 112 148 190 227 268 325
#     4  10  20  34  51  77 109 144 181 219 264 321
#     4   9  19  37  58  78 108 143 179 224 276 331
#     4   8  18  35  55  79 108 141 181 223 271 330
#
# _framework density 19.87322
#
# number of rings (size 3 to 8) (size 9 to 14) (size 15 to 20)
#    0.000    2.250    1.250    3.000    0.000    2.500 
#    0.000    6.875    0.000    0.000    0.000    0.000 
#    0.000    0.000    0.000    0.000    0.000    0.000 
#
# Total GULP energy -178433.559987 kJ/mol
# GULP energy per Si atom -5576.048750 kJ/mol
# Density = 1.982799 g / cm^3
# Si number density = 19.873220 Si / 1000 Ang^3
#
#
#
# Elastic Constant Matrix: (Units=GPa)
#
#
# Indices 1 2 3 4 5 6 
#
# 1 161.1787 4.2678 79.7146 0.0000 0.0000 0.0000
# 2 4.2678 13.5949 13.0702 0.0000 0.0000 0.0000
# 3 79.7146 13.0702 119.6096 0.0000 0.0000 0.0000
# 4 0.0000 0.0000 0.0000 13.2971 0.0000 0.0000
# 5 0.0000 0.0000 0.0000 0.0000 21.9415 0.0000
# 6 0.0000 0.0000 0.0000 0.0000 0.0000 31.9124
#
#
#
# Elastic Compliance Matrix: (Units=1/GPa)
#
#
# Indices 1 2 3 4 5 6 
#
# 1 0.009396 0.003431 -0.006637 0.000000 0.000000 0.000000
# 2 0.003431 0.083444 -0.011405 0.000000 0.000000 0.000000
# 3 -0.006637 -0.011405 0.014030 0.000000 0.000000 0.000000
# 4 0.000000 0.000000 0.000000 0.075204 0.000000 0.000000
# 5 0.000000 0.000000 0.000000 0.000000 0.045576 0.000000
# 6 0.000000 0.000000 0.000000 0.000000 0.000000 0.031336
#
#
# Mechanical properties :
#
#
# Convention : Reuss Voigt Hill
#
# Bulk Modulus (GPa) = 12.87849 54.27648 33.57748
# Shear Modulus (GPa) = 15.91898 26.58559 21.25228
#
# Velocity S-wave (km/s) = 2.83331 3.66151 3.27371
# Velocity P-wave (km/s) = 4.14704 6.72653 5.58767
#
# Compressibility (1/GPa) = 0.07764887
#
# Stress axis : x y z
#
# Youngs Moduli (GPa) = 106.43002 11.98402 71.27610
#
# Poissons Ratio (x) = -0.04112 0.47305
# Poissons Ratio (y) = -0.36517 0.81290
# Poissons Ratio (z) = 0.70636 0.13668
#
# Static dielectric constant tensor:
#      x y z
#    x 1.729190 0.000000 0.000000 
#    y 0.000000 1.707600 0.000000 
#    z 0.000000 0.000000 1.715880 
# 
# From -- ./inp_files/16177.got.cif
#   From: 2010.05.17/outbox.cif.g08.bks.cpg/sg39_9_cif.got.tgz:16177.got - 2010.06.03 18:22:40.
