data_PCOD9359776
_publ_section_title
;
Structure prediction by ZEFSAII (Michael W. Deem and Ramdas Pophale) SiO2 
 PCOD9359776
Probable space group: A B M 2
;
_chemical_formula_sum "Si O2"
_cell_formula_units_Z 40
_cell_length_a 10.244198
_cell_length_b 12.140318
_cell_length_c 13.586297
_cell_angle_alpha 90.000000
_cell_angle_beta 90.000000
_cell_angle_gamma 90.000000
_cell_volume 1689.698158
_symmetry_space_group_name_H-M "A B M 2"
_symmetry_group_IT_number 39
_symmetry_cell_setting 'orthorhombic'
loop_
_space_group_symop_operation_xyz
x,y,z
-x,-y,z
-x,1/2+y,z
x,1/2-y,z
x,1/2+y,1/2+z
-x,1/2-y,1/2+z
-x,y,1/2+z
x,-y,1/2+z
loop_
_atom_site_type_symbol
_atom_site_label
_atom_site_fract_x
_atom_site_fract_y
_atom_site_fract_z
Si Si1 0.500000 0.500000 0.313581
Si Si2 0.163178 0.750000 0.736901
Si Si3 0.223494 0.250000 0.443290
Si Si4 0.466213 0.250000 0.591631
Si Si5 0.133059 0.750000 0.242109
Si Si6 0.673651 0.074203 0.637857
Si Si7 0.871714 0.572837 0.567746
Si Si8 0.404974 0.250000 0.824034
O O1 0.618896 0.522852 0.238162
O O2 0.463633 0.626555 0.356407
O O3 0.203139 0.852495 0.670589
O O4 0.017138 0.750000 0.775471
O O5 0.259289 0.750000 0.830124
O O6 0.348093 0.250000 0.515813
O O7 0.133311 0.352212 0.472060
O O8 0.561336 0.145234 0.587612
O O9 0.422837 0.250000 0.705443
O O10 0.140064 0.853903 0.166911
O O11 0.245336 0.750000 0.325450
O O12 0.734443 0.989786 0.563189
O O13 0.000000 0.500000 0.570052
#
# Coordination Sequence:
#
# PCOD9359776 Si02
#       8
#     4   4   4   4   4   8   8   4
#     4  10  18  32  56  92 120 154 214 282 318 374
#     4  11  24  39  60  95 136 162 208 290 347 384
#     4  11  24  42  57  90 135 165 201 282 357 380
#     4   9  18  34  62  89 122 165 215 263 327 403
#     4  11  19  36  60  90 122 171 219 269 320 399
#     4  10  19  35  64  95 115 165 226 266 318 401
#     4  11  20  37  63  88 121 168 224 268 315 405
#     4  10  17  31  57  92 123 159 221 276 317 384
#
# _framework density 23.672867
#
# number of rings (size 3 to 8) (size 9 to 14) (size 15 to 20)
#    0.000    1.600    6.000    1.800    0.000    0.000 
#    3.600    2.000    0.000    7.200    0.000    0.000 
#    0.000    0.000    0.000    0.000    0.000    0.000 
#
# Total GULP energy -111516.833098 kJ/mol
# GULP energy per Si atom -5575.841655 kJ/mol
# Density = 2.361899 g / cm^3
# Si number density = 23.672867 Si / 1000 Ang^3
#
#
#
# Elastic Constant Matrix: (Units=GPa)
#
#
# Indices 1 2 3 4 5 6 
#
# 1 123.9690 48.8252 -1.3145 0.0000 0.0000 0.0000
# 2 48.8252 130.4053 8.7835 0.0000 0.0000 0.0000
# 3 -1.3145 8.7835 52.7611 0.0000 0.0000 0.0000
# 4 0.0000 0.0000 0.0000 -42.4134 0.0000 0.0000
# 5 0.0000 0.0000 0.0000 0.0000 13.4550 0.0000
# 6 0.0000 0.0000 0.0000 0.0000 0.0000 27.1407
#
#
#
# Elastic Compliance Matrix: (Units=1/GPa)
#
#
# Indices 1 2 3 4 5 6 
#
# 1 0.009498 -0.003613 0.000838 0.000000 0.000000 0.000000
# 2 -0.003613 0.009129 -0.001610 0.000000 0.000000 0.000000
# 3 0.000838 -0.001610 0.019242 0.000000 0.000000 0.000000
# 4 0.000000 0.000000 0.000000 -0.023577 0.000000 0.000000
# 5 0.000000 0.000000 0.000000 0.000000 0.074322 0.000000
# 6 0.000000 0.000000 0.000000 0.000000 0.000000 0.036845
#
#
# Mechanical properties :
#
#
# Convention : Reuss Voigt Hill
#
# Bulk Modulus (GPa) = 34.36305 46.63596 40.49951
# Shear Modulus (GPa) = 34.73943 16.35922 25.54932
#
# Velocity S-wave (km/s) = 3.83492 2.63164 3.28878
# Velocity P-wave (km/s) = 5.84433 5.38303 5.61841
#
# Compressibility (1/GPa) = 0.02910102
#
# Stress axis : x y z
#
# Youngs Moduli (GPa) = 105.28210 109.53535 51.96902
#
# Poissons Ratio (x) = 0.39572 -0.04355
# Poissons Ratio (y) = 0.38035 0.08366
# Poissons Ratio (z) = -0.08824 0.17634
#
# Static dielectric constant tensor:
#      x y z
#    x 1.930890 0.000000 0.000000 
#    y 0.000000 2.073010 0.000000 
#    z 0.000000 0.000000 1.833830 
# 
# From -- ./inp_files/9112.got.cif
#   From: 2010.05.17/outbox.cif.g08.bks.cpg/sg39_5_cif.got.tgz:9112.got - 2010.06.03 18:22:40.
