data_PCOD9359382
_publ_section_title
;
Structure prediction by ZEFSAII (Michael W. Deem and Ramdas Pophale) SiO2 
 PCOD9359382
Probable space group: A M M 2
;
_chemical_formula_sum "Si O2"
_cell_formula_units_Z 64
_cell_length_a 8.491277
_cell_length_b 20.223750
_cell_length_c 21.325843
_cell_angle_alpha 90.000000
_cell_angle_beta 90.000000
_cell_angle_gamma 90.000000
_cell_volume 3662.190268
_symmetry_space_group_name_H-M "A M M 2"
_symmetry_group_IT_number 38
_symmetry_cell_setting 'orthorhombic'
loop_
_space_group_symop_operation_xyz
x,y,z
-x,-y,z
-x,y,z
x,-y,z
x,1/2+y,1/2+z
-x,1/2-y,1/2+z
-x,1/2+y,1/2+z
x,1/2-y,1/2+z
loop_
_atom_site_type_symbol
_atom_site_label
_atom_site_fract_x
_atom_site_fract_y
_atom_site_fract_z
Si Si1 0.307934 0.211911 0.542640
Si Si2 0.687782 0.709757 0.665126
Si Si3 0.810183 0.574701 0.468411
Si Si4 0.188160 0.712271 0.798982
Si Si5 0.809777 0.573159 0.850696
Si Si6 0.687953 0.708774 0.418046
Si Si7 0.189911 0.925748 0.115374
Si Si8 0.309634 0.073297 0.493032
O O1 0.500000 0.213547 0.543408
O O2 0.252578 0.247603 0.605761
O O3 0.257407 0.251753 0.480456
O O4 0.258871 0.135764 0.534238
O O5 0.500000 0.712439 0.664841
O O6 0.749207 0.734329 0.731750
O O7 0.741043 0.634281 0.654332
O O8 0.764106 0.500000 0.450171
O O9 0.736347 0.632947 0.428121
O O10 0.766654 0.583398 0.541932
O O11 0.000000 0.578873 0.465105
O O12 0.245982 0.637141 0.812848
O O13 0.241558 0.757981 0.856328
O O14 0.000000 0.710891 0.797150
O O15 0.756777 0.500000 0.829025
O O16 0.755435 0.581116 0.922622
O O17 0.000000 0.573306 0.849178
O O18 0.500000 0.714380 0.414983
O O19 0.000000 0.923349 0.119375
O O20 0.238961 0.000000 0.134331
O O21 0.500000 0.074966 0.489258
O O22 0.262894 0.000000 0.515630
#
# Coordination Sequence:
#
# PCOD9359382 Si02
#       8
#     8   8   8   8   8   8   8   8
#     4   9  18  32  51  78 107 133 169 217 270 314
#     4  11  22  36  52  74 106 143 179 223 271 320
#     4   9  18  33  54  81 111 141 176 219 266 319
#     4  11  23  37  52  75 106 144 184 222 267 323
#     4   9  18  32  49  71 101 135 170 209 253 303
#     4  11  20  34  56  81 108 139 177 226 272 318
#     4   9  18  33  52  75 106 142 178 216 260 316
#     4   9  16  29  52  78 103 131 165 207 256 310
#
# _framework density 17.475881000000001
#
# number of rings (size 3 to 8) (size 9 to 14) (size 15 to 20)
#    0.000    2.250    2.500    1.875    0.000    1.500 
#    0.000    3.750    0.000    0.750    0.000    1.750 
#    0.000    0.000    0.000    0.000    0.000    0.000 
#
# Total GULP energy -178518.223520 kJ/mol
# GULP energy per Si atom -5578.694485 kJ/mol
# Density = 1.743610 g / cm^3
# Si number density = 17.475881 Si / 1000 Ang^3
#
#
#
# Elastic Constant Matrix: (Units=GPa)
#
#
# Indices 1 2 3 4 5 6 
#
# 1 16.1678 15.4219 19.9600 0.0000 0.0000 0.0000
# 2 15.4219 110.8664 64.5025 0.0000 0.0000 0.0000
# 3 19.9600 64.5025 117.6874 0.0000 0.0000 0.0000
# 4 0.0000 0.0000 0.0000 22.2499 0.0000 0.0000
# 5 0.0000 0.0000 0.0000 0.0000 22.4088 0.0000
# 6 0.0000 0.0000 0.0000 0.0000 0.0000 20.9135
#
#
#
# Elastic Compliance Matrix: (Units=1/GPa)
#
#
# Indices 1 2 3 4 5 6 
#
# 1 0.079894 -0.004742 -0.010951 0.000000 0.000000 0.000000
# 2 -0.004742 0.013524 -0.006608 0.000000 0.000000 0.000000
# 3 -0.010951 -0.006608 0.013976 0.000000 0.000000 0.000000
# 4 0.000000 0.000000 0.000000 0.044944 0.000000 0.000000
# 5 0.000000 0.000000 0.000000 0.000000 0.044625 0.000000
# 6 0.000000 0.000000 0.000000 0.000000 0.000000 0.047816
#
#
# Mechanical properties :
#
#
# Convention : Reuss Voigt Hill
#
# Bulk Modulus (GPa) = 15.92561 49.38782 32.65671
# Shear Modulus (GPa) = 16.11275 22.77025 19.44150
#
# Velocity S-wave (km/s) = 3.03974 3.61356 3.33900
# Velocity P-wave (km/s) = 4.63171 6.76257 5.79591
#
# Compressibility (1/GPa) = 0.06279194
#
# Stress axis : x y z
#
# Youngs Moduli (GPa) = 12.51654 73.94200 71.55028
#
# Poissons Ratio (x) = 0.35064 0.78355
# Poissons Ratio (y) = 0.05936 0.47281
# Poissons Ratio (z) = 0.13707 0.48861
#
# Static dielectric constant tensor:
#      x y z
#    x 1.601180 0.000000 0.000000 
#    y 0.000000 1.615520 0.000000 
#    z 0.000000 0.000000 1.574830 
# 
# From -- ./inp_files/17193.got.cif
#   From: 2010.05.17/outbox.cif.g08.bks.cpg/sg38_9_cif.got.tgz:17193.got - 2010.06.03 18:07:57.
