data_PCOD9359499
_publ_section_title
;
Structure prediction by ZEFSAII (Michael W. Deem and Ramdas Pophale) SiO2 
 PCOD9359499
Probable space group: A M M 2
;
_chemical_formula_sum "Si O2"
_cell_formula_units_Z 56
_cell_length_a 20.167194
_cell_length_b 14.787399
_cell_length_c 7.212555
_cell_angle_alpha 90.000000
_cell_angle_beta 90.000000
_cell_angle_gamma 90.000000
_cell_volume 2150.930636
_symmetry_space_group_name_H-M "A M M 2"
_symmetry_group_IT_number 38
_symmetry_cell_setting 'orthorhombic'
loop_
_space_group_symop_operation_xyz
x,y,z
-x,-y,z
-x,y,z
x,-y,z
x,1/2+y,1/2+z
-x,1/2-y,1/2+z
-x,1/2+y,1/2+z
x,1/2-y,1/2+z
loop_
_atom_site_type_symbol
_atom_site_label
_atom_site_fract_x
_atom_site_fract_y
_atom_site_fract_z
Si Si1 0.858916 0.107957 0.247670
Si Si2 0.286070 0.856953 0.817644
Si Si3 0.571447 0.141019 0.258407
Si Si4 0.000000 0.894122 0.264158
Si Si5 0.000000 0.605878 0.310702
Si Si6 0.858916 0.107957 0.827189
Si Si7 0.428553 0.858980 0.816459
Si Si8 0.286070 0.143047 0.257219
O O1 0.786353 0.119235 0.333528
O O2 0.928691 0.143535 0.326852
O O3 0.867620 0.000000 0.235458
O O4 0.854153 0.145228 0.037430
O O5 0.213647 0.880764 0.741332
O O6 0.357050 0.892805 0.746776
O O7 0.290157 0.750000 0.787432
O O8 0.284359 0.879402 0.037431
O O9 0.500000 0.107823 0.328876
O O10 0.570947 0.249999 0.287435
O O11 0.642950 0.107194 0.328087
O O12 0.571732 0.125246 0.037433
O O13 0.000000 0.000000 0.317750
O O14 0.000000 0.890936 0.037430
O O15 0.928691 0.643535 0.248007
O O16 0.000000 0.500000 0.257111
O O17 0.867620 0.000000 0.839400
O O18 0.500000 0.892176 0.745989
#
# Coordination Sequence:
#
# PCOD9359499 Si02
#       8
#     8   8   8   4   4   8   8   8
#     4   8  13  22  37  55  73  95 124 154 181 211
#     4   9  16  25  38  56  77  98 120 150 185 218
#     4   8  13  21  33  49  69  93 120 147 174 207
#     4   7  10  18  33  52  71  91 120 155 180 202
#     4   7  10  18  33  52  71  91 120 155 180 202
#     4   8  13  22  37  55  73  95 124 154 181 211
#     4   8  13  21  33  49  69  93 120 147 174 207
#     4   9  16  25  38  56  77  98 120 150 185 218
#
# _framework density 26.035243000000001
#
# number of rings (size 3 to 8) (size 9 to 14) (size 15 to 20)
#    0.000    3.857    0.000    1.714    0.000    0.000 
#    0.000    0.714    0.000    1.714    0.000    6.000 
#    0.000    3.429    0.000   46.286    0.000   21.714 
#
# Total GULP energy -155921.643009 kJ/mol
# GULP energy per Si atom -5568.630107 kJ/mol
# Density = 2.597599 g / cm^3
# Si number density = 26.035243 Si / 1000 Ang^3
#
#
#
# Elastic Constant Matrix: (Units=GPa)
#
#
# Indices 1 2 3 4 5 6 
#
# 1 436.2791 18.1154 26.6381 0.0000 0.0000 0.0000
# 2 18.1154 64.2869 -11.4877 0.0000 0.0000 0.0000
# 3 26.6381 -11.4877 136.2719 0.0000 0.0000 0.0000
# 4 0.0000 0.0000 0.0000 -9.1025 0.0000 0.0000
# 5 0.0000 0.0000 0.0000 0.0000 -35.4918 0.0000
# 6 0.0000 0.0000 0.0000 0.0000 0.0000 28.1624
#
#
#
# Elastic Compliance Matrix: (Units=1/GPa)
#
#
# Indices 1 2 3 4 5 6 
#
# 1 0.002356 -0.000757 -0.000524 0.000000 0.000000 0.000000
# 2 -0.000757 0.016037 0.001500 0.000000 0.000000 0.000000
# 3 -0.000524 0.001500 0.007567 0.000000 0.000000 0.000000
# 4 0.000000 0.000000 0.000000 -0.109859 0.000000 0.000000
# 5 0.000000 0.000000 0.000000 0.000000 -0.028176 0.000000
# 6 0.000000 0.000000 0.000000 0.000000 0.000000 0.035508
#
#
# Mechanical properties :
#
#
# Convention : Reuss Voigt Hill
#
# Bulk Modulus (GPa) = 37.88465 78.15215 58.01840
# Shear Modulus (GPa) = -73.30863 36.95175 -18.17844
#
# Velocity S-wave (km/s) = -5.31212 3.77144 -2.64526
# Velocity P-wave (km/s) = 4.80020 7.00343 3.60598
#
# Compressibility (1/GPa) = 0.02639591
#
# Stress axis : x y z
#
# Youngs Moduli (GPa) = 424.52453 62.35672 132.14910
#
# Poissons Ratio (x) = 0.04723 0.06929
# Poissons Ratio (y) = 0.32156 -0.19822
# Poissons Ratio (z) = 0.22259 -0.09353
#
# Static dielectric constant tensor:
#      x y z
#    x 2.160620 0.000000 0.000000 
#    y 0.000000 2.002060 0.000000 
#    z 0.000000 0.000000 2.008440 
# 
# From -- ./inp_files/6860.got.cif
#   From: 2010.05.17/outbox.cif.g08.bks.cpg/sg38_4_cif.got.tgz:6860.got - 2010.06.03 18:07:57.
