data_PCOD9359829
_publ_section_title
;
Structure prediction by ZEFSAII (Michael W. Deem and Ramdas Pophale) SiO2 
 PCOD9359829
Probable space group: A B M 2
;
_chemical_formula_sum "Si O2"
_cell_formula_units_Z 60
_cell_length_a 15.736976
_cell_length_b 9.627460
_cell_length_c 22.654944
_cell_angle_alpha 90.000000
_cell_angle_beta 90.000000
_cell_angle_gamma 90.000000
_cell_volume 3432.385024
_symmetry_space_group_name_H-M "A B M 2"
_symmetry_group_IT_number 39
_symmetry_cell_setting 'orthorhombic'
loop_
_space_group_symop_operation_xyz
x,y,z
-x,-y,z
-x,1/2+y,z
x,1/2-y,z
x,1/2+y,1/2+z
-x,1/2-y,1/2+z
-x,y,1/2+z
x,-y,1/2+z
loop_
_atom_site_type_symbol
_atom_site_label
_atom_site_fract_x
_atom_site_fract_y
_atom_site_fract_z
Si Si1 0.262359 0.583843 0.429000
Si Si2 0.172051 0.915641 0.548452
Si Si3 0.585054 0.913785 0.228538
Si Si4 0.000000 0.000000 0.983844
Si Si5 0.116047 0.600522 0.884939
Si Si6 0.761853 0.419325 0.674615
Si Si7 0.586820 0.084956 0.868993
Si Si8 0.077780 0.590871 0.748492
O O1 0.273887 0.750000 0.421937
O O2 0.239901 0.551591 0.497168
O O3 0.178412 0.527856 0.395778
O O4 0.340014 0.494296 0.404649
O O5 0.169828 0.750000 0.553377
O O6 0.078613 0.956610 0.525175
O O7 0.202976 0.970018 0.611622
O O8 0.570827 0.750000 0.216499
O O9 0.667359 0.964207 0.192440
O O10 0.604661 0.925531 0.298590
O O11 0.500000 0.000000 0.216136
O O12 0.045139 0.899174 0.936070
O O13 0.162854 0.750000 0.888016
O O14 0.079412 0.589636 0.819437
O O15 0.758040 0.250000 0.673775
O O16 0.831653 0.457651 0.723652
O O17 0.580068 0.250000 0.882904
O O18 0.500000 0.000000 0.879667
O O19 0.066179 0.750000 0.729130
O O20 0.000000 0.500000 0.726343
#
# Coordination Sequence:
#
# PCOD9359829 Si02
#       8
#     8   8   8   4   8   8   8   8
#     4  10  20  33  51  76 104 137 177 216 258 309
#     4   9  19  33  50  72 100 140 183 218 257 310
#     4   9  18  34  58  82 105 134 171 215 266 322
#     4  10  18  30  50  74  98 138 180 228 258 314
#     4  10  19  32  50  73 103 135 171 218 272 319
#     4   9  18  34  53  73 103 142 179 213 261 321
#     4  10  19  33  55  83 111 137 169 211 267 323
#     4  10  20  33  51  75 104 138 174 215 267 319
#
# _framework density 17.480556
#
# number of rings (size 3 to 8) (size 9 to 14) (size 15 to 20)
#    0.000    2.400    0.667    2.000    0.933    3.733 
#    0.000    1.333    0.000    7.200    0.000    0.000 
#    0.000    0.000    0.000    0.000    0.000    0.000 
#
# Total GULP energy -167065.812551 kJ/mol
# GULP energy per Si atom -5568.860418 kJ/mol
# Density = 1.744077 g / cm^3
# Si number density = 17.480556 Si / 1000 Ang^3
#
#
#
# Elastic Constant Matrix: (Units=GPa)
#
#
# Indices 1 2 3 4 5 6 
#
# 1 144.5563 53.2182 71.9507 0.0000 0.0000 0.0000
# 2 53.2182 66.3556 35.5867 0.0000 0.0000 0.0000
# 3 71.9507 35.5867 77.1754 0.0000 0.0000 0.0000
# 4 0.0000 0.0000 0.0000 16.0606 0.0000 0.0000
# 5 0.0000 0.0000 0.0000 0.0000 25.9873 0.0000
# 6 0.0000 0.0000 0.0000 0.0000 0.0000 27.9912
#
#
#
# Elastic Compliance Matrix: (Units=1/GPa)
#
#
# Indices 1 2 3 4 5 6 
#
# 1 0.014402 -0.005779 -0.010762 0.000000 0.000000 0.000000
# 2 -0.005779 0.022340 -0.004914 0.000000 0.000000 0.000000
# 3 -0.010762 -0.004914 0.025257 0.000000 0.000000 0.000000
# 4 0.000000 0.000000 0.000000 0.062264 0.000000 0.000000
# 5 0.000000 0.000000 0.000000 0.000000 0.038480 0.000000
# 6 0.000000 0.000000 0.000000 0.000000 0.000000 0.035726
#
#
# Mechanical properties :
#
#
# Convention : Reuss Voigt Hill
#
# Bulk Modulus (GPa) = 52.38503 67.73317 60.05910
# Shear Modulus (GPa) = 20.18229 22.49660 21.33944
#
# Velocity S-wave (km/s) = 3.40156 3.59130 3.49772
# Velocity P-wave (km/s) = 6.74241 7.48521 7.12350
#
# Compressibility (1/GPa) = 0.01908942
#
# Stress axis : x y z
#
# Youngs Moduli (GPa) = 69.43537 44.76224 39.59299
#
# Poissons Ratio (x) = 0.25867 0.42611
# Poissons Ratio (y) = 0.40125 0.19456
# Poissons Ratio (z) = 0.74728 0.21996
#
# Static dielectric constant tensor:
#      x y z
#    x 1.598380 0.000000 0.000000 
#    y 0.000000 1.614540 0.000000 
#    z 0.000000 0.000000 1.605050 
# 
# From -- ./inp_files/16088.got.cif
#   From: 2010.05.17/outbox.cif.g08.bks.cpg/sg39_9_cif.got.tgz:16088.got - 2010.06.03 18:22:40.
