data_PCOD9359995
_publ_section_title
;
Structure prediction by ZEFSAII (Michael W. Deem and Ramdas Pophale) SiO2 
 PCOD9359995
Probable space group: A B M 2
;
_chemical_formula_sum "Si O2"
_cell_formula_units_Z 52
_cell_length_a 11.775166
_cell_length_b 19.368465
_cell_length_c 12.011957
_cell_angle_alpha 90.000000
_cell_angle_beta 90.000000
_cell_angle_gamma 90.000000
_cell_volume 2739.529682
_symmetry_space_group_name_H-M "A B M 2"
_symmetry_group_IT_number 39
_symmetry_cell_setting 'orthorhombic'
loop_
_space_group_symop_operation_xyz
x,y,z
-x,-y,z
-x,1/2+y,z
x,1/2-y,z
x,1/2+y,1/2+z
-x,1/2-y,1/2+z
-x,y,1/2+z
x,-y,1/2+z
loop_
_atom_site_type_symbol
_atom_site_label
_atom_site_fract_x
_atom_site_fract_y
_atom_site_fract_z
Si Si1 0.756300 0.403394 0.914080
Si Si2 0.051423 0.400081 0.602102
Si Si3 0.794644 0.750000 0.086443
Si Si4 0.208801 0.399813 0.024135
Si Si5 0.047810 0.750000 0.059540
Si Si6 0.207709 0.960416 0.281371
Si Si7 0.209954 0.250000 0.348731
Si Si8 0.628271 0.523368 0.597182
O O1 0.778205 0.460080 0.819214
O O2 0.736224 0.325713 0.871540
O O3 0.868145 0.410453 0.993796
O O4 0.652122 0.427543 0.991652
O O5 0.081038 0.591288 0.573544
O O6 0.070798 0.319122 0.627859
O O7 0.100806 0.444888 0.702219
O O8 0.744218 0.676341 0.052536
O O9 0.819118 0.750000 0.218601
O O10 0.916580 0.750000 0.027542
O O11 0.292336 0.457147 0.073134
O O12 0.200466 0.415504 0.892984
O O13 0.113008 0.750000 0.942967
O O14 0.318040 0.942589 0.207131
O O15 0.500000 0.500000 0.609290
#
# Coordination Sequence:
#
# PCOD9359995 Si02
#       8
#     8   8   4   8   4   8   4   8
#     4   9  20  36  58  85 111 147 189 229 279 345
#     4   9  19  34  54  84 117 147 185 229 277 339
#     4  10  20  34  53  83 117 149 188 231 284 347
#     4  10  22  36  56  85 115 148 188 234 282 345
#     4   8  18  32  50  78 114 157 191 221 270 337
#     4  10  21  35  55  83 115 151 185 231 289 336
#     4  10  18  36  57  77 113 154 189 228 286 342
#     4  10  22  40  59  80 108 144 192 242 286 336
#
# _framework density 18.981362000000001
#
# number of rings (size 3 to 8) (size 9 to 14) (size 15 to 20)
#    0.000    2.462    0.000    0.923    0.000   18.462 
#    0.000    4.615    0.000    0.000    0.000    0.000 
#    0.000    0.000    0.000    0.000    0.000    0.000 
#
# Total GULP energy -144961.810763 kJ/mol
# GULP energy per Si atom -5575.454260 kJ/mol
# Density = 1.893816 g / cm^3
# Si number density = 18.981362 Si / 1000 Ang^3
#
#
#
# Elastic Constant Matrix: (Units=GPa)
#
#
# Indices 1 2 3 4 5 6 
#
# 1 95.8112 17.8227 40.7944 0.0000 0.0000 0.0000
# 2 17.8227 122.2488 59.9437 0.0000 0.0000 0.0000
# 3 40.7944 59.9437 115.9289 0.0000 0.0000 0.0000
# 4 0.0000 0.0000 0.0000 19.3414 0.0000 0.0000
# 5 0.0000 0.0000 0.0000 0.0000 7.7322 0.0000
# 6 0.0000 0.0000 0.0000 0.0000 0.0000 9.5439
#
#
#
# Elastic Compliance Matrix: (Units=1/GPa)
#
#
# Indices 1 2 3 4 5 6 
#
# 1 0.012294 0.000441 -0.004554 0.000000 0.000000 0.000000
# 2 0.000441 0.010974 -0.005830 0.000000 0.000000 0.000000
# 3 -0.004554 -0.005830 0.013243 0.000000 0.000000 0.000000
# 4 0.000000 0.000000 0.000000 0.051703 0.000000 0.000000
# 5 0.000000 0.000000 0.000000 0.000000 0.129328 0.000000
# 6 0.000000 0.000000 0.000000 0.000000 0.000000 0.104779
#
#
# Mechanical properties :
#
#
# Convention : Reuss Voigt Hill
#
# Bulk Modulus (GPa) = 60.14898 63.45671 61.80285
# Shear Modulus (GPa) = 14.37817 21.68538 18.03177
#
# Velocity S-wave (km/s) = 2.75524 3.38369 3.08551
# Velocity P-wave (km/s) = 6.47140 6.98351 6.73233
#
# Compressibility (1/GPa) = 0.01662539
#
# Stress axis : x y z
#
# Youngs Moduli (GPa) = 81.33867 91.12217 75.51238
#
# Poissons Ratio (x) = -0.04016 0.34389
# Poissons Ratio (y) = -0.03585 0.44021
# Poissons Ratio (z) = 0.37043 0.53120
#
# Static dielectric constant tensor:
#      x y z
#    x 1.636740 0.000000 0.000000 
#    y 0.000000 1.753970 0.000000 
#    z 0.000000 0.000000 1.673030 
# 
# From -- ./inp_files/6575.got.cif
#   From: 2010.05.17/outbox.cif.g08.bks.cpg/sg39_4_cif.got.tgz:6575.got - 2010.06.03 18:22:40.
