data_PCOD9359027
_publ_section_title
;
Structure prediction by ZEFSAII (Michael W. Deem and Ramdas Pophale) SiO2 
 PCOD9359027
Probable space group: A M M 2
;
_chemical_formula_sum "Si O2"
_cell_formula_units_Z 32
_cell_length_a 8.128494
_cell_length_b 7.944984
_cell_length_c 24.880000
_cell_angle_alpha 90.000000
_cell_angle_beta 90.000000
_cell_angle_gamma 90.000000
_cell_volume 1606.769179
_symmetry_space_group_name_H-M "A M M 2"
_symmetry_group_IT_number 38
_symmetry_cell_setting 'orthorhombic'
loop_
_space_group_symop_operation_xyz
x,y,z
-x,-y,z
-x,y,z
x,-y,z
x,1/2+y,1/2+z
-x,1/2-y,1/2+z
-x,1/2+y,1/2+z
x,1/2-y,1/2+z
loop_
_atom_site_type_symbol
_atom_site_label
_atom_site_fract_x
_atom_site_fract_y
_atom_site_fract_z
Si Si1 0.297605 0.000000 0.994320
Si Si2 0.801312 0.683939 0.187639
Si Si3 0.696183 0.808264 0.421524
Si Si4 0.304263 0.500000 0.617140
Si Si5 0.803731 0.300360 0.803203
O O1 0.242027 0.167689 0.962808
O O2 0.500000 0.000000 0.993472
O O3 0.241886 0.000000 0.055958
O O4 0.747247 0.500000 0.168409
O O5 0.748959 0.835387 0.149780
O O6 0.743044 0.712466 0.249006
O O7 0.000000 0.686643 0.189729
O O8 0.500000 0.818496 0.428662
O O9 0.729007 0.751188 0.360310
O O10 0.762757 0.000000 0.427844
O O11 0.500000 0.500000 0.614485
O O12 0.773888 0.500000 0.796213
O O13 0.000000 0.274318 0.806998
#
# Coordination Sequence:
#
# PCOD9359027 Si02
#       5
#     4   8   8   4   8
#     4   9  20  37  55  77 107 147 184 223 278 333
#     4  10  21  38  59  82 113 154 191 230 288 345
#     4   9  18  33  53  77 106 140 177 220 272 330
#     4  11  23  39  59  83 115 151 196 243 280 331
#     4   9  17  32  54  79 111 143 175 223 280 334
#
# _framework density 19.915741000000001
#
# number of rings (size 3 to 8) (size 9 to 14) (size 15 to 20)
#    0.000    2.500    1.250    0.375    1.750    2.500 
#    0.000    5.000    0.000    3.000    0.000    0.000 
#    0.000    0.000    0.000    0.000    0.000    0.000 
#
# Total GULP energy -89281.266546 kJ/mol
# GULP energy per Si atom -5580.079159 kJ/mol
# Density = 1.987041 g / cm^3
# Si number density = 19.915741 Si / 1000 Ang^3
#
#
#
# Elastic Constant Matrix: (Units=GPa)
#
#
# Indices 1 2 3 4 5 6 
#
# 1 2.3076 20.9918 11.9645 0.0000 0.0000 0.0000
# 2 20.9918 159.2250 115.2814 0.0000 0.0000 0.0000
# 3 11.9645 115.2814 172.3743 0.0000 0.0000 0.0000
# 4 0.0000 0.0000 0.0000 0.9605 0.0000 0.0000
# 5 0.0000 0.0000 0.0000 0.0000 36.4723 0.0000
# 6 0.0000 0.0000 0.0000 0.0000 0.0000 9.6181
#
#
#
# Elastic Compliance Matrix: (Units=1/GPa)
#
#
# Indices 1 2 3 4 5 6 
#
# 1 -1.731599 0.273890 -0.062983 0.000000 0.000000 0.000000
# 2 0.273890 -0.031145 0.001819 0.000000 0.000000 0.000000
# 3 -0.062983 0.001819 0.008957 0.000000 0.000000 0.000000
# 4 0.000000 0.000000 0.000000 1.041156 0.000000 0.000000
# 5 0.000000 0.000000 0.000000 0.000000 0.027418 0.000000
# 6 0.000000 0.000000 0.000000 0.000000 0.000000 0.103971
#
#
# Mechanical properties :
#
#
# Convention : Reuss Voigt Hill
#
# Bulk Modulus (GPa) = -0.75282 70.04248 34.64483
# Shear Modulus (GPa) = -3.44953 21.78812 9.16929
#
# Velocity S-wave (km/s) = -1.31751 3.31118 2.14803
# Velocity P-wave (km/s) = 1.64111 7.06146 4.85649
#
# Compressibility (1/GPa) = -1.32833677
#
# Stress axis : x y z
#
# Youngs Moduli (GPa) = -0.57750 -32.10749 111.64964
#
# Poissons Ratio (x) = 8.79393 7.03208
# Poissons Ratio (y) = 0.15817 -0.20307
# Poissons Ratio (z) = -0.03637 0.05840
#
# Static dielectric constant tensor:
#      x y z
#    x 1.706130 0.000000 0.000000 
#    y 0.000000 1.724270 0.000000 
#    z 0.000000 0.000000 1.681160 
# 
# From -- ./inp_files/21613.got.cif
#   From: 2010.05.17/outbox.cif.g08.bks.cpg/sg38_11_cif.got.tgz:21613.got - 2010.06.03 18:07:57.
