data_PCOD9359694
_publ_section_title
;
Structure prediction by ZEFSAII (Michael W. Deem and Ramdas Pophale) SiO2 
 PCOD9359694
Probable space group: A B M 2
;
_chemical_formula_sum "Si O2"
_cell_formula_units_Z 64
_cell_length_a 22.613314
_cell_length_b 28.144573
_cell_length_c 5.393520
_cell_angle_alpha 90.000000
_cell_angle_beta 90.000000
_cell_angle_gamma 90.000000
_cell_volume 3432.663015
_symmetry_space_group_name_H-M "A B M 2"
_symmetry_group_IT_number 39
_symmetry_cell_setting 'orthorhombic'
loop_
_space_group_symop_operation_xyz
x,y,z
-x,-y,z
-x,1/2+y,z
x,1/2-y,z
x,1/2+y,1/2+z
-x,1/2-y,1/2+z
-x,y,1/2+z
x,-y,1/2+z
loop_
_atom_site_type_symbol
_atom_site_label
_atom_site_fract_x
_atom_site_fract_y
_atom_site_fract_z
Si Si1 0.647167 0.693955 0.308150
Si Si2 0.568170 0.017447 0.670288
Si Si3 0.270498 0.485263 0.882380
Si Si4 0.277810 0.694172 0.304711
Si Si5 0.538894 0.622226 0.303587
Si Si6 0.797858 0.394250 0.372917
Si Si7 0.024600 0.946897 0.770718
Si Si8 0.839240 0.939226 0.381736
O O1 0.632362 0.750000 0.323934
O O2 0.686806 0.682693 0.551154
O O3 0.589197 0.661986 0.304918
O O4 0.682721 0.686641 0.051446
O O5 0.568149 0.070223 0.781200
O O6 0.500000 0.000000 0.633245
O O7 0.591600 0.016232 0.389647
O O8 0.300099 0.493266 0.143455
O O9 0.257840 0.430122 0.845748
O O10 0.208053 0.516826 0.897079
O O11 0.262075 0.750000 0.295102
O O12 0.222546 0.659098 0.331993
O O13 0.501688 0.626086 0.557550
O O14 0.820216 0.406322 0.649060
O O15 0.838146 0.412454 0.145629
O O16 0.093942 0.953094 0.821731
O O17 0.007731 0.923631 0.507631
O O18 0.000000 0.000000 0.742827
#
# Coordination Sequence:
#
# PCOD9359694 Si02
#       8
#     8   8   8   8   8   8   8   8
#     4  10  23  40  58  80 113 140 166 219 286 341
#     4  10  16  30  49  75 103 134 179 208 251 268
#     4   8  16  25  44  66  96 133 165 201 260 299
#     4  10  21  41  61  79 103 138 177 227 293 336
#     4  12  21  33  58  87 109 147 182 216 255 322
#     4  10  19  31  56  74  96 135 185 226 267 313
#     4  10  21  27  43  67 113 156 186 206 251 311
#     4  10  19  31  47  78 108 145 178 217 266 309
#
# _framework density 18.644416
#
# number of rings (size 3 to 8) (size 9 to 14) (size 15 to 20)
#    0.000    2.000    2.500    2.250   10.500    0.500 
#    0.000    0.000    0.000   13.500    0.000    0.000 
#    0.000   10.000    0.000    0.000    0.000    0.000 
#
# Total GULP energy -178480.532682 kJ/mol
# GULP energy per Si atom -5577.516646 kJ/mol
# Density = 1.860198 g / cm^3
# Si number density = 18.644416 Si / 1000 Ang^3
#
#
#
# Elastic Constant Matrix: (Units=GPa)
#
#
# Indices 1 2 3 4 5 6 
#
# 1 30.5154 18.8586 -0.8015 0.0000 0.0000 0.0000
# 2 18.8586 50.5356 7.6206 0.0000 0.0000 0.0000
# 3 -0.8015 7.6206 127.0518 0.0000 0.0000 0.0000
# 4 0.0000 0.0000 0.0000 13.3248 0.0000 0.0000
# 5 0.0000 0.0000 0.0000 0.0000 30.2545 0.0000
# 6 0.0000 0.0000 0.0000 0.0000 0.0000 19.5125
#
#
#
# Elastic Compliance Matrix: (Units=1/GPa)
#
#
# Indices 1 2 3 4 5 6 
#
# 1 0.042786 -0.016153 0.001239 0.000000 0.000000 0.000000
# 2 -0.016153 0.026067 -0.001665 0.000000 0.000000 0.000000
# 3 0.001239 -0.001665 0.007979 0.000000 0.000000 0.000000
# 4 0.000000 0.000000 0.000000 0.075048 0.000000 0.000000
# 5 0.000000 0.000000 0.000000 0.000000 0.033053 0.000000
# 6 0.000000 0.000000 0.000000 0.000000 0.000000 0.051249
#
#
# Mechanical properties :
#
#
# Convention : Reuss Voigt Hill
#
# Bulk Modulus (GPa) = 22.89823 28.82868 25.86346
# Shear Modulus (GPa) = 17.61189 24.78002 21.19596
#
# Velocity S-wave (km/s) = 3.07680 3.64962 3.37538
# Velocity P-wave (km/s) = 4.99304 5.76676 5.39379
#
# Compressibility (1/GPa) = 0.04367150
#
# Stress axis : x y z
#
# Youngs Moduli (GPa) = 23.37225 38.36235 125.33667
#
# Poissons Ratio (x) = 0.61968 -0.15527
# Poissons Ratio (y) = 0.37754 0.20874
# Poissons Ratio (z) = -0.02895 0.06389
#
# Static dielectric constant tensor:
#      x y z
#    x 1.684370 0.000000 0.000000 
#    y 0.000000 1.675630 0.000000 
#    z 0.000000 0.000000 1.745760 
# 
# From -- ./inp_files/1166.got.cif
#   From: 2010.05.17/outbox.cif.g08.bks.cpg/sg39_1_cif.got.tgz:1166.got - 2010.06.03 18:22:40.
