data_PCOD9359638
_publ_section_title
;
Structure prediction by ZEFSAII (Michael W. Deem and Ramdas Pophale) SiO2 
 PCOD9359638
Probable space group: A M M 2
;
_chemical_formula_sum "Si O2"
_cell_formula_units_Z 32
_cell_length_a 24.000000
_cell_length_b 9.000000
_cell_length_c 15.000000
_cell_angle_alpha 90.000000
_cell_angle_beta 90.000000
_cell_angle_gamma 90.000000
_cell_volume 3240.000000
_symmetry_space_group_name_H-M "A M M 2"
_symmetry_group_IT_number 38
_symmetry_cell_setting 'orthorhombic'
loop_
_space_group_symop_operation_xyz
x,y,z
-x,-y,z
-x,y,z
x,-y,z
x,1/2+y,1/2+z
-x,1/2-y,1/2+z
-x,1/2+y,1/2+z
x,1/2-y,1/2+z
loop_
_atom_site_type_symbol
_atom_site_label
_atom_site_fract_x
_atom_site_fract_y
_atom_site_fract_z
Si Si1 0.937342 0.680278 0.558710
Si Si2 0.564671 0.824400 0.075950
Si Si3 0.746140 0.825528 0.167433
Si Si4 0.362805 0.176707 0.727188
Si Si5 0.152086 0.176908 0.911285
Si Si6 0.127182 0.824552 0.234400
Si Si7 0.387676 0.175054 0.406440
Si Si8 0.738531 0.675345 0.975741
O O1 0.938521 0.500000 0.553229
O O2 0.889237 0.726968 0.490268
O O3 0.916268 0.716424 0.657542
O O4 0.000000 0.734298 0.540324
O O5 0.500000 0.802139 0.100486
O O6 0.605984 0.732614 0.138885
O O7 0.577228 0.000000 0.081731
O O8 0.575752 0.764214 0.977100
O O9 0.700878 0.733455 0.222811
O O10 0.809890 0.807237 0.197163
O O11 0.732181 0.000000 0.173966
O O12 0.740971 0.767911 0.066774
O O13 0.392973 0.255294 0.809387
O O14 0.364212 0.000000 0.733924
O O15 0.122789 0.221566 0.819811
O O16 0.210739 0.262728 0.916982
O O17 0.161636 0.000000 0.918519
O O18 0.120216 0.000000 0.256454
O O19 0.322527 0.192425 0.433701
O O20 0.400743 0.000000 0.407659
O O21 0.746801 0.500000 0.993130
#
# Coordination Sequence:
#
# PCOD9359638 Si02
#       8
#     8   8   8   8   8   8   8   8
#     4   9  19  38  60  81 113 158 204 247 298 359
#     4  11  25  45  68  93 123 163 210 259 308 359
#     4  11  21  37  62  90 124 160 200 249 305 368
#     4  12  25  41  64  95 128 166 206 249 307 369
#     4  11  22  37  59  89 119 157 199 245 303 358
#     4  10  21  38  59  87 118 156 198 244 302 360
#     4  11  24  42  65  94 126 163 205 253 309 366
#     4  11  22  37  61  92 124 159 198 245 304 368
#
# _framework density 9.8765429999999999
#
# number of rings (size 3 to 8) (size 9 to 14) (size 15 to 20)
#    0.000    1.250    2.500    3.750    0.000    7.500 
#    0.000    0.000    0.000    2.625    0.000    0.000 
#    0.000    0.000    0.000    0.000    0.000    0.000 
#
# Total GULP energy -178895.447357 kJ/mol
# GULP energy per Si atom -5590.482730 kJ/mol
# Density = 0.985406 g / cm^3
# Si number density = 9.876543 Si / 1000 Ang^3
#
#
#
# Elastic Constant Matrix: (Units=GPa)
#
#
# Indices 1 2 3 4 5 6 
#
# 1 51.4170 11.1611 -19.5840 0.0000 0.0000 0.0000
# 2 11.1611 41.2833 -10.2928 0.0000 0.0000 0.0000
# 3 -19.5840 -10.2928 47.0406 0.0000 0.0000 0.0000
# 4 0.0000 0.0000 0.0000 33.0865 0.0000 0.0000
# 5 0.0000 0.0000 0.0000 0.0000 9.0988 0.0000
# 6 0.0000 0.0000 0.0000 0.0000 0.0000 12.2045
#
#
#
# Elastic Compliance Matrix: (Units=1/GPa)
#
#
# Indices 1 2 3 4 5 6 
#
# 1 0.023780 -0.004189 0.008983 0.000000 0.000000 0.000000
# 2 -0.004189 0.026359 0.004023 0.000000 0.000000 0.000000
# 3 0.008983 0.004023 0.025879 0.000000 0.000000 0.000000
# 4 0.000000 0.000000 0.000000 0.030224 0.000000 0.000000
# 5 0.000000 0.000000 0.000000 0.000000 0.109905 0.000000
# 6 0.000000 0.000000 0.000000 0.000000 0.000000 0.081937
#
#
# Mechanical properties :
#
#
# Convention : Reuss Voigt Hill
#
# Bulk Modulus (GPa) = 10.67782 11.36772 11.02277
# Shear Modulus (GPa) = 16.04288 21.44174 18.74231
#
# Velocity S-wave (km/s) = 2.85295 3.29825 3.08365
# Velocity P-wave (km/s) = 4.03359 4.50244 4.27445
#
# Compressibility (1/GPa) = 0.09365209
#
# Stress axis : x y z
#
# Youngs Moduli (GPa) = 42.05244 37.93833 38.64204
#
# Poissons Ratio (x) = 0.15893 -0.34714
# Poissons Ratio (y) = 0.17617 -0.15547
# Poissons Ratio (z) = -0.37777 -0.15264
#
# Static dielectric constant tensor:
#      x y z
#    x 1.685100 0.000000 0.000000 
#    y 0.000000 1.649700 0.000000 
#    z 0.000000 0.000000 1.726530 
# 
# From -- ./inp_files/15814.got.cif
#   From: 2010.05.17/outbox.ucp.g08.bks.cvg/sg38_8_cif.got.tgz:15814.got - 2010.06.11 10:39:43.
