data_PCOD9359548
_publ_section_title
;
Structure prediction by ZEFSAII (Michael W. Deem and Ramdas Pophale) SiO2 
 PCOD9359548
Probable space group: A M M 2
;
_chemical_formula_sum "Si O2"
_cell_formula_units_Z 32
_cell_length_a 9.000000
_cell_length_b 30.000000
_cell_length_c 15.000000
_cell_angle_alpha 90.000000
_cell_angle_beta 90.000000
_cell_angle_gamma 90.000000
_cell_volume 4050.000000
_symmetry_space_group_name_H-M "A M M 2"
_symmetry_group_IT_number 38
_symmetry_cell_setting 'orthorhombic'
loop_
_space_group_symop_operation_xyz
x,y,z
-x,-y,z
-x,y,z
x,-y,z
x,1/2+y,1/2+z
-x,1/2-y,1/2+z
-x,1/2+y,1/2+z
x,1/2-y,1/2+z
loop_
_atom_site_type_symbol
_atom_site_label
_atom_site_fract_x
_atom_site_fract_y
_atom_site_fract_z
Si Si1 0.179398 0.285890 0.169000
Si Si2 0.680560 0.049752 0.273791
Si Si3 0.330526 0.279879 0.361436
Si Si4 0.177407 0.298615 0.545250
Si Si5 0.824330 0.134210 0.542099
Si Si6 0.321699 0.050642 0.478464
Si Si7 0.332168 0.825793 0.373993
Si Si8 0.677942 0.863809 0.179297
O O1 0.251101 0.285091 0.266331
O O2 0.224875 0.244621 0.104726
O O3 0.221719 0.331151 0.118102
O O4 0.000000 0.283834 0.177184
O O5 0.500000 0.049768 0.274485
O O6 0.723713 0.061044 0.375651
O O7 0.725751 0.086076 0.202191
O O8 0.731812 0.000000 0.254177
O O9 0.500000 0.296415 0.356797
O O10 0.246042 0.299172 0.446853
O O11 0.334986 0.227065 0.379588
O O12 0.234242 0.340620 0.600970
O O13 0.000000 0.297158 0.538834
O O14 0.746349 0.086620 0.543789
O O15 0.777280 0.155705 0.447889
O O16 0.000000 0.129020 0.545882
O O17 0.500000 0.052268 0.481518
O O18 0.275418 0.000000 0.496845
O O19 0.500000 0.843468 0.391454
O O20 0.294428 0.838539 0.272951
O O21 0.500000 0.861851 0.162718
#
# Coordination Sequence:
#
# PCOD9359548 Si02
#       8
#     8   8   8   8   8   8   8   8
#     4  10  22  36  49  69  99 135 168 202 247 299
#     4   8  14  26  46  70  97 129 162 200 245 289
#     4  11  22  35  52  72  96 129 171 216 249 282
#     4  11  22  35  50  70 101 135 166 201 248 302
#     4  11  21  32  48  72 102 136 171 202 244 300
#     4   9  17  31  50  72 100 133 167 204 249 295
#     4  10  19  30  47  71 100 131 166 208 247 283
#     4  10  18  31  49  72  99 130 172 208 240 287
#
# _framework density 7.9012349999999998
#
# number of rings (size 3 to 8) (size 9 to 14) (size 15 to 20)
#    0.000    2.000    3.750    1.875    0.000    2.750 
#    0.000    0.000    0.000    0.375    0.000    0.875 
#    0.000    5.000    0.000    0.000    0.000    0.000 
#
# Total GULP energy -178387.605581 kJ/mol
# GULP energy per Si atom -5574.612674 kJ/mol
# Density = 0.788325 g / cm^3
# Si number density = 7.901235 Si / 1000 Ang^3
#
#
#
# Elastic Constant Matrix: (Units=GPa)
#
#
# Indices 1 2 3 4 5 6 
#
# 1 28.1429 25.1745 31.2189 0.0000 0.0000 0.0000
# 2 25.1745 92.6774 35.6710 0.0000 0.0000 0.0000
# 3 31.2189 35.6710 73.6767 0.0000 0.0000 0.0000
# 4 0.0000 0.0000 0.0000 21.0278 0.0000 0.0000
# 5 0.0000 0.0000 0.0000 0.0000 25.2852 0.0000
# 6 0.0000 0.0000 0.0000 0.0000 0.0000 13.7860
#
#
#
# Elastic Compliance Matrix: (Units=1/GPa)
#
#
# Indices 1 2 3 4 5 6 
#
# 1 0.073678 -0.009829 -0.026461 0.000000 0.000000 0.000000
# 2 -0.009829 0.014573 -0.002891 0.000000 0.000000 0.000000
# 3 -0.026461 -0.002891 0.026184 0.000000 0.000000 0.000000
# 4 0.000000 0.000000 0.000000 0.047556 0.000000 0.000000
# 5 0.000000 0.000000 0.000000 0.000000 0.039549 0.000000
# 6 0.000000 0.000000 0.000000 0.000000 0.000000 0.072537
#
#
# Mechanical properties :
#
#
# Convention : Reuss Voigt Hill
#
# Bulk Modulus (GPa) = 27.72041 42.06955 34.89498
# Shear Modulus (GPa) = 13.71882 18.84865 16.28373
#
# Velocity S-wave (km/s) = 2.94963 3.45739 3.21355
# Velocity P-wave (km/s) = 5.40188 6.52825 5.99159
#
# Compressibility (1/GPa) = 0.03607450
#
# Stress axis : x y z
#
# Youngs Moduli (GPa) = 13.57257 68.62193 38.19061
#
# Poissons Ratio (x) = 0.67449 1.01055
# Poissons Ratio (y) = 0.13340 0.11039
# Poissons Ratio (z) = 0.35914 0.19836
#
# Static dielectric constant tensor:
#      x y z
#    x 1.549030 0.000000 0.000000 
#    y 0.000000 1.564780 0.000000 
#    z 0.000000 0.000000 1.493160 
# 
# From -- ./inp_files/13066.got.cif
#   From: 2010.05.17/outbox.ucp.g08.bks.cvg/sg38_7_cif.got.tgz:13066.got - 2010.06.11 10:39:43.
