data_PCOD9359946
_publ_section_title
;
Structure prediction by ZEFSAII (Michael W. Deem and Ramdas Pophale) SiO2 
 PCOD9359946
Probable space group: A B M 2
;
_chemical_formula_sum "Si O2"
_cell_formula_units_Z 64
_cell_length_a 14.918684
_cell_length_b 8.768023
_cell_length_c 25.477738
_cell_angle_alpha 90.000000
_cell_angle_beta 90.000000
_cell_angle_gamma 90.000000
_cell_volume 3332.675760
_symmetry_space_group_name_H-M "A B M 2"
_symmetry_group_IT_number 39
_symmetry_cell_setting 'orthorhombic'
loop_
_space_group_symop_operation_xyz
x,y,z
-x,-y,z
-x,1/2+y,z
x,1/2-y,z
x,1/2+y,1/2+z
-x,1/2-y,1/2+z
-x,y,1/2+z
x,-y,1/2+z
loop_
_atom_site_type_symbol
_atom_site_label
_atom_site_fract_x
_atom_site_fract_y
_atom_site_fract_z
Si Si1 0.658799 0.425181 0.376580
Si Si2 0.865268 0.925423 0.842000
Si Si3 0.410336 0.066619 0.770042
Si Si4 0.269030 0.933572 0.183221
Si Si5 0.094768 0.931577 0.727957
Si Si6 0.399671 0.934564 0.086888
Si Si7 0.092410 0.067552 0.453585
Si Si8 0.290464 0.067012 0.484349
O O1 0.632667 0.250000 0.387555
O O2 0.758609 0.421507 0.351863
O O3 0.600244 0.491434 0.329419
O O4 0.663448 0.515919 0.430309
O O5 0.898041 0.750000 0.841665
O O6 0.886872 0.002376 0.786605
O O7 0.901240 0.013544 0.892938
O O8 0.415002 0.250000 0.771649
O O9 0.325371 0.026205 0.735181
O O10 0.500000 0.000000 0.745576
O O11 0.255800 0.750000 0.182120
O O12 0.332912 0.975252 0.134637
O O13 0.173969 0.013800 0.189556
O O14 0.091327 0.750000 0.730569
O O15 0.000000 0.000000 0.710643
O O16 0.406814 0.750000 0.086483
O O17 0.500000 0.000000 0.091508
O O18 0.348832 0.985723 0.033759
O O19 0.088905 0.250000 0.455483
O O20 0.185906 0.015366 0.480879
O O21 0.000000 0.000000 0.475829
O O22 0.287601 0.250000 0.486446
#
# Coordination Sequence:
#
# PCOD9359946 Si02
#       8
#     8   8   8   8   8   8   8   8
#     4   9  18  33  53  78 113 153 189 231 285 338
#     4  10  18  33  54  78 114 155 196 235 281 336
#     4  10  20  34  53  81 113 147 186 230 286 347
#     4  10  21  41  62  82 115 151 189 242 292 338
#     4  12  24  37  57  85 117 154 195 235 285 343
#     4  10  22  41  66  89 113 148 192 244 296 346
#     4  10  19  32  51  79 115 152 195 236 282 339
#     4   9  20  37  56  82 114 149 191 236 286 342
#
# _framework density 19.203787999999999
#
# number of rings (size 3 to 8) (size 9 to 14) (size 15 to 20)
#    0.000    2.000    1.250    2.625    0.000    3.500 
#    0.000    3.125    0.000    1.500    0.000    0.000 
#    0.000    0.000    0.000    0.000    0.000    0.000 
#
# Total GULP energy -178594.236786 kJ/mol
# GULP energy per Si atom -5581.069900 kJ/mol
# Density = 1.916008 g / cm^3
# Si number density = 19.203788 Si / 1000 Ang^3
#
#
#
# Elastic Constant Matrix: (Units=GPa)
#
#
# Indices 1 2 3 4 5 6 
#
# 1 139.7572 42.8715 68.7625 0.0000 0.0000 0.0000
# 2 42.8715 49.6269 30.1458 0.0000 0.0000 0.0000
# 3 68.7625 30.1458 107.9116 0.0000 0.0000 0.0000
# 4 0.0000 0.0000 0.0000 20.0530 0.0000 0.0000
# 5 0.0000 0.0000 0.0000 0.0000 18.0040 0.0000
# 6 0.0000 0.0000 0.0000 0.0000 0.0000 29.9638
#
#
#
# Elastic Compliance Matrix: (Units=1/GPa)
#
#
# Indices 1 2 3 4 5 6 
#
# 1 0.012143 -0.006973 -0.005790 0.000000 0.000000 0.000000
# 2 -0.006973 0.028273 -0.003455 0.000000 0.000000 0.000000
# 3 -0.005790 -0.003455 0.013921 0.000000 0.000000 0.000000
# 4 0.000000 0.000000 0.000000 0.049868 0.000000 0.000000
# 5 0.000000 0.000000 0.000000 0.000000 0.055543 0.000000
# 6 0.000000 0.000000 0.000000 0.000000 0.000000 0.033374
#
#
# Mechanical properties :
#
#
# Convention : Reuss Voigt Hill
#
# Bulk Modulus (GPa) = 45.65830 64.53949 55.09890
# Shear Modulus (GPa) = 21.47239 23.97190 22.72215
#
# Velocity S-wave (km/s) = 3.34748 3.53695 3.44352
# Velocity P-wave (km/s) = 6.22640 7.09652 6.67566
#
# Compressibility (1/GPa) = 0.02190182
#
# Stress axis : x y z
#
# Youngs Moduli (GPa) = 82.35285 35.36961 71.83290
#
# Poissons Ratio (x) = 0.24663 0.41588
# Poissons Ratio (y) = 0.57425 0.24818
# Poissons Ratio (z) = 0.47679 0.12220
#
# Static dielectric constant tensor:
#      x y z
#    x 1.709780 0.000000 0.000000 
#    y 0.000000 1.653590 0.000000 
#    z 0.000000 0.000000 1.660580 
# 
# From -- ./inp_files/16231.got.cif
#   From: 2010.05.17/outbox.cif.g08.bks.cpg/sg39_9_cif.got.tgz:16231.got - 2010.06.03 18:22:40.
