data_PCOD9359074
_publ_section_title
;
Structure prediction by ZEFSAII (Michael W. Deem and Ramdas Pophale) SiO2 
 PCOD9359074
Probable space group: A M M 2
;
_chemical_formula_sum "Si O2"
_cell_formula_units_Z 56
_cell_length_a 19.947841
_cell_length_b 15.199985
_cell_length_c 9.188277
_cell_angle_alpha 90.000000
_cell_angle_beta 90.000000
_cell_angle_gamma 90.000000
_cell_volume 2785.948838
_symmetry_space_group_name_H-M "A M M 2"
_symmetry_group_IT_number 38
_symmetry_cell_setting 'orthorhombic'
loop_
_space_group_symop_operation_xyz
x,y,z
-x,-y,z
-x,y,z
x,-y,z
x,1/2+y,1/2+z
-x,1/2-y,1/2+z
-x,1/2+y,1/2+z
x,1/2-y,1/2+z
loop_
_atom_site_type_symbol
_atom_site_label
_atom_site_fract_x
_atom_site_fract_y
_atom_site_fract_z
Si Si1 0.205372 0.598353 0.438290
Si Si2 0.207028 0.901161 0.597648
Si Si3 0.604768 0.752186 0.815154
Si Si4 0.075271 0.845083 0.441300
Si Si5 0.301973 0.244136 0.064911
Si Si6 0.500000 0.603184 0.852599
Si Si7 0.500000 0.604365 0.205289
Si Si8 0.925162 0.345818 0.594036
O O1 0.233257 0.500000 0.443984
O O2 0.195666 0.621237 0.268103
O O3 0.254784 0.664847 0.518020
O O4 0.134362 0.601655 0.519585
O O5 0.136804 0.895720 0.513216
O O6 0.260054 0.832271 0.535571
O O7 0.233652 0.000000 0.589065
O O8 0.674992 0.745308 0.731176
O O9 0.562541 0.662524 0.799565
O O10 0.562918 0.837672 0.763827
O O11 0.627471 0.761006 0.981353
O O12 0.076762 0.749655 0.517688
O O13 0.084926 0.837288 0.267560
O O14 0.000000 0.881823 0.465612
O O15 0.500000 0.500000 0.809354
O O16 0.500000 0.605927 0.029328
O O17 0.500000 0.500000 0.247835
O O18 0.000000 0.382575 0.570714
#
# Coordination Sequence:
#
# PCOD9359074 Si02
#       8
#     8   8   8   8   8   4   4   8
#     4  11  25  42  62  92 128 169 218 269 323 383
#     4  11  25  42  63  92 126 170 220 268 322 384
#     4  11  24  42  69  98 130 170 206 256 308 365
#     4  10  21  38  62  90 122 164 215 271 330 386
#     4  12  24  43  64  93 133 171 213 252 314 374
#     4  10  22  43  70 103 132 161 209 256 302 366
#     4  10  22  43  72 101 130 167 209 250 304 372
#     4  10  21  38  62  90 123 165 214 269 331 387
#
# _framework density 20.100871000000001
#
# number of rings (size 3 to 8) (size 9 to 14) (size 15 to 20)
#    0.000    1.286    4.286    0.857    2.000    5.143 
#    0.000    3.571    0.000    0.000    0.000    0.000 
#    0.000    0.000    0.000    0.000    0.000    0.000 
#
# Total GULP energy -156325.371293 kJ/mol
# GULP energy per Si atom -5583.048975 kJ/mol
# Density = 2.005512 g / cm^3
# Si number density = 20.100871 Si / 1000 Ang^3
#
#
#
# Elastic Constant Matrix: (Units=GPa)
#
#
# Indices 1 2 3 4 5 6 
#
# 1 93.4914 59.1530 28.0731 0.0000 0.0000 0.0000
# 2 59.1530 134.4991 30.8793 0.0000 0.0000 0.0000
# 3 28.0731 30.8793 66.6965 0.0000 0.0000 0.0000
# 4 0.0000 0.0000 0.0000 28.0435 0.0000 0.0000
# 5 0.0000 0.0000 0.0000 0.0000 41.0970 0.0000
# 6 0.0000 0.0000 0.0000 0.0000 0.0000 -101.4687
#
#
#
# Elastic Compliance Matrix: (Units=1/GPa)
#
#
# Indices 1 2 3 4 5 6 
#
# 1 0.015637 -0.006004 -0.003802 0.000000 0.000000 0.000000
# 2 -0.006004 0.010625 -0.002392 0.000000 0.000000 0.000000
# 3 -0.003802 -0.002392 0.017701 0.000000 0.000000 0.000000
# 4 0.000000 0.000000 0.000000 0.035659 0.000000 0.000000
# 5 0.000000 0.000000 0.000000 0.000000 0.024333 0.000000
# 6 0.000000 0.000000 0.000000 0.000000 0.000000 -0.009855
#
#
# Mechanical properties :
#
#
# Convention : Reuss Voigt Hill
#
# Bulk Modulus (GPa) = 51.10733 58.98864 55.04798
# Shear Modulus (GPa) = 39.99470 5.30646 22.65058
#
# Velocity S-wave (km/s) = 4.46544 1.62654 3.36049
# Velocity P-wave (km/s) = 7.21578 5.73912 6.51940
#
# Compressibility (1/GPa) = 0.01956667
#
# Stress axis : x y z
#
# Youngs Moduli (GPa) = 63.95219 94.11937 56.49436
#
# Poissons Ratio (x) = 0.56511 0.21478
# Poissons Ratio (y) = 0.38398 0.13513
# Poissons Ratio (z) = 0.24313 0.22512
#
# Static dielectric constant tensor:
#      x y z
#    x 1.706860 0.000000 0.000000 
#    y 0.000000 1.715300 0.000000 
#    z 0.000000 0.000000 1.678460 
# 
# From -- ./inp_files/6758.got.cif
#   From: 2010.05.17/outbox.cif.g08.bks.cpg/sg38_4_cif.got.tgz:6758.got - 2010.06.03 18:07:57.
