data_PCOD9359101
_publ_section_title
;
Structure prediction by ZEFSAII (Michael W. Deem and Ramdas Pophale) SiO2 
 PCOD9359101
Probable space group: A M M 2
;
_chemical_formula_sum "Si O2"
_cell_formula_units_Z 38
_cell_length_a 23.548388
_cell_length_b 13.281227
_cell_length_c 5.310308
_cell_angle_alpha 90.000000
_cell_angle_beta 90.000000
_cell_angle_gamma 90.000000
_cell_volume 1660.806721
_symmetry_space_group_name_H-M "A M M 2"
_symmetry_group_IT_number 38
_symmetry_cell_setting 'orthorhombic'
loop_
_space_group_symop_operation_xyz
x,y,z
-x,-y,z
-x,y,z
x,-y,z
x,1/2+y,1/2+z
-x,1/2-y,1/2+z
-x,1/2+y,1/2+z
x,1/2-y,1/2+z
loop_
_atom_site_type_symbol
_atom_site_label
_atom_site_fract_x
_atom_site_fract_y
_atom_site_fract_z
Si Si1 0.716076 0.000000 0.130250
Si Si2 0.297978 0.722590 0.669761
Si Si3 0.876065 0.182878 0.706830
Si Si4 0.000000 0.813894 0.619030
Si Si5 0.578544 0.693239 0.165886
Si Si6 0.209201 0.500000 0.131914
Si Si7 0.500000 0.500000 0.225487
O O1 0.683821 0.106044 0.162282
O O2 0.761850 0.000000 0.356515
O O3 0.743822 0.000000 0.854309
O O4 0.264974 0.751353 0.420369
O O5 0.352858 0.796244 0.668657
O O6 0.872022 0.264918 0.480952
O O7 0.829564 0.097471 0.669128
O O8 0.939510 0.135901 0.674446
O O9 0.000000 0.723377 0.828732
O O10 0.561601 0.768305 0.390555
O O11 0.549612 0.587962 0.219294
#
# Coordination Sequence:
#
# PCOD9359101 Si02
#       7
#     4   8   8   4   8   4   2
#     4  12  26  42  62  88 122 160 212 264 306 366
#     4  10  23  43  66  91 120 162 209 252 306 366
#     4  10  21  39  61  89 127 161 202 259 309 375
#     4   8  16  33  58  85 118 164 200 239 312 375
#     4  10  24  42  65  98 129 164 203 243 306 371
#     4  12  26  39  63  96 118 163 213 256 324 362
#     4  12  24  42  70 100 136 162 198 258 308 370
#
# _framework density 22.880445999999999
#
# number of rings (size 3 to 8) (size 9 to 14) (size 15 to 20)
#    0.000    1.684    0.000    3.158    0.000   13.895 
#    0.000    0.000    0.000    8.842    0.000    0.000 
#    0.000    0.000    0.000    0.000    0.000    0.000 
#
# Total GULP energy -105870.323947 kJ/mol
# GULP energy per Si atom -5572.122313 kJ/mol
# Density = 2.282837 g / cm^3
# Si number density = 22.880446 Si / 1000 Ang^3
#
#
#
# Elastic Constant Matrix: (Units=GPa)
#
#
# Indices 1 2 3 4 5 6 
#
# 1 98.9744 25.7507 -12.7988 0.0000 0.0000 0.0000
# 2 25.7507 120.8136 -2.3327 0.0000 0.0000 0.0000
# 3 -12.7988 -2.3327 127.4564 0.0000 0.0000 0.0000
# 4 0.0000 0.0000 0.0000 17.7142 0.0000 0.0000
# 5 0.0000 0.0000 0.0000 0.0000 59.2438 0.0000
# 6 0.0000 0.0000 0.0000 0.0000 0.0000 24.0216
#
#
#
# Elastic Compliance Matrix: (Units=1/GPa)
#
#
# Indices 1 2 3 4 5 6 
#
# 1 0.010834 -0.002289 0.001046 0.000000 0.000000 0.000000
# 2 -0.002289 0.008764 -0.000069 0.000000 0.000000 0.000000
# 3 0.001046 -0.000069 0.007950 0.000000 0.000000 0.000000
# 4 0.000000 0.000000 0.000000 0.056452 0.000000 0.000000
# 5 0.000000 0.000000 0.000000 0.000000 0.016879 0.000000
# 6 0.000000 0.000000 0.000000 0.000000 0.000000 0.041629
#
#
# Mechanical properties :
#
#
# Convention : Reuss Voigt Hill
#
# Bulk Modulus (GPa) = 40.12387 40.94255 40.53321
# Shear Modulus (GPa) = 32.58585 42.63761 37.61173
#
# Velocity S-wave (km/s) = 3.77792 4.32151 4.05882
# Velocity P-wave (km/s) = 6.05018 6.54473 6.30231
#
# Compressibility (1/GPa) = 0.02492282
#
# Stress axis : x y z
#
# Youngs Moduli (GPa) = 92.29806 114.10599 125.79264
#
# Poissons Ratio (x) = 0.26120 -0.13159
# Poissons Ratio (y) = 0.21128 0.00874
# Poissons Ratio (z) = -0.09655 0.00793
#
# Static dielectric constant tensor:
#      x y z
#    x 1.894960 0.000000 0.000000 
#    y 0.000000 1.824860 0.000000 
#    z 0.000000 0.000000 1.957350 
# 
# From -- ./inp_files/2183.got.cif
#   From: 2010.05.17/outbox.cif.g08.bks.cpg/sg38_2_cif.got.tgz:2183.got - 2010.06.03 18:07:57.
