data_PCOD9359427
_publ_section_title
;
Structure prediction by ZEFSAII (Michael W. Deem and Ramdas Pophale) SiO2 
 PCOD9359427
Probable space group: A M M 2
;
_chemical_formula_sum "Si O2"
_cell_formula_units_Z 48
_cell_length_a 7.851384
_cell_length_b 31.595843
_cell_length_c 10.154110
_cell_angle_alpha 90.000000
_cell_angle_beta 90.000000
_cell_angle_gamma 90.000000
_cell_volume 2518.941199
_symmetry_space_group_name_H-M "A M M 2"
_symmetry_group_IT_number 38
_symmetry_cell_setting 'orthorhombic'
loop_
_space_group_symop_operation_xyz
x,y,z
-x,-y,z
-x,y,z
x,-y,z
x,1/2+y,1/2+z
-x,1/2-y,1/2+z
-x,1/2+y,1/2+z
x,1/2-y,1/2+z
loop_
_atom_site_type_symbol
_atom_site_label
_atom_site_fract_x
_atom_site_fract_y
_atom_site_fract_z
Si Si1 0.802418 0.382032 0.210200
Si Si2 0.294691 0.287412 0.183308
Si Si3 0.291521 0.548092 0.696855
Si Si4 0.705666 0.451950 0.998573
Si Si5 0.699040 0.878985 0.005678
Si Si6 0.709175 0.215554 0.983921
O O1 0.754575 0.335778 0.154958
O O2 0.765821 0.418035 0.104029
O O3 0.709749 0.388508 0.349958
O O4 0.000000 0.381789 0.242953
O O5 0.500000 0.285768 0.182422
O O6 0.238480 0.277676 0.332595
O O7 0.232644 0.252731 0.079824
O O8 0.500000 0.547643 0.693570
O O9 0.237361 0.500000 0.664865
O O10 0.228548 0.583546 0.595449
O O11 0.241729 0.557546 0.847946
O O12 0.500000 0.451660 0.000138
O O13 0.761449 0.500000 0.029687
O O14 0.500000 0.876299 0.040982
O O15 0.768797 0.831470 0.024783
O O16 0.500000 0.215100 0.985182
#
# Coordination Sequence:
#
# PCOD9359427 Si02
#       6
#     8   8   8   8   8   8
#     4  11  22  34  48  71 104 139 171 201 240 294
#     4   9  17  32  51  71  95 124 163 210 256 296
#     4   8  15  29  52  80 102 121 155 204 252 297
#     4   9  18  34  55  77 100 128 164 207 253 297
#     4   9  17  32  53  76 101 129 164 207 252 296
#     4   8  15  27  47  72  94 120 157 201 245 288
#
# _framework density 19.055624000000002
#
# number of rings (size 3 to 8) (size 9 to 14) (size 15 to 20)
#    0.000    3.000    0.000    3.500    0.000    2.333 
#    0.000   10.833    0.000    1.000    0.000    0.000 
#    0.000    0.000    0.000    0.000    0.000    0.000 
#
# Total GULP energy -133794.384187 kJ/mol
# GULP energy per Si atom -5574.766008 kJ/mol
# Density = 1.901225 g / cm^3
# Si number density = 19.055624 Si / 1000 Ang^3
#
#
#
# Elastic Constant Matrix: (Units=GPa)
#
#
# Indices 1 2 3 4 5 6 
#
# 1 18.7069 -1.2318 -5.4051 0.0000 0.0000 0.0000
# 2 -1.2318 170.7530 115.2537 0.0000 0.0000 0.0000
# 3 -5.4051 115.2537 93.3704 0.0000 0.0000 0.0000
# 4 0.0000 0.0000 0.0000 44.8999 0.0000 0.0000
# 5 0.0000 0.0000 0.0000 0.0000 -15.6294 0.0000
# 6 0.0000 0.0000 0.0000 0.0000 0.0000 -14.0590
#
#
#
# Elastic Compliance Matrix: (Units=1/GPa)
#
#
# Indices 1 2 3 4 5 6 
#
# 1 0.057620 -0.011004 0.016918 0.000000 0.000000 0.000000
# 2 -0.011004 0.037205 -0.046562 0.000000 0.000000 0.000000
# 3 0.016918 -0.046562 0.069164 0.000000 0.000000 0.000000
# 4 0.000000 0.000000 0.000000 0.022272 0.000000 0.000000
# 5 0.000000 0.000000 0.000000 0.000000 -0.063982 0.000000
# 6 0.000000 0.000000 0.000000 0.000000 0.000000 -0.071129
#
#
# Mechanical properties :
#
#
# Convention : Reuss Voigt Hill
#
# Bulk Modulus (GPa) = 12.09271 55.56266 33.82768
# Shear Modulus (GPa) = 31.24820 14.65651 22.95236
#
# Velocity S-wave (km/s) = 4.05389 2.77635 3.47435
# Velocity P-wave (km/s) = 5.31712 6.28482 5.82111
#
# Compressibility (1/GPa) = 0.08269448
#
# Stress axis : x y z
#
# Youngs Moduli (GPa) = 17.35507 26.87816 14.45843
#
# Poissons Ratio (x) = 0.29576 -0.24461
# Poissons Ratio (y) = 0.19097 0.67321
# Poissons Ratio (z) = -0.29362 1.25149
#
# Static dielectric constant tensor:
#      x y z
#    x 1.682260 0.000000 0.000000 
#    y 0.000000 1.658030 0.000000 
#    z 0.000000 0.000000 1.640000 
# 
# From -- ./inp_files/3755.got.cif
#   From: 2010.05.17/outbox.cif.g08.bks.cpg/sg38_2_cif.got.tgz:3755.got - 2010.06.03 18:07:57.
