data_PCOD9359347
_publ_section_title
;
Structure prediction by ZEFSAII (Michael W. Deem and Ramdas Pophale) SiO2 
 PCOD9359347
Probable space group: A M M 2
;
_chemical_formula_sum "Si O2"
_cell_formula_units_Z 58
_cell_length_a 17.860433
_cell_length_b 17.363688
_cell_length_c 9.467130
_cell_angle_alpha 90.000000
_cell_angle_beta 90.000000
_cell_angle_gamma 90.000000
_cell_volume 2935.974626
_symmetry_space_group_name_H-M "A M M 2"
_symmetry_group_IT_number 38
_symmetry_cell_setting 'orthorhombic'
loop_
_space_group_symop_operation_xyz
x,y,z
-x,-y,z
-x,y,z
x,-y,z
x,1/2+y,1/2+z
-x,1/2-y,1/2+z
-x,1/2+y,1/2+z
x,1/2-y,1/2+z
loop_
_atom_site_type_symbol
_atom_site_label
_atom_site_fract_x
_atom_site_fract_y
_atom_site_fract_z
Si Si1 0.804399 0.292628 0.049310
Si Si2 0.689310 0.147414 0.325558
Si Si3 0.084809 0.909294 0.685592
Si Si4 0.415672 0.915213 0.551947
Si Si5 0.121820 0.625139 0.499896
Si Si6 0.000000 0.000000 0.098889
Si Si7 0.289471 0.415306 0.512380
Si Si8 0.661931 0.194536 0.761533
O O1 0.859341 0.361589 0.089984
O O2 0.737444 0.292746 0.165984
O O3 0.762342 0.316344 0.903949
O O4 0.851725 0.212306 0.045033
O O5 0.646826 0.091569 0.431523
O O6 0.703091 0.109778 0.174829
O O7 0.636123 0.220960 0.302904
O O8 0.087699 0.873657 0.842488
O O9 0.000000 0.904022 0.631703
O O10 0.103738 0.000000 0.696022
O O11 0.500000 0.906288 0.497109
O O12 0.395537 0.851379 0.665971
O O13 0.409775 0.000000 0.617778
O O14 0.065832 0.569696 0.588131
O O15 0.201185 0.583588 0.484434
O O16 0.322083 0.500000 0.489716
O O17 0.321154 0.353479 0.402441
#
# Coordination Sequence:
#
# PCOD9359347 Si02
#       8
#     8   8   8   8   8   2   8   8
#     4  11  23  38  64  91 125 163 215 270 323 377
#     4  11  22  41  62  95 131 164 210 263 320 377
#     4  11  22  39  61  87 121 164 217 265 324 393
#     4  10  23  43  65  94 134 173 205 249 319 388
#     4  12  21  38  59  90 120 163 207 271 314 384
#     4  12  24  40  60  92 136 168 210 260 350 384
#     4  12  22  36  63  94 124 162 217 271 312 366
#     4  11  21  40  65  93 123 160 220 265 305 372
#
# _framework density 19.754939
#
# number of rings (size 3 to 8) (size 9 to 14) (size 15 to 20)
#    0.000    0.828    6.207    1.655    0.966    3.310 
#    0.000    0.690    1.517    2.483    0.000    0.000 
#    0.000    0.000    0.000    0.000    0.000    0.000 
#
# Total GULP energy -161483.634976 kJ/mol
# GULP energy per Si atom -5568.401206 kJ/mol
# Density = 1.970998 g / cm^3
# Si number density = 19.754939 Si / 1000 Ang^3
#
#
#
# Elastic Constant Matrix: (Units=GPa)
#
#
# Indices 1 2 3 4 5 6 
#
# 1 50.3413 25.6072 2.9010 0.0000 0.0000 0.0000
# 2 25.6072 104.4674 6.6682 0.0000 0.0000 0.0000
# 3 2.9010 6.6682 61.9871 0.0000 0.0000 0.0000
# 4 0.0000 0.0000 0.0000 -15.7196 0.0000 0.0000
# 5 0.0000 0.0000 0.0000 0.0000 10.9169 0.0000
# 6 0.0000 0.0000 0.0000 0.0000 0.0000 122.2759
#
#
#
# Elastic Compliance Matrix: (Units=1/GPa)
#
#
# Indices 1 2 3 4 5 6 
#
# 1 0.022708 -0.005536 -0.000467 0.000000 0.000000 0.000000
# 2 -0.005536 0.010988 -0.000923 0.000000 0.000000 0.000000
# 3 -0.000467 -0.000923 0.016254 0.000000 0.000000 0.000000
# 4 0.000000 0.000000 0.000000 -0.063615 0.000000 0.000000
# 5 0.000000 0.000000 0.000000 0.000000 0.091601 0.000000
# 6 0.000000 0.000000 0.000000 0.000000 0.000000 0.008178
#
#
# Mechanical properties :
#
#
# Convention : Reuss Voigt Hill
#
# Bulk Modulus (GPa) = 27.70347 31.90541 29.80444
# Shear Modulus (GPa) = 44.64315 35.60259 40.12287
#
# Velocity S-wave (km/s) = 4.75894 4.24985 4.51158
# Velocity P-wave (km/s) = 6.65212 6.34565 6.50069
#
# Compressibility (1/GPa) = 0.03609657
#
# Stress axis : x y z
#
# Youngs Moduli (GPa) = 44.03831 91.00554 61.52511
#
# Poissons Ratio (x) = 0.50383 0.02874
# Poissons Ratio (y) = 0.24381 0.05679
# Poissons Ratio (z) = 0.02057 0.08399
#
# Static dielectric constant tensor:
#      x y z
#    x 1.698280 0.000000 0.000000 
#    y 0.000000 1.746640 0.000000 
#    z 0.000000 0.000000 1.718120 
# 
# From -- ./inp_files/6394.got.cif
#   From: 2010.05.17/outbox.cif.g08.bks.cpg/sg38_4_cif.got.tgz:6394.got - 2010.06.03 18:07:57.
