data_PCOD9359363
_publ_section_title
;
Structure prediction by ZEFSAII (Michael W. Deem and Ramdas Pophale) SiO2 
 PCOD9359363
Probable space group: A M M 2
;
_chemical_formula_sum "Si O2"
_cell_formula_units_Z 58
_cell_length_a 23.635603
_cell_length_b 13.714265
_cell_length_c 7.486832
_cell_angle_alpha 90.000000
_cell_angle_beta 90.000000
_cell_angle_gamma 90.000000
_cell_volume 2426.818582
_symmetry_space_group_name_H-M "A M M 2"
_symmetry_group_IT_number 38
_symmetry_cell_setting 'orthorhombic'
loop_
_space_group_symop_operation_xyz
x,y,z
-x,-y,z
-x,y,z
x,-y,z
x,1/2+y,1/2+z
-x,1/2-y,1/2+z
-x,1/2+y,1/2+z
x,1/2-y,1/2+z
loop_
_atom_site_type_symbol
_atom_site_label
_atom_site_fract_x
_atom_site_fract_y
_atom_site_fract_z
Si Si1 0.500000 0.000000 0.878940
Si Si2 0.869744 0.618856 0.659430
Si Si3 0.562128 0.169538 0.049669
Si Si4 0.251822 0.613347 0.754817
Si Si5 0.284716 0.386120 0.333091
Si Si6 0.841497 0.381504 0.259445
Si Si7 0.640704 0.794257 0.340267
Si Si8 0.937527 0.119101 0.485955
O O1 0.451567 0.913734 0.906608
O O2 0.867699 0.500000 0.657339
O O3 0.811965 0.651926 0.757689
O O4 0.865036 0.647268 0.453877
O O5 0.922260 0.645464 0.782356
O O6 0.500000 0.188562 0.132891
O O7 0.590177 0.266301 0.971702
O O8 0.608824 0.139959 0.194044
O O9 0.248099 0.500000 0.796187
O O10 0.272517 0.623874 0.547858
O O11 0.299786 0.656210 0.882481
O O12 0.296607 0.500000 0.298494
O O13 0.224912 0.357080 0.243067
O O14 0.334853 0.312508 0.283735
O O15 0.840990 0.500000 0.255268
O O16 0.886120 0.348368 0.112221
O O17 0.000000 0.153209 0.537694
O O18 0.937977 0.000000 0.495735
#
# Coordination Sequence:
#
# PCOD9359363 Si02
#       8
#     2   8   8   8   8   8   8   8
#     4   8  24  44  68  78 110 180 208 210 298 352
#     4   8  15  29  46  70 107 150 192 241 303 365
#     4  10  24  41  62  85 117 155 199 242 281 344
#     4   9  19  35  58  83 118 158 190 234 303 370
#     4   9  19  35  58  83 118 158 190 234 303 370
#     4   8  15  29  46  70 107 150 192 241 303 365
#     4  12  21  36  64  94 115 144 204 244 282 354
#     4   9  16  25  42  71 108 150 198 248 298 357
#
# _framework density 23.899601000000001
#
# number of rings (size 3 to 8) (size 9 to 14) (size 15 to 20)
#    0.414    2.345    1.379    2.069    1.931    1.655 
#    0.000    4.828    0.000    1.655    0.000    0.966 
#    0.000    0.000    0.000    0.000    0.000    0.000 
#
# Total GULP energy -161519.309335 kJ/mol
# GULP energy per Si atom -5569.631356 kJ/mol
# Density = 2.384520 g / cm^3
# Si number density = 23.899601 Si / 1000 Ang^3
#
#
#
# Elastic Constant Matrix: (Units=GPa)
#
#
# Indices 1 2 3 4 5 6 
#
# 1 155.1757 10.6617 51.7279 0.0000 0.0000 0.0000
# 2 10.6617 76.1189 0.2732 0.0000 0.0000 0.0000
# 3 51.7279 0.2732 48.1939 0.0000 0.0000 0.0000
# 4 0.0000 0.0000 0.0000 11.8174 0.0000 0.0000
# 5 0.0000 0.0000 0.0000 0.0000 33.3699 0.0000
# 6 0.0000 0.0000 0.0000 0.0000 0.0000 19.8037
#
#
#
# Elastic Compliance Matrix: (Units=1/GPa)
#
#
# Indices 1 2 3 4 5 6 
#
# 1 0.010179 -0.001387 -0.010917 0.000000 0.000000 0.000000
# 2 -0.001387 0.013326 0.001413 0.000000 0.000000 0.000000
# 3 -0.010917 0.001413 0.032460 0.000000 0.000000 0.000000
# 4 0.000000 0.000000 0.000000 0.084621 0.000000 0.000000
# 5 0.000000 0.000000 0.000000 0.000000 0.029967 0.000000
# 6 0.000000 0.000000 0.000000 0.000000 0.000000 0.050496
#
#
# Mechanical properties :
#
#
# Convention : Reuss Voigt Hill
#
# Bulk Modulus (GPa) = 29.25492 44.97933 37.11712
# Shear Modulus (GPa) = 19.66757 27.45323 23.56040
#
# Velocity S-wave (km/s) = 2.87178 3.39291 3.14316
# Velocity P-wave (km/s) = 4.82322 5.84894 5.36067
#
# Compressibility (1/GPa) = 0.03418229
#
# Stress axis : x y z
#
# Youngs Moduli (GPa) = 98.24228 75.03858 30.80757
#
# Poissons Ratio (x) = 0.10404 0.33634
# Poissons Ratio (y) = 0.13622 -0.04352
# Poissons Ratio (z) = 1.07256 -0.10601
#
# Static dielectric constant tensor:
#      x y z
#    x 1.861500 0.000000 0.000000 
#    y 0.000000 1.963640 0.000000 
#    z 0.000000 0.000000 1.999610 
# 
# From -- ./inp_files/6958.got.cif
#   From: 2010.05.17/outbox.cif.g08.bks.cpg/sg38_4_cif.got.tgz:6958.got - 2010.06.03 18:07:57.
