data_PCOD9359973
_publ_section_title
;
Structure prediction by ZEFSAII (Michael W. Deem and Ramdas Pophale) SiO2 
 PCOD9359973
Probable space group: A B M 2
;
_chemical_formula_sum "Si O2"
_cell_formula_units_Z 64
_cell_length_a 19.884055
_cell_length_b 8.639810
_cell_length_c 21.007029
_cell_angle_alpha 90.000000
_cell_angle_beta 90.000000
_cell_angle_gamma 90.000000
_cell_volume 3608.891145
_symmetry_space_group_name_H-M "A B M 2"
_symmetry_group_IT_number 39
_symmetry_cell_setting 'orthorhombic'
loop_
_space_group_symop_operation_xyz
x,y,z
-x,-y,z
-x,1/2+y,z
x,1/2-y,z
x,1/2+y,1/2+z
-x,1/2-y,1/2+z
-x,y,1/2+z
x,-y,1/2+z
loop_
_atom_site_type_symbol
_atom_site_label
_atom_site_fract_x
_atom_site_fract_y
_atom_site_fract_z
Si Si1 0.427146 0.934552 0.969780
Si Si2 0.212348 0.063871 0.541736
Si Si3 0.709043 0.435215 0.421110
Si Si4 0.928133 0.563635 0.595481
Si Si5 0.702605 0.064183 0.169182
Si Si6 0.428234 0.066215 0.112037
Si Si7 0.785573 0.561346 0.793869
Si Si8 0.072227 0.563244 0.244037
O O1 0.429444 0.750000 0.970891
O O2 0.500000 0.000000 0.950086
O O3 0.364996 0.992391 0.927781
O O4 0.414871 0.994438 0.041985
O O5 0.214194 0.250000 0.532063
O O6 0.135442 0.014244 0.553628
O O7 0.252153 0.031908 0.607101
O O8 0.248651 0.983352 0.483130
O O9 0.702234 0.250000 0.419040
O O10 0.749402 0.488303 0.358508
O O11 0.929630 0.750000 0.594773
O O12 0.918162 0.517101 0.669666
O O13 0.000000 0.500000 0.574242
O O14 0.692806 0.250000 0.171909
O O15 0.741973 0.015292 0.232398
O O16 0.631556 0.983352 0.158239
O O17 0.431994 0.250000 0.105448
O O18 0.500000 0.000000 0.133329
O O19 0.787000 0.750000 0.794065
O O20 0.862693 0.510594 0.783600
O O21 0.070042 0.750000 0.245578
O O22 0.000000 0.500000 0.265306
#
# Coordination Sequence:
#
# PCOD9359973 Si02
#       8
#     8   8   8   8   8   8   8   8
#     4  11  21  36  57  81 109 143 182 224 271 325
#     4  10  19  33  55  79 106 141 181 223 274 328
#     4  11  22  36  55  82 113 145 184 227 273 324
#     4   9  17  30  51  79 107 138 178 226 276 326
#     4  10  18  34  58  80 105 142 183 222 270 322
#     4  11  21  34  54  84 114 142 179 225 274 322
#     4   9  19  36  57  79 109 149 186 221 269 328
#     4   9  16  31  53  78 104 136 178 222 269 321
#
# _framework density 17.733979000000001
#
# number of rings (size 3 to 8) (size 9 to 14) (size 15 to 20)
#    0.000    2.000    2.500    3.375    0.000    0.500 
#    0.000    4.375    0.000    3.000    0.000    0.000 
#    0.000    0.000    0.000    0.000    0.000    0.000 
#
# Total GULP energy -178603.206684 kJ/mol
# GULP energy per Si atom -5581.350209 kJ/mol
# Density = 1.769362 g / cm^3
# Si number density = 17.733979 Si / 1000 Ang^3
#
#
#
# Elastic Constant Matrix: (Units=GPa)
#
#
# Indices 1 2 3 4 5 6 
#
# 1 184.9107 51.0995 71.1587 0.0000 0.0000 0.0000
# 2 51.0995 58.1811 36.7504 0.0000 0.0000 0.0000
# 3 71.1587 36.7504 92.0826 0.0000 0.0000 0.0000
# 4 0.0000 0.0000 0.0000 14.8547 0.0000 0.0000
# 5 0.0000 0.0000 0.0000 0.0000 26.5307 0.0000
# 6 0.0000 0.0000 0.0000 0.0000 0.0000 30.8191
#
#
#
# Elastic Compliance Matrix: (Units=1/GPa)
#
#
# Indices 1 2 3 4 5 6 
#
# 1 0.008469 -0.004418 -0.004781 0.000000 0.000000 0.000000
# 2 -0.004418 0.025286 -0.006678 0.000000 0.000000 0.000000
# 3 -0.004781 -0.006678 0.017220 0.000000 0.000000 0.000000
# 4 0.000000 0.000000 0.000000 0.067319 0.000000 0.000000
# 5 0.000000 0.000000 0.000000 0.000000 0.037692 0.000000
# 6 0.000000 0.000000 0.000000 0.000000 0.000000 0.032447
#
#
# Mechanical properties :
#
#
# Convention : Reuss Voigt Hill
#
# Bulk Modulus (GPa) = 52.02700 72.57686 62.30193
# Shear Modulus (GPa) = 22.06594 26.18527 24.12561
#
# Velocity S-wave (km/s) = 3.53125 3.84677 3.69238
# Velocity P-wave (km/s) = 6.78436 7.79387 7.30657
#
# Compressibility (1/GPa) = 0.01922079
#
# Stress axis : x y z
#
# Youngs Moduli (GPa) = 118.07950 39.54773 58.07301
#
# Poissons Ratio (x) = 0.17472 0.27766
# Poissons Ratio (y) = 0.52167 0.38779
# Poissons Ratio (z) = 0.56457 0.26408
#
# Static dielectric constant tensor:
#      x y z
#    x 1.614670 0.000000 0.000000 
#    y 0.000000 1.604310 0.000000 
#    z 0.000000 0.000000 1.583210 
# 
# From -- ./inp_files/13219.got.cif
#   From: 2010.05.17/outbox.cif.g08.bks.cpg/sg39_7_cif.got.tgz:13219.got - 2010.06.03 18:22:40.
