data_PCOD9359271
_publ_section_title
;
Structure prediction by ZEFSAII (Michael W. Deem and Ramdas Pophale) SiO2 
 PCOD9359271
Probable space group: A M M 2
;
_chemical_formula_sum "Si O2"
_cell_formula_units_Z 48
_cell_length_a 14.345717
_cell_length_b 8.134664
_cell_length_c 20.688459
_cell_angle_alpha 90.000000
_cell_angle_beta 90.000000
_cell_angle_gamma 90.000000
_cell_volume 2414.293257
_symmetry_space_group_name_H-M "A M M 2"
_symmetry_group_IT_number 38
_symmetry_cell_setting 'orthorhombic'
loop_
_space_group_symop_operation_xyz
x,y,z
-x,-y,z
-x,y,z
x,-y,z
x,1/2+y,1/2+z
-x,1/2-y,1/2+z
-x,1/2+y,1/2+z
x,1/2-y,1/2+z
loop_
_atom_site_type_symbol
_atom_site_label
_atom_site_fract_x
_atom_site_fract_y
_atom_site_fract_z
Si Si1 0.704246 0.696562 0.670290
Si Si2 0.500000 0.309518 0.199633
Si Si3 0.679614 0.808899 0.917591
Si Si4 0.798928 0.298299 0.538713
Si Si5 0.799746 0.695513 0.802057
Si Si6 0.500000 0.187055 0.344404
Si Si7 0.000000 0.301818 0.333683
Si Si8 0.000000 0.200068 0.985462
O O1 0.715070 0.500000 0.670235
O O2 0.594766 0.734325 0.671396
O O3 0.760676 0.757940 0.607962
O O4 0.748191 0.755681 0.737630
O O5 0.500000 0.500000 0.184113
O O6 0.500000 0.288936 0.277847
O O7 0.759097 0.789572 0.863594
O O8 0.590185 0.720101 0.888013
O O9 0.654951 0.000000 0.926037
O O10 0.725125 0.746248 0.983750
O O11 0.799850 0.500000 0.537757
O O12 0.903740 0.245673 0.519589
O O13 0.782303 0.500000 0.810004
O O14 0.908677 0.730654 0.800114
O O15 0.500000 0.000000 0.321614
O O16 0.000000 0.500000 0.330869
O O17 0.000000 0.252838 0.409764
O O18 0.000000 0.000000 0.986908
#
# Coordination Sequence:
#
# PCOD9359271 Si02
#       8
#     8   4   8   8   8   4   4   4
#     4  10  22  40  62  88 122 160 199 248 301 359
#     4  12  24  39  62  87 117 159 203 249 304 366
#     4  11  21  37  62  91 119 154 203 249 295 354
#     4   9  19  36  61  90 120 157 202 247 293 356
#     4  11  22  36  58  90 123 155 198 248 303 357
#     4  12  24  39  60  89 123 159 201 251 304 358
#     4  11  21  36  61  89 121 158 204 255 300 353
#     4   9  16  32  59  89 113 148 202 251 294 347
#
# _framework density 19.881594
#
# number of rings (size 3 to 8) (size 9 to 14) (size 15 to 20)
#    0.000    1.500    3.333    2.750    0.000    2.000 
#    0.000    7.500    0.000    0.000    0.000    0.000 
#    0.000    0.000    0.000    0.000    0.000    0.000 
#
# Total GULP energy -134078.259753 kJ/mol
# GULP energy per Si atom -5586.594156 kJ/mol
# Density = 1.983634 g / cm^3
# Si number density = 19.881594 Si / 1000 Ang^3
#
#
#
# Elastic Constant Matrix: (Units=GPa)
#
#
# Indices 1 2 3 4 5 6 
#
# 1 96.2016 -16.5987 3.0657 0.0000 0.0000 0.0000
# 2 -16.5987 12.4580 -1.5748 0.0000 0.0000 0.0000
# 3 3.0657 -1.5748 78.5598 0.0000 0.0000 0.0000
# 4 0.0000 0.0000 0.0000 13.5107 0.0000 0.0000
# 5 0.0000 0.0000 0.0000 0.0000 20.9570 0.0000
# 6 0.0000 0.0000 0.0000 0.0000 0.0000 28.1909
#
#
#
# Elastic Compliance Matrix: (Units=1/GPa)
#
#
# Indices 1 2 3 4 5 6 
#
# 1 0.013500 0.017966 -0.000167 0.000000 0.000000 0.000000
# 2 0.017966 0.104383 0.001391 0.000000 0.000000 0.000000
# 3 -0.000167 0.001391 0.012764 0.000000 0.000000 0.000000
# 4 0.000000 0.000000 0.000000 0.074016 0.000000 0.000000
# 5 0.000000 0.000000 0.000000 0.000000 0.047717 0.000000
# 6 0.000000 0.000000 0.000000 0.000000 0.000000 0.035472
#
#
# Mechanical properties :
#
#
# Convention : Reuss Voigt Hill
#
# Bulk Modulus (GPa) = 5.91619 17.44489 11.68054
# Shear Modulus (GPa) = 16.34988 26.02020 21.18504
#
# Velocity S-wave (km/s) = 2.87080 3.62160 3.26783
# Velocity P-wave (km/s) = 3.73775 5.12654 4.48621
#
# Compressibility (1/GPa) = 0.16902774
#
# Stress axis : x y z
#
# Youngs Moduli (GPa) = 74.07402 9.58010 78.34810
#
# Poissons Ratio (x) = -0.17212 0.01306
# Poissons Ratio (y) = -1.33081 -0.10901
# Poissons Ratio (z) = 0.01235 -0.01333
#
# Static dielectric constant tensor:
#      x y z
#    x 1.906600 0.000000 0.000000 
#    y 0.000000 1.715080 0.000000 
#    z 0.000000 0.000000 1.679250 
# 
# From -- ./inp_files/18246.got.cif
#   From: 2010.05.17/outbox.cif.g08.bks.cpg/sg38_10_cif.got.tgz:18246.got - 2010.06.03 18:07:57.
