data_PCOD9359158
_publ_section_title
;
Structure prediction by ZEFSAII (Michael W. Deem and Ramdas Pophale) SiO2 
 PCOD9359158
Probable space group: A M M 2
;
_chemical_formula_sum "Si O2"
_cell_formula_units_Z 56
_cell_length_a 15.278904
_cell_length_b 22.164272
_cell_length_c 8.012971
_cell_angle_alpha 90.000000
_cell_angle_beta 90.000000
_cell_angle_gamma 90.000000
_cell_volume 2713.558847
_symmetry_space_group_name_H-M "A M M 2"
_symmetry_group_IT_number 38
_symmetry_cell_setting 'orthorhombic'
loop_
_space_group_symop_operation_xyz
x,y,z
-x,-y,z
-x,y,z
x,-y,z
x,1/2+y,1/2+z
-x,1/2-y,1/2+z
-x,1/2+y,1/2+z
x,1/2-y,1/2+z
loop_
_atom_site_type_symbol
_atom_site_label
_atom_site_fract_x
_atom_site_fract_y
_atom_site_fract_z
Si Si1 0.604048 0.179605 0.437750
Si Si2 0.405859 0.935137 0.916508
Si Si3 0.162733 0.317099 0.421975
Si Si4 0.704550 0.934805 0.594184
Si Si5 0.100195 0.894743 0.605980
Si Si6 0.646354 0.187088 0.063053
Si Si7 0.902450 0.195180 0.291919
O O1 0.500000 0.165624 0.423651
O O2 0.657138 0.125021 0.523966
O O3 0.651057 0.186522 0.260744
O O4 0.610723 0.246356 0.519170
O O5 0.500000 0.935468 0.824373
O O6 0.328177 0.935373 0.784563
O O7 0.400765 0.000000 0.009743
O O8 0.405684 0.873664 0.018391
O O9 0.120207 0.357217 0.276047
O O10 0.263848 0.324541 0.465854
O O11 0.157351 0.249353 0.352440
O O12 0.117202 0.324656 0.603036
O O13 0.809896 0.931929 0.586464
O O14 0.676663 0.000000 0.519564
O O15 0.100284 0.854425 0.437171
O O16 0.000000 0.919837 0.618497
O O17 0.000000 0.221651 0.290769
#
# Coordination Sequence:
#
# PCOD9359158 Si02
#       7
#     8   8   8   8   8   8   8
#     4  12  26  42  65  99 136 179 224 281 351 410
#     4  10  21  40  65  91 125 170 216 267 325 396
#     4  12  21  36  58  91 134 179 224 273 340 402
#     4  11  24  45  67  93 127 173 230 280 337 412
#     4  11  23  40  63  95 132 177 228 281 345 410
#     4  12  24  41  63  97 139 172 220 276 339 413
#     4  11  22  35  56  90 130 175 225 277 336 402
#
# _framework density 20.637107
#
# number of rings (size 3 to 8) (size 9 to 14) (size 15 to 20)
#    0.000    0.714    2.857    6.429    0.000    1.714 
#    0.000    0.000    0.000    0.000    0.000    2.000 
#    0.000    0.000    0.000    0.000    0.000    0.000 
#
# Total GULP energy -156031.433912 kJ/mol
# GULP energy per Si atom -5572.551211 kJ/mol
# Density = 2.059014 g / cm^3
# Si number density = 20.637107 Si / 1000 Ang^3
#
#
#
# Elastic Constant Matrix: (Units=GPa)
#
#
# Indices 1 2 3 4 5 6 
#
# 1 99.2322 42.5239 -2.4519 0.0000 0.0000 0.0000
# 2 42.5239 153.4930 46.4938 0.0000 0.0000 0.0000
# 3 -2.4519 46.4938 101.6391 0.0000 0.0000 0.0000
# 4 0.0000 0.0000 0.0000 17.3120 0.0000 0.0000
# 5 0.0000 0.0000 0.0000 0.0000 35.8327 0.0000
# 6 0.0000 0.0000 0.0000 0.0000 0.0000 5.9046
#
#
#
# Elastic Compliance Matrix: (Units=1/GPa)
#
#
# Indices 1 2 3 4 5 6 
#
# 1 0.011797 -0.003894 0.002066 0.000000 0.000000 0.000000
# 2 -0.003894 0.008848 -0.004141 0.000000 0.000000 0.000000
# 3 0.002066 -0.004141 0.011783 0.000000 0.000000 0.000000
# 4 0.000000 0.000000 0.000000 0.057764 0.000000 0.000000
# 5 0.000000 0.000000 0.000000 0.000000 0.027907 0.000000
# 6 0.000000 0.000000 0.000000 0.000000 0.000000 0.169360
#
#
# Mechanical properties :
#
#
# Convention : Reuss Voigt Hill
#
# Bulk Modulus (GPa) = 48.80641 58.61068 53.70855
# Shear Modulus (GPa) = 16.32766 29.66308 22.99537
#
# Velocity S-wave (km/s) = 2.81584 3.79537 3.34169
# Velocity P-wave (km/s) = 5.85433 6.90426 6.40086
#
# Compressibility (1/GPa) = 0.02048911
#
# Stress axis : x y z
#
# Youngs Moduli (GPa) = 84.76633 113.01671 84.86769
#
# Poissons Ratio (x) = 0.44009 -0.17533
# Poissons Ratio (y) = 0.33009 0.35148
# Poissons Ratio (z) = -0.17512 0.46806
#
# Static dielectric constant tensor:
#      x y z
#    x 1.696120 0.000000 0.000000 
#    y 0.000000 1.815260 0.000000 
#    z 0.000000 0.000000 1.719120 
# 
# From -- ./inp_files/5738.got.cif
#   From: 2010.05.17/outbox.cif.g08.bks.cpg/sg38_3_cif.got.tgz:5738.got - 2010.06.03 18:07:57.
