data_PCOD9359686
_publ_section_title
;
Structure prediction by ZEFSAII (Michael W. Deem and Ramdas Pophale) SiO2 
 PCOD9359686
Probable space group: A B M 2
;
_chemical_formula_sum "Si O2"
_cell_formula_units_Z 56
_cell_length_a 34.043545
_cell_length_b 15.058009
_cell_length_c 5.215594
_cell_angle_alpha 90.000000
_cell_angle_beta 90.000000
_cell_angle_gamma 90.000000
_cell_volume 2673.659558
_symmetry_space_group_name_H-M "A B M 2"
_symmetry_group_IT_number 39
_symmetry_cell_setting 'orthorhombic'
loop_
_space_group_symop_operation_xyz
x,y,z
-x,-y,z
-x,1/2+y,z
x,1/2-y,z
x,1/2+y,1/2+z
-x,1/2-y,1/2+z
-x,y,1/2+z
x,-y,1/2+z
loop_
_atom_site_type_symbol
_atom_site_label
_atom_site_fract_x
_atom_site_fract_y
_atom_site_fract_z
Si Si1 0.184308 0.356988 0.275580
Si Si2 0.395567 0.558057 0.255612
Si Si3 0.983808 0.602215 0.293656
Si Si4 0.228880 0.643181 0.275508
Si Si5 0.311147 0.941991 0.149163
Si Si6 0.897568 0.943796 0.142782
Si Si7 0.522180 0.143147 0.129185
O O1 0.185162 0.250000 0.278921
O O2 0.199503 0.388721 0.551643
O O3 0.140774 0.387538 0.207028
O O4 0.213878 0.388413 0.052056
O O5 0.396426 0.521737 0.545702
O O6 0.353349 0.603318 0.202494
O O7 0.433988 0.614443 0.197106
O O8 0.939125 0.602001 0.202083
O O9 0.000000 0.500000 0.327860
O O10 0.989675 0.642743 0.571582
O O11 0.227425 0.750000 0.278590
O O12 0.272687 0.614239 0.207778
O O13 0.310318 0.021829 0.358930
O O14 0.896876 0.024505 0.348805
O O15 0.520653 0.250000 0.125215
O O16 0.492839 0.111096 0.353087
#
# Coordination Sequence:
#
# PCOD9359686 Si02
#       7
#     8   8   8   8   8   8   8
#     4  10  23  39  53  76 113 142 169 215 267 316
#     4  10  21  36  54  81 110 141 179 218 273 328
#     4  10  16  30  48  73 103 131 161 214 257 292
#     4  10  21  39  58  76 103 146 181 208 261 325
#     4  10  21  36  57  82 111 138 172 229 272 307
#     4  12  21  32  55  84 101 134 179 216 254 306
#     4  10  21  36  54  78 109 144 183 229 271 310
#
# _framework density 20.945074999999999
#
# number of rings (size 3 to 8) (size 9 to 14) (size 15 to 20)
#    0.000    1.714    2.857    2.571    0.000    5.714 
#    0.000    0.000    0.000   11.143    0.000    0.000 
#    0.000    0.000    0.000    0.000    0.000    0.000 
#
# Total GULP energy -156393.167997 kJ/mol
# GULP energy per Si atom -5585.470286 kJ/mol
# Density = 2.089740 g / cm^3
# Si number density = 20.945075 Si / 1000 Ang^3
#
#
#
# Elastic Constant Matrix: (Units=GPa)
#
#
# Indices 1 2 3 4 5 6 
#
# 1 100.2970 -0.5703 -14.0480 0.0000 0.0000 0.0000
# 2 -0.5703 20.0743 -2.9209 0.0000 0.0000 0.0000
# 3 -14.0480 -2.9209 81.2561 0.0000 0.0000 0.0000
# 4 0.0000 0.0000 0.0000 2.2592 0.0000 0.0000
# 5 0.0000 0.0000 0.0000 0.0000 34.3508 0.0000
# 6 0.0000 0.0000 0.0000 0.0000 0.0000 -558.8441
#
#
#
# Elastic Compliance Matrix: (Units=1/GPa)
#
#
# Indices 1 2 3 4 5 6 
#
# 1 0.010224 0.000551 0.001787 0.000000 0.000000 0.000000
# 2 0.000551 0.050107 0.001896 0.000000 0.000000 0.000000
# 3 0.001787 0.001896 0.012684 0.000000 0.000000 0.000000
# 4 0.000000 0.000000 0.000000 0.442631 0.000000 0.000000
# 5 0.000000 0.000000 0.000000 0.000000 0.029111 0.000000
# 6 0.000000 0.000000 0.000000 0.000000 0.000000 -0.001789
#
#
# Mechanical properties :
#
#
# Convention : Reuss Voigt Hill
#
# Bulk Modulus (GPa) = 12.27251 18.50544 15.38898
# Shear Modulus (GPa) = 8.90219 -89.83572 -40.46677
#
# Velocity S-wave (km/s) = 2.06385 -6.55623 -4.40027
# Velocity P-wave (km/s) = 3.39874 6.96117 4.29572
#
# Compressibility (1/GPa) = 0.08148290
#
# Stress axis : x y z
#
# Youngs Moduli (GPa) = 97.81046 19.95746 78.83979
#
# Poissons Ratio (x) = -0.01099 -0.14091
# Poissons Ratio (y) = -0.05385 -0.14951
# Poissons Ratio (z) = -0.17482 -0.03785
#
# Static dielectric constant tensor:
#      x y z
#    x 1.737750 0.000000 0.000000 
#    y 0.000000 1.828370 0.000000 
#    z 0.000000 0.000000 1.769850 
# 
# From -- ./inp_files/1486.got.cif
#   From: 2010.05.17/outbox.cif.g08.bks.cpg/sg39_1_cif.got.tgz:1486.got - 2010.06.03 18:22:40.
