data_PCOD9359173
_publ_section_title
;
Structure prediction by ZEFSAII (Michael W. Deem and Ramdas Pophale) SiO2 
 PCOD9359173
Probable space group: A M M 2
;
_chemical_formula_sum "Si O2"
_cell_formula_units_Z 56
_cell_length_a 14.632883
_cell_length_b 13.792574
_cell_length_c 12.566493
_cell_angle_alpha 90.000000
_cell_angle_beta 90.000000
_cell_angle_gamma 90.000000
_cell_volume 2536.233978
_symmetry_space_group_name_H-M "A M M 2"
_symmetry_group_IT_number 38
_symmetry_cell_setting 'orthorhombic'
loop_
_space_group_symop_operation_xyz
x,y,z
-x,-y,z
-x,y,z
x,-y,z
x,1/2+y,1/2+z
-x,1/2-y,1/2+z
-x,1/2+y,1/2+z
x,1/2-y,1/2+z
loop_
_atom_site_type_symbol
_atom_site_label
_atom_site_fract_x
_atom_site_fract_y
_atom_site_fract_z
Si Si1 0.743437 0.116229 0.018070
Si Si2 0.898694 0.382899 0.118344
Si Si3 0.730099 0.615633 0.266641
Si Si4 0.893802 0.117204 0.187377
Si Si5 0.599418 0.384365 0.890965
Si Si6 0.395004 0.778829 0.169780
Si Si7 0.801153 0.117917 0.407368
O O1 0.836232 0.142320 0.081987
O O2 0.662577 0.173685 0.075672
O O3 0.729872 0.000000 0.032531
O O4 0.744136 0.133770 0.891972
O O5 0.900213 0.500000 0.115471
O O6 0.821973 0.357989 0.203312
O O7 0.000000 0.350479 0.145523
O O8 0.868251 0.351437 0.001040
O O9 0.712514 0.500000 0.251989
O O10 0.651051 0.681544 0.216279
O O11 0.837839 0.149696 0.292375
O O12 0.000000 0.146132 0.188164
O O13 0.894452 0.000000 0.192170
O O14 0.500000 0.346620 0.928642
O O15 0.597050 0.500000 0.903177
O O16 0.606659 0.355355 0.767427
O O17 0.697435 0.352078 0.935986
O O18 0.500000 0.762023 0.142011
O O19 0.800198 0.000000 0.404874
#
# Coordination Sequence:
#
# PCOD9359173 Si02
#       7
#     8   8   8   8   8   8   8
#     4  10  21  41  67  96 130 169 213 266 323 386
#     4   9  18  35  60  87 118 166 220 262 313 383
#     4  10  24  44  65  92 131 173 214 262 320 387
#     4   9  16  28  53  91 129 166 209 260 322 384
#     4   9  17  31  56  92 129 164 207 262 322 377
#     4  11  23  40  64  92 125 167 215 265 320 382
#     4   9  15  27  52  88 128 163 204 262 318 374
#
# _framework density 22.079982000000001
#
# number of rings (size 3 to 8) (size 9 to 14) (size 15 to 20)
#    0.000    2.429    1.429    0.857    0.000    5.143 
#    0.000    7.143    0.000    2.571    0.000    2.000 
#    0.000    0.000    0.000    0.000    0.000    0.000 
#
# Total GULP energy -156511.049300 kJ/mol
# GULP energy per Si atom -5589.680332 kJ/mol
# Density = 2.202973 g / cm^3
# Si number density = 22.079982 Si / 1000 Ang^3
#
#
#
# Elastic Constant Matrix: (Units=GPa)
#
#
# Indices 1 2 3 4 5 6 
#
# 1 190.9413 23.3223 46.0344 0.0000 0.0000 0.0000
# 2 23.3223 84.4026 33.7629 0.0000 0.0000 0.0000
# 3 46.0344 33.7629 99.7223 0.0000 0.0000 0.0000
# 4 0.0000 0.0000 0.0000 30.2399 0.0000 0.0000
# 5 0.0000 0.0000 0.0000 0.0000 -16.5341 0.0000
# 6 0.0000 0.0000 0.0000 0.0000 0.0000 -3.4265
#
#
#
# Elastic Compliance Matrix: (Units=1/GPa)
#
#
# Indices 1 2 3 4 5 6 
#
# 1 0.005922 -0.000628 -0.002521 0.000000 0.000000 0.000000
# 2 -0.000628 0.013771 -0.004372 0.000000 0.000000 0.000000
# 3 -0.002521 -0.004372 0.012672 0.000000 0.000000 0.000000
# 4 0.000000 0.000000 0.000000 0.033069 0.000000 0.000000
# 5 0.000000 0.000000 0.000000 0.000000 -0.060481 0.000000
# 6 0.000000 0.000000 0.000000 0.000000 0.000000 -0.291842
#
#
# Mechanical properties :
#
#
# Convention : Reuss Voigt Hill
#
# Bulk Modulus (GPa) = 57.73146 64.58951 61.16048
# Shear Modulus (GPa) = -18.79178 20.18563 0.69692
#
# Velocity S-wave (km/s) = -2.92049 3.02686 0.56242
# Velocity P-wave (km/s) = 3.85110 6.44452 5.30862
#
# Compressibility (1/GPa) = 0.01732158
#
# Stress axis : x y z
#
# Youngs Moduli (GPa) = 168.87042 72.61882 78.91405
#
# Poissons Ratio (x) = 0.04559 0.19895
# Poissons Ratio (y) = 0.10602 0.34505
# Poissons Ratio (z) = 0.42573 0.31752
#
# Static dielectric constant tensor:
#      x y z
#    x 1.786810 0.000000 0.000000 
#    y 0.000000 1.851320 0.000000 
#    z 0.000000 0.000000 1.770150 
# 
# From -- ./inp_files/10093.got.cif
#   From: 2010.05.17/outbox.cif.g08.bks.cpg/sg38_6_cif.got.tgz:10093.got - 2010.06.03 18:07:57.
