data_PCOD9359897
_publ_section_title
;
Structure prediction by ZEFSAII (Michael W. Deem and Ramdas Pophale) SiO2 
 PCOD9359897
Probable space group: A B M 2
;
_chemical_formula_sum "Si O2"
_cell_formula_units_Z 52
_cell_length_a 10.779620
_cell_length_b 9.798439
_cell_length_c 27.782745
_cell_angle_alpha 90.000000
_cell_angle_beta 90.000000
_cell_angle_gamma 90.000000
_cell_volume 2934.509350
_symmetry_space_group_name_H-M "A B M 2"
_symmetry_group_IT_number 39
_symmetry_cell_setting 'orthorhombic'
loop_
_space_group_symop_operation_xyz
x,y,z
-x,-y,z
-x,1/2+y,z
x,1/2-y,z
x,1/2+y,1/2+z
-x,1/2-y,1/2+z
-x,y,1/2+z
x,-y,1/2+z
loop_
_atom_site_type_symbol
_atom_site_label
_atom_site_fract_x
_atom_site_fract_y
_atom_site_fract_z
Si Si1 0.379555 0.413505 0.030230
Si Si2 0.172993 0.397854 0.489310
Si Si3 0.760939 0.911909 0.125412
Si Si4 0.376585 0.412312 0.330311
Si Si5 0.622035 0.587386 0.217115
Si Si6 0.884465 0.908142 0.377687
Si Si7 0.000000 0.000000 0.067149
O O1 0.500000 0.500000 0.016679
O O2 0.391327 0.250000 0.023866
O O3 0.345730 0.443233 0.086209
O O4 0.263953 0.477285 0.001213
O O5 0.238949 0.250000 0.492513
O O6 0.121615 0.411244 0.435677
O O7 0.064626 0.398358 0.529119
O O8 0.769028 0.750000 0.127840
O O9 0.725176 0.959310 0.178705
O O10 0.888624 0.958289 0.101878
O O11 0.500000 0.500000 0.342067
O O12 0.400003 0.250000 0.338542
O O13 0.348693 0.431475 0.273413
O O14 0.251623 0.451465 0.358744
O O15 0.500000 0.500000 0.206848
O O16 0.599369 0.750000 0.210235
O O17 0.902048 0.750000 0.362770
O O18 0.000000 0.000000 0.361381
#
# Coordination Sequence:
#
# PCOD9359897 Si02
#       7
#     8   8   8   8   8   8   4
#     4  10  20  33  50  74 104 135 172 217 264 313
#     4  10  20  34  53  73 101 138 177 216 260 316
#     4   9  18  31  49  73 101 135 174 212 257 308
#     4   9  19  36  58  81 109 141 178 223 272 324
#     4   9  17  33  55  77 103 135 169 211 261 313
#     4  10  21  37  56  82 109 141 182 224 271 322
#     4  10  18  32  50  72 104 138 178 212 258 304
#
# _framework density 17.720168000000001
#
# number of rings (size 3 to 8) (size 9 to 14) (size 15 to 20)
#    0.000    2.462    0.769    1.385    0.000    2.462 
#    1.385    5.385    0.000    0.000    0.000    0.000 
#    0.000    0.000    0.000    0.000    0.000    0.000 
#
# Total GULP energy -144751.873134 kJ/mol
# GULP energy per Si atom -5567.379736 kJ/mol
# Density = 1.767984 g / cm^3
# Si number density = 17.720168 Si / 1000 Ang^3
#
#
#
# Elastic Constant Matrix: (Units=GPa)
#
#
# Indices 1 2 3 4 5 6 
#
# 1 116.5973 47.8040 45.9536 0.0000 0.0000 0.0000
# 2 47.8040 51.0491 14.4254 0.0000 0.0000 0.0000
# 3 45.9536 14.4254 60.4459 0.0000 0.0000 0.0000
# 4 0.0000 0.0000 0.0000 18.7019 0.0000 0.0000
# 5 0.0000 0.0000 0.0000 0.0000 18.1057 0.0000
# 6 0.0000 0.0000 0.0000 0.0000 0.0000 24.2349
#
#
#
# Elastic Compliance Matrix: (Units=1/GPa)
#
#
# Indices 1 2 3 4 5 6 
#
# 1 0.018812 -0.014556 -0.010828 0.000000 0.000000 0.000000
# 2 -0.014556 0.032269 0.003365 0.000000 0.000000 0.000000
# 3 -0.010828 0.003365 0.023972 0.000000 0.000000 0.000000
# 4 0.000000 0.000000 0.000000 0.053470 0.000000 0.000000
# 5 0.000000 0.000000 0.000000 0.000000 0.055231 0.000000
# 6 0.000000 0.000000 0.000000 0.000000 0.000000 0.041263
#
#
# Mechanical properties :
#
#
# Convention : Reuss Voigt Hill
#
# Bulk Modulus (GPa) = 32.24166 49.38425 40.81295
# Shear Modulus (GPa) = 17.89584 20.20244 19.04914
#
# Velocity S-wave (km/s) = 3.18136 3.38017 3.28227
# Velocity P-wave (km/s) = 5.63286 6.56990 6.11934
#
# Compressibility (1/GPa) = 0.03101578
#
# Stress axis : x y z
#
# Youngs Moduli (GPa) = 53.15736 30.98934 41.71471
#
# Poissons Ratio (x) = 0.45110 0.45168
# Poissons Ratio (y) = 0.77378 -0.14039
# Poissons Ratio (z) = 0.57558 -0.10429
#
# Static dielectric constant tensor:
#      x y z
#    x 1.653710 0.000000 0.000000 
#    y 0.000000 1.624280 0.000000 
#    z 0.000000 0.000000 1.619760 
# 
# From -- ./inp_files/16998.got.cif
#   From: 2010.05.17/outbox.cif.g08.bks.cpg/sg39_9_cif.got.tgz:16998.got - 2010.06.03 18:22:40.
