data_PCOD9359037
_publ_section_title
;
Structure prediction by ZEFSAII (Michael W. Deem and Ramdas Pophale) SiO2 
 PCOD9359037
Probable space group: A M M 2
;
_chemical_formula_sum "Si O2"
_cell_formula_units_Z 64
_cell_length_a 24.306914
_cell_length_b 8.244744
_cell_length_c 15.828959
_cell_angle_alpha 90.000000
_cell_angle_beta 90.000000
_cell_angle_gamma 90.000000
_cell_volume 3172.191185
_symmetry_space_group_name_H-M "A M M 2"
_symmetry_group_IT_number 38
_symmetry_cell_setting 'orthorhombic'
loop_
_space_group_symop_operation_xyz
x,y,z
-x,-y,z
-x,y,z
x,-y,z
x,1/2+y,1/2+z
-x,1/2-y,1/2+z
-x,1/2+y,1/2+z
x,1/2-y,1/2+z
loop_
_atom_site_type_symbol
_atom_site_label
_atom_site_fract_x
_atom_site_fract_y
_atom_site_fract_z
Si Si1 0.124910 0.188816 0.700090
Si Si2 0.437425 0.698009 0.046107
Si Si3 0.140282 0.802637 0.886748
Si Si4 0.254949 0.306720 0.955331
Si Si5 0.357758 0.692530 0.197542
Si Si6 0.240669 0.312671 0.645416
Si Si7 0.062004 0.306524 0.538058
Si Si8 0.627081 0.304105 0.879816
O O1 0.117445 0.248649 0.795720
O O2 0.189326 0.209522 0.678065
O O3 0.089709 0.274424 0.628110
O O4 0.110321 0.000000 0.697436
O O5 0.500000 0.752152 0.058763
O O6 0.437248 0.500000 0.047485
O O7 0.396538 0.750399 0.120868
O O8 0.413755 0.746410 0.954882
O O9 0.201561 0.737369 0.901215
O O10 0.143027 0.000000 0.887650
O O11 0.101939 0.745441 0.963735
O O12 0.257288 0.500000 0.969479
O O13 0.311392 0.258265 0.909792
O O14 0.249390 0.223075 0.046329
O O15 0.349974 0.500000 0.187597
O O16 0.297908 0.773453 0.191029
O O17 0.383696 0.730363 0.288306
O O18 0.226100 0.500000 0.657690
O O19 0.059044 0.500000 0.526381
O O20 0.000000 0.240792 0.533629
O O21 0.625070 0.500000 0.872896
#
# Coordination Sequence:
#
# PCOD9359037 Si02
#       8
#     8   8   8   8   8   8   8   8
#     4  11  23  39  62  92 122 154 199 247 294 351
#     4   9  19  38  61  83 115 159 201 244 296 350
#     4  10  22  39  60  88 120 157 195 238 295 354
#     4  11  21  36  60  89 120 153 192 241 295 357
#     4  11  22  38  60  89 120 155 199 244 294 351
#     4  12  23  37  60  88 121 158 194 238 300 360
#     4  10  22  41  62  85 118 161 204 246 294 346
#     4  10  21  38  59  87 119 155 195 238 296 357
#
# _framework density 20.175328
#
# number of rings (size 3 to 8) (size 9 to 14) (size 15 to 20)
#    0.000    1.500    2.500    3.000    0.000    5.250 
#    0.000    1.250    0.000    2.625    0.000    0.000 
#    0.000    0.000    0.000    0.000    0.000    0.000 
#
# Total GULP energy -178883.348578 kJ/mol
# GULP energy per Si atom -5590.104643 kJ/mol
# Density = 2.012941 g / cm^3
# Si number density = 20.175328 Si / 1000 Ang^3
#
#
#
# Elastic Constant Matrix: (Units=GPa)
#
#
# Indices 1 2 3 4 5 6 
#
# 1 79.1993 -6.8818 0.4711 0.0000 0.0000 0.0000
# 2 -6.8818 13.8168 -4.2004 0.0000 0.0000 0.0000
# 3 0.4711 -4.2004 86.6186 0.0000 0.0000 0.0000
# 4 0.0000 0.0000 0.0000 27.8789 0.0000 0.0000
# 5 0.0000 0.0000 0.0000 0.0000 4.7162 0.0000
# 6 0.0000 0.0000 0.0000 0.0000 0.0000 13.9067
#
#
#
# Elastic Compliance Matrix: (Units=1/GPa)
#
#
# Indices 1 2 3 4 5 6 
#
# 1 0.013203 0.006652 0.000251 0.000000 0.000000 0.000000
# 2 0.006652 0.076811 0.003689 0.000000 0.000000 0.000000
# 3 0.000251 0.003689 0.011722 0.000000 0.000000 0.000000
# 4 0.000000 0.000000 0.000000 0.035869 0.000000 0.000000
# 5 0.000000 0.000000 0.000000 0.000000 0.212037 0.000000
# 6 0.000000 0.000000 0.000000 0.000000 0.000000 0.071908
#
#
# Mechanical properties :
#
#
# Convention : Reuss Voigt Hill
#
# Bulk Modulus (GPa) = 8.13542 17.60138 12.86840
# Shear Modulus (GPa) = 11.32914 21.98338 16.65626
#
# Velocity S-wave (km/s) = 2.37224 3.30452 2.87640
# Velocity P-wave (km/s) = 3.39772 4.82731 4.17417
#
# Compressibility (1/GPa) = 0.12291922
#
# Stress axis : x y z
#
# Youngs Moduli (GPa) = 75.74087 13.01905 85.30691
#
# Poissons Ratio (x) = -0.08661 -0.02139
# Poissons Ratio (y) = -0.50385 -0.31466
# Poissons Ratio (z) = -0.01899 -0.04802
#
# Static dielectric constant tensor:
#      x y z
#    x 1.690140 0.000000 0.000000 
#    y 0.000000 1.712480 0.000000 
#    z 0.000000 0.000000 1.709150 
# 
# From -- ./inp_files/15754.got.cif
#   From: 2010.05.17/outbox.cif.g08.bks.cpg/sg38_8_cif.got.tgz:15754.got - 2010.06.03 18:07:57.
