data_PCOD9359665
_publ_section_title
;
Structure prediction by ZEFSAII (Michael W. Deem and Ramdas Pophale) SiO2 
 PCOD9359665
Probable space group: A B M 2
;
_chemical_formula_sum "Si O2"
_cell_formula_units_Z 52
_cell_length_a 25.341006
_cell_length_b 18.218193
_cell_length_c 5.434618
_cell_angle_alpha 90.000000
_cell_angle_beta 90.000000
_cell_angle_gamma 90.000000
_cell_volume 2508.985626
_symmetry_space_group_name_H-M "A B M 2"
_symmetry_group_IT_number 39
_symmetry_cell_setting 'orthorhombic'
loop_
_space_group_symop_operation_xyz
x,y,z
-x,-y,z
-x,1/2+y,z
x,1/2-y,z
x,1/2+y,1/2+z
-x,1/2-y,1/2+z
-x,y,1/2+z
x,-y,1/2+z
loop_
_atom_site_type_symbol
_atom_site_label
_atom_site_fract_x
_atom_site_fract_y
_atom_site_fract_z
Si Si1 0.021678 0.583324 0.727580
Si Si2 0.533985 0.089099 0.785945
Si Si3 0.812367 0.587968 0.833106
Si Si4 0.530925 0.750000 0.203521
Si Si5 0.647686 0.425800 0.722964
Si Si6 0.309977 0.587839 0.223954
Si Si7 0.854440 0.419154 0.832894
O O1 0.083902 0.576917 0.772495
O O2 0.000000 0.500000 0.707295
O O3 0.006315 0.617943 0.465978
O O4 0.503259 0.079903 0.044649
O O5 0.556111 0.172414 0.765029
O O6 0.588104 0.045440 0.766810
O O7 0.828822 0.501208 0.853868
O O8 0.844950 0.616145 0.598713
O O9 0.751324 0.599677 0.772449
O O10 0.826523 0.618590 0.100758
O O11 0.515813 0.750000 0.913770
O O12 0.668321 0.383672 0.963440
O O13 0.682283 0.499732 0.701721
O O14 0.655971 0.387459 0.460223
#
# Coordination Sequence:
#
# PCOD9359665 Si02
#       7
#     8   8   8   4   8   8   8
#     4  10  16  22  28  39  59  78  99 138 189 234
#     4  10  19  32  47  64  80  99 122 149 178 219
#     4  10  16  25  36  46  61  83 117 150 176 213
#     4   8  16  30  48  64  80  96 118 148 180 208
#     4  10  18  30  43  57  77 100 124 146 182 224
#     4  10  19  30  40  55  77 102 124 155 188 221
#     4  10  16  22  33  46  56  80 115 146 181 227
#
# _framework density 20.725507
#
# number of rings (size 3 to 8) (size 9 to 14) (size 15 to 20)
#    0.000    2.154    0.000   10.154    0.000    0.000 
#    0.000    9.231    0.000    0.000    0.000    0.000 
#    0.000    0.000    0.000    0.000    0.000    0.000 
#
# Total GULP energy -144825.824021 kJ/mol
# GULP energy per Si atom -5570.224001 kJ/mol
# Density = 2.067833 g / cm^3
# Si number density = 20.725507 Si / 1000 Ang^3
#
#
#
# Elastic Constant Matrix: (Units=GPa)
#
#
# Indices 1 2 3 4 5 6 
#
# 1 57.0593 -4.3882 -26.1736 0.0000 0.0000 0.0000
# 2 -4.3882 17.2891 -1.7773 0.0000 0.0000 0.0000
# 3 -26.1736 -1.7773 140.6634 0.0000 0.0000 0.0000
# 4 0.0000 0.0000 0.0000 -53.7751 0.0000 0.0000
# 5 0.0000 0.0000 0.0000 0.0000 40.1806 0.0000
# 6 0.0000 0.0000 0.0000 0.0000 0.0000 -26.6331
#
#
#
# Elastic Compliance Matrix: (Units=1/GPa)
#
#
# Indices 1 2 3 4 5 6 
#
# 1 0.019647 0.005369 0.003724 0.000000 0.000000 0.000000
# 2 0.005369 0.059383 0.001749 0.000000 0.000000 0.000000
# 3 0.003724 0.001749 0.007824 0.000000 0.000000 0.000000
# 4 0.000000 0.000000 0.000000 -0.018596 0.000000 0.000000
# 5 0.000000 0.000000 0.000000 0.000000 0.024888 0.000000
# 6 0.000000 0.000000 0.000000 0.000000 0.000000 -0.037547
#
#
# Mechanical properties :
#
#
# Convention : Reuss Voigt Hill
#
# Bulk Modulus (GPa) = 9.21337 16.70374 12.95856
# Shear Modulus (GPa) = 71.33426 8.44454 39.88940
#
# Velocity S-wave (km/s) = 5.87310 2.02072 4.39185
# Velocity P-wave (km/s) = 7.10255 3.67715 5.65542
#
# Compressibility (1/GPa) = 0.10853787
#
# Stress axis : x y z
#
# Youngs Moduli (GPa) = 50.89948 16.83992 127.80995
#
# Poissons Ratio (x) = -0.09042 -0.47590
# Poissons Ratio (y) = -0.27330 -0.22359
# Poissons Ratio (z) = -0.18953 -0.02946
#
# Static dielectric constant tensor:
#      x y z
#    x 1.714950 0.000000 0.000000 
#    y 0.000000 2.971250 0.000000 
#    z 0.000000 0.000000 1.909010 
# 
# From -- ./inp_files/1051.got.cif
#   From: 2010.05.17/outbox.cif.g08.bks.cpg/sg39_1_cif.got.tgz:1051.got - 2010.06.03 18:22:40.
