data_PCOD9359225
_publ_section_title
;
Structure prediction by ZEFSAII (Michael W. Deem and Ramdas Pophale) SiO2 
 PCOD9359225
Probable space group: A M M 2
;
_chemical_formula_sum "Si O2"
_cell_formula_units_Z 58
_cell_length_a 7.921691
_cell_length_b 19.854923
_cell_length_c 15.292520
_cell_angle_alpha 90.000000
_cell_angle_beta 90.000000
_cell_angle_gamma 90.000000
_cell_volume 2405.277353
_symmetry_space_group_name_H-M "A M M 2"
_symmetry_group_IT_number 38
_symmetry_cell_setting 'orthorhombic'
loop_
_space_group_symop_operation_xyz
x,y,z
-x,-y,z
-x,y,z
x,-y,z
x,1/2+y,1/2+z
-x,1/2-y,1/2+z
-x,1/2+y,1/2+z
x,1/2-y,1/2+z
loop_
_atom_site_type_symbol
_atom_site_label
_atom_site_fract_x
_atom_site_fract_y
_atom_site_fract_z
Si Si1 0.194827 0.575202 0.768350
Si Si2 0.195218 0.576344 0.403860
Si Si3 0.303814 0.723322 0.819366
Si Si4 0.810354 0.259688 0.006225
Si Si5 0.307820 0.120010 0.085661
Si Si6 0.310898 0.098196 0.551444
Si Si7 0.202580 0.150708 0.733342
Si Si8 0.000000 0.000000 0.504899
O O1 0.264468 0.500000 0.789062
O O2 0.275311 0.643535 0.805786
O O3 0.203716 0.586436 0.663684
O O4 0.000000 0.574532 0.797652
O O5 0.192825 0.500000 0.372165
O O6 0.291724 0.580838 0.494698
O O7 0.264301 0.620756 0.325392
O O8 0.000000 0.596616 0.422756
O O9 0.500000 0.734998 0.836257
O O10 0.250248 0.770210 0.737374
O O11 0.196969 0.749241 0.901860
O O12 0.749877 0.194221 0.057207
O O13 0.698261 0.324807 0.020613
O O14 0.000000 0.275364 0.034882
O O15 0.500000 0.121719 0.117074
O O16 0.500000 0.072852 0.533567
O O17 0.278919 0.107051 0.655243
O O18 0.153017 0.057794 0.511397
O O19 0.000000 0.143968 0.729289
#
# Coordination Sequence:
#
# PCOD9359225 Si02
#       8
#     8   8   8   8   8   8   8   2
#     4  11  25  46  70  97 132 181 232 280 347 423
#     4  10  22  38  62  94 134 181 226 275 338 415
#     4  12  25  43  69 104 139 176 228 289 350 418
#     4  12  24  46  71  99 135 181 235 289 350 411
#     4  12  24  40  66  99 136 176 224 285 348 412
#     4  12  26  46  73 103 137 183 236 289 348 420
#     4  11  22  41  69 100 138 184 231 281 346 413
#     4  12  26  52  68 102 140 184 230 292 356 418
#
# _framework density 24.113641999999999
#
# number of rings (size 3 to 8) (size 9 to 14) (size 15 to 20)
#    0.000    0.552    2.759    6.000    0.966    3.586 
#    1.241    0.000    0.000    0.000    0.000    0.000 
#    0.000    0.000    0.000    0.000    0.000    0.000 
#
# Total GULP energy -162073.659973 kJ/mol
# GULP energy per Si atom -5588.746896 kJ/mol
# Density = 2.405876 g / cm^3
# Si number density = 24.113642 Si / 1000 Ang^3
#
#
#
# Elastic Constant Matrix: (Units=GPa)
#
#
# Indices 1 2 3 4 5 6 
#
# 1 142.6796 21.4034 -16.8949 0.0000 0.0000 0.0000
# 2 21.4034 128.6778 -7.7763 0.0000 0.0000 0.0000
# 3 -16.8949 -7.7763 50.6871 0.0000 0.0000 0.0000
# 4 0.0000 0.0000 0.0000 -27.0508 0.0000 0.0000
# 5 0.0000 0.0000 0.0000 0.0000 62.9004 0.0000
# 6 0.0000 0.0000 0.0000 0.0000 0.0000 -0.8354
#
#
#
# Elastic Compliance Matrix: (Units=1/GPa)
#
#
# Indices 1 2 3 4 5 6 
#
# 1 0.007448 -0.001099 0.002314 0.000000 0.000000 0.000000
# 2 -0.001099 0.008006 0.000862 0.000000 0.000000 0.000000
# 3 0.002314 0.000862 0.020632 0.000000 0.000000 0.000000
# 4 0.000000 0.000000 0.000000 -0.036967 0.000000 0.000000
# 5 0.000000 0.000000 0.000000 0.000000 0.015898 0.000000
# 6 0.000000 0.000000 0.000000 0.000000 0.000000 -1.197098
#
#
# Mechanical properties :
#
#
# Convention : Reuss Voigt Hill
#
# Bulk Modulus (GPa) = 24.85100 35.05654 29.95377
# Shear Modulus (GPa) = -4.26322 28.69033 12.21355
#
# Velocity S-wave (km/s) = -1.33109 3.45308 2.25300
# Velocity P-wave (km/s) = 2.82237 5.51978 4.38371
#
# Compressibility (1/GPa) = 0.04023983
#
# Stress axis : x y z
#
# Youngs Moduli (GPa) = 134.27248 124.90266 48.46758
#
# Poissons Ratio (x) = 0.13726 -0.11214
# Poissons Ratio (y) = 0.14756 -0.04178
# Poissons Ratio (z) = -0.31068 -0.10767
#
# Static dielectric constant tensor:
#      x y z
#    x 1.758190 0.000000 0.000000 
#    y 0.000000 1.958610 0.000000 
#    z 0.000000 0.000000 1.975570 
# 
# From -- ./inp_files/16982.got.cif
#   From: 2010.05.17/outbox.cif.g08.bks.cpg/sg38_9_cif.got.tgz:16982.got - 2010.06.03 18:07:57.
