data_PCOD9359464
_publ_section_title
;
Structure prediction by ZEFSAII (Michael W. Deem and Ramdas Pophale) SiO2 
 PCOD9359464
Probable space group: A M M 2
;
_chemical_formula_sum "Si O2"
_cell_formula_units_Z 64
_cell_length_a 21.238857
_cell_length_b 18.555312
_cell_length_c 9.296277
_cell_angle_alpha 90.000000
_cell_angle_beta 90.000000
_cell_angle_gamma 90.000000
_cell_volume 3663.603438
_symmetry_space_group_name_H-M "A M M 2"
_symmetry_group_IT_number 38
_symmetry_cell_setting 'orthorhombic'
loop_
_space_group_symop_operation_xyz
x,y,z
-x,-y,z
-x,y,z
x,-y,z
x,1/2+y,1/2+z
-x,1/2-y,1/2+z
-x,1/2+y,1/2+z
x,1/2-y,1/2+z
loop_
_atom_site_type_symbol
_atom_site_label
_atom_site_fract_x
_atom_site_fract_y
_atom_site_fract_z
Si Si1 0.319680 0.326669 0.657260
Si Si2 0.069309 0.587487 0.153345
Si Si3 0.194443 0.584140 0.312753
Si Si4 0.573233 0.913985 0.653744
Si Si5 0.930691 0.412513 0.816145
Si Si6 0.573233 0.413985 0.815747
Si Si7 0.319680 0.173331 0.812230
Si Si8 0.805557 0.415860 0.656738
O O1 0.379051 0.371233 0.716125
O O2 0.318621 0.250000 0.734745
O O3 0.322880 0.319100 0.484745
O O4 0.255959 0.370273 0.694256
O O5 0.068879 0.500000 0.163677
O O6 0.130529 0.611926 0.239278
O O7 0.000000 0.612208 0.204240
O O8 0.075188 0.605330 0.984745
O O9 0.203897 0.500000 0.271470
O O10 0.255959 0.629727 0.275234
O O11 0.186575 0.586269 0.484745
O O12 0.500000 0.896539 0.683135
O O13 0.585287 0.898106 0.484745
O O14 0.620949 0.871233 0.753366
O O15 0.580900 0.000000 0.673034
O O16 0.931121 0.500000 0.805813
O O17 0.869471 0.388074 0.730212
O O18 0.000000 0.387792 0.765250
O O19 0.500000 0.396539 0.786355
O O20 0.580900 0.500000 0.796456
O O21 0.796103 0.500000 0.698021
#
# Coordination Sequence:
#
# PCOD9359464 Si02
#       8
#     8   8   8   8   8   8   8   8
#     4  11  23  37  53  75 105 140 177 216 257 304
#     4   8  14  25  43  70 101 129 160 201 249 301
#     4   9  18  32  50  73 100 130 166 209 256 305
#     4   9  19  37  60  84 108 134 167 208 254 306
#     4   8  14  25  43  70 101 129 160 201 249 301
#     4   9  19  37  60  84 108 134 167 208 254 306
#     4  11  23  37  53  75 105 140 177 216 257 304
#     4   9  18  32  50  73 100 130 166 209 256 305
#
# _framework density 17.469138999999998
#
# number of rings (size 3 to 8) (size 9 to 14) (size 15 to 20)
#    0.000    2.750    0.000    3.000    0.000    5.000 
#    0.000    6.250    0.000    0.750    0.000    0.000 
#    0.000    0.000    0.000    0.000    0.000    0.000 
#
# Total GULP energy -178406.135644 kJ/mol
# GULP energy per Si atom -5575.191739 kJ/mol
# Density = 1.742938 g / cm^3
# Si number density = 17.469139 Si / 1000 Ang^3
#
#
#
# Elastic Constant Matrix: (Units=GPa)
#
#
# Indices 1 2 3 4 5 6 
#
# 1 168.2027 70.1120 83.0683 0.0000 0.0000 0.0000
# 2 70.1120 52.8605 45.1767 0.0000 0.0000 0.0000
# 3 83.0683 45.1767 58.4131 0.0000 0.0000 0.0000
# 4 0.0000 0.0000 0.0000 15.5287 0.0000 0.0000
# 5 0.0000 0.0000 0.0000 0.0000 37.9379 0.0000
# 6 0.0000 0.0000 0.0000 0.0000 0.0000 -7.4187
#
#
#
# Elastic Compliance Matrix: (Units=1/GPa)
#
#
# Indices 1 2 3 4 5 6 
#
# 1 0.020768 -0.006799 -0.024275 0.000000 0.000000 0.000000
# 2 -0.006799 0.058027 -0.035210 0.000000 0.000000 0.000000
# 3 -0.024275 -0.035210 0.078872 0.000000 0.000000 0.000000
# 4 0.000000 0.000000 0.000000 0.064397 0.000000 0.000000
# 5 0.000000 0.000000 0.000000 0.000000 0.026359 0.000000
# 6 0.000000 0.000000 0.000000 0.000000 0.000000 -0.134794
#
#
# Mechanical properties :
#
#
# Convention : Reuss Voigt Hill
#
# Bulk Modulus (GPa) = 39.84162 75.13225 57.48694
# Shear Modulus (GPa) = 19.64155 14.61752 17.12953
#
# Velocity S-wave (km/s) = 3.35678 2.89582 3.13479
# Velocity P-wave (km/s) = 6.15470 7.36770 6.78835
#
# Compressibility (1/GPa) = 0.02509938
#
# Stress axis : x y z
#
# Youngs Moduli (GPa) = 48.15181 17.23331 12.67877
#
# Poissons Ratio (x) = 0.11717 0.30778
# Poissons Ratio (y) = 0.32738 0.44642
# Poissons Ratio (z) = 1.16889 0.60678
#
# Static dielectric constant tensor:
#      x y z
#    x 1.592450 0.000000 0.000000 
#    y 0.000000 1.578660 0.000000 
#    z 0.000000 0.000000 1.578450 
# 
# From -- ./inp_files/6880.got.cif
#   From: 2010.05.17/outbox.cif.g08.bks.cpg/sg38_4_cif.got.tgz:6880.got - 2010.06.03 18:07:57.
