data_PCOD9359032
_publ_section_title
;
Structure prediction by ZEFSAII (Michael W. Deem and Ramdas Pophale) SiO2 
 PCOD9359032
Probable space group: A M M 2
;
_chemical_formula_sum "Si O2"
_cell_formula_units_Z 56
_cell_length_a 16.984304
_cell_length_b 8.881597
_cell_length_c 20.694985
_cell_angle_alpha 90.000000
_cell_angle_beta 90.000000
_cell_angle_gamma 90.000000
_cell_volume 3121.791788
_symmetry_space_group_name_H-M "A M M 2"
_symmetry_group_IT_number 38
_symmetry_cell_setting 'orthorhombic'
loop_
_space_group_symop_operation_xyz
x,y,z
-x,-y,z
-x,y,z
x,-y,z
x,1/2+y,1/2+z
-x,1/2-y,1/2+z
-x,1/2+y,1/2+z
x,1/2-y,1/2+z
loop_
_atom_site_type_symbol
_atom_site_label
_atom_site_fract_x
_atom_site_fract_y
_atom_site_fract_z
Si Si1 0.409081 0.179788 0.011380
Si Si2 0.155959 0.177977 0.580034
Si Si3 0.410863 0.818705 0.162942
Si Si4 0.000000 0.178175 0.028171
Si Si5 0.747481 0.818812 0.707225
Si Si6 0.000000 0.320046 0.884580
Si Si7 0.260647 0.823903 0.451318
Si Si8 0.838377 0.179835 0.837847
O O1 0.500000 0.208998 0.994614
O O2 0.398850 0.221531 0.087113
O O3 0.395434 0.000000 0.006425
O O4 0.347792 0.267326 0.967469
O O5 0.203699 0.226718 0.643404
O O6 0.210995 0.194524 0.517289
O O7 0.077107 0.269644 0.566689
O O8 0.136759 0.000000 0.586670
O O9 0.500000 0.771324 0.181058
O O10 0.339634 0.749891 0.203253
O O11 0.408210 0.000000 0.166772
O O12 0.000000 0.000000 0.018022
O O13 0.000000 0.258471 0.958135
O O14 0.796289 0.776902 0.770869
O O15 0.740211 0.000000 0.705940
O O16 0.921735 0.259716 0.849726
O O17 0.000000 0.500000 0.886632
O O18 0.218712 0.728548 0.395972
O O19 0.259544 0.000000 0.433881
O O20 0.850146 0.000000 0.838367
#
# Coordination Sequence:
#
# PCOD9359032 Si02
#       8
#     8   8   8   4   8   4   8   8
#     4   9  18  33  55  85 120 155 193 241 293 342
#     4  10  21  38  59  84 117 149 186 238 291 338
#     4   9  18  33  56  86 118 152 189 235 290 343
#     4  12  24  37  60  91 117 149 195 239 286 342
#     4  10  22  40  60  86 117 154 194 236 286 342
#     4  12  24  41  62  85 115 151 193 239 290 344
#     4  11  21  35  59  87 116 150 191 239 290 341
#     4  11  24  41  62  85 116 156 196 235 285 348
#
# _framework density 17.938414999999999
#
# number of rings (size 3 to 8) (size 9 to 14) (size 15 to 20)
#    0.000    1.714    2.857    3.000    0.000    3.429 
#    0.000    5.000    0.000    0.857    0.000    0.000 
#    0.000    0.000    0.000    0.000    0.000    0.000 
#
# Total GULP energy -156392.695219 kJ/mol
# GULP energy per Si atom -5585.453401 kJ/mol
# Density = 1.789759 g / cm^3
# Si number density = 17.938415 Si / 1000 Ang^3
#
#
#
# Elastic Constant Matrix: (Units=GPa)
#
#
# Indices 1 2 3 4 5 6 
#
# 1 145.2656 55.2110 61.2599 0.0000 0.0000 0.0000
# 2 55.2110 60.1593 43.1137 0.0000 0.0000 0.0000
# 3 61.2599 43.1137 98.8415 0.0000 0.0000 0.0000
# 4 0.0000 0.0000 0.0000 23.7855 0.0000 0.0000
# 5 0.0000 0.0000 0.0000 0.0000 14.6972 0.0000
# 6 0.0000 0.0000 0.0000 0.0000 0.0000 36.9272
#
#
#
# Elastic Compliance Matrix: (Units=1/GPa)
#
#
# Indices 1 2 3 4 5 6 
#
# 1 0.011406 -0.007858 -0.003642 0.000000 0.000000 0.000000
# 2 -0.007858 0.029596 -0.008039 0.000000 0.000000 0.000000
# 3 -0.003642 -0.008039 0.015881 0.000000 0.000000 0.000000
# 4 0.000000 0.000000 0.000000 0.042042 0.000000 0.000000
# 5 0.000000 0.000000 0.000000 0.000000 0.068040 0.000000
# 6 0.000000 0.000000 0.000000 0.000000 0.000000 0.027080
#
#
# Mechanical properties :
#
#
# Convention : Reuss Voigt Hill
#
# Bulk Modulus (GPa) = 56.16431 69.27062 62.71747
# Shear Modulus (GPa) = 20.91536 24.72742 22.82139
#
# Velocity S-wave (km/s) = 3.41831 3.71679 3.57067
# Velocity P-wave (km/s) = 6.85254 7.55771 7.21375
#
# Compressibility (1/GPa) = 0.01780490
#
# Stress axis : x y z
#
# Youngs Moduli (GPa) = 87.67008 33.78872 62.96923
#
# Poissons Ratio (x) = 0.26552 0.22932
# Poissons Ratio (y) = 0.68894 0.50621
# Poissons Ratio (z) = 0.31927 0.27163
#
# Static dielectric constant tensor:
#      x y z
#    x 1.599940 0.000000 0.000000 
#    y 0.000000 1.603530 0.000000 
#    z 0.000000 0.000000 1.593900 
# 
# From -- ./inp_files/21133.got.cif
#   From: 2010.05.17/outbox.cif.g08.bks.cpg/sg38_11_cif.got.tgz:21133.got - 2010.06.03 18:07:57.
