data_PCOD9359202
_publ_section_title
;
Structure prediction by ZEFSAII (Michael W. Deem and Ramdas Pophale) SiO2 
 PCOD9359202
Probable space group: A M M 2
;
_chemical_formula_sum "Si O2"
_cell_formula_units_Z 64
_cell_length_a 8.977928
_cell_length_b 29.017609
_cell_length_c 13.085336
_cell_angle_alpha 90.000000
_cell_angle_beta 90.000000
_cell_angle_gamma 90.000000
_cell_volume 3408.965621
_symmetry_space_group_name_H-M "A M M 2"
_symmetry_group_IT_number 38
_symmetry_cell_setting 'orthorhombic'
loop_
_space_group_symop_operation_xyz
x,y,z
-x,-y,z
-x,y,z
x,-y,z
x,1/2+y,1/2+z
-x,1/2-y,1/2+z
-x,1/2+y,1/2+z
x,1/2-y,1/2+z
loop_
_atom_site_type_symbol
_atom_site_label
_atom_site_fract_x
_atom_site_fract_y
_atom_site_fract_z
Si Si1 0.667948 0.780312 0.949710
Si Si2 0.821903 0.445164 0.565334
Si Si3 0.167619 0.797684 0.348447
Si Si4 0.326126 0.114405 0.888385
Si Si5 0.676271 0.120409 0.460843
Si Si6 0.176777 0.444772 0.795778
Si Si7 0.827841 0.750156 0.643477
Si Si8 0.177007 0.141642 0.677660
O O1 0.500000 0.767773 0.917346
O O2 0.791677 0.753055 0.886984
O O3 0.684572 0.834483 0.936438
O O4 0.703229 0.763206 0.062737
O O5 0.795059 0.500000 0.558586
O O6 0.745518 0.419560 0.471282
O O7 0.774588 0.430299 0.680590
O O8 0.000000 0.437911 0.559876
O O9 0.278821 0.832877 0.400986
O O10 0.176457 0.789898 0.228139
O O11 0.000000 0.811324 0.377221
O O12 0.500000 0.103321 0.873607
O O13 0.246905 0.118239 0.778189
O O14 0.500000 0.116907 0.472765
O O15 0.738420 0.080484 0.386877
O O16 0.752327 0.123073 0.572228
O O17 0.194102 0.500000 0.802028
O O18 0.000000 0.434520 0.804169
O O19 0.798256 0.802665 0.679859
O O20 0.000000 0.750750 0.603723
O O21 0.000000 0.134241 0.676616
#
# Coordination Sequence:
#
# PCOD9359202 Si02
#       8
#     8   8   8   8   8   8   8   8
#     4  11  23  36  54  82 119 157 194 241 296 350
#     4   9  20  41  68  94 119 152 196 244 294 351
#     4  11  22  38  57  81 113 155 206 247 287 342
#     4  11  24  39  58  90 125 159 197 243 303 360
#     4  12  25  39  59  90 124 158 196 244 304 360
#     4   9  20  42  69  94 120 153 195 243 294 352
#     4  10  22  37  56  79 109 154 204 250 290 339
#     4  11  22  40  62  84 115 161 209 249 292 346
#
# _framework density 18.774024000000001
#
# number of rings (size 3 to 8) (size 9 to 14) (size 15 to 20)
#    0.000    1.500    2.500    3.375    1.750    4.000 
#    0.000    1.875    0.000    3.750    0.000    0.000 
#    0.000    0.000    0.000    0.000    0.000    0.000 
#
# Total GULP energy -178582.890397 kJ/mol
# GULP energy per Si atom -5580.715325 kJ/mol
# Density = 1.873129 g / cm^3
# Si number density = 18.774024 Si / 1000 Ang^3
#
#
#
# Elastic Constant Matrix: (Units=GPa)
#
#
# Indices 1 2 3 4 5 6 
#
# 1 80.1624 42.0569 65.2196 0.0000 0.0000 0.0000
# 2 42.0569 53.7837 54.5276 0.0000 0.0000 0.0000
# 3 65.2196 54.5276 135.1530 0.0000 0.0000 0.0000
# 4 0.0000 0.0000 0.0000 34.3986 0.0000 0.0000
# 5 0.0000 0.0000 0.0000 0.0000 14.3967 0.0000
# 6 0.0000 0.0000 0.0000 0.0000 0.0000 32.7495
#
#
#
# Elastic Compliance Matrix: (Units=1/GPa)
#
#
# Indices 1 2 3 4 5 6 
#
# 1 0.024455 -0.012113 -0.006914 0.000000 0.000000 0.000000
# 2 -0.012113 0.037462 -0.009269 0.000000 0.000000 0.000000
# 3 -0.006914 -0.009269 0.014475 0.000000 0.000000 0.000000
# 4 0.000000 0.000000 0.000000 0.029071 0.000000 0.000000
# 5 0.000000 0.000000 0.000000 0.000000 0.069460 0.000000
# 6 0.000000 0.000000 0.000000 0.000000 0.000000 0.030535
#
#
# Mechanical properties :
#
#
# Convention : Reuss Voigt Hill
#
# Bulk Modulus (GPa) = 50.50489 65.85637 58.18063
# Shear Modulus (GPa) = 18.61156 23.46195 21.03675
#
# Velocity S-wave (km/s) = 3.15198 3.53895 3.35106
# Velocity P-wave (km/s) = 6.34086 7.20094 6.78454
#
# Compressibility (1/GPa) = 0.01980006
#
# Stress axis : x y z
#
# Youngs Moduli (GPa) = 40.89141 26.69357 69.08545
#
# Poissons Ratio (x) = 0.32335 0.47765
# Poissons Ratio (y) = 0.49534 0.64033
# Poissons Ratio (z) = 0.28272 0.24741
#
# Static dielectric constant tensor:
#      x y z
#    x 1.640310 0.000000 0.000000 
#    y 0.000000 1.636090 0.000000 
#    z 0.000000 0.000000 1.690800 
# 
# From -- ./inp_files/8559.got.cif
#   From: 2010.05.17/outbox.cif.g08.bks.cpg/sg38_5_cif.got.tgz:8559.got - 2010.06.03 18:07:57.
