data_PCOD9359304
_publ_section_title
;
Structure prediction by ZEFSAII (Michael W. Deem and Ramdas Pophale) SiO2 
 PCOD9359304
Probable space group: A M M 2
;
_chemical_formula_sum "Si O2"
_cell_formula_units_Z 48
_cell_length_a 7.962356
_cell_length_b 30.560233
_cell_length_c 9.904854
_cell_angle_alpha 90.000000
_cell_angle_beta 90.000000
_cell_angle_gamma 90.000000
_cell_volume 2410.162531
_symmetry_space_group_name_H-M "A M M 2"
_symmetry_group_IT_number 38
_symmetry_cell_setting 'orthorhombic'
loop_
_space_group_symop_operation_xyz
x,y,z
-x,-y,z
-x,y,z
x,-y,z
x,1/2+y,1/2+z
-x,1/2-y,1/2+z
-x,1/2+y,1/2+z
x,1/2-y,1/2+z
loop_
_atom_site_type_symbol
_atom_site_label
_atom_site_fract_x
_atom_site_fract_y
_atom_site_fract_z
Si Si1 0.000000 0.787353 0.589581
Si Si2 0.801788 0.098040 0.907626
Si Si3 0.691574 0.422455 0.923536
Si Si4 0.181321 0.500000 0.092363
Si Si5 0.000000 0.799604 0.267032
Si Si6 0.689568 0.000000 0.879142
Si Si7 0.303027 0.636253 0.687692
Si Si8 0.310707 0.349516 0.147502
O O1 0.000000 0.785918 0.425512
O O2 0.834950 0.813848 0.637795
O O3 0.000000 0.741126 0.664870
O O4 0.723261 0.116976 0.770099
O O5 0.000000 0.106399 0.904589
O O6 0.771387 0.046063 0.919920
O O7 0.722295 0.124145 0.032166
O O8 0.500000 0.438893 0.924872
O O9 0.800931 0.458213 0.997670
O O10 0.736548 0.407540 0.774026
O O11 0.698213 0.378482 0.012260
O O12 0.000000 0.500000 0.161265
O O13 0.309628 0.500000 0.215307
O O14 0.832854 0.828063 0.234856
O O15 0.500000 0.000000 0.930784
O O16 0.500000 0.647506 0.713860
O O17 0.500000 0.331518 0.160055
#
# Coordination Sequence:
#
# PCOD9359304 Si02
#       8
#     4   8   8   4   4   4   8   8
#     4  12  28  46  74 103 138 172 219 280 349 407
#     4  12  24  41  68 100 139 185 231 280 336 395
#     4  10  22  41  65  92 127 179 225 271 326 384
#     4  12  24  33  60  97 134 176 231 285 329 380
#     4  12  28  48  74 103 138 170 215 284 339 415
#     4  12  24  39  58  95 142 182 231 284 326 385
#     4  11  25  47  72  97 136 184 224 274 341 405
#     4  11  23  43  70  97 133 181 226 272 332 404
#
# _framework density 19.915669999999999
#
# number of rings (size 3 to 8) (size 9 to 14) (size 15 to 20)
#    0.000    0.667    5.000    3.000    4.667    1.333 
#    0.000    0.833    0.000    0.000    0.000    0.000 
#    0.000    0.000    0.000    0.000    0.000    0.000 
#
# Total GULP energy -134130.407973 kJ/mol
# GULP energy per Si atom -5588.766999 kJ/mol
# Density = 1.987034 g / cm^3
# Si number density = 19.915670 Si / 1000 Ang^3
#
#
#
# Elastic Constant Matrix: (Units=GPa)
#
#
# Indices 1 2 3 4 5 6 
#
# 1 134.5551 50.6769 14.4727 0.0000 0.0000 0.0000
# 2 50.6769 85.6746 21.6281 0.0000 0.0000 0.0000
# 3 14.4727 21.6281 85.2364 0.0000 0.0000 0.0000
# 4 0.0000 0.0000 0.0000 22.6062 0.0000 0.0000
# 5 0.0000 0.0000 0.0000 0.0000 25.2570 0.0000
# 6 0.0000 0.0000 0.0000 0.0000 0.0000 -25.1430
#
#
#
# Elastic Compliance Matrix: (Units=1/GPa)
#
#
# Indices 1 2 3 4 5 6 
#
# 1 0.009565 -0.005607 -0.000201 0.000000 0.000000 0.000000
# 2 -0.005607 0.015758 -0.003046 0.000000 0.000000 0.000000
# 3 -0.000201 -0.003046 0.012539 0.000000 0.000000 0.000000
# 4 0.000000 0.000000 0.000000 0.044236 0.000000 0.000000
# 5 0.000000 0.000000 0.000000 0.000000 0.039593 0.000000
# 6 0.000000 0.000000 0.000000 0.000000 0.000000 -0.039772
#
#
# Mechanical properties :
#
#
# Convention : Reuss Voigt Hill
#
# Bulk Modulus (GPa) = 49.62126 53.22462 51.42294
# Shear Modulus (GPa) = 47.01643 19.12325 33.06984
#
# Velocity S-wave (km/s) = 4.86405 3.10209 4.07934
# Velocity P-wave (km/s) = 7.51765 6.29394 6.93285
#
# Compressibility (1/GPa) = 0.02015265
#
# Stress axis : x y z
#
# Youngs Moduli (GPa) = 104.54410 63.46087 79.74952
#
# Poissons Ratio (x) = 0.35583 0.01606
# Poissons Ratio (y) = 0.58619 0.24295
# Poissons Ratio (z) = 0.02105 0.19332
#
# Static dielectric constant tensor:
#      x y z
#    x 1.701960 0.000000 0.000000 
#    y 0.000000 1.672620 0.000000 
#    z 0.000000 0.000000 1.667970 
# 
# From -- ./inp_files/3903.got.cif
#   From: 2010.05.17/outbox.cif.g08.bks.cpg/sg38_2_cif.got.tgz:3903.got - 2010.06.03 18:07:57.
