data_PCOD9359395
_publ_section_title
;
Structure prediction by ZEFSAII (Michael W. Deem and Ramdas Pophale) SiO2 
 PCOD9359395
Probable space group: A M M 2
;
_chemical_formula_sum "Si O2"
_cell_formula_units_Z 56
_cell_length_a 9.254591
_cell_length_b 29.971639
_cell_length_c 13.649705
_cell_angle_alpha 90.000000
_cell_angle_beta 90.000000
_cell_angle_gamma 90.000000
_cell_volume 3786.090481
_symmetry_space_group_name_H-M "A M M 2"
_symmetry_group_IT_number 38
_symmetry_cell_setting 'orthorhombic'
loop_
_space_group_symop_operation_xyz
x,y,z
-x,-y,z
-x,y,z
x,-y,z
x,1/2+y,1/2+z
-x,1/2-y,1/2+z
-x,1/2+y,1/2+z
x,1/2-y,1/2+z
loop_
_atom_site_type_symbol
_atom_site_label
_atom_site_fract_x
_atom_site_fract_y
_atom_site_fract_z
Si Si1 0.672170 0.182287 0.698420
Si Si2 0.672483 0.410277 0.301244
Si Si3 0.328187 0.685033 0.618623
Si Si4 0.172360 0.731230 0.024873
Si Si5 0.833446 0.000000 0.797872
Si Si6 0.330878 0.270040 0.824547
Si Si7 0.672314 0.910304 0.032342
Si Si8 0.833483 0.000000 0.036166
O O1 0.500000 0.183336 0.675995
O O2 0.710168 0.134067 0.741293
O O3 0.761846 0.196745 0.603697
O O4 0.695465 0.220568 0.780391
O O5 0.500000 0.417118 0.293749
O O6 0.753625 0.454737 0.267012
O O7 0.704730 0.403131 0.416761
O O8 0.500000 0.691546 0.597507
O O9 0.238128 0.720835 0.556705
O O10 0.307151 0.697011 0.732669
O O11 0.290203 0.634678 0.590138
O O12 0.000000 0.731808 0.028916
O O13 0.230806 0.720997 0.916760
O O14 0.828053 0.000000 0.917007
O O15 0.000000 0.000000 0.767846
O O16 0.500000 0.272527 0.853316
O O17 0.500000 0.917483 0.040389
O O18 0.753920 0.954638 0.066841
O O19 0.000000 0.000000 0.066202
#
# Coordination Sequence:
#
# PCOD9359395 Si02
#       8
#     8   8   8   8   4   8   8   4
#     4   9  18  32  49  66  85 115 153 187 218 255
#     4   9  16  27  45  66  87 113 146 182 216 253
#     4   9  18  32  49  66  85 115 154 188 218 255
#     4  11  21  30  43  65  93 120 145 179 222 266
#     4   9  17  27  39  59  90 121 144 171 211 260
#     4   9  17  31  48  64  86 116 149 184 220 258
#     4   9  16  28  46  66  87 113 147 183 216 252
#     4   9  17  27  39  61  92 121 144 169 211 262
#
# _framework density 14.790983000000001
#
# number of rings (size 3 to 8) (size 9 to 14) (size 15 to 20)
#    0.000    2.714    0.000    3.429    0.000    7.429 
#    0.000    2.857    0.000    0.000    0.000    1.000 
#    0.000    5.714    0.000    0.000    0.000    0.000 
#
# Total GULP energy -156072.572866 kJ/mol
# GULP energy per Si atom -5574.020460 kJ/mol
# Density = 1.475732 g / cm^3
# Si number density = 14.790983 Si / 1000 Ang^3
#
#
#
# Elastic Constant Matrix: (Units=GPa)
#
#
# Indices 1 2 3 4 5 6 
#
# 1 68.2625 68.5564 50.4562 0.0000 0.0000 0.0000
# 2 68.5564 156.4915 54.8883 0.0000 0.0000 0.0000
# 3 50.4562 54.8883 60.8936 0.0000 0.0000 0.0000
# 4 0.0000 0.0000 0.0000 19.7687 0.0000 0.0000
# 5 0.0000 0.0000 0.0000 0.0000 10.4513 0.0000
# 6 0.0000 0.0000 0.0000 0.0000 0.0000 11.7553
#
#
#
# Elastic Compliance Matrix: (Units=1/GPa)
#
#
# Indices 1 2 3 4 5 6 
#
# 1 0.046558 -0.010039 -0.029528 0.000000 0.000000 0.000000
# 2 -0.010039 0.011509 -0.002056 0.000000 0.000000 0.000000
# 3 -0.029528 -0.002056 0.042742 0.000000 0.000000 0.000000
# 4 0.000000 0.000000 0.000000 0.050585 0.000000 0.000000
# 5 0.000000 0.000000 0.000000 0.000000 0.095682 0.000000
# 6 0.000000 0.000000 0.000000 0.000000 0.000000 0.085068
#
#
# Mechanical properties :
#
#
# Convention : Reuss Voigt Hill
#
# Bulk Modulus (GPa) = 56.93967 70.38327 63.66147
# Shear Modulus (GPa) = 11.86958 15.84483 13.85721
#
# Velocity S-wave (km/s) = 2.83589 3.27655 3.06415
# Velocity P-wave (km/s) = 7.02160 7.87419 7.46008
#
# Compressibility (1/GPa) = 0.01756245
#
# Stress axis : x y z
#
# Youngs Moduli (GPa) = 21.47867 86.88709 23.39614
#
# Poissons Ratio (x) = 0.87229 0.69085
# Poissons Ratio (y) = 0.21563 0.04809
# Poissons Ratio (z) = 0.63423 0.17860
#
# Static dielectric constant tensor:
#      x y z
#    x 1.489830 0.000000 0.000000 
#    y 0.000000 1.479660 0.000000 
#    z 0.000000 0.000000 1.472190 
# 
# From -- ./inp_files/13012.got.cif
#   From: 2010.05.17/outbox.cif.g08.bks.cpg/sg38_7_cif.got.tgz:13012.got - 2010.06.03 18:07:57.
