data_PCOD9359658
_publ_section_title
;
Structure prediction by ZEFSAII (Michael W. Deem and Ramdas Pophale) SiO2 
 PCOD9359658
Probable space group: A B M 2
;
_chemical_formula_sum "Si O2"
_cell_formula_units_Z 64
_cell_length_a 39.936802
_cell_length_b 14.997947
_cell_length_c 5.219563
_cell_angle_alpha 90.000000
_cell_angle_beta 90.000000
_cell_angle_gamma 90.000000
_cell_volume 3126.361858
_symmetry_space_group_name_H-M "A B M 2"
_symmetry_group_IT_number 39
_symmetry_cell_setting 'orthorhombic'
loop_
_space_group_symop_operation_xyz
x,y,z
-x,-y,z
-x,1/2+y,z
x,1/2-y,z
x,1/2+y,1/2+z
-x,1/2-y,1/2+z
-x,y,1/2+z
x,-y,1/2+z
loop_
_atom_site_type_symbol
_atom_site_label
_atom_site_fract_x
_atom_site_fract_y
_atom_site_fract_z
Si Si1 0.981176 0.857243 0.804930
Si Si2 0.231823 0.642706 0.181716
Si Si3 0.513722 0.896848 0.136335
Si Si4 0.160888 0.941911 0.286434
Si Si5 0.657521 0.058915 0.677620
Si Si6 0.910903 0.058267 0.178634
Si Si7 0.586619 0.441220 0.789694
Si Si8 0.270645 0.642675 0.682602
O O1 0.982636 0.750000 0.809309
O O2 0.943762 0.885518 0.736710
O O3 0.006137 0.889558 0.581025
O O4 0.232822 0.750000 0.178510
O O5 0.193982 0.613517 0.230271
O O6 0.255352 0.611232 0.413918
O O7 0.247161 0.610333 0.914108
O O8 0.490875 0.856959 0.357604
O O9 0.551733 0.893935 0.231003
O O10 0.500000 0.000000 0.103827
O O11 0.125027 0.895953 0.232084
O O12 0.161443 0.977924 0.576924
O O13 0.621888 0.106537 0.731551
O O14 0.691238 0.113461 0.717392
O O15 0.657721 0.019732 0.390507
O O16 0.911568 0.978252 0.388789
O O17 0.586452 0.521944 0.579495
O O18 0.269566 0.750000 0.682477
#
# Coordination Sequence:
#
# PCOD9359658 Si02
#       8
#     8   8   8   8   8   8   8   8
#     4  10  21  36  54  78 106 138 178 220 259 299
#     4  10  21  36  56  77  99 129 169 209 245 295
#     4  10  14  20  34  52  77 116 146 173 226 284
#     4  10  21  36  54  80 108 136 165 209 256 305
#     4  10  21  32  48  71  99 127 158 202 246 287
#     4  10  21  36  54  78 108 138 173 209 254 307
#     4  10  16  25  36  57  87 117 146 188 229 281
#     4  10  21  37  53  73 100 131 167 204 243 296
#
# _framework density 20.471079
#
# number of rings (size 3 to 8) (size 9 to 14) (size 15 to 20)
#    0.000    2.000    2.500    2.250    0.000    5.000 
#    0.000    0.000    0.000    9.000    0.000    0.000 
#    0.000    1.000    0.000    0.000    0.000    5.000 
#
# Total GULP energy -178552.121700 kJ/mol
# GULP energy per Si atom -5579.753803 kJ/mol
# Density = 2.042449 g / cm^3
# Si number density = 20.471079 Si / 1000 Ang^3
#
#
#
# Elastic Constant Matrix: (Units=GPa)
#
#
# Indices 1 2 3 4 5 6 
#
# 1 108.8094 -0.9624 -17.6284 0.0000 0.0000 0.0000
# 2 -0.9624 19.7769 -3.3674 0.0000 0.0000 0.0000
# 3 -17.6284 -3.3674 86.8759 0.0000 0.0000 0.0000
# 4 0.0000 0.0000 0.0000 -1.5042 0.0000 0.0000
# 5 0.0000 0.0000 0.0000 0.0000 35.1116 0.0000
# 6 0.0000 0.0000 0.0000 0.0000 0.0000 -58.9790
#
#
#
# Elastic Compliance Matrix: (Units=1/GPa)
#
#
# Indices 1 2 3 4 5 6 
#
# 1 0.009515 0.000797 0.001962 0.000000 0.000000 0.000000
# 2 0.000797 0.050967 0.002137 0.000000 0.000000 0.000000
# 3 0.001962 0.002137 0.011992 0.000000 0.000000 0.000000
# 4 0.000000 0.000000 0.000000 -0.664806 0.000000 0.000000
# 5 0.000000 0.000000 0.000000 0.000000 0.028481 0.000000
# 6 0.000000 0.000000 0.000000 0.000000 0.000000 -0.016955
#
#
# Mechanical properties :
#
#
# Convention : Reuss Voigt Hill
#
# Bulk Modulus (GPa) = 12.15576 19.06065 15.60821
# Shear Modulus (GPa) = -8.87820 10.75370 0.93775
#
# Velocity S-wave (km/s) = -2.08479 2.29446 0.67756
# Velocity P-wave (km/s) = 0.39466 4.04359 2.87283
#
# Compressibility (1/GPa) = 0.08226551
#
# Stress axis : x y z
#
# Youngs Moduli (GPa) = 105.09451 19.62064 83.39192
#
# Poissons Ratio (x) = -0.01564 -0.16359
# Poissons Ratio (y) = -0.08377 -0.17823
# Poissons Ratio (z) = -0.20616 -0.04193
#
# Static dielectric constant tensor:
#      x y z
#    x 1.742680 0.000000 0.000000 
#    y 0.000000 1.779560 0.000000 
#    z 0.000000 0.000000 1.742400 
# 
# From -- ./inp_files/1523.got.cif
#   From: 2010.05.17/outbox.cif.g08.bks.cpg/sg39_1_cif.got.tgz:1523.got - 2010.06.03 18:22:40.
