data_PCOD9359510
_publ_section_title
;
Structure prediction by ZEFSAII (Michael W. Deem and Ramdas Pophale) SiO2 
 PCOD9359510
Probable space group: A M M 2
;
_chemical_formula_sum "Si O2"
_cell_formula_units_Z 48
_cell_length_a 9.688090
_cell_length_b 31.951329
_cell_length_c 6.950749
_cell_angle_alpha 90.000000
_cell_angle_beta 90.000000
_cell_angle_gamma 90.000000
_cell_volume 2151.585940
_symmetry_space_group_name_H-M "A M M 2"
_symmetry_group_IT_number 38
_symmetry_cell_setting 'orthorhombic'
loop_
_space_group_symop_operation_xyz
x,y,z
-x,-y,z
-x,y,z
x,-y,z
x,1/2+y,1/2+z
-x,1/2-y,1/2+z
-x,1/2+y,1/2+z
x,1/2-y,1/2+z
loop_
_atom_site_type_symbol
_atom_site_label
_atom_site_fract_x
_atom_site_fract_y
_atom_site_fract_z
Si Si1 0.343454 0.861214 0.960440
Si Si2 0.657973 0.619181 0.996266
Si Si3 0.336085 0.453903 0.485834
Si Si4 0.842176 0.193504 0.417248
Si Si5 0.155542 0.787395 0.866641
Si Si6 0.158327 0.453265 0.097333
O O1 0.500000 0.849241 0.009473
O O2 0.342220 0.870969 0.727970
O O3 0.242151 0.821774 0.981501
O O4 0.310234 0.906253 0.058295
O O5 0.500000 0.612359 0.940783
O O6 0.730881 0.657357 0.887986
O O7 0.751966 0.578478 0.975453
O O8 0.500000 0.452689 0.430787
O O9 0.318893 0.500000 0.585323
O O10 0.234829 0.455825 0.302599
O O11 0.852047 0.196890 0.648895
O O12 0.792896 0.239680 0.355919
O O13 0.000000 0.184814 0.350743
O O14 0.000000 0.783995 0.944801
O O15 0.156905 0.500000 0.016012
O O16 0.000000 0.438860 0.119546
#
# Coordination Sequence:
#
# PCOD9359510 Si02
#       6
#     8   8   8   8   8   8
#     4   8  14  23  35  52  74 100 129 159 193 233
#     4   9  16  25  37  53  74 102 132 162 198 236
#     4   8  13  21  32  47  70 100 131 161 194 234
#     4   9  17  29  43  59  79 104 133 164 199 237
#     4   9  17  28  42  58  78 104 132 162 197 236
#     4   9  15  21  31  49  73 101 131 161 193 232
#
# _framework density 22.309125999999999
#
# number of rings (size 3 to 8) (size 9 to 14) (size 15 to 20)
#    0.000    3.333    0.000    2.000    0.000    5.667 
#    0.000    0.000    0.000    0.000    0.000    0.000 
#    0.000    1.333    0.000   12.333    0.000   17.833 
#
# Total GULP energy -133799.772505 kJ/mol
# GULP energy per Si atom -5574.990521 kJ/mol
# Density = 2.225835 g / cm^3
# Si number density = 22.309126 Si / 1000 Ang^3
#
#
#
# Elastic Constant Matrix: (Units=GPa)
#
#
# Indices 1 2 3 4 5 6 
#
# 1 129.6329 101.2677 9.6330 0.0000 0.0000 0.0000
# 2 101.2677 189.1286 -16.4444 0.0000 0.0000 0.0000
# 3 9.6330 -16.4444 50.3846 0.0000 0.0000 0.0000
# 4 0.0000 0.0000 0.0000 23.0238 0.0000 0.0000
# 5 0.0000 0.0000 0.0000 0.0000 5.6287 0.0000
# 6 0.0000 0.0000 0.0000 0.0000 0.0000 44.6008
#
#
#
# Elastic Compliance Matrix: (Units=1/GPa)
#
#
# Indices 1 2 3 4 5 6 
#
# 1 0.014606 -0.008299 -0.005501 0.000000 0.000000 0.000000
# 2 -0.008299 0.010157 0.004902 0.000000 0.000000 0.000000
# 3 -0.005501 0.004902 0.022499 0.000000 0.000000 0.000000
# 4 0.000000 0.000000 0.000000 0.043433 0.000000 0.000000
# 5 0.000000 0.000000 0.000000 0.000000 0.177662 0.000000
# 6 0.000000 0.000000 0.000000 0.000000 0.000000 0.022421
#
#
# Mechanical properties :
#
#
# Convention : Reuss Voigt Hill
#
# Bulk Modulus (GPa) = 33.93798 62.00651 47.97225
# Shear Modulus (GPa) = 15.70365 32.96329 24.33347
#
# Velocity S-wave (km/s) = 2.65601 3.84809 3.30622
# Velocity P-wave (km/s) = 4.96503 6.89915 6.01040
#
# Compressibility (1/GPa) = 0.02946551
#
# Stress axis : x y z
#
# Youngs Moduli (GPa) = 68.46536 98.45204 44.44658
#
# Poissons Ratio (x) = 0.81705 0.24450
# Poissons Ratio (y) = 0.56819 -0.21787
# Poissons Ratio (z) = 0.37663 -0.48259
#
# Static dielectric constant tensor:
#      x y z
#    x 1.767160 0.000000 0.000000 
#    y 0.000000 1.856630 0.000000 
#    z 0.000000 0.000000 1.902240 
# 
# From -- ./inp_files/8231.got.cif
#   From: 2010.05.17/outbox.cif.g08.bks.cpg/sg38_5_cif.got.tgz:8231.got - 2010.06.03 18:07:57.
