data_PCOD9359248
_publ_section_title
;
Structure prediction by ZEFSAII (Michael W. Deem and Ramdas Pophale) SiO2 
 PCOD9359248
Probable space group: A M M 2
;
_chemical_formula_sum "Si O2"
_cell_formula_units_Z 48
_cell_length_a 9.620393
_cell_length_b 36.421850
_cell_length_c 6.890144
_cell_angle_alpha 90.000000
_cell_angle_beta 90.000000
_cell_angle_gamma 90.000000
_cell_volume 2414.254856
_symmetry_space_group_name_H-M "A M M 2"
_symmetry_group_IT_number 38
_symmetry_cell_setting 'orthorhombic'
loop_
_space_group_symop_operation_xyz
x,y,z
-x,-y,z
-x,y,z
x,-y,z
x,1/2+y,1/2+z
-x,1/2-y,1/2+z
-x,1/2+y,1/2+z
x,1/2-y,1/2+z
loop_
_atom_site_type_symbol
_atom_site_label
_atom_site_fract_x
_atom_site_fract_y
_atom_site_fract_z
Si Si1 0.161490 0.213691 0.979630
Si Si2 0.251091 0.842013 0.298636
Si Si3 0.343306 0.397621 0.486660
Si Si4 0.847071 0.887546 0.650703
Si Si5 0.161037 0.041669 0.849204
Si Si6 0.338326 0.284833 0.110802
O O1 0.255564 0.248223 0.046565
O O2 0.000000 0.223654 0.940804
O O3 0.166667 0.183273 0.148237
O O4 0.334172 0.186333 0.434422
O O5 0.166846 0.867377 0.448339
O O6 0.242303 0.798911 0.786967
O O7 0.000000 0.878772 0.734319
O O8 0.500000 0.407778 0.443402
O O9 0.664347 0.370466 0.667200
O O10 0.274022 0.377765 0.301093
O O11 0.250675 0.434457 0.500652
O O12 0.834673 0.932166 0.657055
O O13 0.000000 0.040985 0.909726
O O14 0.208211 0.000000 0.821324
O O15 0.500000 0.277810 0.165220
#
# Coordination Sequence:
#
# PCOD9359248 Si02
#       6
#     8   8   8   8   8   8
#     4  12  27  45  68  96 127 166 219 274 329 384
#     4  12  25  41  67  94 132 168 216 264 324 381
#     4  10  22  39  63  97 132 168 209 257 318 381
#     4   9  21  40  64  95 127 167 213 258 313 371
#     4   8  17  39  67  94 128 168 212 259 309 375
#     4  12  27  46  68  92 126 171 219 268 330 392
#
# _framework density 19.881910999999999
#
# number of rings (size 3 to 8) (size 9 to 14) (size 15 to 20)
#    1.000    0.500    1.667    3.000    0.000   11.000 
#    0.000    0.833    0.000    2.000    0.000    0.000 
#    0.000    0.000    0.000    0.000    0.000    0.000 
#
# Total GULP energy -133667.331953 kJ/mol
# GULP energy per Si atom -5569.472165 kJ/mol
# Density = 1.983666 g / cm^3
# Si number density = 19.881911 Si / 1000 Ang^3
#
#
#
# Elastic Constant Matrix: (Units=GPa)
#
#
# Indices 1 2 3 4 5 6 
#
# 1 145.0748 47.5983 41.4851 0.0000 0.0000 0.0000
# 2 47.5983 142.9132 40.1154 0.0000 0.0000 0.0000
# 3 41.4851 40.1154 93.1683 0.0000 0.0000 0.0000
# 4 0.0000 0.0000 0.0000 21.2839 0.0000 0.0000
# 5 0.0000 0.0000 0.0000 0.0000 18.5755 0.0000
# 6 0.0000 0.0000 0.0000 0.0000 0.0000 220.5458
#
#
#
# Elastic Compliance Matrix: (Units=1/GPa)
#
#
# Indices 1 2 3 4 5 6 
#
# 1 0.008364 -0.001979 -0.002872 0.000000 0.000000 0.000000
# 2 -0.001979 0.008428 -0.002747 0.000000 0.000000 0.000000
# 3 -0.002872 -0.002747 0.013195 0.000000 0.000000 0.000000
# 4 0.000000 0.000000 0.000000 0.046984 0.000000 0.000000
# 5 0.000000 0.000000 0.000000 0.000000 0.053834 0.000000
# 6 0.000000 0.000000 0.000000 0.000000 0.000000 0.004534
#
#
# Mechanical properties :
#
#
# Convention : Reuss Voigt Hill
#
# Bulk Modulus (GPa) = 67.61734 71.06155 69.33944
# Shear Modulus (GPa) = 32.16147 68.87819 50.51983
#
# Velocity S-wave (km/s) = 4.02633 5.89227 5.04630
# Velocity P-wave (km/s) = 7.46314 9.06152 8.30089
#
# Compressibility (1/GPa) = 0.01478911
#
# Stress axis : x y z
#
# Youngs Moduli (GPa) = 119.56489 118.65633 75.78686
#
# Poissons Ratio (x) = 0.23488 0.21764
# Poissons Ratio (y) = 0.23668 0.20821
# Poissons Ratio (z) = 0.34337 0.32599
#
# Static dielectric constant tensor:
#      x y z
#    x 1.701310 0.000000 0.000000 
#    y 0.000000 1.752170 0.000000 
#    z 0.000000 0.000000 1.735300 
# 
# From -- ./inp_files/3789.got.cif
#   From: 2010.05.17/outbox.cif.g08.bks.cpg/sg38_2_cif.got.tgz:3789.got - 2010.06.03 18:07:57.
