data_PCOD9359685
_publ_section_title
;
Structure prediction by ZEFSAII (Michael W. Deem and Ramdas Pophale) SiO2 
 PCOD9359685
Probable space group: A B M 2
;
_chemical_formula_sum "Si O2"
_cell_formula_units_Z 64
_cell_length_a 26.286931
_cell_length_b 20.241225
_cell_length_c 5.366836
_cell_angle_alpha 90.000000
_cell_angle_beta 90.000000
_cell_angle_gamma 90.000000
_cell_volume 2855.584408
_symmetry_space_group_name_H-M "A B M 2"
_symmetry_group_IT_number 39
_symmetry_cell_setting 'orthorhombic'
loop_
_space_group_symop_operation_xyz
x,y,z
-x,-y,z
-x,1/2+y,z
x,1/2-y,z
x,1/2+y,1/2+z
-x,1/2-y,1/2+z
-x,y,1/2+z
x,-y,1/2+z
loop_
_atom_site_type_symbol
_atom_site_label
_atom_site_fract_x
_atom_site_fract_y
_atom_site_fract_z
Si Si1 0.864330 0.458908 0.174430
Si Si2 0.705814 0.478158 0.856792
Si Si3 0.978901 0.423917 0.080555
Si Si4 0.409043 0.469130 0.799280
Si Si5 0.230867 0.131063 0.543870
Si Si6 0.619287 0.170117 0.497768
Si Si7 0.473224 0.170710 0.324366
Si Si8 0.735329 0.677224 0.055241
O O1 0.862226 0.486533 0.454546
O O2 0.919302 0.425690 0.136135
O O3 0.816440 0.412895 0.122166
O O4 0.729704 0.524511 0.077188
O O5 0.648469 0.499274 0.804507
O O6 0.716923 0.410500 0.999483
O O7 0.000000 0.500000 0.059736
O O8 0.008197 0.393403 0.314268
O O9 0.432800 0.502011 0.046904
O O10 0.401882 0.389888 0.825309
O O11 0.224260 0.154453 0.261335
O O12 0.242589 0.176392 0.777963
O O13 0.614752 0.250000 0.422279
O O14 0.585599 0.162704 0.748528
O O15 0.677642 0.150507 0.539813
O O16 0.481462 0.250000 0.337633
O O17 0.495784 0.145356 0.582838
O O18 0.723560 0.750000 0.148293
#
# Coordination Sequence:
#
# PCOD9359685 Si02
#       8
#     8   8   8   8   8   8   8   8
#     4  12  21  32  53  83 118 161 192 228 287 347
#     4  10  18  31  49  72 107 146 178 222 266 326
#     4  10  16  30  48  72 113 159 181 228 282 343
#     4  10  20  35  56  81 114 153 192 229 291 348
#     4  12  23  37  54  82 115 150 204 239 283 360
#     4  10  22  40  66  94 118 156 208 253 300 367
#     4   9  19  36  59  88 119 147 186 248 312 362
#     4  11  24  41  58  79 112 151 194 252 299 341
#
# _framework density 22.412226
#
# number of rings (size 3 to 8) (size 9 to 14) (size 15 to 20)
#    0.000    1.500    2.500    5.625    0.000    2.000 
#    0.000    6.875    0.000    2.250    0.000    0.000 
#    0.000   10.000    0.000    0.000    0.000    0.000 
#
# Total GULP energy -178311.254250 kJ/mol
# GULP energy per Si atom -5572.226695 kJ/mol
# Density = 2.236121 g / cm^3
# Si number density = 22.412226 Si / 1000 Ang^3
#
#
#
# Elastic Constant Matrix: (Units=GPa)
#
#
# Indices 1 2 3 4 5 6 
#
# 1 76.0431 8.0968 -1.6022 0.0000 0.0000 0.0000
# 2 8.0968 59.7950 1.8169 0.0000 0.0000 0.0000
# 3 -1.6022 1.8169 116.3871 0.0000 0.0000 0.0000
# 4 0.0000 0.0000 0.0000 5.2346 0.0000 0.0000
# 5 0.0000 0.0000 0.0000 0.0000 24.7915 0.0000
# 6 0.0000 0.0000 0.0000 0.0000 0.0000 11.4191
#
#
#
# Elastic Compliance Matrix: (Units=1/GPa)
#
#
# Indices 1 2 3 4 5 6 
#
# 1 0.013348 -0.001814 0.000212 0.000000 0.000000 0.000000
# 2 -0.001814 0.016978 -0.000290 0.000000 0.000000 0.000000
# 3 0.000212 -0.000290 0.008599 0.000000 0.000000 0.000000
# 4 0.000000 0.000000 0.000000 0.191038 0.000000 0.000000
# 5 0.000000 0.000000 0.000000 0.000000 0.040336 0.000000
# 6 0.000000 0.000000 0.000000 0.000000 0.000000 0.087573
#
#
# Mechanical properties :
#
#
# Convention : Reuss Voigt Hill
#
# Bulk Modulus (GPa) = 28.45590 29.87201 29.16395
# Shear Modulus (GPa) = 13.39151 24.54994 18.97072
#
# Velocity S-wave (km/s) = 2.44705 3.31325 2.91253
# Velocity P-wave (km/s) = 4.55063 5.29095 4.93469
#
# Compressibility (1/GPa) = 0.03514209
#
# Stress axis : x y z
#
# Youngs Moduli (GPa) = 74.91735 58.89890 116.28634
#
# Poissons Ratio (x) = 0.10684 -0.02466
# Poissons Ratio (y) = 0.13589 0.03372
# Poissons Ratio (z) = -0.01589 0.01708
#
# Static dielectric constant tensor:
#      x y z
#    x 1.835390 0.000000 0.000000 
#    y 0.000000 2.088720 0.000000 
#    z 0.000000 0.000000 2.013820 
# 
# From -- ./inp_files/1451.got.cif
#   From: 2010.05.17/outbox.cif.g08.bks.cpg/sg39_1_cif.got.tgz:1451.got - 2010.06.03 18:22:40.
