data_PCOD9359975
_publ_section_title
;
Structure prediction by ZEFSAII (Michael W. Deem and Ramdas Pophale) SiO2 
 PCOD9359975
Probable space group: A B M 2
;
_chemical_formula_sum "Si O2"
_cell_formula_units_Z 64
_cell_length_a 15.955054
_cell_length_b 7.914735
_cell_length_c 24.669586
_cell_angle_alpha 90.000000
_cell_angle_beta 90.000000
_cell_angle_gamma 90.000000
_cell_volume 3115.275920
_symmetry_space_group_name_H-M "A B M 2"
_symmetry_group_IT_number 39
_symmetry_cell_setting 'orthorhombic'
loop_
_space_group_symop_operation_xyz
x,y,z
-x,-y,z
-x,1/2+y,z
x,1/2-y,z
x,1/2+y,1/2+z
-x,1/2-y,1/2+z
-x,y,1/2+z
x,-y,1/2+z
loop_
_atom_site_type_symbol
_atom_site_label
_atom_site_fract_x
_atom_site_fract_y
_atom_site_fract_z
Si Si1 0.153431 0.547038 0.973380
Si Si2 0.092731 0.549285 0.355829
Si Si3 0.592770 0.048645 0.854645
Si Si4 0.906969 0.546726 0.589601
Si Si5 0.247210 0.547729 0.284542
Si Si6 0.593071 0.546861 0.588495
Si Si7 0.347586 0.543365 0.971290
Si Si8 0.749298 0.457366 0.161005
O O1 0.155577 0.750000 0.976878
O O2 0.107116 0.502555 0.918071
O O3 0.250226 0.490168 0.970729
O O4 0.110405 0.482894 0.028385
O O5 0.098167 0.750000 0.354184
O O6 0.168420 0.479121 0.319030
O O7 0.000000 0.500000 0.337388
O O8 0.598562 0.250000 0.856167
O O9 0.608539 0.984490 0.916114
O O10 0.500000 0.000000 0.836253
O O11 0.667033 0.985894 0.816367
O O12 0.902015 0.750000 0.588147
O O13 0.832548 0.488471 0.628870
O O14 0.000000 0.500000 0.607473
O O15 0.237004 0.750000 0.281129
O O16 0.250315 0.483976 0.223002
O O17 0.500000 0.500000 0.606324
O O18 0.598739 0.750000 0.586955
O O19 0.609942 0.485314 0.527041
O O20 0.666945 0.487162 0.628061
O O21 0.348947 0.750000 0.971387
O O22 0.748577 0.250000 0.161010
#
# Coordination Sequence:
#
# PCOD9359975 Si02
#       8
#     8   8   8   8   8   8   8   8
#     4  10  18  34  59  84 112 145 183 224 276 337
#     4  11  23  37  56  83 114 147 186 230 280 333
#     4  11  22  37  59  85 115 148 184 227 279 333
#     4  10  20  35  58  84 111 144 181 224 275 332
#     4  10  22  40  59  81 109 146 193 237 275 322
#     4  10  19  35  58  83 110 143 180 220 271 327
#     4   9  17  32  57  84 110 144 180 219 273 332
#     4   9  19  38  60  78 106 148 186 224 273 326
#
# _framework density 20.543927
#
# number of rings (size 3 to 8) (size 9 to 14) (size 15 to 20)
#    0.000    2.000    2.500    1.500    0.000    3.000 
#    0.000    4.375    0.000    0.000    0.000    0.000 
#    0.000    0.000    0.000    0.000    0.000    0.000 
#
# Total GULP energy -178767.995638 kJ/mol
# GULP energy per Si atom -5586.499864 kJ/mol
# Density = 2.049717 g / cm^3
# Si number density = 20.543927 Si / 1000 Ang^3
#
#
#
# Elastic Constant Matrix: (Units=GPa)
#
#
# Indices 1 2 3 4 5 6 
#
# 1 197.4992 -2.5225 96.9473 0.0000 0.0000 0.0000
# 2 -2.5225 15.0224 8.1624 0.0000 0.0000 0.0000
# 3 96.9473 8.1624 173.6008 0.0000 0.0000 0.0000
# 4 0.0000 0.0000 0.0000 12.8147 0.0000 0.0000
# 5 0.0000 0.0000 0.0000 0.0000 7.5489 0.0000
# 6 0.0000 0.0000 0.0000 0.0000 0.0000 17.9466
#
#
#
# Elastic Compliance Matrix: (Units=1/GPa)
#
#
# Indices 1 2 3 4 5 6 
#
# 1 0.007146 0.003457 -0.004153 0.000000 0.000000 0.000000
# 2 0.003457 0.069984 -0.005221 0.000000 0.000000 0.000000
# 3 -0.004153 -0.005221 0.008325 0.000000 0.000000 0.000000
# 4 0.000000 0.000000 0.000000 0.078035 0.000000 0.000000
# 5 0.000000 0.000000 0.000000 0.000000 0.132469 0.000000
# 6 0.000000 0.000000 0.000000 0.000000 0.000000 0.055721
#
#
# Mechanical properties :
#
#
# Convention : Reuss Voigt Hill
#
# Bulk Modulus (GPa) = 13.58316 65.69965 39.64140
# Shear Modulus (GPa) = 12.88472 26.56439 19.72455
#
# Velocity S-wave (km/s) = 2.50707 3.59981 3.10194
# Velocity P-wave (km/s) = 3.87384 7.02336 5.67161
#
# Compressibility (1/GPa) = 0.07362056
#
# Stress axis : x y z
#
# Youngs Moduli (GPa) = 139.93393 14.28894 120.11654
#
# Poissons Ratio (x) = -0.04939 0.49888
# Poissons Ratio (y) = -0.48370 0.62712
# Poissons Ratio (z) = 0.58119 0.07460
#
# Static dielectric constant tensor:
#      x y z
#    x 1.705580 0.000000 0.000000 
#    y 0.000000 1.748450 0.000000 
#    z 0.000000 0.000000 1.722550 
# 
# From -- ./inp_files/16157.got.cif
#   From: 2010.05.17/outbox.cif.g08.bks.cpg/sg39_9_cif.got.tgz:16157.got - 2010.06.03 18:22:40.
