data_PCOD9359532
_publ_section_title
;
Structure prediction by ZEFSAII (Michael W. Deem and Ramdas Pophale) SiO2 
 PCOD9359532
Probable space group: A M M 2
;
_chemical_formula_sum "Si O2"
_cell_formula_units_Z 48
_cell_length_a 22.046305
_cell_length_b 7.582289
_cell_length_c 14.670899
_cell_angle_alpha 90.000000
_cell_angle_beta 90.000000
_cell_angle_gamma 90.000000
_cell_volume 2452.408836
_symmetry_space_group_name_H-M "A M M 2"
_symmetry_group_IT_number 38
_symmetry_cell_setting 'orthorhombic'
loop_
_space_group_symop_operation_xyz
x,y,z
-x,-y,z
-x,y,z
x,-y,z
x,1/2+y,1/2+z
-x,1/2-y,1/2+z
-x,1/2+y,1/2+z
x,1/2-y,1/2+z
loop_
_atom_site_type_symbol
_atom_site_label
_atom_site_fract_x
_atom_site_fract_y
_atom_site_fract_z
Si Si1 0.401472 0.284031 0.022510
Si Si2 0.167075 0.211109 0.376004
Si Si3 0.068802 0.787544 0.023143
Si Si4 0.500000 0.789232 0.378839
Si Si5 0.834713 0.211198 0.170509
Si Si6 0.263516 0.787729 0.523299
Si Si7 0.500000 0.789243 0.666053
O O1 0.399860 0.500000 0.022772
O O2 0.332341 0.222221 0.022388
O O3 0.440639 0.227134 0.110555
O O4 0.440643 0.227523 0.934427
O O5 0.105264 0.244895 0.431099
O O6 0.166150 0.280882 0.273266
O O7 0.221811 0.279299 0.439817
O O8 0.174815 0.000000 0.370501
O O9 0.000000 0.721581 0.024270
O O10 0.066705 0.000000 0.029913
O O11 0.110464 0.721055 0.106759
O O12 0.500000 0.749873 0.272461
O O13 0.500000 0.000000 0.387857
O O14 0.772949 0.245782 0.115433
O O15 0.842277 0.000000 0.175830
O O16 0.265645 0.000000 0.515954
O O17 0.500000 0.000000 0.656874
#
# Coordination Sequence:
#
# PCOD9359532 Si02
#       7
#     8   8   8   4   8   8   4
#     4   8  16  31  48  65  92 127 154 181 228 282
#     4   9  18  31  48  69  92 119 152 190 228 268
#     4   9  18  32  48  66  91 122 152 183 224 274
#     4   9  17  31  50  70  92 121 155 191 230 270
#     4   9  18  32  48  69  96 121 147 186 234 273
#     4   9  17  31  49  68  91 122 158 189 220 268
#     4   9  17  31  48  66  90 121 155 189 228 274
#
# _framework density 19.572592
#
# number of rings (size 3 to 8) (size 9 to 14) (size 15 to 20)
#    0.000    3.167    0.000    1.000    0.000    3.000 
#    0.000    6.667    0.000    0.000    0.000    0.000 
#    0.000    0.000    0.000    0.000    0.000    0.000 
#
# Total GULP energy -133815.769288 kJ/mol
# GULP energy per Si atom -5575.657054 kJ/mol
# Density = 1.952804 g / cm^3
# Si number density = 19.572592 Si / 1000 Ang^3
#
#
#
# Elastic Constant Matrix: (Units=GPa)
#
#
# Indices 1 2 3 4 5 6 
#
# 1 203.4238 1.3584 116.3499 0.0000 0.0000 0.0000
# 2 1.3584 39.3770 5.8665 0.0000 0.0000 0.0000
# 3 116.3499 5.8665 202.5341 0.0000 0.0000 0.0000
# 4 0.0000 0.0000 0.0000 7.1923 0.0000 0.0000
# 5 0.0000 0.0000 0.0000 0.0000 6.7508 0.0000
# 6 0.0000 0.0000 0.0000 0.0000 0.0000 12.4244
#
#
#
# Elastic Compliance Matrix: (Units=1/GPa)
#
#
# Indices 1 2 3 4 5 6 
#
# 1 0.007327 0.000376 -0.004220 0.000000 0.000000 0.000000
# 2 0.000376 0.025525 -0.000955 0.000000 0.000000 0.000000
# 3 -0.004220 -0.000955 0.007389 0.000000 0.000000 0.000000
# 4 0.000000 0.000000 0.000000 0.139038 0.000000 0.000000
# 5 0.000000 0.000000 0.000000 0.000000 0.148131 0.000000
# 6 0.000000 0.000000 0.000000 0.000000 0.000000 0.080487
#
#
# Mechanical properties :
#
#
# Convention : Reuss Voigt Hill
#
# Bulk Modulus (GPa) = 32.63440 76.94271 54.78855
# Shear Modulus (GPa) = 11.69017 26.72418 19.20718
#
# Velocity S-wave (km/s) = 2.44657 3.69912 3.13602
# Velocity P-wave (km/s) = 4.96897 7.59220 6.41608
#
# Compressibility (1/GPa) = 0.03064252
#
# Stress axis : x y z
#
# Youngs Moduli (GPa) = 136.48108 39.17743 135.32895
#
# Poissons Ratio (x) = -0.01473 0.57109
# Poissons Ratio (y) = -0.05131 0.12928
# Poissons Ratio (z) = 0.57596 0.03743
#
# Static dielectric constant tensor:
#      x y z
#    x 1.670790 0.000000 0.000000 
#    y 0.000000 1.732880 0.000000 
#    z 0.000000 0.000000 1.673990 
# 
# From -- ./inp_files/10727.got.cif
#   From: 2010.05.17/outbox.cif.g08.bks.cpg/sg38_6_cif.got.tgz:10727.got - 2010.06.03 18:07:57.
