data_PCOD9359853
_publ_section_title
;
Structure prediction by ZEFSAII (Michael W. Deem and Ramdas Pophale) SiO2 
 PCOD9359853
Probable space group: A B M 2
;
_chemical_formula_sum "Si O2"
_cell_formula_units_Z 64
_cell_length_a 14.820367
_cell_length_b 8.052201
_cell_length_c 32.539780
_cell_angle_alpha 90.000000
_cell_angle_beta 90.000000
_cell_angle_gamma 90.000000
_cell_volume 3883.185863
_symmetry_space_group_name_H-M "A B M 2"
_symmetry_group_IT_number 39
_symmetry_cell_setting 'orthorhombic'
loop_
_space_group_symop_operation_xyz
x,y,z
-x,-y,z
-x,1/2+y,z
x,1/2-y,z
x,1/2+y,1/2+z
-x,1/2-y,1/2+z
-x,y,1/2+z
x,-y,1/2+z
loop_
_atom_site_type_symbol
_atom_site_label
_atom_site_fract_x
_atom_site_fract_y
_atom_site_fract_z
Si Si1 0.895017 0.548809 0.695130
Si Si2 0.788582 0.046560 0.454762
Si Si3 0.400705 0.052296 0.986658
Si Si4 0.894950 0.449980 0.284958
Si Si5 0.599511 0.447960 0.081885
Si Si6 0.104940 0.450897 0.874635
Si Si7 0.104114 0.051162 0.036396
Si Si8 0.214584 0.050929 0.616610
O O1 0.892564 0.750000 0.694889
O O2 0.861233 0.491438 0.740314
O O3 0.835151 0.485879 0.657297
O O4 0.000000 0.500000 0.690028
O O5 0.789023 0.250000 0.454183
O O6 0.685547 0.990378 0.461276
O O7 0.836115 0.989231 0.412985
O O8 0.845772 0.994699 0.494793
O O9 0.398062 0.250000 0.986045
O O10 0.500000 0.000000 0.972315
O O11 0.390391 0.999807 0.034245
O O12 0.887835 0.250000 0.284971
O O13 0.860975 0.509012 0.329553
O O14 0.000000 0.500000 0.284998
O O15 0.500000 0.500000 0.096046
O O16 0.602725 0.250000 0.082804
O O17 0.684759 0.514428 0.107416
O O18 0.107841 0.250000 0.874688
O O19 0.000000 0.500000 0.879552
O O20 0.109879 0.250000 0.037828
O O21 0.154323 0.983339 0.076522
O O22 0.000000 0.000000 0.035915
O O23 0.221181 0.250000 0.621329
#
# Coordination Sequence:
#
# PCOD9359853 Si02
#       8
#     8   8   8   8   8   8   8   8
#     4   9  17  29  43  63  88 114 143 177 213 250
#     4   9  18  30  44  62  87 115 143 176 213 253
#     4  10  18  31  47  64  84 110 142 180 220 257
#     4   8  14  25  43  62  83 109 140 176 213 250
#     4  10  19  31  47  65  84 109 142 182 222 259
#     4   9  16  28  44  64  87 114 144 175 211 252
#     4  11  21  32  43  59  87 121 151 177 208 248
#     4  10  20  32  45  63  87 115 147 180 214 256
#
# _framework density 16.481313
#
# number of rings (size 3 to 8) (size 9 to 14) (size 15 to 20)
#    0.000    2.500    1.250    2.625    0.000    2.000 
#    0.000    1.875    0.000    0.000    0.000    0.875 
#    0.000    0.000    0.000    0.000    0.000    0.000 
#
# Total GULP energy -178304.035930 kJ/mol
# GULP energy per Si atom -5572.001123 kJ/mol
# Density = 1.644380 g / cm^3
# Si number density = 16.481313 Si / 1000 Ang^3
#
#
#
# Elastic Constant Matrix: (Units=GPa)
#
#
# Indices 1 2 3 4 5 6 
#
# 1 132.3524 5.6718 84.8683 0.0000 0.0000 0.0000
# 2 5.6718 13.8714 5.7570 0.0000 0.0000 0.0000
# 3 84.8683 5.7570 162.8904 0.0000 0.0000 0.0000
# 4 0.0000 0.0000 0.0000 12.6106 0.0000 0.0000
# 5 0.0000 0.0000 0.0000 0.0000 10.8891 0.0000
# 6 0.0000 0.0000 0.0000 0.0000 0.0000 16.0594
#
#
#
# Elastic Compliance Matrix: (Units=1/GPa)
#
#
# Indices 1 2 3 4 5 6 
#
# 1 0.011414 -0.002232 -0.005868 0.000000 0.000000 0.000000
# 2 -0.002232 0.073600 -0.001439 0.000000 0.000000 0.000000
# 3 -0.005868 -0.001439 0.009247 0.000000 0.000000 0.000000
# 4 0.000000 0.000000 0.000000 0.079298 0.000000 0.000000
# 5 0.000000 0.000000 0.000000 0.000000 0.091835 0.000000
# 6 0.000000 0.000000 0.000000 0.000000 0.000000 0.062269
#
#
# Mechanical properties :
#
#
# Convention : Reuss Voigt Hill
#
# Bulk Modulus (GPa) = 13.30046 55.74540 34.52293
# Shear Modulus (GPa) = 13.44803 22.09962 17.77382
#
# Velocity S-wave (km/s) = 2.85959 3.66579 3.28750
# Velocity P-wave (km/s) = 4.35782 7.19821 5.94999
#
# Compressibility (1/GPa) = 0.07518537
#
# Stress axis : x y z
#
# Youngs Moduli (GPa) = 87.61227 13.58687 108.14045
#
# Poissons Ratio (x) = 0.03032 0.63456
# Poissons Ratio (y) = 0.19552 0.15557
# Poissons Ratio (z) = 0.51410 0.01955
#
# Static dielectric constant tensor:
#      x y z
#    x 1.550800 0.000000 0.000000 
#    y 0.000000 1.589770 0.000000 
#    z 0.000000 0.000000 1.581130 
# 
# From -- ./inp_files/17950.got.cif
#   From: 2010.05.17/outbox.cif.g08.bks.cpg/sg39_9_cif.got.tgz:17950.got - 2010.06.03 18:22:40.
