data_PCOD9359334
_publ_section_title
;
Structure prediction by ZEFSAII (Michael W. Deem and Ramdas Pophale) SiO2 
 PCOD9359334
Probable space group: A M M 2
;
_chemical_formula_sum "Si O2"
_cell_formula_units_Z 48
_cell_length_a 13.584191
_cell_length_b 27.725903
_cell_length_c 5.542981
_cell_angle_alpha 90.000000
_cell_angle_beta 90.000000
_cell_angle_gamma 90.000000
_cell_volume 2087.674895
_symmetry_space_group_name_H-M "A M M 2"
_symmetry_group_IT_number 38
_symmetry_cell_setting 'orthorhombic'
loop_
_space_group_symop_operation_xyz
x,y,z
-x,-y,z
-x,y,z
x,-y,z
x,1/2+y,1/2+z
-x,1/2-y,1/2+z
-x,1/2+y,1/2+z
x,1/2-y,1/2+z
loop_
_atom_site_type_symbol
_atom_site_label
_atom_site_fract_x
_atom_site_fract_y
_atom_site_fract_z
Si Si1 0.391042 0.136859 0.497220
Si Si2 0.300979 0.945478 0.766857
Si Si3 0.888274 0.053784 0.432247
Si Si4 0.614937 0.269680 0.277154
Si Si5 0.224671 0.129061 0.130992
Si Si6 0.882761 0.220957 0.961034
O O1 0.500000 0.142518 0.389142
O O2 0.373194 0.082735 0.587262
O O3 0.384828 0.173667 0.721752
O O4 0.300911 0.150132 0.325177
O O5 0.193640 0.945456 0.639950
O O6 0.330176 0.000000 0.818743
O O7 0.287685 0.911579 0.995179
O O8 0.860952 0.098209 0.261187
O O9 0.000000 0.058220 0.521008
O O10 0.879464 0.000000 0.314931
O O11 0.500000 0.254290 0.290790
O O12 0.656906 0.254745 0.534704
O O13 0.176591 0.170810 0.972068
O O14 0.863509 0.250338 0.211209
O O15 0.000000 0.210547 0.962151
#
# Coordination Sequence:
#
# PCOD9359334 Si02
#       6
#     8   8   8   8   8   8
#     4  10  24  42  62  90 126 172 225 281 345 412
#     4  10  23  42  62  92 128 167 218 281 346 410
#     4   9  19  37  62  93 126 158 202 264 334 406
#     4   9  19  36  60  89 122 158 204 266 328 389
#     4  11  23  39  65  93 127 176 221 283 332 408
#     4  10  24  44  68 102 145 187 230 276 337 422
#
# _framework density 22.992083000000001
#
# number of rings (size 3 to 8) (size 9 to 14) (size 15 to 20)
#    0.000    2.167    0.000    1.000    7.000    4.333 
#    0.000    1.667    0.000    0.000    0.000    0.000 
#    0.000    0.000    0.000    0.000    0.000    0.000 
#
# Total GULP energy -134177.061368 kJ/mol
# GULP energy per Si atom -5590.710890 kJ/mol
# Density = 2.293975 g / cm^3
# Si number density = 22.992083 Si / 1000 Ang^3
#
#
#
# Elastic Constant Matrix: (Units=GPa)
#
#
# Indices 1 2 3 4 5 6 
#
# 1 111.8517 35.5567 24.2344 0.0000 0.0000 0.0000
# 2 35.5567 123.9285 30.1129 0.0000 0.0000 0.0000
# 3 24.2344 30.1129 74.5721 0.0000 0.0000 0.0000
# 4 0.0000 0.0000 0.0000 38.4126 0.0000 0.0000
# 5 0.0000 0.0000 0.0000 0.0000 22.8048 0.0000
# 6 0.0000 0.0000 0.0000 0.0000 0.0000 22.8012
#
#
#
# Elastic Compliance Matrix: (Units=1/GPa)
#
#
# Indices 1 2 3 4 5 6 
#
# 1 0.010201 -0.002352 -0.002365 0.000000 0.000000 0.000000
# 2 -0.002352 0.009489 -0.003068 0.000000 0.000000 0.000000
# 3 -0.002365 -0.003068 0.015417 0.000000 0.000000 0.000000
# 4 0.000000 0.000000 0.000000 0.026033 0.000000 0.000000
# 5 0.000000 0.000000 0.000000 0.000000 0.043850 0.000000
# 6 0.000000 0.000000 0.000000 0.000000 0.000000 0.043857
#
#
# Mechanical properties :
#
#
# Convention : Reuss Voigt Hill
#
# Bulk Modulus (GPa) = 51.18330 54.46226 52.82278
# Shear Modulus (GPa) = 29.25175 31.50028 30.37601
#
# Velocity S-wave (km/s) = 3.57074 3.70543 3.63871
# Velocity P-wave (km/s) = 6.26975 6.48427 6.37791
#
# Compressibility (1/GPa) = 0.01953762
#
# Stress axis : x y z
#
# Youngs Moduli (GPa) = 98.03407 105.38135 64.86266
#
# Poissons Ratio (x) = 0.24785 0.15341
# Poissons Ratio (y) = 0.23057 0.19897
# Poissons Ratio (z) = 0.23187 0.32326
#
# Static dielectric constant tensor:
#      x y z
#    x 1.843580 0.000000 0.000000 
#    y 0.000000 1.866800 0.000000 
#    z 0.000000 0.000000 1.886740 
# 
# From -- ./inp_files/1316.got.cif
#   From: 2010.05.17/outbox.cif.g08.bks.cpg/sg38_1_cif.got.tgz:1316.got - 2010.06.03 18:07:57.
