data_PCOD9359678
_publ_section_title
;
Structure prediction by ZEFSAII (Michael W. Deem and Ramdas Pophale) SiO2 
 PCOD9359678
Probable space group: A B M 2
;
_chemical_formula_sum "Si O2"
_cell_formula_units_Z 32
_cell_length_a 8.219132
_cell_length_b 30.837907
_cell_length_c 5.436858
_cell_angle_alpha 90.000000
_cell_angle_beta 90.000000
_cell_angle_gamma 90.000000
_cell_volume 1378.030532
_symmetry_space_group_name_H-M "A B M 2"
_symmetry_group_IT_number 39
_symmetry_cell_setting 'orthorhombic'
loop_
_space_group_symop_operation_xyz
x,y,z
-x,-y,z
-x,1/2+y,z
x,1/2-y,z
x,1/2+y,1/2+z
-x,1/2-y,1/2+z
-x,y,1/2+z
x,-y,1/2+z
loop_
_atom_site_type_symbol
_atom_site_label
_atom_site_fract_x
_atom_site_fract_y
_atom_site_fract_z
Si Si1 0.585088 0.563299 0.961300
Si Si2 0.059032 0.450950 0.144650
Si Si3 0.298140 0.300561 0.453328
Si Si4 0.337045 0.164948 0.953376
O O1 0.537026 0.550884 0.683385
O O2 0.604562 0.615480 0.960104
O O3 0.758518 0.546645 0.048402
O O4 0.000000 0.500000 0.185691
O O5 0.040260 0.430203 0.415750
O O6 0.259242 0.250000 0.456939
O O7 0.244606 0.323950 0.703179
O O8 0.495717 0.306996 0.451114
O O9 0.243231 0.322908 0.201033
#
# Coordination Sequence:
#
# PCOD9359678 Si02
#       4
#     8   8   8   8
#     4  12  21  37  62  92 117 153 197 259 294 340
#     4  10  23  45  64  85 122 158 191 242 300 374
#     4  10  16  25  41  68 120 158 174 218 304 355
#     4  10  16  27  41  73 112 146 184 232 282 338
#
# _framework density 23.221547000000001
#
# number of rings (size 3 to 8) (size 9 to 14) (size 15 to 20)
#    0.000    1.500    5.000    5.250    0.000    0.000 
#    0.000   15.000    0.000    0.000    0.000    0.000 
#    0.000   34.000    0.000    0.000    0.000    0.000 
#
# Total GULP energy -89362.041627 kJ/mol
# GULP energy per Si atom -5585.127602 kJ/mol
# Density = 2.316869 g / cm^3
# Si number density = 23.221547 Si / 1000 Ang^3
#
#
#
# Elastic Constant Matrix: (Units=GPa)
#
#
# Indices 1 2 3 4 5 6 
#
# 1 23.1250 -8.1528 -16.8772 0.0000 0.0000 0.0000
# 2 -8.1528 57.8980 9.3129 0.0000 0.0000 0.0000
# 3 -16.8772 9.3129 213.6695 0.0000 0.0000 0.0000
# 4 0.0000 0.0000 0.0000 1.0295 0.0000 0.0000
# 5 0.0000 0.0000 0.0000 0.0000 21.7055 0.0000
# 6 0.0000 0.0000 0.0000 0.0000 0.0000 -11.5765
#
#
#
# Elastic Compliance Matrix: (Units=1/GPa)
#
#
# Indices 1 2 3 4 5 6 
#
# 1 0.047996 0.006192 0.003521 0.000000 0.000000 0.000000
# 2 0.006192 0.018193 -0.000304 0.000000 0.000000 0.000000
# 3 0.003521 -0.000304 0.004972 0.000000 0.000000 0.000000
# 4 0.000000 0.000000 0.000000 0.971390 0.000000 0.000000
# 5 0.000000 0.000000 0.000000 0.000000 0.046071 0.000000
# 6 0.000000 0.000000 0.000000 0.000000 0.000000 -0.086382
#
#
# Mechanical properties :
#
#
# Convention : Reuss Voigt Hill
#
# Bulk Modulus (GPa) = 11.11369 29.25093 20.18231
# Shear Modulus (GPa) = 4.93382 22.92566 13.92974
#
# Velocity S-wave (km/s) = 1.45921 3.14547 2.45187
# Velocity P-wave (km/s) = 2.76322 5.08093 4.08969
#
# Compressibility (1/GPa) = 0.08997915
#
# Stress axis : x y z
#
# Youngs Moduli (GPa) = 20.83499 54.96757 201.14651
#
# Poissons Ratio (x) = -0.34036 -0.70828
# Poissons Ratio (y) = -0.12901 0.06112
# Poissons Ratio (z) = -0.07336 0.01670
#
# Static dielectric constant tensor:
#      x y z
#    x 1.857090 0.000000 0.000000 
#    y 0.000000 1.895680 0.000000 
#    z 0.000000 0.000000 2.065550 
# 
# From -- ./inp_files/154.got.cif
#   From: 2010.05.17/outbox.cif.g08.bks.cpg/sg39_1_cif.got.tgz:154.got - 2010.06.03 18:22:40.
