data_PCOD9359993
_publ_section_title
;
Structure prediction by ZEFSAII (Michael W. Deem and Ramdas Pophale) SiO2 
 PCOD9359993
Probable space group: A B M 2
;
_chemical_formula_sum "Si O2"
_cell_formula_units_Z 64
_cell_length_a 9.932492
_cell_length_b 17.852187
_cell_length_c 16.093795
_cell_angle_alpha 90.000000
_cell_angle_beta 90.000000
_cell_angle_gamma 90.000000
_cell_volume 2853.698693
_symmetry_space_group_name_H-M "A B M 2"
_symmetry_group_IT_number 39
_symmetry_cell_setting 'orthorhombic'
loop_
_space_group_symop_operation_xyz
x,y,z
-x,-y,z
-x,1/2+y,z
x,1/2-y,z
x,1/2+y,1/2+z
-x,1/2-y,1/2+z
-x,y,1/2+z
x,-y,1/2+z
loop_
_atom_site_type_symbol
_atom_site_label
_atom_site_fract_x
_atom_site_fract_y
_atom_site_fract_z
Si Si1 0.767586 0.059781 0.798130
Si Si2 0.902112 0.165866 0.373780
Si Si3 0.103827 0.558062 0.959831
Si Si4 0.671799 0.665018 0.015182
Si Si5 0.710031 0.598296 0.748362
Si Si6 0.880540 0.160805 0.657977
Si Si7 0.507886 0.090340 0.885581
Si Si8 0.812845 0.837018 0.588587
O O1 0.835719 0.019155 0.878102
O O2 0.858011 0.111879 0.740387
O O3 0.653626 0.106917 0.846520
O O4 0.711694 0.991830 0.741978
O O5 0.936830 0.250000 0.349937
O O6 0.783262 0.167233 0.441945
O O7 0.846315 0.124331 0.293732
O O8 0.023484 0.126539 0.419704
O O9 0.000000 0.500000 0.000578
O O10 0.206411 0.597225 0.021377
O O11 0.628718 0.750000 0.033526
O O12 0.760078 0.637480 0.093830
O O13 0.547041 0.621994 0.972809
O O14 0.592032 0.617037 0.812339
O O15 0.712482 0.643239 0.663286
O O16 0.865077 0.250000 0.672939
O O17 0.029801 0.152205 0.617925
O O18 0.500000 0.000000 0.890839
O O19 0.799269 0.750000 0.562603
#
# Coordination Sequence:
#
# PCOD9359993 Si02
#       8
#     8   8   8   8   8   8   8   8
#     4  11  24  41  61  93 129 165 214 267 320 383
#     4  10  18  35  62  86 118 160 206 256 316 384
#     4  12  24  38  60  94 135 168 204 265 332 396
#     4   9  18  37  64  90 117 163 214 258 314 387
#     4  10  21  40  63  88 120 161 212 260 313 381
#     4  10  22  39  62  92 127 164 209 266 328 384
#     4   9  21  42  63  87 124 163 215 260 310 387
#     4  11  24  40  62  95 130 167 215 268 329 389
#
# _framework density 22.427033999999999
#
# number of rings (size 3 to 8) (size 9 to 14) (size 15 to 20)
#    0.000    1.750    2.500    1.500    1.750    3.000 
#    2.250    0.625    0.000    0.000    0.000    0.000 
#    0.000    0.000    0.000    0.000    0.000    0.000 
#
# Total GULP energy -178563.405045 kJ/mol
# GULP energy per Si atom -5580.106408 kJ/mol
# Density = 2.237599 g / cm^3
# Si number density = 22.427034 Si / 1000 Ang^3
#
#
#
# Elastic Constant Matrix: (Units=GPa)
#
#
# Indices 1 2 3 4 5 6 
#
# 1 39.5274 -1.5913 -8.2170 0.0000 0.0000 0.0000
# 2 -1.5913 58.5117 24.6002 0.0000 0.0000 0.0000
# 3 -8.2170 24.6002 73.8652 0.0000 0.0000 0.0000
# 4 0.0000 0.0000 0.0000 25.0051 0.0000 0.0000
# 5 0.0000 0.0000 0.0000 0.0000 30.8753 0.0000
# 6 0.0000 0.0000 0.0000 0.0000 0.0000 25.3012
#
#
#
# Elastic Compliance Matrix: (Units=1/GPa)
#
#
# Indices 1 2 3 4 5 6 
#
# 1 0.025915 -0.000590 0.003079 0.000000 0.000000 0.000000
# 2 -0.000590 0.019887 -0.006689 0.000000 0.000000 0.000000
# 3 0.003079 -0.006689 0.016108 0.000000 0.000000 0.000000
# 4 0.000000 0.000000 0.000000 0.039992 0.000000 0.000000
# 5 0.000000 0.000000 0.000000 0.000000 0.032388 0.000000
# 6 0.000000 0.000000 0.000000 0.000000 0.000000 0.039524
#
#
# Mechanical properties :
#
#
# Convention : Reuss Voigt Hill
#
# Bulk Modulus (GPa) = 18.68742 22.38757 20.53750
# Shear Modulus (GPa) = 24.99372 26.71047 25.85210
#
# Velocity S-wave (km/s) = 3.34195 3.45482 3.39886
# Velocity P-wave (km/s) = 4.82101 5.09102 4.95785
#
# Compressibility (1/GPa) = 0.05351192
#
# Stress axis : x y z
#
# Youngs Moduli (GPa) = 38.58720 50.28489 62.07965
#
# Poissons Ratio (x) = 0.02966 -0.19116
# Poissons Ratio (y) = 0.02276 0.41523
# Poissons Ratio (z) = -0.11882 0.33634
#
# Static dielectric constant tensor:
#      x y z
#    x 1.902090 0.000000 0.000000 
#    y 0.000000 1.804300 0.000000 
#    z 0.000000 0.000000 1.871770 
# 
# From -- ./inp_files/9490.got.cif
#   From: 2010.05.17/outbox.cif.g08.bks.cpg/sg39_5_cif.got.tgz:9490.got - 2010.06.03 18:22:40.
