data_PCOD9359294
_publ_section_title
;
Structure prediction by ZEFSAII (Michael W. Deem and Ramdas Pophale) SiO2 
 PCOD9359294
Probable space group: A M M 2
;
_chemical_formula_sum "Si O2"
_cell_formula_units_Z 40
_cell_length_a 8.087787
_cell_length_b 30.735889
_cell_length_c 7.427310
_cell_angle_alpha 90.000000
_cell_angle_beta 90.000000
_cell_angle_gamma 90.000000
_cell_volume 1846.320259
_symmetry_space_group_name_H-M "A M M 2"
_symmetry_group_IT_number 38
_symmetry_cell_setting 'orthorhombic'
loop_
_space_group_symop_operation_xyz
x,y,z
-x,-y,z
-x,y,z
x,-y,z
x,1/2+y,1/2+z
-x,1/2-y,1/2+z
-x,1/2+y,1/2+z
x,1/2-y,1/2+z
loop_
_atom_site_type_symbol
_atom_site_label
_atom_site_fract_x
_atom_site_fract_y
_atom_site_fract_z
Si Si1 0.301233 0.621905 0.116810
Si Si2 0.688671 0.692472 0.624577
Si Si3 0.302627 0.451546 0.387701
Si Si4 0.192644 0.398958 0.713637
Si Si5 0.689714 0.285485 0.046204
O O1 0.500000 0.625427 0.137126
O O2 0.236251 0.585715 0.253899
O O3 0.236902 0.671677 0.141488
O O4 0.267523 0.606588 0.912541
O O5 0.500000 0.686954 0.555188
O O6 0.778615 0.646715 0.608563
O O7 0.765434 0.737356 0.552419
O O8 0.680910 0.701017 0.838630
O O9 0.500000 0.452938 0.359197
O O10 0.236138 0.500000 0.354910
O O11 0.271246 0.436100 0.590975
O O12 0.000000 0.406967 0.733323
O O13 0.500000 0.279289 0.113934
#
# Coordination Sequence:
#
# PCOD9359294 Si02
#       5
#     8   8   8   8   8
#     4   9  19  38  62  86 114 149 195 249 293 339
#     4   9  17  31  52  79 109 147 196 242 282 333
#     4  10  22  40  65  92 113 143 194 252 300 341
#     4  11  23  38  56  83 123 163 191 228 287 355
#     4   8  15  27  50  80 106 140 188 239 287 330
#
# _framework density 21.664715000000001
#
# number of rings (size 3 to 8) (size 9 to 14) (size 15 to 20)
#    0.000    2.600    0.000    3.000    2.800    2.000 
#    0.000    6.000    0.000    0.000    0.000    0.000 
#    0.000    0.000    0.000    0.000    0.000    0.000 
#
# Total GULP energy -111560.149834 kJ/mol
# GULP energy per Si atom -5578.007492 kJ/mol
# Density = 2.161540 g / cm^3
# Si number density = 21.664715 Si / 1000 Ang^3
#
#
#
# Elastic Constant Matrix: (Units=GPa)
#
#
# Indices 1 2 3 4 5 6 
#
# 1 9.3319 2.7405 -7.7973 0.0000 0.0000 0.0000
# 2 2.7405 114.8426 28.5210 0.0000 0.0000 0.0000
# 3 -7.7973 28.5210 53.7350 0.0000 0.0000 0.0000
# 4 0.0000 0.0000 0.0000 27.3848 0.0000 0.0000
# 5 0.0000 0.0000 0.0000 0.0000 -8.9167 0.0000
# 6 0.0000 0.0000 0.0000 0.0000 0.0000 -12.3361
#
#
#
# Elastic Compliance Matrix: (Units=1/GPa)
#
#
# Indices 1 2 3 4 5 6 
#
# 1 0.129436 -0.008930 0.023522 0.000000 0.000000 0.000000
# 2 -0.008930 0.010646 -0.006946 0.000000 0.000000 0.000000
# 3 0.023522 -0.006946 0.025710 0.000000 0.000000 0.000000
# 4 0.000000 0.000000 0.000000 0.036517 0.000000 0.000000
# 5 0.000000 0.000000 0.000000 0.000000 -0.112149 0.000000
# 6 0.000000 0.000000 0.000000 0.000000 0.000000 -0.081063
#
#
# Mechanical properties :
#
#
# Convention : Reuss Voigt Hill
#
# Bulk Modulus (GPa) = 5.52237 24.98200 15.25218
# Shear Modulus (GPa) = 92.30802 11.52275 51.91538
#
# Velocity S-wave (km/s) = 6.53453 2.30873 4.90052
# Velocity P-wave (km/s) = 7.71284 4.32009 6.25104
#
# Compressibility (1/GPa) = 0.18108177
#
# Stress axis : x y z
#
# Youngs Moduli (GPa) = 7.72584 93.93388 38.89556
#
# Poissons Ratio (x) = 0.83886 -0.91490
# Poissons Ratio (y) = 0.06899 0.27018
# Poissons Ratio (z) = -0.18173 0.65249
#
# Static dielectric constant tensor:
#      x y z
#    x 1.769220 0.000000 0.000000 
#    y 0.000000 1.843620 0.000000 
#    z 0.000000 0.000000 1.802380 
# 
# From -- ./inp_files/3453.got.cif
#   From: 2010.05.17/outbox.cif.g08.bks.cpg/sg38_2_cif.got.tgz:3453.got - 2010.06.03 18:07:57.
