data_PCOD9359673
_publ_section_title
;
Structure prediction by ZEFSAII (Michael W. Deem and Ramdas Pophale) SiO2 
 PCOD9359673
Probable space group: A B M 2
;
_chemical_formula_sum "Si O2"
_cell_formula_units_Z 44
_cell_length_a 11.212609
_cell_length_b 16.746169
_cell_length_c 9.434978
_cell_angle_alpha 90.000000
_cell_angle_beta 90.000000
_cell_angle_gamma 90.000000
_cell_volume 1771.589263
_symmetry_space_group_name_H-M "A B M 2"
_symmetry_group_IT_number 39
_symmetry_cell_setting 'orthorhombic'
loop_
_space_group_symop_operation_xyz
x,y,z
-x,-y,z
-x,1/2+y,z
x,1/2-y,z
x,1/2+y,1/2+z
-x,1/2-y,1/2+z
-x,y,1/2+z
x,-y,1/2+z
loop_
_atom_site_type_symbol
_atom_site_label
_atom_site_fract_x
_atom_site_fract_y
_atom_site_fract_z
Si Si1 0.867528 0.750000 0.531360
Si Si2 0.632884 0.750000 0.672032
Si Si3 0.500000 0.500000 0.431787
Si Si4 0.039265 0.113521 0.129604
Si Si5 0.381264 0.426599 0.683966
Si Si6 0.280526 0.250000 0.948840
Si Si7 0.214779 0.250000 0.235733
Si Si8 0.848021 0.415998 0.365911
O O1 0.778615 0.750000 0.662661
O O2 0.951444 0.672649 0.539245
O O3 0.774200 0.750000 0.402526
O O4 0.602846 0.662084 0.621230
O O5 0.610261 0.750000 0.841318
O O6 0.397030 0.482972 0.547102
O O7 0.525156 0.432267 0.314995
O O8 0.957914 0.084104 0.257857
O O9 0.135248 0.172308 0.201563
O O10 0.104439 0.054446 0.018828
O O11 0.260695 0.447323 0.769442
O O12 0.202940 0.170990 0.915572
O O13 0.314969 0.250000 0.114846
#
# Coordination Sequence:
#
# PCOD9359673 Si02
#       8
#     4   4   4   8   8   4   4   8
#     4  11  15  25  44  86 132 164 195 246 318 380
#     4  10  19  35  67  99 129 150 213 284 327 363
#     4  10  24  48  72  88 120 180 228 274 362 398
#     4  10  16  24  44  81 129 169 191 240 310 381
#     4  10  22  44  70  97 122 171 222 285 332 401
#     4   8  14  26  41  76 121 166 190 245 299 358
#     4   9  16  20  36  67 128 174 196 213 290 385
#     4  10  17  30  52  86 127 163 208 246 308 385
#
# _framework density 24.836455000000001
#
# number of rings (size 3 to 8) (size 9 to 14) (size 15 to 20)
#    0.000    2.182    5.455    1.091    0.000    0.727 
#    0.000   14.545    0.000    3.273    0.000    0.000 
#    0.000    0.000    0.000    0.000    0.000    0.000 
#
# Total GULP energy -122468.803612 kJ/mol
# GULP energy per Si atom -5566.763801 kJ/mol
# Density = 2.477993 g / cm^3
# Si number density = 24.836455 Si / 1000 Ang^3
#
#
#
# Elastic Constant Matrix: (Units=GPa)
#
#
# Indices 1 2 3 4 5 6 
#
# 1 17.3965 -0.0651 4.2437 0.0000 0.0000 0.0000
# 2 -0.0651 41.8639 7.5498 0.0000 0.0000 0.0000
# 3 4.2437 7.5498 135.7691 0.0000 0.0000 0.0000
# 4 0.0000 0.0000 0.0000 19.2727 0.0000 0.0000
# 5 0.0000 0.0000 0.0000 0.0000 35.6569 0.0000
# 6 0.0000 0.0000 0.0000 0.0000 0.0000 19.5284
#
#
#
# Elastic Compliance Matrix: (Units=1/GPa)
#
#
# Indices 1 2 3 4 5 6 
#
# 1 0.057932 0.000421 -0.001834 0.000000 0.000000 0.000000
# 2 0.000421 0.024132 -0.001355 0.000000 0.000000 0.000000
# 3 -0.001834 -0.001355 0.007498 0.000000 0.000000 0.000000
# 4 0.000000 0.000000 0.000000 0.051887 0.000000 0.000000
# 5 0.000000 0.000000 0.000000 0.000000 0.028045 0.000000
# 6 0.000000 0.000000 0.000000 0.000000 0.000000 0.051207
#
#
# Mechanical properties :
#
#
# Convention : Reuss Voigt Hill
#
# Bulk Modulus (GPa) = 11.90121 24.27624 18.08873
# Shear Modulus (GPa) = 19.66596 27.11167 23.38881
#
# Velocity S-wave (km/s) = 2.81698 3.30753 3.07206
# Velocity P-wave (km/s) = 3.92208 4.93782 4.45897
#
# Compressibility (1/GPa) = 0.08402508
#
# Stress axis : x y z
#
# Youngs Moduli (GPa) = 17.26168 41.43882 133.36662
#
# Poissons Ratio (x) = -0.01744 0.24461
# Poissons Ratio (y) = -0.00726 0.18072
# Poissons Ratio (z) = 0.03166 0.05615
#
# Static dielectric constant tensor:
#      x y z
#    x 2.035290 0.000000 0.000000 
#    y 0.000000 2.207020 0.000000 
#    z 0.000000 0.000000 1.973610 
# 
# From -- ./inp_files/3201.got.cif
#   From: 2010.05.17/outbox.cif.g08.bks.cpg/sg39_2_cif.got.tgz:3201.got - 2010.06.03 18:22:40.
