data_PCOD9359732
_publ_section_title
;
Structure prediction by ZEFSAII (Michael W. Deem and Ramdas Pophale) SiO2 
 PCOD9359732
Probable space group: A B M 2
;
_chemical_formula_sum "Si O2"
_cell_formula_units_Z 60
_cell_length_a 15.707822
_cell_length_b 19.028067
_cell_length_c 9.360768
_cell_angle_alpha 90.000000
_cell_angle_beta 90.000000
_cell_angle_gamma 90.000000
_cell_volume 2797.835168
_symmetry_space_group_name_H-M "A B M 2"
_symmetry_group_IT_number 39
_symmetry_cell_setting 'orthorhombic'
loop_
_space_group_symop_operation_xyz
x,y,z
-x,-y,z
-x,1/2+y,z
x,1/2-y,z
x,1/2+y,1/2+z
-x,1/2-y,1/2+z
-x,y,1/2+z
x,-y,1/2+z
loop_
_atom_site_type_symbol
_atom_site_label
_atom_site_fract_x
_atom_site_fract_y
_atom_site_fract_z
Si Si1 0.066549 0.250000 0.207381
Si Si2 0.606528 0.962595 0.221432
Si Si3 0.198686 0.961087 0.704948
Si Si4 0.082192 0.378432 0.422326
Si Si5 0.504776 0.112010 0.466380
Si Si6 0.900107 0.875239 0.982951
Si Si7 0.386919 0.133798 0.711347
Si Si8 0.808739 0.370374 0.195371
O O1 0.057866 0.311588 0.328567
O O2 0.084405 0.188915 0.087908
O O3 0.703981 0.938797 0.231034
O O4 0.555085 0.933305 0.358401
O O5 0.563200 0.933005 0.076621
O O6 0.608943 0.047438 0.215645
O O7 0.139227 0.930826 0.829083
O O8 0.165993 0.927995 0.557607
O O9 0.194463 0.044660 0.697668
O O10 0.137566 0.351942 0.555924
O O11 0.992070 0.411406 0.465747
O O12 0.442419 0.153896 0.573049
O O13 0.566426 0.154175 0.358738
O O14 0.860387 0.849379 0.835146
O O15 0.288827 0.154950 0.698543
#
# Coordination Sequence:
#
# PCOD9359732 Si02
#       8
#     4   8   8   8   8   8   8   8
#     4  10  24  44  60  80 106 138 188 252 300 314
#     4  10  17  28  44  68 108 151 186 220 259 313
#     4  10  22  36  52  83 126 156 178 223 280 333
#     4  11  23  39  60  82 110 149 189 233 280 331
#     4  10  17  26  44  68 102 153 194 217 254 312
#     4  11  23  39  60  82 110 149 189 233 280 331
#     4  10  18  28  44  72 109 146 184 221 261 320
#     4  11  22  35  56  86 119 153 186 223 274 343
#
# _framework density 21.445152
#
# number of rings (size 3 to 8) (size 9 to 14) (size 15 to 20)
#    0.000    1.600    0.000    7.600    0.000    8.000 
#    0.000    0.000    0.000    0.000    0.000    0.000 
#    0.000  241.067    0.000    0.000    0.000    0.000 
#
# Total GULP energy -167213.294270 kJ/mol
# GULP energy per Si atom -5573.776476 kJ/mol
# Density = 2.139634 g / cm^3
# Si number density = 21.445152 Si / 1000 Ang^3
#
#
#
# Elastic Constant Matrix: (Units=GPa)
#
#
# Indices 1 2 3 4 5 6 
#
# 1 124.8118 7.1825 -3.9161 0.0000 0.0000 0.0000
# 2 7.1825 41.8264 5.3123 0.0000 0.0000 0.0000
# 3 -3.9161 5.3123 86.9381 0.0000 0.0000 0.0000
# 4 0.0000 0.0000 0.0000 92.5321 0.0000 0.0000
# 5 0.0000 0.0000 0.0000 0.0000 35.0222 0.0000
# 6 0.0000 0.0000 0.0000 0.0000 0.0000 -1.7068
#
#
#
# Elastic Compliance Matrix: (Units=1/GPa)
#
#
# Indices 1 2 3 4 5 6 
#
# 1 0.008110 -0.001450 0.000454 0.000000 0.000000 0.000000
# 2 -0.001450 0.024355 -0.001554 0.000000 0.000000 0.000000
# 3 0.000454 -0.001554 0.011618 0.000000 0.000000 0.000000
# 4 0.000000 0.000000 0.000000 0.010807 0.000000 0.000000
# 5 0.000000 0.000000 0.000000 0.000000 0.028553 0.000000
# 6 0.000000 0.000000 0.000000 0.000000 0.000000 -0.585879
#
#
# Mechanical properties :
#
#
# Convention : Reuss Voigt Hill
#
# Bulk Modulus (GPa) = 25.65249 30.08151 27.86700
# Shear Modulus (GPa) = -10.32327 41.50266 15.58970
#
# Velocity S-wave (km/s) = -2.19642 4.40397 2.69914
# Velocity P-wave (km/s) = 2.35702 6.31803 4.76829
#
# Compressibility (1/GPa) = 0.03898257
#
# Stress axis : x y z
#
# Youngs Moduli (GPa) = 123.30812 41.05980 86.07469
#
# Poissons Ratio (x) = 0.05955 -0.03907
# Poissons Ratio (y) = 0.17883 0.13372
# Poissons Ratio (z) = -0.05597 0.06379
#
# Static dielectric constant tensor:
#      x y z
#    x 1.794250 0.000000 0.000000 
#    y 0.000000 1.756970 0.000000 
#    z 0.000000 0.000000 1.796560 
# 
# From -- ./inp_files/3486.got.cif
#   From: 2010.05.17/outbox.cif.g08.bks.cpg/sg39_2_cif.got.tgz:3486.got - 2010.06.03 18:22:40.
