data_PCOD9359566
_publ_section_title
;
Structure prediction by ZEFSAII (Michael W. Deem and Ramdas Pophale) SiO2 
 PCOD9359566
Probable space group: A M M 2
;
_chemical_formula_sum "Si O2"
_cell_formula_units_Z 32
_cell_length_a 18.000000
_cell_length_b 9.000000
_cell_length_c 21.000000
_cell_angle_alpha 90.000000
_cell_angle_beta 90.000000
_cell_angle_gamma 90.000000
_cell_volume 3402.000000
_symmetry_space_group_name_H-M "A M M 2"
_symmetry_group_IT_number 38
_symmetry_cell_setting 'orthorhombic'
loop_
_space_group_symop_operation_xyz
x,y,z
-x,-y,z
-x,y,z
x,-y,z
x,1/2+y,1/2+z
-x,1/2-y,1/2+z
-x,1/2+y,1/2+z
x,1/2-y,1/2+z
loop_
_atom_site_type_symbol
_atom_site_label
_atom_site_fract_x
_atom_site_fract_y
_atom_site_fract_z
Si Si1 0.320316 0.676650 0.714520
Si Si2 0.165502 0.171025 0.864482
Si Si3 0.807012 0.318642 0.500921
Si Si4 0.364406 0.179576 0.983176
Si Si5 0.344787 0.828255 0.842756
Si Si6 0.918414 0.318579 0.607675
Si Si7 0.852099 0.322370 0.737306
Si Si8 0.582858 0.324739 0.107341
O O1 0.325432 0.500000 0.709275
O O2 0.357637 0.732515 0.780060
O O3 0.233102 0.716858 0.719326
O O4 0.358170 0.750328 0.653990
O O5 0.154094 0.230852 0.935447
O O6 0.255481 0.173975 0.855445
O O7 0.130800 0.257317 0.806055
O O8 0.142074 0.000000 0.861873
O O9 0.807306 0.500000 0.499657
O O10 0.720832 0.276574 0.499413
O O11 0.852736 0.268010 0.561680
O O12 0.379923 0.221519 0.909792
O O13 0.369403 0.000000 0.986381
O O14 0.412449 0.253899 0.037471
O O15 0.365364 0.000000 0.830788
O O16 0.916185 0.500000 0.607458
O O17 0.903504 0.270752 0.679782
O O18 0.000000 0.273498 0.585553
O O19 0.855590 0.500000 0.741005
O O20 0.500000 0.299782 0.133453
O O21 0.596094 0.500000 0.103242
#
# Coordination Sequence:
#
# PCOD9359566 Si02
#       8
#     8   8   8   8   8   8   8   8
#     4  10  19  32  53  76  97 125 162 204 244 284
#     4   8  14  26  46  70  95 122 151 189 238 285
#     4   8  14  27  47  70  94 120 156 199 235 273
#     4   9  17  32  55  77  97 125 160 199 242 288
#     4   8  15  29  50  76 102 125 153 194 244 293
#     4   9  16  26  42  65  94 128 163 197 233 274
#     4   9  17  29  47  72  97 120 154 199 238 276
#     4  11  24  38  50  69 100 132 161 198 240 283
#
# _framework density 9.4062319999999993
#
# number of rings (size 3 to 8) (size 9 to 14) (size 15 to 20)
#    0.000    3.000    0.000    3.000    0.000    4.000 
#    0.000    3.125    0.000    2.625    0.000    0.000 
#    0.000    0.000    0.000    0.000    0.000    0.000 
#
# Total GULP energy -178270.816715 kJ/mol
# GULP energy per Si atom -5570.963022 kJ/mol
# Density = 0.938482 g / cm^3
# Si number density = 9.406232 Si / 1000 Ang^3
#
#
#
# Elastic Constant Matrix: (Units=GPa)
#
#
# Indices 1 2 3 4 5 6 
#
# 1 25.0358 14.4723 16.2038 0.0000 0.0000 0.0000
# 2 14.4723 4.9978 11.3010 0.0000 0.0000 0.0000
# 3 16.2038 11.3010 78.7817 0.0000 0.0000 0.0000
# 4 0.0000 0.0000 0.0000 29.8818 0.0000 0.0000
# 5 0.0000 0.0000 0.0000 0.0000 -2.1023 0.0000
# 6 0.0000 0.0000 0.0000 0.0000 0.0000 8.1008
#
#
#
# Elastic Compliance Matrix: (Units=1/GPa)
#
#
# Indices 1 2 3 4 5 6 
#
# 1 -0.045455 0.163528 -0.014108 0.000000 0.000000 0.000000
# 2 0.163528 -0.292153 0.008274 0.000000 0.000000 0.000000
# 3 -0.014108 0.008274 0.014408 0.000000 0.000000 0.000000
# 4 0.000000 0.000000 0.000000 0.033465 0.000000 0.000000
# 5 0.000000 0.000000 0.000000 0.000000 -0.475671 0.000000
# 6 0.000000 0.000000 0.000000 0.000000 0.000000 0.123444
#
#
# Mechanical properties :
#
#
# Convention : Reuss Voigt Hill
#
# Bulk Modulus (GPa) = -127.99062 21.41882 -53.28590
# Shear Modulus (GPa) = -5.20859 11.63195 3.21168
#
# Velocity S-wave (km/s) = -1.66574 2.48928 1.30802
# Velocity P-wave (km/s) = 8.47834 4.43534 5.10931
#
# Compressibility (1/GPa) = -0.00781307
#
# Stress axis : x y z
#
# Youngs Moduli (GPa) = -21.99964 -3.42287 69.40481
#
# Poissons Ratio (x) = 0.55973 0.97918
# Poissons Ratio (y) = 3.59755 -0.57425
# Poissons Ratio (z) = -0.31038 0.02832
#
# Static dielectric constant tensor:
#      x y z
#    x 1.669270 0.000000 0.000000 
#    y 0.000000 1.629100 0.000000 
#    z 0.000000 0.000000 1.666350 
# 
# From -- ./inp_files/21380.got.cif
#   From: 2010.05.17/outbox.ucp.g08.bks.cvg/sg38_11_cif.got.tgz:21380.got - 2010.06.11 10:39:43.
