data_PCOD9359456
_publ_section_title
;
Structure prediction by ZEFSAII (Michael W. Deem and Ramdas Pophale) SiO2 
 PCOD9359456
Probable space group: A M M 2
;
_chemical_formula_sum "Si O2"
_cell_formula_units_Z 56
_cell_length_a 14.267502
_cell_length_b 15.142811
_cell_length_c 12.031005
_cell_angle_alpha 90.000000
_cell_angle_beta 90.000000
_cell_angle_gamma 90.000000
_cell_volume 2599.299668
_symmetry_space_group_name_H-M "A M M 2"
_symmetry_group_IT_number 38
_symmetry_cell_setting 'orthorhombic'
loop_
_space_group_symop_operation_xyz
x,y,z
-x,-y,z
-x,y,z
x,-y,z
x,1/2+y,1/2+z
-x,1/2-y,1/2+z
-x,1/2+y,1/2+z
x,1/2-y,1/2+z
loop_
_atom_site_type_symbol
_atom_site_label
_atom_site_fract_x
_atom_site_fract_y
_atom_site_fract_z
Si Si1 0.807687 0.397569 0.372050
Si Si2 0.892754 0.655454 0.142174
Si Si3 0.607130 0.771261 0.640502
Si Si4 0.710947 0.901884 0.228950
Si Si5 0.272952 0.599381 0.993549
Si Si6 0.397974 0.894657 0.858013
Si Si7 0.102454 0.863226 0.100604
O O1 0.806186 0.500000 0.339957
O O2 0.840469 0.348962 0.261072
O O3 0.702348 0.374311 0.413923
O O4 0.878112 0.385241 0.472700
O O5 0.895761 0.757769 0.110154
O O6 0.000000 0.622409 0.151007
O O7 0.829187 0.607603 0.050211
O O8 0.500000 0.759415 0.605663
O O9 0.651597 0.678737 0.678983
O O10 0.666068 0.823153 0.548144
O O11 0.606584 0.837665 0.746026
O O12 0.725037 0.890208 0.361048
O O13 0.812590 0.899646 0.172347
O O14 0.669200 0.000000 0.209006
O O15 0.309133 0.500000 0.019425
O O16 0.500000 0.876128 0.911441
O O17 0.397261 0.000000 0.835463
O O18 0.000000 0.894538 0.135951
#
# Coordination Sequence:
#
# PCOD9359456 Si02
#       7
#     8   8   8   8   8   8   8
#     4  11  22  40  66  95 133 174 222 285 341 398
#     4  11  24  39  64  99 134 174 226 285 345 406
#     4  11  23  42  70  99 133 178 226 275 334 405
#     4  11  26  46  68  98 140 183 226 280 343 410
#     4  11  24  44  70 102 140 180 223 280 345 413
#     4   9  18  34  62 100 134 167 215 276 337 395
#     4  11  25  43  67  97 132 179 233 281 337 409
#
# _framework density 21.544264999999999
#
# number of rings (size 3 to 8) (size 9 to 14) (size 15 to 20)
#    0.000    1.286    2.857    1.714    4.000    5.143 
#    0.000    5.000    0.000    1.714    0.000    2.000 
#    0.000    0.000    0.000    0.000    0.000    0.000 
#
# Total GULP energy -156514.898147 kJ/mol
# GULP energy per Si atom -5589.817791 kJ/mol
# Density = 2.149523 g / cm^3
# Si number density = 21.544265 Si / 1000 Ang^3
#
#
#
# Elastic Constant Matrix: (Units=GPa)
#
#
# Indices 1 2 3 4 5 6 
#
# 1 151.1478 44.0801 28.2979 0.0000 0.0000 0.0000
# 2 44.0801 104.9345 39.4326 0.0000 0.0000 0.0000
# 3 28.2979 39.4326 57.7136 0.0000 0.0000 0.0000
# 4 0.0000 0.0000 0.0000 36.3224 0.0000 0.0000
# 5 0.0000 0.0000 0.0000 0.0000 10.6239 0.0000
# 6 0.0000 0.0000 0.0000 0.0000 0.0000 20.2537
#
#
#
# Elastic Compliance Matrix: (Units=1/GPa)
#
#
# Indices 1 2 3 4 5 6 
#
# 1 0.007727 -0.002452 -0.002114 0.000000 0.000000 0.000000
# 2 -0.002452 0.013600 -0.008090 0.000000 0.000000 0.000000
# 3 -0.002114 -0.008090 0.023891 0.000000 0.000000 0.000000
# 4 0.000000 0.000000 0.000000 0.027531 0.000000 0.000000
# 5 0.000000 0.000000 0.000000 0.000000 0.094127 0.000000
# 6 0.000000 0.000000 0.000000 0.000000 0.000000 0.049374
#
#
# Mechanical properties :
#
#
# Convention : Reuss Voigt Hill
#
# Bulk Modulus (GPa) = 50.23343 59.71303 54.97323
# Shear Modulus (GPa) = 20.14551 26.90569 23.52560
#
# Velocity S-wave (km/s) = 3.06122 3.53775 3.30808
# Velocity P-wave (km/s) = 5.98847 6.66815 6.33742
#
# Compressibility (1/GPa) = 0.01990706
#
# Stress axis : x y z
#
# Youngs Moduli (GPa) = 129.42149 73.53149 41.85751
#
# Poissons Ratio (x) = 0.18027 0.08847
# Poissons Ratio (y) = 0.31728 0.33862
# Poissons Ratio (z) = 0.27353 0.59486
#
# Static dielectric constant tensor:
#      x y z
#    x 1.807650 0.000000 0.000000 
#    y 0.000000 1.789960 0.000000 
#    z 0.000000 0.000000 1.735190 
# 
# From -- ./inp_files/10094.got.cif
#   From: 2010.05.17/outbox.cif.g08.bks.cpg/sg38_6_cif.got.tgz:10094.got - 2010.06.03 18:07:57.
