data_PCOD9359429
_publ_section_title
;
Structure prediction by ZEFSAII (Michael W. Deem and Ramdas Pophale) SiO2 
 PCOD9359429
Probable space group: A M M 2
;
_chemical_formula_sum "Si O2"
_cell_formula_units_Z 64
_cell_length_a 21.153705
_cell_length_b 7.794027
_cell_length_c 19.222300
_cell_angle_alpha 90.000000
_cell_angle_beta 90.000000
_cell_angle_gamma 90.000000
_cell_volume 3169.229578
_symmetry_space_group_name_H-M "A M M 2"
_symmetry_group_IT_number 38
_symmetry_cell_setting 'orthorhombic'
loop_
_space_group_symop_operation_xyz
x,y,z
-x,-y,z
-x,y,z
x,-y,z
x,1/2+y,1/2+z
-x,1/2-y,1/2+z
-x,1/2+y,1/2+z
x,1/2-y,1/2+z
loop_
_atom_site_type_symbol
_atom_site_label
_atom_site_fract_x
_atom_site_fract_y
_atom_site_fract_z
Si Si1 0.429031 0.293473 0.268560
Si Si2 0.689344 0.210572 0.518044
Si Si3 0.929031 0.793474 0.357776
Si Si4 0.690514 0.297654 0.860654
Si Si5 0.928395 0.290603 0.016683
Si Si6 0.810656 0.210572 0.608292
Si Si7 0.571604 0.209396 0.609652
Si Si8 0.190514 0.797654 0.765682
O O1 0.500000 0.232961 0.286940
O O2 0.430883 0.500000 0.266623
O O3 0.374421 0.244522 0.321446
O O4 0.414809 0.236493 0.189294
O O5 0.693279 0.274430 0.438876
O O6 0.750000 0.262295 0.563167
O O7 0.625331 0.266585 0.556659
O O8 0.688885 0.000000 0.517604
O O9 0.914808 0.736494 0.437042
O O10 0.874421 0.744524 0.304889
O O11 0.000000 0.732959 0.339396
O O12 0.930884 0.000000 0.359713
O O13 0.693286 0.500000 0.868889
O O14 0.750000 0.249999 0.813168
O O15 0.927892 0.500000 0.016836
O O16 0.000000 0.237245 0.034295
O O17 0.874669 0.233414 0.069677
O O18 0.806721 0.274430 0.687460
O O19 0.811116 0.000000 0.608731
O O20 0.500000 0.262754 0.592039
O O21 0.572107 0.000000 0.609500
O O22 0.193285 0.000000 0.757447
#
# Coordination Sequence:
#
# PCOD9359429 Si02
#       8
#     8   8   8   8   8   8   8   8
#     4   9  18  34  56  79 104 135 167 202 250 306
#     4   9  17  29  47  71  96 124 165 215 254 284
#     4   9  18  34  56  79 104 135 167 202 250 306
#     4  11  22  34  52  77 104 135 170 211 257 302
#     4   8  14  27  49  74  97 124 162 206 247 288
#     4   9  17  29  47  71  96 124 165 215 254 284
#     4   8  14  27  49  74  97 124 162 206 247 288
#     4  11  22  34  52  77 104 135 170 211 257 302
#
# _framework density 20.194182000000001
#
# number of rings (size 3 to 8) (size 9 to 14) (size 15 to 20)
#    0.000    2.750    0.000    3.750    0.000    5.500 
#    0.000    2.500    0.000   13.500    0.000    0.000 
#    0.000    0.000    0.000    0.000    0.000    0.000 
#
# Total GULP energy -178581.649244 kJ/mol
# GULP energy per Si atom -5580.676539 kJ/mol
# Density = 2.014822 g / cm^3
# Si number density = 20.194182 Si / 1000 Ang^3
#
#
#
# Elastic Constant Matrix: (Units=GPa)
#
#
# Indices 1 2 3 4 5 6 
#
# 1 193.1194 7.5723 157.7132 0.0000 0.0000 0.0000
# 2 7.5723 24.6924 10.7042 0.0000 0.0000 0.0000
# 3 157.7132 10.7042 207.6115 0.0000 0.0000 0.0000
# 4 0.0000 0.0000 0.0000 18.7221 0.0000 0.0000
# 5 0.0000 0.0000 0.0000 0.0000 41.3806 0.0000
# 6 0.0000 0.0000 0.0000 0.0000 0.0000 15.0278
#
#
#
# Elastic Compliance Matrix: (Units=1/GPa)
#
#
# Indices 1 2 3 4 5 6 
#
# 1 0.013643 0.000316 -0.010380 0.000000 0.000000 0.000000
# 2 0.000316 0.041431 -0.002376 0.000000 0.000000 0.000000
# 3 -0.010380 -0.002376 0.012825 0.000000 0.000000 0.000000
# 4 0.000000 0.000000 0.000000 0.053413 0.000000 0.000000
# 5 0.000000 0.000000 0.000000 0.000000 0.024166 0.000000
# 6 0.000000 0.000000 0.000000 0.000000 0.000000 0.066543
#
#
# Mechanical properties :
#
#
# Convention : Reuss Voigt Hill
#
# Bulk Modulus (GPa) = 23.24599 86.37809 54.81204
# Shear Modulus (GPa) = 19.90121 31.65500 25.77811
#
# Velocity S-wave (km/s) = 3.14266 3.96350 3.57671
# Velocity P-wave (km/s) = 4.97038 7.98827 6.65271
#
# Compressibility (1/GPa) = 0.04301816
#
# Stress axis : x y z
#
# Youngs Moduli (GPa) = 73.29876 24.13623 77.97569
#
# Poissons Ratio (x) = -0.00763 0.80940
# Poissons Ratio (y) = -0.02316 0.18529
# Poissons Ratio (z) = 0.76085 0.05735
#
# Static dielectric constant tensor:
#      x y z
#    x 1.649520 0.000000 0.000000 
#    y 0.000000 1.760210 0.000000 
#    z 0.000000 0.000000 1.710190 
# 
# From -- ./inp_files/18941.got.cif
#   From: 2010.05.17/outbox.cif.g08.bks.cpg/sg38_10_cif.got.tgz:18941.got - 2010.06.03 18:07:57.
