data_PCOD9359092
_publ_section_title
;
Structure prediction by ZEFSAII (Michael W. Deem and Ramdas Pophale) SiO2 
 PCOD9359092
Probable space group: A M M 2
;
_chemical_formula_sum "Si O2"
_cell_formula_units_Z 40
_cell_length_a 9.342221
_cell_length_b 7.624825
_cell_length_c 30.617267
_cell_angle_alpha 90.000000
_cell_angle_beta 90.000000
_cell_angle_gamma 90.000000
_cell_volume 2180.953664
_symmetry_space_group_name_H-M "A M M 2"
_symmetry_group_IT_number 38
_symmetry_cell_setting 'orthorhombic'
loop_
_space_group_symop_operation_xyz
x,y,z
-x,-y,z
-x,y,z
x,-y,z
x,1/2+y,1/2+z
-x,1/2-y,1/2+z
-x,1/2+y,1/2+z
x,1/2-y,1/2+z
loop_
_atom_site_type_symbol
_atom_site_label
_atom_site_fract_x
_atom_site_fract_y
_atom_site_fract_z
Si Si1 0.174084 0.000000 0.902441
Si Si2 0.334360 0.212362 0.649851
Si Si3 0.827398 0.000000 0.801133
Si Si4 0.835596 0.714183 0.064716
Si Si5 0.174839 0.298454 0.968359
Si Si6 0.669878 0.298343 0.747563
O O1 0.216156 0.000000 0.852041
O O2 0.220769 0.829912 0.929877
O O3 0.000000 0.000000 0.902874
O O4 0.500000 0.262301 0.645149
O O5 0.249832 0.272429 0.607185
O O6 0.284245 0.280197 0.696846
O O7 0.326004 0.000000 0.651656
O O8 0.761048 0.168125 0.776982
O O9 0.000000 0.000000 0.798204
O O10 0.834471 0.500000 0.064334
O O11 0.000000 0.770560 0.068447
O O12 0.779435 0.764550 0.016714
O O13 0.219418 0.500000 0.961723
O O14 0.000000 0.298055 0.969682
O O15 0.500000 0.251191 0.749096
O O16 0.684659 0.500000 0.761169
#
# Coordination Sequence:
#
# PCOD9359092 Si02
#       6
#     4   8   4   8   8   8
#     4   9  18  31  49  75 103 137 175 211 266 329
#     4   9  16  29  50  74 101 137 177 217 262 316
#     4  11  23  37  57  85 115 141 177 241 296 325
#     4   8  14  25  44  71 101 135 170 207 255 308
#     4   8  14  27  46  67  97 136 173 207 247 310
#     4  10  21  39  60  78 104 148 194 227 268 338
#
# _framework density 18.340600999999999
#
# number of rings (size 3 to 8) (size 9 to 14) (size 15 to 20)
#    0.000    3.000    1.000    1.500    0.000    2.000 
#    1.800    2.000    0.000    2.400    0.000    2.800 
#    0.000    0.000    0.000    0.000    0.000    0.000 
#
# Total GULP energy -111497.265384 kJ/mol
# GULP energy per Si atom -5574.863269 kJ/mol
# Density = 1.829886 g / cm^3
# Si number density = 18.340601 Si / 1000 Ang^3
#
#
#
# Elastic Constant Matrix: (Units=GPa)
#
#
# Indices 1 2 3 4 5 6 
#
# 1 35.2429 31.0181 58.4877 0.0000 0.0000 0.0000
# 2 31.0181 86.1963 76.2388 0.0000 0.0000 0.0000
# 3 58.4877 76.2388 196.9638 0.0000 0.0000 0.0000
# 4 0.0000 0.0000 0.0000 -25.8983 0.0000 0.0000
# 5 0.0000 0.0000 0.0000 0.0000 -29.0856 0.0000
# 6 0.0000 0.0000 0.0000 0.0000 0.0000 10.1651
#
#
#
# Elastic Compliance Matrix: (Units=1/GPa)
#
#
# Indices 1 2 3 4 5 6 
#
# 1 0.060109 -0.008885 -0.014410 0.000000 0.000000 0.000000
# 2 -0.008885 0.018954 -0.004698 0.000000 0.000000 0.000000
# 3 -0.014410 -0.004698 0.011175 0.000000 0.000000 0.000000
# 4 0.000000 0.000000 0.000000 -0.038613 0.000000 0.000000
# 5 0.000000 0.000000 0.000000 0.000000 -0.034381 0.000000
# 6 0.000000 0.000000 0.000000 0.000000 0.000000 0.098376
#
#
# Mechanical properties :
#
#
# Convention : Reuss Voigt Hill
#
# Bulk Modulus (GPa) = 29.19620 72.21026 50.70323
# Shear Modulus (GPa) = 27.31903 1.21346 14.26624
#
# Velocity S-wave (km/s) = 3.86364 0.81428 2.79202
# Velocity P-wave (km/s) = 5.98808 6.35148 6.17246
#
# Compressibility (1/GPa) = 0.03425103
#
# Stress axis : x y z
#
# Youngs Moduli (GPa) = 16.63657 52.75867 89.48871
#
# Poissons Ratio (x) = 0.46876 1.28952
# Poissons Ratio (y) = 0.14782 0.42044
# Poissons Ratio (z) = 0.23973 0.24787
#
# Static dielectric constant tensor:
#      x y z
#    x 1.610770 0.000000 0.000000 
#    y 0.000000 1.664160 0.000000 
#    z 0.000000 0.000000 1.625360 
# 
# From -- ./inp_files/23270.got.cif
#   From: 2010.05.17/outbox.cif.g08.bks.cpg/sg38_12_cif.got.tgz:23270.got - 2010.06.03 18:07:57.
