data_PCOD9359505
_publ_section_title
;
Structure prediction by ZEFSAII (Michael W. Deem and Ramdas Pophale) SiO2 
 PCOD9359505
Probable space group: A M M 2
;
_chemical_formula_sum "Si O2"
_cell_formula_units_Z 40
_cell_length_a 7.483949
_cell_length_b 28.572522
_cell_length_c 7.291203
_cell_angle_alpha 90.000000
_cell_angle_beta 90.000000
_cell_angle_gamma 90.000000
_cell_volume 1559.116562
_symmetry_space_group_name_H-M "A M M 2"
_symmetry_group_IT_number 38
_symmetry_cell_setting 'orthorhombic'
loop_
_space_group_symop_operation_xyz
x,y,z
-x,-y,z
-x,y,z
x,-y,z
x,1/2+y,1/2+z
-x,1/2-y,1/2+z
-x,1/2+y,1/2+z
x,1/2-y,1/2+z
loop_
_atom_site_type_symbol
_atom_site_label
_atom_site_fract_x
_atom_site_fract_y
_atom_site_fract_z
Si Si1 0.780568 0.000000 0.972020
Si Si2 0.288989 0.097367 0.592412
Si Si3 0.795041 0.100023 0.019161
Si Si4 0.207278 0.700163 0.493230
Si Si5 0.294904 0.500000 0.035921
Si Si6 0.797678 0.698418 0.056090
O O1 0.719089 0.048715 0.063376
O O2 0.715534 0.000000 0.760436
O O3 0.000000 0.000000 0.968779
O O4 0.500000 0.090704 0.622974
O O5 0.203460 0.098933 0.794995
O O6 0.217372 0.051106 0.490076
O O7 0.268634 0.147497 0.496127
O O8 0.000000 0.101212 0.082606
O O9 0.713942 0.151012 0.065284
O O10 0.201707 0.695364 0.275115
O O11 0.291103 0.751256 0.521958
O O12 0.000000 0.702625 0.558835
O O13 0.500000 0.500000 0.973949
O O14 0.000000 0.702090 0.985439
#
# Coordination Sequence:
#
# PCOD9359505 Si02
#       6
#     4   8   8   8   4   8
#     4   8  12  18  32  52  73  94 120 150 180 212
#     4   9  15  23  35  53  75  98 121 151 186 221
#     4   8  13  22  35  53  75  99 123 150 182 219
#     4   8  14  24  39  55  73  97 127 154 180 215
#     4   8  14  22  32  48  73  98 118 142 184 228
#     4   9  16  27  40  55  74 100 128 153 180 217
#
# _framework density 25.655557000000002
#
# number of rings (size 3 to 8) (size 9 to 14) (size 15 to 20)
#    0.000    3.600    0.000    1.800    0.000    0.800 
#    0.000    4.000    0.000    0.000    0.000    1.400 
#    0.000    6.400    0.000   32.800    0.000    6.400 
#
# Total GULP energy -111370.851254 kJ/mol
# GULP energy per Si atom -5568.542563 kJ/mol
# Density = 2.559716 g / cm^3
# Si number density = 25.655557 Si / 1000 Ang^3
#
#
#
# Elastic Constant Matrix: (Units=GPa)
#
#
# Indices 1 2 3 4 5 6 
#
# 1 87.4268 17.0942 -8.0114 0.0000 0.0000 0.0000
# 2 17.0942 369.9872 3.6371 0.0000 0.0000 0.0000
# 3 -8.0114 3.6371 85.2970 0.0000 0.0000 0.0000
# 4 0.0000 0.0000 0.0000 11.0020 0.0000 0.0000
# 5 0.0000 0.0000 0.0000 0.0000 -4.9579 0.0000
# 6 0.0000 0.0000 0.0000 0.0000 0.0000 25.4592
#
#
#
# Elastic Compliance Matrix: (Units=1/GPa)
#
#
# Indices 1 2 3 4 5 6 
#
# 1 0.011648 -0.000549 0.001117 0.000000 0.000000 0.000000
# 2 -0.000549 0.002730 -0.000168 0.000000 0.000000 0.000000
# 3 0.001117 -0.000168 0.011836 0.000000 0.000000 0.000000
# 4 0.000000 0.000000 0.000000 0.090892 0.000000 0.000000
# 5 0.000000 0.000000 0.000000 0.000000 -0.201697 0.000000
# 6 0.000000 0.000000 0.000000 0.000000 0.000000 0.039279
#
#
# Mechanical properties :
#
#
# Convention : Reuss Voigt Hill
#
# Bulk Modulus (GPa) = 37.01754 63.12785 50.07269
# Shear Modulus (GPa) = -134.73995 41.63339 -46.55328
#
# Velocity S-wave (km/s) = -7.25485 4.03275 -4.26437
# Velocity P-wave (km/s) = 7.46439 6.80760 2.16491
#
# Compressibility (1/GPa) = 0.02701422
#
# Stress axis : x y z
#
# Youngs Moduli (GPa) = 85.85228 366.32469 84.48898
#
# Poissons Ratio (x) = 0.20116 -0.09441
# Poissons Ratio (y) = 0.04715 0.01419
# Poissons Ratio (z) = -0.09593 0.06153
#
# Static dielectric constant tensor:
#      x y z
#    x 2.065480 0.000000 0.000000 
#    y 0.000000 2.192170 0.000000 
#    z 0.000000 0.000000 2.047840 
# 
# From -- ./inp_files/3537.got.cif
#   From: 2010.05.17/outbox.cif.g08.bks.cpg/sg38_2_cif.got.tgz:3537.got - 2010.06.03 18:07:57.
