data_PCOD9359633
_publ_section_title
;
Structure prediction by ZEFSAII (Michael W. Deem and Ramdas Pophale) SiO2 
 PCOD9359633
Probable space group: A M M 2
;
_chemical_formula_sum "Si O2"
_cell_formula_units_Z 32
_cell_length_a 18.000000
_cell_length_b 9.000000
_cell_length_c 21.000000
_cell_angle_alpha 90.000000
_cell_angle_beta 90.000000
_cell_angle_gamma 90.000000
_cell_volume 3402.000000
_symmetry_space_group_name_H-M "A M M 2"
_symmetry_group_IT_number 38
_symmetry_cell_setting 'orthorhombic'
loop_
_space_group_symop_operation_xyz
x,y,z
-x,-y,z
-x,y,z
x,-y,z
x,1/2+y,1/2+z
-x,1/2-y,1/2+z
-x,1/2+y,1/2+z
x,1/2-y,1/2+z
loop_
_atom_site_type_symbol
_atom_site_label
_atom_site_fract_x
_atom_site_fract_y
_atom_site_fract_z
Si Si1 0.303851 0.180284 0.734390
Si Si2 0.418488 0.681217 0.341097
Si Si3 0.155142 0.171803 0.582074
Si Si4 0.083992 0.826548 0.832164
Si Si5 0.350983 0.322391 0.470467
Si Si6 0.143630 0.323689 0.712023
Si Si7 0.821605 0.821116 0.952894
Si Si8 0.664629 0.329531 0.097376
O O1 0.351971 0.225242 0.794859
O O2 0.224577 0.258459 0.730839
O O3 0.348449 0.218073 0.669763
O O4 0.292690 0.000000 0.734470
O O5 0.500000 0.729474 0.319713
O O6 0.417916 0.500000 0.340794
O O7 0.402212 0.730324 0.412968
O O8 0.123409 0.255488 0.643397
O O9 0.140620 0.248571 0.514579
O O10 0.245277 0.177899 0.590405
O O11 0.133121 0.000000 0.582071
O O12 0.091545 0.732425 0.768445
O O13 0.140053 0.776252 0.887144
O O14 0.000000 0.819477 0.856887
O O15 0.100742 0.000000 0.817147
O O16 0.353894 0.500000 0.472259
O O17 0.265583 0.281139 0.453996
O O18 0.369086 0.262477 0.540035
O O19 0.146310 0.500000 0.707687
O O20 0.826881 0.000000 0.957937
O O21 0.642237 0.500000 0.090300
#
# Coordination Sequence:
#
# PCOD9359633 Si02
#       8
#     8   8   8   8   8   8   8   8
#     4   9  17  32  53  74  97 128 168 212 255 301
#     4   9  17  30  49  72  97 129 171 212 247 291
#     4   9  17  31  52  77 103 130 165 211 259 306
#     4  10  21  37  55  75 104 141 175 208 251 303
#     4   9  16  27  47  72  96 123 157 199 244 292
#     4  11  21  33  53  79 105 134 171 215 258 302
#     4   9  17  31  52  77 102 130 167 210 256 305
#     4   8  15  27  45  70  96 121 154 199 248 295
#
# _framework density 9.4062319999999993
#
# number of rings (size 3 to 8) (size 9 to 14) (size 15 to 20)
#    0.000    2.750    0.000    3.000    0.000    5.750 
#    0.000    4.375    0.000    4.500    0.000    0.000 
#    0.000    0.000    0.000    0.000    0.000    0.000 
#
# Total GULP energy -178364.058071 kJ/mol
# GULP energy per Si atom -5573.876815 kJ/mol
# Density = 0.938482 g / cm^3
# Si number density = 9.406232 Si / 1000 Ang^3
#
#
#
# Elastic Constant Matrix: (Units=GPa)
#
#
# Indices 1 2 3 4 5 6 
#
# 1 20.5396 10.2186 9.3532 0.0000 0.0000 0.0000
# 2 10.2186 31.4031 23.5290 0.0000 0.0000 0.0000
# 3 9.3532 23.5290 81.0053 0.0000 0.0000 0.0000
# 4 0.0000 0.0000 0.0000 29.7116 0.0000 0.0000
# 5 0.0000 0.0000 0.0000 0.0000 -1.8791 0.0000
# 6 0.0000 0.0000 0.0000 0.0000 0.0000 7.6085
#
#
#
# Elastic Compliance Matrix: (Units=1/GPa)
#
#
# Indices 1 2 3 4 5 6 
#
# 1 0.058244 -0.017784 -0.001559 0.000000 0.000000 0.000000
# 2 -0.017784 0.046132 -0.011346 0.000000 0.000000 0.000000
# 3 -0.001559 -0.011346 0.015821 0.000000 0.000000 0.000000
# 4 0.000000 0.000000 0.000000 0.033657 0.000000 0.000000
# 5 0.000000 0.000000 0.000000 0.000000 -0.532183 0.000000
# 6 0.000000 0.000000 0.000000 0.000000 0.000000 0.131432
#
#
# Mechanical properties :
#
#
# Convention : Reuss Voigt Hill
#
# Bulk Modulus (GPa) = 17.00186 24.34997 20.67592
# Shear Modulus (GPa) = -30.13673 13.07802 -8.52935
#
# Velocity S-wave (km/s) = -4.00679 2.63948 -2.13160
# Velocity P-wave (km/s) = 3.51406 4.71814 2.22623
#
# Compressibility (1/GPa) = 0.05881708
#
# Stress axis : x y z
#
# Youngs Moduli (GPa) = 17.16904 21.67678 63.20870
#
# Poissons Ratio (x) = 0.38551 0.09857
# Poissons Ratio (y) = 0.30534 0.71718
# Poissons Ratio (z) = 0.02677 0.24595
#
# Static dielectric constant tensor:
#      x y z
#    x 1.658730 0.000000 0.000000 
#    y 0.000000 1.635000 0.000000 
#    z 0.000000 0.000000 1.663240 
# 
# From -- ./inp_files/21368.got.cif
#   From: 2010.05.17/outbox.ucp.g08.bks.cvg/sg38_11_cif.got.tgz:21368.got - 2010.06.11 10:39:43.
