data_PCOD9359366
_publ_section_title
;
Structure prediction by ZEFSAII (Michael W. Deem and Ramdas Pophale) SiO2 
 PCOD9359366
Probable space group: A M M 2
;
_chemical_formula_sum "Si O2"
_cell_formula_units_Z 38
_cell_length_a 16.181544
_cell_length_b 24.483668
_cell_length_c 5.044652
_cell_angle_alpha 90.000000
_cell_angle_beta 90.000000
_cell_angle_gamma 90.000000
_cell_volume 1998.608143
_symmetry_space_group_name_H-M "A M M 2"
_symmetry_group_IT_number 38
_symmetry_cell_setting 'orthorhombic'
loop_
_space_group_symop_operation_xyz
x,y,z
-x,-y,z
-x,y,z
x,-y,z
x,1/2+y,1/2+z
-x,1/2-y,1/2+z
-x,1/2+y,1/2+z
x,1/2-y,1/2+z
loop_
_atom_site_type_symbol
_atom_site_label
_atom_site_fract_x
_atom_site_fract_y
_atom_site_fract_z
Si Si1 0.000000 0.000000 0.927840
Si Si2 0.126103 0.000000 0.428029
Si Si3 0.251932 0.600946 0.877504
Si Si4 0.672382 0.939467 0.877220
Si Si5 0.685486 0.214820 0.539071
Si Si6 0.500000 0.597364 0.565811
Si Si7 0.500000 0.169220 0.565716
O O1 0.071563 0.000000 0.692821
O O2 0.071379 0.000000 0.163178
O O3 0.179289 0.943164 0.424765
O O4 0.274805 0.599153 0.568564
O O5 0.322775 0.576456 0.071497
O O6 0.255037 0.663921 0.967169
O O7 0.580805 0.935322 0.986927
O O8 0.705937 0.000000 0.912728
O O9 0.699814 0.263563 0.333176
O O10 0.587720 0.198839 0.513622
O O11 0.500000 0.650168 0.370937
O O12 0.500000 0.618179 0.864534
#
# Coordination Sequence:
#
# PCOD9359366 Si02
#       7
#     2   4   8   8   8   4   4
#     4  10  24  42  72 106 132 148 184 214 316 412
#     4  11  22  44  70 103 128 156 180 243 306 394
#     4  12  23  40  64  90 126 159 208 251 315 365
#     4  12  21  36  54  84 119 167 211 259 312 373
#     4  12  24  40  58  84 120 174 228 270 312 348
#     4  12  21  35  52  77 116 167 222 268 318 354
#     4  12  22  39  55  73 116 172 232 295 304 340
#
# _framework density 19.013233
#
# number of rings (size 3 to 8) (size 9 to 14) (size 15 to 20)
#    0.000    0.211    6.316    4.737    0.000    0.000 
#    0.000    3.158    0.000    0.000    0.000   14.737 
#    0.000    0.000    0.000    0.000    0.000    0.000 
#
# Total GULP energy -105779.598795 kJ/mol
# GULP energy per Si atom -5567.347305 kJ/mol
# Density = 1.896996 g / cm^3
# Si number density = 19.013233 Si / 1000 Ang^3
#
#
#
# Elastic Constant Matrix: (Units=GPa)
#
#
# Indices 1 2 3 4 5 6 
#
# 1 80.6393 29.5513 25.8131 0.0000 0.0000 0.0000
# 2 29.5513 84.6790 5.4462 0.0000 0.0000 0.0000
# 3 25.8131 5.4462 94.7896 0.0000 0.0000 0.0000
# 4 0.0000 0.0000 0.0000 26.5141 0.0000 0.0000
# 5 0.0000 0.0000 0.0000 0.0000 19.9900 0.0000
# 6 0.0000 0.0000 0.0000 0.0000 0.0000 -6.6498
#
#
#
# Elastic Compliance Matrix: (Units=1/GPa)
#
#
# Indices 1 2 3 4 5 6 
#
# 1 0.015559 -0.005176 -0.003940 0.000000 0.000000 0.000000
# 2 -0.005176 0.013575 0.000630 0.000000 0.000000 0.000000
# 3 -0.003940 0.000630 0.011586 0.000000 0.000000 0.000000
# 4 0.000000 0.000000 0.000000 0.037716 0.000000 0.000000
# 5 0.000000 0.000000 0.000000 0.000000 0.050025 0.000000
# 6 0.000000 0.000000 0.000000 0.000000 0.000000 -0.150380
#
#
# Mechanical properties :
#
#
# Convention : Reuss Voigt Hill
#
# Bulk Modulus (GPa) = 42.10900 42.41433 42.26166
# Shear Modulus (GPa) = 1683.79475 21.25735 852.52605
#
# Velocity S-wave (km/s) = 29.79116 3.34732 21.19809
# Velocity P-wave (km/s) = 34.72098 6.10702 24.92832
#
# Compressibility (1/GPa) = 0.02374789
#
# Stress axis : x y z
#
# Youngs Moduli (GPa) = 64.27171 73.66342 86.30858
#
# Poissons Ratio (x) = 0.38131 0.34002
# Poissons Ratio (y) = 0.33269 -0.05434
# Poissons Ratio (z) = 0.25320 -0.04638
#
# Static dielectric constant tensor:
#      x y z
#    x 1.661710 0.000000 0.000000 
#    y 0.000000 1.701890 0.000000 
#    z 0.000000 0.000000 1.646000 
# 
# From -- ./inp_files/1245.got.cif
#   From: 2010.05.17/outbox.cif.g08.bks.cpg/sg38_1_cif.got.tgz:1245.got - 2010.06.03 18:07:57.
