data_PCOD9359321
_publ_section_title
;
Structure prediction by ZEFSAII (Michael W. Deem and Ramdas Pophale) SiO2 
 PCOD9359321
Probable space group: A M M 2
;
_chemical_formula_sum "Si O2"
_cell_formula_units_Z 48
_cell_length_a 15.627218
_cell_length_b 18.426825
_cell_length_c 7.860389
_cell_angle_alpha 90.000000
_cell_angle_beta 90.000000
_cell_angle_gamma 90.000000
_cell_volume 2263.477705
_symmetry_space_group_name_H-M "A M M 2"
_symmetry_group_IT_number 38
_symmetry_cell_setting 'orthorhombic'
loop_
_space_group_symop_operation_xyz
x,y,z
-x,-y,z
-x,y,z
x,-y,z
x,1/2+y,1/2+z
-x,1/2-y,1/2+z
-x,1/2+y,1/2+z
x,1/2-y,1/2+z
loop_
_atom_site_type_symbol
_atom_site_label
_atom_site_fract_x
_atom_site_fract_y
_atom_site_fract_z
Si Si1 0.650208 0.414662 0.841860
Si Si2 0.000000 0.656144 0.465014
Si Si3 0.163330 0.416286 0.973241
Si Si4 0.338623 0.665496 0.510175
Si Si5 0.822102 0.584095 0.371745
Si Si6 0.000000 0.324664 0.867575
Si Si7 0.403815 0.689182 0.136998
O O1 0.635815 0.500000 0.851269
O O2 0.752702 0.401138 0.861322
O O3 0.622065 0.382500 0.661302
O O4 0.607060 0.374233 0.000008
O O5 0.083367 0.613281 0.404484
O O6 0.000000 0.738616 0.398017
O O7 0.000000 0.659944 0.667825
O O8 0.135685 0.500000 0.941591
O O9 0.084964 0.362261 0.943208
O O10 0.193115 0.412117 0.169236
O O11 0.245677 0.633956 0.467412
O O12 0.387154 0.665391 0.329987
O O13 0.339278 0.747072 0.582374
O O14 0.813269 0.500000 0.425164
O O15 0.500000 0.719228 0.124046
#
# Coordination Sequence:
#
# PCOD9359321 Si02
#       7
#     8   4   8   8   8   4   8
#     4  11  25  46  73 107 144 189 241 301 368 442
#     4  12  27  40  65  97 147 185 245 301 353 421
#     4  10  22  43  68  95 138 186 237 296 363 432
#     4  12  25  44  77 105 143 191 245 295 363 446
#     4  11  24  44  69 102 142 191 241 297 363 432
#     4  12  25  40  61  97 135 187 245 295 357 419
#     4  12  27  47  73 107 144 185 238 303 375 442
#
# _framework density 21.206305
#
# number of rings (size 3 to 8) (size 9 to 14) (size 15 to 20)
#    0.000    0.667    3.333    4.000    2.333    7.000 
#    0.000    0.000    0.000    4.500    0.000    0.000 
#    0.000    0.000    0.000    0.000    0.000    0.000 
#
# Total GULP energy -134345.493045 kJ/mol
# GULP energy per Si atom -5597.728877 kJ/mol
# Density = 2.115804 g / cm^3
# Si number density = 21.206305 Si / 1000 Ang^3
#
#
#
# Elastic Constant Matrix: (Units=GPa)
#
#
# Indices 1 2 3 4 5 6 
#
# 1 69.8019 48.8826 29.7505 0.0000 0.0000 0.0000
# 2 48.8826 129.7995 57.2548 0.0000 0.0000 0.0000
# 3 29.7505 57.2548 148.2108 0.0000 0.0000 0.0000
# 4 0.0000 0.0000 0.0000 35.4096 0.0000 0.0000
# 5 0.0000 0.0000 0.0000 0.0000 -11.5817 0.0000
# 6 0.0000 0.0000 0.0000 0.0000 0.0000 -9.8041
#
#
#
# Elastic Compliance Matrix: (Units=1/GPa)
#
#
# Indices 1 2 3 4 5 6 
#
# 1 0.019667 -0.006829 -0.001310 0.000000 0.000000 0.000000
# 2 -0.006829 0.011658 -0.003133 0.000000 0.000000 0.000000
# 3 -0.001310 -0.003133 0.008220 0.000000 0.000000 0.000000
# 4 0.000000 0.000000 0.000000 0.028241 0.000000 0.000000
# 5 0.000000 0.000000 0.000000 0.000000 -0.086343 0.000000
# 6 0.000000 0.000000 0.000000 0.000000 0.000000 -0.101998
#
#
# Mechanical properties :
#
#
# Convention : Reuss Voigt Hill
#
# Bulk Modulus (GPa) = 58.81566 68.84309 63.82938
# Shear Modulus (GPa) = -54.14401 16.93306 -18.60548
#
# Velocity S-wave (km/s) = -5.05841 2.82883 -2.96523
# Velocity P-wave (km/s) = 2.51424 6.57295 4.29431
#
# Compressibility (1/GPa) = 0.01700227
#
# Stress axis : x y z
#
# Youngs Moduli (GPa) = 50.84741 85.77982 121.65098
#
# Poissons Ratio (x) = 0.58577 0.15933
# Poissons Ratio (y) = 0.34722 0.38110
# Poissons Ratio (z) = 0.06660 0.26872
#
# Static dielectric constant tensor:
#      x y z
#    x 1.750570 0.000000 0.000000 
#    y 0.000000 1.740600 0.000000 
#    z 0.000000 0.000000 1.762780 
# 
# From -- ./inp_files/5504.got.cif
#   From: 2010.05.17/outbox.cif.g08.bks.cpg/sg38_3_cif.got.tgz:5504.got - 2010.06.03 18:07:57.
