data_PCOD9359772
_publ_section_title
;
Structure prediction by ZEFSAII (Michael W. Deem and Ramdas Pophale) SiO2 
 PCOD9359772
Probable space group: A B M 2
;
_chemical_formula_sum "Si O2"
_cell_formula_units_Z 56
_cell_length_a 15.793544
_cell_length_b 20.937126
_cell_length_c 8.195110
_cell_angle_alpha 90.000000
_cell_angle_beta 90.000000
_cell_angle_gamma 90.000000
_cell_volume 2709.888667
_symmetry_space_group_name_H-M "A B M 2"
_symmetry_group_IT_number 39
_symmetry_cell_setting 'orthorhombic'
loop_
_space_group_symop_operation_xyz
x,y,z
-x,-y,z
-x,1/2+y,z
x,1/2-y,z
x,1/2+y,1/2+z
-x,1/2-y,1/2+z
-x,y,1/2+z
x,-y,1/2+z
loop_
_atom_site_type_symbol
_atom_site_label
_atom_site_fract_x
_atom_site_fract_y
_atom_site_fract_z
Si Si1 0.752903 0.173454 0.111760
Si Si2 0.281909 0.368976 0.983559
Si Si3 0.415396 0.371286 0.558281
Si Si4 0.927530 0.175784 0.971818
Si Si5 0.109410 0.174016 0.088026
Si Si6 0.629208 0.250000 0.618010
Si Si7 0.556247 0.437261 0.377202
Si Si8 0.466667 0.750000 0.274102
O O1 0.750065 0.250000 0.085974
O O2 0.728574 0.157992 0.298756
O O3 0.680757 0.139199 0.003643
O O4 0.847080 0.149635 0.070640
O O5 0.317327 0.313735 0.101508
O O6 0.355281 0.423236 0.972246
O O7 0.185322 0.373772 0.041817
O O8 0.488652 0.382760 0.428809
O O9 0.421290 0.429339 0.687418
O O10 0.436768 0.309965 0.667576
O O11 0.933642 0.250000 0.024285
O O12 0.905083 0.173800 0.781695
O O13 0.021772 0.151738 0.005629
O O14 0.127363 0.250000 0.040674
O O15 0.573777 0.250000 0.451374
O O16 0.568123 0.250000 0.772073
O O17 0.500000 0.500000 0.400911
#
# Coordination Sequence:
#
# PCOD9359772 Si02
#       8
#     8   8   8   8   8   4   8   4
#     4  10  17  31  49  75 106 140 178 222 283 338
#     4  11  19  33  53  72 105 148 187 236 278 331
#     4  11  20  35  55  75 107 142 185 236 282 337
#     4   9  19  30  46  76 115 152 181 219 276 350
#     4  10  18  31  48  75 111 150 187 225 279 343
#     4  12  20  34  50  79 113 140 188 233 291 343
#     4  11  24  38  52  74 107 151 193 233 279 333
#     4  12  18  36  52  81 103 140 184 233 301 331
#
# _framework density 20.665057999999998
#
# number of rings (size 3 to 8) (size 9 to 14) (size 15 to 20)
#    0.000    1.429    6.429    1.286    0.000    3.429 
#    2.571    0.000    0.000    0.000    0.000    1.000 
#    0.000    6.857    0.000    0.000    0.000    0.000 
#
# Total GULP energy -156212.853259 kJ/mol
# GULP energy per Si atom -5579.030474 kJ/mol
# Density = 2.061802 g / cm^3
# Si number density = 20.665058 Si / 1000 Ang^3
#
#
#
# Elastic Constant Matrix: (Units=GPa)
#
#
# Indices 1 2 3 4 5 6 
#
# 1 202.7001 41.0363 29.9300 0.0000 0.0000 0.0000
# 2 41.0363 58.0168 10.4493 0.0000 0.0000 0.0000
# 3 29.9300 10.4493 33.1396 0.0000 0.0000 0.0000
# 4 0.0000 0.0000 0.0000 9.3578 0.0000 0.0000
# 5 0.0000 0.0000 0.0000 0.0000 39.0250 0.0000
# 6 0.0000 0.0000 0.0000 0.0000 0.0000 21.2368
#
#
#
# Elastic Compliance Matrix: (Units=1/GPa)
#
#
# Indices 1 2 3 4 5 6 
#
# 1 0.006352 -0.003668 -0.004581 0.000000 0.000000 0.000000
# 2 -0.003668 0.020392 -0.003117 0.000000 0.000000 0.000000
# 3 -0.004581 -0.003117 0.035295 0.000000 0.000000 0.000000
# 4 0.000000 0.000000 0.000000 0.106863 0.000000 0.000000
# 5 0.000000 0.000000 0.000000 0.000000 0.025625 0.000000
# 6 0.000000 0.000000 0.000000 0.000000 0.000000 0.047088
#
#
# Mechanical properties :
#
#
# Convention : Reuss Voigt Hill
#
# Bulk Modulus (GPa) = 25.43986 50.74307 38.09147
# Shear Modulus (GPa) = 18.02131 28.08666 23.05399
#
# Velocity S-wave (km/s) = 2.95628 3.69065 3.34369
# Velocity P-wave (km/s) = 4.89797 6.53984 5.77753
#
# Compressibility (1/GPa) = 0.03930839
#
# Stress axis : x y z
#
# Youngs Moduli (GPa) = 157.42207 49.03807 28.33254
#
# Poissons Ratio (x) = 0.17988 0.12978
# Poissons Ratio (y) = 0.57745 0.08831
# Poissons Ratio (z) = 0.72107 0.15285
#
# Static dielectric constant tensor:
#      x y z
#    x 1.842290 0.000000 0.000000 
#    y 0.000000 1.803590 0.000000 
#    z 0.000000 0.000000 1.773330 
# 
# From -- ./inp_files/3434.got.cif
#   From: 2010.05.17/outbox.cif.g08.bks.cpg/sg39_2_cif.got.tgz:3434.got - 2010.06.03 18:22:40.
