data_PCOD9359684
_publ_section_title
;
Structure prediction by ZEFSAII (Michael W. Deem and Ramdas Pophale) SiO2 
 PCOD9359684
Probable space group: A B M 2
;
_chemical_formula_sum "Si O2"
_cell_formula_units_Z 32
_cell_length_a 7.182729
_cell_length_b 5.513406
_cell_length_c 36.557914
_cell_angle_alpha 90.000000
_cell_angle_beta 90.000000
_cell_angle_gamma 90.000000
_cell_volume 1447.740962
_symmetry_space_group_name_H-M "A B M 2"
_symmetry_group_IT_number 39
_symmetry_cell_setting 'orthorhombic'
loop_
_space_group_symop_operation_xyz
x,y,z
-x,-y,z
-x,1/2+y,z
x,1/2-y,z
x,1/2+y,1/2+z
-x,1/2-y,1/2+z
-x,y,1/2+z
x,-y,1/2+z
loop_
_atom_site_type_symbol
_atom_site_label
_atom_site_fract_x
_atom_site_fract_y
_atom_site_fract_z
Si Si1 0.224521 0.750000 0.676721
Si Si2 0.268685 0.750000 0.061404
Si Si3 0.880150 0.250000 0.837810
Si Si4 0.717214 0.750000 0.416033
Si Si5 0.299811 0.750000 0.445968
Si Si6 0.308453 0.250000 0.032416
Si Si7 0.879875 0.750000 0.256702
Si Si8 0.204102 0.250000 0.646969
O O1 0.242901 0.750000 0.720356
O O2 0.294989 0.498785 0.660392
O O3 0.004165 0.750000 0.664526
O O4 0.208883 0.498037 0.043313
O O5 0.493542 0.750000 0.054030
O O6 0.207690 0.750000 0.103315
O O7 0.748171 0.250000 0.872788
O O8 0.791471 0.250000 0.797160
O O9 0.000000 0.500000 0.840019
O O10 0.499320 0.750000 0.425884
O O11 0.792742 0.501100 0.433562
O O12 0.339392 0.750000 0.489085
O O13 0.000000 0.500000 0.254401
#
# Coordination Sequence:
#
# PCOD9359684 Si02
#       8
#     4   4   4   4   4   4   4   4
#     4  10  17  30  45  69  98 121 169 189 227 286
#     4  10  18  29  46  73 100 115 156 203 263 281
#     4  10  21  32  50  79 110 137 164 206 257 307
#     4  10  18  32  51  82 103 127 169 222 251 298
#     4  10  19  33  58  80  93 130 179 224 251 288
#     4  10  19  33  50  77  89 121 166 216 245 289
#     4  10  16  30  48  69 100 125 161 211 226 280
#     4  10  18  27  46  71  93 128 148 205 240 279
#
# _framework density 22.103401000000002
#
# number of rings (size 3 to 8) (size 9 to 14) (size 15 to 20)
#    0.000    2.000    2.500    5.250    0.000    0.000 
#    0.000    0.000    0.000    0.000  110.500   21.000 
#    0.000    0.000    0.000    0.000    0.000    0.000 
#
# Total GULP energy -89281.501018 kJ/mol
# GULP energy per Si atom -5580.093814 kJ/mol
# Density = 2.205309 g / cm^3
# Si number density = 22.103401 Si / 1000 Ang^3
#
#
#
# Elastic Constant Matrix: (Units=GPa)
#
#
# Indices 1 2 3 4 5 6 
#
# 1 81.9459 13.2017 18.9414 0.0000 0.0000 0.0000
# 2 13.2017 260.6624 54.1207 0.0000 0.0000 0.0000
# 3 18.9414 54.1207 206.2949 0.0000 0.0000 0.0000
# 4 0.0000 0.0000 0.0000 46.2020 0.0000 0.0000
# 5 0.0000 0.0000 0.0000 0.0000 20.8982 0.0000
# 6 0.0000 0.0000 0.0000 0.0000 0.0000 -21.6810
#
#
#
# Elastic Compliance Matrix: (Units=1/GPa)
#
#
# Indices 1 2 3 4 5 6 
#
# 1 0.012511 -0.000418 -0.001039 0.000000 0.000000 0.000000
# 2 -0.000418 0.004071 -0.001030 0.000000 0.000000 0.000000
# 3 -0.001039 -0.001030 0.005213 0.000000 0.000000 0.000000
# 4 0.000000 0.000000 0.000000 0.021644 0.000000 0.000000
# 5 0.000000 0.000000 0.000000 0.000000 0.047851 0.000000
# 6 0.000000 0.000000 0.000000 0.000000 0.000000 -0.046123
#
#
# Mechanical properties :
#
#
# Convention : Reuss Voigt Hill
#
# Bulk Modulus (GPa) = 59.44728 80.15899 69.80314
# Shear Modulus (GPa) = 89.69026 39.92647 64.80837
#
# Velocity S-wave (km/s) = 6.37696 4.25473 5.42072
# Velocity P-wave (km/s) = 9.00968 7.77696 8.41592
#
# Compressibility (1/GPa) = 0.01682163
#
# Stress axis : x y z
#
# Youngs Moduli (GPa) = 79.93182 245.61902 191.82889
#
# Poissons Ratio (x) = 0.10264 0.19932
# Poissons Ratio (y) = 0.03340 0.19753
# Poissons Ratio (z) = 0.08305 0.25292
#
# Static dielectric constant tensor:
#      x y z
#    x 1.779780 0.000000 0.000000 
#    y 0.000000 1.841010 0.000000 
#    z 0.000000 0.000000 1.750820 
# 
# From -- ./inp_files/17397.got.cif
#   From: 2010.05.17/outbox.cif.g08.bks.cpg/sg39_9_cif.got.tgz:17397.got - 2010.06.03 18:22:40.
