data_PCOD9359577
_publ_section_title
;
Structure prediction by ZEFSAII (Michael W. Deem and Ramdas Pophale) SiO2 
 PCOD9359577
Probable space group: A M M 2
;
_chemical_formula_sum "Si O2"
_cell_formula_units_Z 32
_cell_length_a 24.000000
_cell_length_b 9.000000
_cell_length_c 15.000000
_cell_angle_alpha 90.000000
_cell_angle_beta 90.000000
_cell_angle_gamma 90.000000
_cell_volume 3240.000000
_symmetry_space_group_name_H-M "A M M 2"
_symmetry_group_IT_number 38
_symmetry_cell_setting 'orthorhombic'
loop_
_space_group_symop_operation_xyz
x,y,z
-x,-y,z
-x,y,z
x,-y,z
x,1/2+y,1/2+z
-x,1/2-y,1/2+z
-x,1/2+y,1/2+z
x,1/2-y,1/2+z
loop_
_atom_site_type_symbol
_atom_site_label
_atom_site_fract_x
_atom_site_fract_y
_atom_site_fract_z
Si Si1 0.380207 0.677946 0.058690
Si Si2 0.873822 0.823831 0.333045
Si Si3 0.062336 0.178573 0.682902
Si Si4 0.734818 0.670536 0.506434
Si Si5 0.560558 0.178373 0.387108
Si Si6 0.641656 0.178208 0.750922
Si Si7 0.151376 0.678883 0.036183
Si Si8 0.238075 0.329128 0.295080
O O1 0.372995 0.500000 0.056415
O O2 0.322669 0.749756 0.027488
O O3 0.389713 0.719578 0.160554
O O4 0.428435 0.716954 0.989999
O O5 0.922177 0.745593 0.278181
O O6 0.869725 0.779931 0.436919
O O7 0.815969 0.771417 0.288062
O O8 0.879402 0.000000 0.328371
O O9 0.107490 0.228007 0.610164
O O10 0.000000 0.220374 0.655884
O O11 0.065339 0.000000 0.687998
O O12 0.732728 0.500000 0.535165
O O13 0.787806 0.752309 0.548633
O O14 0.744512 0.672635 0.399461
O O15 0.500000 0.232434 0.357281
O O16 0.610657 0.245974 0.331720
O O17 0.561924 0.000000 0.379074
O O18 0.706612 0.220849 0.743872
O O19 0.641299 0.000000 0.763393
O O20 0.156086 0.500000 0.038615
O O21 0.224275 0.500000 0.270359
#
# Coordination Sequence:
#
# PCOD9359577 Si02
#       8
#     8   8   8   8   8   8   8   8
#     4  10  21  36  57  84 114 149 188 230 281 339
#     4  10  21  36  57  86 115 147 187 235 287 332
#     4  10  22  40  60  81 110 152 195 232 278 339
#     4  10  19  33  56  85 117 147 184 234 284 333
#     4  10  22  40  59  81 114 152 189 236 287 333
#     4  10  21  37  58  85 112 149 193 233 279 335
#     4   9  20  38  58  81 112 151 191 229 278 340
#     4   9  18  34  55  81 116 150 185 229 280 339
#
# _framework density 9.8765429999999999
#
# number of rings (size 3 to 8) (size 9 to 14) (size 15 to 20)
#    0.000    2.250    1.250    0.750    1.750    4.000 
#    0.000    2.500    0.000    0.000    0.000    0.000 
#    0.000    0.000    0.000    0.000    0.000    0.000 
#
# Total GULP energy -178593.043272 kJ/mol
# GULP energy per Si atom -5581.032602 kJ/mol
# Density = 0.985406 g / cm^3
# Si number density = 9.876543 Si / 1000 Ang^3
#
#
#
# Elastic Constant Matrix: (Units=GPa)
#
#
# Indices 1 2 3 4 5 6 
#
# 1 66.5848 9.7804 20.2718 0.0000 0.0000 0.0000
# 2 9.7804 -7.5642 17.5716 0.0000 0.0000 0.0000
# 3 20.2718 17.5716 58.7341 0.0000 0.0000 0.0000
# 4 0.0000 0.0000 0.0000 16.8436 0.0000 0.0000
# 5 0.0000 0.0000 0.0000 0.0000 17.3484 0.0000
# 6 0.0000 0.0000 0.0000 0.0000 0.0000 20.6357
#
#
#
# Elastic Compliance Matrix: (Units=1/GPa)
#
#
# Indices 1 2 3 4 5 6 
#
# 1 0.016484 0.004777 -0.007119 0.000000 0.000000 0.000000
# 2 0.004777 -0.076612 0.021271 0.000000 0.000000 0.000000
# 3 -0.007119 0.021271 0.013119 0.000000 0.000000 0.000000
# 4 0.000000 0.000000 0.000000 0.059370 0.000000 0.000000
# 5 0.000000 0.000000 0.000000 0.000000 0.057642 0.000000
# 6 0.000000 0.000000 0.000000 0.000000 0.000000 0.048460
#
#
# Mechanical properties :
#
#
# Convention : Reuss Voigt Hill
#
# Bulk Modulus (GPa) = -109.30190 23.66691 -42.81750
# Shear Modulus (GPa) = 64.47143 15.64094 40.05619
#
# Velocity S-wave (km/s) = 5.71922 2.81699 4.50804
# Velocity P-wave (km/s) = 3.44115 4.75268 2.31802
#
# Compressibility (1/GPa) = -0.00914897
#
# Stress axis : x y z
#
# Youngs Moduli (GPa) = 60.66490 -13.05284 76.22504
#
# Poissons Ratio (x) = 0.06235 0.54261
# Poissons Ratio (y) = -0.28980 -1.62140
# Poissons Ratio (z) = 0.43185 0.27765
#
# Static dielectric constant tensor:
#      x y z
#    x 1.663470 0.000000 0.000000 
#    y 0.000000 1.662210 0.000000 
#    z 0.000000 0.000000 1.719860 
# 
# From -- ./inp_files/15739.got.cif
#   From: 2010.05.17/outbox.ucp.g08.bks.cvg/sg38_8_cif.got.tgz:15739.got - 2010.06.11 10:39:43.
