data_PCOD9359809
_publ_section_title
;
Structure prediction by ZEFSAII (Michael W. Deem and Ramdas Pophale) SiO2 
 PCOD9359809
Probable space group: A B M 2
;
_chemical_formula_sum "Si O2"
_cell_formula_units_Z 48
_cell_length_a 7.113978
_cell_length_b 29.804005
_cell_length_c 9.704828
_cell_angle_alpha 90.000000
_cell_angle_beta 90.000000
_cell_angle_gamma 90.000000
_cell_volume 2057.666505
_symmetry_space_group_name_H-M "A B M 2"
_symmetry_group_IT_number 39
_symmetry_cell_setting 'orthorhombic'
loop_
_space_group_symop_operation_xyz
x,y,z
-x,-y,z
-x,1/2+y,z
x,1/2-y,z
x,1/2+y,1/2+z
-x,1/2-y,1/2+z
-x,y,1/2+z
x,-y,1/2+z
loop_
_atom_site_type_symbol
_atom_site_label
_atom_site_fract_x
_atom_site_fract_y
_atom_site_fract_z
Si Si1 0.786240 0.554333 0.595740
Si Si2 0.726705 0.990797 0.324590
Si Si3 0.434049 0.851731 0.416818
Si Si4 0.091888 0.698367 0.297205
Si Si5 0.391765 0.409299 0.163684
Si Si6 0.154238 0.845461 0.016763
O O1 0.810855 0.519630 0.472461
O O2 0.818877 0.531882 0.743031
O O3 0.561477 0.563528 0.593338
O O4 0.869510 0.603084 0.565136
O O5 0.743155 0.945557 0.232564
O O6 0.500000 0.000000 0.334898
O O7 0.298377 0.814582 0.353750
O O8 0.509908 0.882052 0.289434
O O9 0.322936 0.878418 0.538007
O O10 0.624488 0.836498 0.491787
O O11 0.047491 0.750000 0.323648
O O12 0.083996 0.686876 0.136750
O O13 0.950282 0.665766 0.376537
#
# Coordination Sequence:
#
# PCOD9359809 Si02
#       6
#     8   8   8   8   8   8
#     4  10  20  34  59  98 138 181 230 287 334 419
#     4  10  18  29  57 101 135 177 234 274 330 413
#     4  11  22  44  72 104 140 187 233 293 368 431
#     4  12  28  48  74 103 139 184 240 306 370 444
#     4  10  18  35  63 101 138 182 231 282 345 415
#     4  11  26  48  71 106 142 192 236 297 372 431
#
# _framework density 23.327396
#
# number of rings (size 3 to 8) (size 9 to 14) (size 15 to 20)
#    0.000    1.333    6.667    2.000    4.667    1.333 
#    0.000    0.000    0.000    8.000    0.000    0.000 
#    0.000    0.000    0.000    0.000    0.000    0.000 
#
# Total GULP energy -134290.618983 kJ/mol
# GULP energy per Si atom -5595.442458 kJ/mol
# Density = 2.327430 g / cm^3
# Si number density = 23.327396 Si / 1000 Ang^3
#
#
#
# Elastic Constant Matrix: (Units=GPa)
#
#
# Indices 1 2 3 4 5 6 
#
# 1 64.3687 1.3191 -10.6127 0.0000 0.0000 0.0000
# 2 1.3191 65.1373 3.0755 0.0000 0.0000 0.0000
# 3 -10.6127 3.0755 87.6504 0.0000 0.0000 0.0000
# 4 0.0000 0.0000 0.0000 33.9770 0.0000 0.0000
# 5 0.0000 0.0000 0.0000 0.0000 23.4100 0.0000
# 6 0.0000 0.0000 0.0000 0.0000 0.0000 22.4947
#
#
#
# Elastic Compliance Matrix: (Units=1/GPa)
#
#
# Indices 1 2 3 4 5 6 
#
# 1 0.015863 -0.000413 0.001935 0.000000 0.000000 0.000000
# 2 -0.000413 0.015388 -0.000590 0.000000 0.000000 0.000000
# 3 0.001935 -0.000590 0.011664 0.000000 0.000000 0.000000
# 4 0.000000 0.000000 0.000000 0.029432 0.000000 0.000000
# 5 0.000000 0.000000 0.000000 0.000000 0.042717 0.000000
# 6 0.000000 0.000000 0.000000 0.000000 0.000000 0.044455
#
#
# Mechanical properties :
#
#
# Convention : Reuss Voigt Hill
#
# Bulk Modulus (GPa) = 22.33108 22.74671 22.53889
# Shear Modulus (GPa) = 28.97201 30.86797 29.91999
#
# Velocity S-wave (km/s) = 3.52799 3.64160 3.58524
# Velocity P-wave (km/s) = 5.11755 5.23964 5.17895
#
# Compressibility (1/GPa) = 0.04478064
#
# Stress axis : x y z
#
# Youngs Moduli (GPa) = 63.03977 64.98399 85.73412
#
# Poissons Ratio (x) = 0.02681 -0.16591
# Poissons Ratio (y) = 0.02601 0.05058
# Poissons Ratio (z) = -0.12199 0.03834
#
# Static dielectric constant tensor:
#      x y z
#    x 1.931880 0.000000 0.000000 
#    y 0.000000 1.858920 0.000000 
#    z 0.000000 0.000000 1.879070 
# 
# From -- ./inp_files/2317.got.cif
#   From: 2010.05.17/outbox.cif.g08.bks.cpg/sg39_2_cif.got.tgz:2317.got - 2010.06.03 18:22:40.
