data_PCOD9359104
_publ_section_title
;
Structure prediction by ZEFSAII (Michael W. Deem and Ramdas Pophale) SiO2 
 PCOD9359104
Probable space group: A M M 2
;
_chemical_formula_sum "Si O2"
_cell_formula_units_Z 48
_cell_length_a 7.663454
_cell_length_b 9.395902
_cell_length_c 35.787836
_cell_angle_alpha 90.000000
_cell_angle_beta 90.000000
_cell_angle_gamma 90.000000
_cell_volume 2576.905377
_symmetry_space_group_name_H-M "A M M 2"
_symmetry_group_IT_number 38
_symmetry_cell_setting 'orthorhombic'
loop_
_space_group_symop_operation_xyz
x,y,z
-x,-y,z
-x,y,z
x,-y,z
x,1/2+y,1/2+z
-x,1/2-y,1/2+z
-x,1/2+y,1/2+z
x,1/2-y,1/2+z
loop_
_atom_site_type_symbol
_atom_site_label
_atom_site_fract_x
_atom_site_fract_y
_atom_site_fract_z
Si Si1 0.211580 0.835330 0.783080
Si Si2 0.290769 0.162687 0.129469
Si Si3 0.000000 0.827997 0.411889
Si Si4 0.000000 0.672454 0.998417
Si Si5 0.209228 0.161633 0.211517
Si Si6 0.704857 0.829172 0.555781
Si Si7 0.299168 0.169184 0.867024
O O1 0.273680 0.747336 0.747328
O O2 0.280363 0.788531 0.823426
O O3 0.000000 0.827339 0.784876
O O4 0.260120 0.000000 0.778045
O O5 0.500000 0.156606 0.127471
O O6 0.246798 0.222546 0.170411
O O7 0.234232 0.254715 0.094070
O O8 0.222868 0.000000 0.127404
O O9 0.167819 0.761420 0.391456
O O10 0.000000 0.783742 0.455404
O O11 0.000000 0.000000 0.409313
O O12 0.000000 0.500000 0.998060
O O13 0.171045 0.716299 0.021772
O O14 0.000000 0.155840 0.214879
O O15 0.277813 0.000000 0.211918
O O16 0.500000 0.795525 0.549283
O O17 0.718086 0.000000 0.559950
O O18 0.500000 0.185915 0.878567
O O19 0.253973 0.000000 0.869078
#
# Coordination Sequence:
#
# PCOD9359104 Si02
#       7
#     8   8   4   4   8   8   8
#     4   9  17  32  52  74 104 142 183 228 273 317
#     4   9  18  32  48  69 102 140 174 215 266 313
#     4  11  23  39  61  88 119 146 181 234 285 341
#     4   9  20  37  57  82 107 138 173 212 271 331
#     4   9  18  30  45  69 102 140 178 217 265 317
#     4   9  18  34  55  77 103 136 175 218 261 312
#     4  10  21  39  62  85 114 153 191 230 282 340
#
# _framework density 18.626994
#
# number of rings (size 3 to 8) (size 9 to 14) (size 15 to 20)
#    0.000    2.667    0.833    0.250    1.167    3.000 
#    0.000    3.333    0.000    2.000    0.000    0.000 
#    0.000    0.000    0.000    0.000    0.000    0.000 
#
# Total GULP energy -133845.863937 kJ/mol
# GULP energy per Si atom -5576.910997 kJ/mol
# Density = 1.858460 g / cm^3
# Si number density = 18.626994 Si / 1000 Ang^3
#
#
#
# Elastic Constant Matrix: (Units=GPa)
#
#
# Indices 1 2 3 4 5 6 
#
# 1 75.0612 36.3149 64.8420 0.0000 0.0000 0.0000
# 2 36.3149 44.9512 67.8146 0.0000 0.0000 0.0000
# 3 64.8420 67.8146 194.5275 0.0000 0.0000 0.0000
# 4 0.0000 0.0000 0.0000 32.7218 0.0000 0.0000
# 5 0.0000 0.0000 0.0000 0.0000 -92.7120 0.0000
# 6 0.0000 0.0000 0.0000 0.0000 0.0000 7.0064
#
#
#
# Elastic Compliance Matrix: (Units=1/GPa)
#
#
# Indices 1 2 3 4 5 6 
#
# 1 0.022408 -0.014417 -0.002444 0.000000 0.000000 0.000000
# 2 -0.014417 0.056201 -0.014787 0.000000 0.000000 0.000000
# 3 -0.002444 -0.014787 0.011110 0.000000 0.000000 0.000000
# 4 0.000000 0.000000 0.000000 0.030561 0.000000 0.000000
# 5 0.000000 0.000000 0.000000 0.000000 -0.010786 0.000000
# 6 0.000000 0.000000 0.000000 0.000000 0.000000 0.142728
#
#
# Mechanical properties :
#
#
# Convention : Reuss Voigt Hill
#
# Bulk Modulus (GPa) = 37.84261 72.49809 55.17035
# Shear Modulus (GPa) = 15.41671 -0.89221 7.26225
#
# Velocity S-wave (km/s) = 2.88002 -0.69284 1.97667
# Velocity P-wave (km/s) = 5.60531 6.19398 5.90698
#
# Compressibility (1/GPa) = 0.02642524
#
# Stress axis : x y z
#
# Youngs Moduli (GPa) = 44.62677 17.79330 90.00875
#
# Poissons Ratio (x) = 0.25652 0.21994
# Poissons Ratio (y) = 0.64336 1.33094
# Poissons Ratio (z) = 0.10905 0.26311
#
# Static dielectric constant tensor:
#      x y z
#    x 1.671990 0.000000 0.000000 
#    y 0.000000 1.637280 0.000000 
#    z 0.000000 0.000000 1.628020 
# 
# From -- ./inp_files/24408.got.cif
#   From: 2010.05.17/outbox.cif.g08.bks.cpg/sg38_13_cif.got.tgz:24408.got - 2010.06.03 18:07:57.
