data_PCOD9359715
_publ_section_title
;
Structure prediction by ZEFSAII (Michael W. Deem and Ramdas Pophale) SiO2 
 PCOD9359715
Probable space group: A B M 2
;
_chemical_formula_sum "Si O2"
_cell_formula_units_Z 64
_cell_length_a 17.688227
_cell_length_b 9.048865
_cell_length_c 23.696248
_cell_angle_alpha 90.000000
_cell_angle_beta 90.000000
_cell_angle_gamma 90.000000
_cell_volume 3792.783025
_symmetry_space_group_name_H-M "A B M 2"
_symmetry_group_IT_number 39
_symmetry_cell_setting 'orthorhombic'
loop_
_space_group_symop_operation_xyz
x,y,z
-x,-y,z
-x,1/2+y,z
x,1/2-y,z
x,1/2+y,1/2+z
-x,1/2-y,1/2+z
-x,y,1/2+z
x,-y,1/2+z
loop_
_atom_site_type_symbol
_atom_site_label
_atom_site_fract_x
_atom_site_fract_y
_atom_site_fract_z
Si Si1 0.304003 0.080661 0.218840
Si Si2 0.922549 0.575032 0.778831
Si Si3 0.734198 0.075769 0.446252
Si Si4 0.356385 0.424138 0.613188
Si Si5 0.226755 0.927185 0.829890
Si Si6 0.791655 0.074559 0.564719
Si Si7 0.425163 0.574620 0.508228
Si Si8 0.130510 0.082540 0.172622
O O1 0.330828 0.250000 0.217253
O O2 0.290544 0.031766 0.283175
O O3 0.218143 0.081327 0.193721
O O4 0.354164 0.982724 0.177256
O O5 0.924200 0.750000 0.785673
O O6 0.850932 0.504992 0.810943
O O7 0.911492 0.530910 0.712890
O O8 0.000000 0.500000 0.798493
O O9 0.737314 0.250000 0.431678
O O10 0.793178 0.050209 0.497816
O O11 0.651066 0.045326 0.472423
O O12 0.750805 0.979295 0.391818
O O13 0.368036 0.250000 0.610801
O O14 0.274305 0.469966 0.588205
O O15 0.411883 0.507723 0.570543
O O16 0.217571 0.750000 0.826369
O O17 0.769594 0.250000 0.571951
O O18 0.863050 0.052192 0.605789
O O19 0.500000 0.500000 0.483559
O O20 0.434236 0.750000 0.511985
O O21 0.101915 0.250000 0.182093
#
# Coordination Sequence:
#
# PCOD9359715 Si02
#       8
#     8   8   8   8   8   8   8   8
#     4   8  15  28  44  64  93 124 152 189 237 284
#     4  11  21  33  50  72  99 129 163 205 254 305
#     4   9  18  32  50  73 100 132 169 209 250 294
#     4  10  17  25  43  70  95 120 153 192 236 285
#     4  10  20  33  50  73 100 132 171 212 251 294
#     4   8  15  28  45  66  95 126 153 189 236 282
#     4  10  20  34  51  72 100 131 164 204 253 304
#     4   8  14  27  46  68  94 122 152 188 235 286
#
# _framework density 16.874153
#
# number of rings (size 3 to 8) (size 9 to 14) (size 15 to 20)
#    0.000    2.750    0.000    5.250    0.000    7.500 
#    0.000    0.000    0.000    1.500    0.000    5.250 
#    0.000    0.000    0.000    0.000    0.000    0.000 
#
# Total GULP energy -178190.308332 kJ/mol
# GULP energy per Si atom -5568.447135 kJ/mol
# Density = 1.683575 g / cm^3
# Si number density = 16.874153 Si / 1000 Ang^3
#
#
#
# Elastic Constant Matrix: (Units=GPa)
#
#
# Indices 1 2 3 4 5 6 
#
# 1 44.1599 38.3781 26.1397 0.0000 0.0000 0.0000
# 2 38.3781 93.9731 55.6071 0.0000 0.0000 0.0000
# 3 26.1397 55.6071 118.8571 0.0000 0.0000 0.0000
# 4 0.0000 0.0000 0.0000 28.0279 0.0000 0.0000
# 5 0.0000 0.0000 0.0000 0.0000 10.1182 0.0000
# 6 0.0000 0.0000 0.0000 0.0000 0.0000 20.8399
#
#
#
# Elastic Compliance Matrix: (Units=1/GPa)
#
#
# Indices 1 2 3 4 5 6 
#
# 1 0.035274 -0.013573 -0.001408 0.000000 0.000000 0.000000
# 2 -0.013573 0.019938 -0.006343 0.000000 0.000000 0.000000
# 3 -0.001408 -0.006343 0.011691 0.000000 0.000000 0.000000
# 4 0.000000 0.000000 0.000000 0.035679 0.000000 0.000000
# 5 0.000000 0.000000 0.000000 0.000000 0.098832 0.000000
# 6 0.000000 0.000000 0.000000 0.000000 0.000000 0.047985
#
#
# Mechanical properties :
#
#
# Convention : Reuss Voigt Hill
#
# Bulk Modulus (GPa) = 41.22742 55.24887 48.23814
# Shear Modulus (GPa) = 16.65952 20.92155 18.79053
#
# Velocity S-wave (km/s) = 3.14551 3.52498 3.34064
# Velocity P-wave (km/s) = 6.13821 7.02710 6.59764
#
# Compressibility (1/GPa) = 0.02425570
#
# Stress axis : x y z
#
# Youngs Moduli (GPa) = 28.34956 50.15641 85.53953
#
# Poissons Ratio (x) = 0.68076 0.12041
# Poissons Ratio (y) = 0.38478 0.54256
# Poissons Ratio (z) = 0.03991 0.31813
#
# Static dielectric constant tensor:
#      x y z
#    x 1.587810 0.000000 0.000000 
#    y 0.000000 1.559750 0.000000 
#    z 0.000000 0.000000 1.609160 
# 
# From -- ./inp_files/16361.got.cif
#   From: 2010.05.17/outbox.cif.g08.bks.cpg/sg39_9_cif.got.tgz:16361.got - 2010.06.03 18:22:40.
