data_PCOD9359552
_publ_section_title
;
Structure prediction by ZEFSAII (Michael W. Deem and Ramdas Pophale) SiO2 
 PCOD9359552
Probable space group: A M M 2
;
_chemical_formula_sum "Si O2"
_cell_formula_units_Z 32
_cell_length_a 9.000000
_cell_length_b 24.000000
_cell_length_c 15.000000
_cell_angle_alpha 90.000000
_cell_angle_beta 90.000000
_cell_angle_gamma 90.000000
_cell_volume 3240.000000
_symmetry_space_group_name_H-M "A M M 2"
_symmetry_group_IT_number 38
_symmetry_cell_setting 'orthorhombic'
loop_
_space_group_symop_operation_xyz
x,y,z
-x,-y,z
-x,y,z
x,-y,z
x,1/2+y,1/2+z
-x,1/2-y,1/2+z
-x,1/2+y,1/2+z
x,1/2-y,1/2+z
loop_
_atom_site_type_symbol
_atom_site_label
_atom_site_fract_x
_atom_site_fract_y
_atom_site_fract_z
Si Si1 0.332673 0.640797 0.515130
Si Si2 0.677622 0.882177 0.724643
Si Si3 0.319958 0.384246 0.027938
Si Si4 0.824694 0.736133 0.269314
Si Si5 0.681351 0.938376 0.348326
Si Si6 0.325772 0.264443 0.953837
Si Si7 0.674134 0.656116 0.712205
Si Si8 0.172957 0.562017 0.384771
O O1 0.500000 0.627320 0.482737
O O2 0.317715 0.707391 0.508565
O O3 0.318956 0.625603 0.617828
O O4 0.216820 0.608709 0.455455
O O5 0.500000 0.877850 0.726028
O O6 0.730162 0.898957 0.626337
O O7 0.743505 0.821483 0.747080
O O8 0.732476 0.925269 0.797561
O O9 0.500000 0.386497 0.028235
O O10 0.270411 0.424058 0.948535
O O11 0.281240 0.320188 0.005340
O O12 0.773709 0.754694 0.367707
O O13 0.767143 0.787453 0.210413
O O14 0.000000 0.728808 0.263128
O O15 0.500000 0.938247 0.345697
O O16 0.727447 0.886860 0.286947
O O17 0.730465 0.000000 0.320676
O O18 0.500000 0.271502 0.927327
O O19 0.500000 0.670354 0.728158
O O20 0.203467 0.500000 0.419512
O O21 0.000000 0.566365 0.362604
#
# Coordination Sequence:
#
# PCOD9359552 Si02
#       8
#     8   8   8   8   8   8   8   8
#     4  10  21  36  61  90 113 148 199 248 293 343
#     4  11  22  38  62  89 115 150 196 249 296 344
#     4   9  18  33  57  88 118 148 187 236 293 345
#     4  12  23  35  56  87 120 157 192 234 292 357
#     4   9  17  31  55  87 118 147 185 237 288 332
#     4  10  18  34  58  84 114 150 189 240 295 347
#     4  10  20  37  61  88 119 154 192 239 290 348
#     4  11  25  43  60  82 118 161 199 241 296 354
#
# _framework density 9.8765429999999999
#
# number of rings (size 3 to 8) (size 9 to 14) (size 15 to 20)
#    0.000    1.750    2.500    2.625    0.000    4.500 
#    0.000    5.000    0.000    0.375    0.000    0.000 
#    0.000    0.000    0.000    0.000    0.000    0.000 
#
# Total GULP energy -178578.817567 kJ/mol
# GULP energy per Si atom -5580.588049 kJ/mol
# Density = 0.985406 g / cm^3
# Si number density = 9.876543 Si / 1000 Ang^3
#
#
#
# Elastic Constant Matrix: (Units=GPa)
#
#
# Indices 1 2 3 4 5 6 
#
# 1 53.4869 16.9959 15.4375 0.0000 0.0000 0.0000
# 2 16.9959 45.9252 -6.1207 0.0000 0.0000 0.0000
# 3 15.4375 -6.1207 66.9187 0.0000 0.0000 0.0000
# 4 0.0000 0.0000 0.0000 -21.2305 0.0000 0.0000
# 5 0.0000 0.0000 0.0000 0.0000 -12.0317 0.0000
# 6 0.0000 0.0000 0.0000 0.0000 0.0000 22.8778
#
#
#
# Elastic Compliance Matrix: (Units=1/GPa)
#
#
# Indices 1 2 3 4 5 6 
#
# 1 0.023554 -0.009557 -0.006308 0.000000 0.000000 0.000000
# 2 -0.009557 0.025921 0.004576 0.000000 0.000000 0.000000
# 3 -0.006308 0.004576 0.016817 0.000000 0.000000 0.000000
# 4 0.000000 0.000000 0.000000 -0.047102 0.000000 0.000000
# 5 0.000000 0.000000 0.000000 0.000000 -0.083114 0.000000
# 6 0.000000 0.000000 0.000000 0.000000 0.000000 0.043711
#
#
# Mechanical properties :
#
#
# Convention : Reuss Voigt Hill
#
# Bulk Modulus (GPa) = 22.87636 24.32846 23.60241
# Shear Modulus (GPa) = 295.21474 7.25766 151.23620
#
# Velocity S-wave (km/s) = 12.23834 1.91890 8.75954
# Velocity P-wave (km/s) = 14.53647 4.15362 10.69022
#
# Compressibility (1/GPa) = 0.04371325
#
# Stress axis : x y z
#
# Youngs Moduli (GPa) = 42.45626 38.57831 59.46313
#
# Poissons Ratio (x) = 0.36871 0.37508
# Poissons Ratio (y) = 0.40577 -0.27208
# Poissons Ratio (z) = 0.26780 -0.17652
#
# Static dielectric constant tensor:
#      x y z
#    x 1.669300 0.000000 0.000000 
#    y 0.000000 1.677590 0.000000 
#    z 0.000000 0.000000 1.731030 
# 
# From -- ./inp_files/12775.got.cif
#   From: 2010.05.17/outbox.ucp.g08.bks.cvg/sg38_7_cif.got.tgz:12775.got - 2010.06.11 10:39:43.
