data_PCOD9359136
_publ_section_title
;
Structure prediction by ZEFSAII (Michael W. Deem and Ramdas Pophale) SiO2 
 PCOD9359136
Probable space group: A M M 2
;
_chemical_formula_sum "Si O2"
_cell_formula_units_Z 56
_cell_length_a 15.136206
_cell_length_b 7.701773
_cell_length_c 19.458036
_cell_angle_alpha 90.000000
_cell_angle_beta 90.000000
_cell_angle_gamma 90.000000
_cell_volume 2268.332663
_symmetry_space_group_name_H-M "A M M 2"
_symmetry_group_IT_number 38
_symmetry_cell_setting 'orthorhombic'
loop_
_space_group_symop_operation_xyz
x,y,z
-x,-y,z
-x,y,z
x,-y,z
x,1/2+y,1/2+z
-x,1/2-y,1/2+z
-x,1/2+y,1/2+z
x,1/2-y,1/2+z
loop_
_atom_site_type_symbol
_atom_site_label
_atom_site_fract_x
_atom_site_fract_y
_atom_site_fract_z
Si Si1 0.099287 0.706670 0.938050
Si Si2 0.752201 0.233779 0.340766
Si Si3 0.101375 0.204914 0.740685
Si Si4 0.640509 0.299230 0.082223
Si Si5 0.399843 0.299316 0.431939
Si Si6 0.842706 0.707245 0.588154
Si Si7 0.595419 0.293056 0.232184
O O1 0.114405 0.500000 0.925139
O O2 0.176286 0.805354 0.897097
O O3 0.000000 0.753392 0.916549
O O4 0.107074 0.737875 0.019281
O O5 0.829890 0.186436 0.285931
O O6 0.677388 0.186127 0.398144
O O7 0.677939 0.270113 0.282140
O O8 0.114117 0.236669 0.659744
O O9 0.000000 0.241734 0.757942
O O10 0.121145 0.000000 0.753981
O O11 0.611962 0.500000 0.076506
O O12 0.746094 0.290161 0.084008
O O13 0.609964 0.223967 0.155234
O O14 0.608322 0.205997 0.013908
O O15 0.500000 0.250565 0.414046
O O16 0.384592 0.500000 0.408083
O O17 0.834144 0.500000 0.588161
O O18 0.500000 0.230554 0.258200
O O19 0.590344 0.500000 0.224438
#
# Coordination Sequence:
#
# PCOD9359136 Si02
#       7
#     8   8   8   8   8   8   8
#     4  11  26  48  72  99 135 178 224 279 342 403
#     4  12  23  40  67  97 138 181 224 269 323 401
#     4  11  24  43  68  98 134 178 227 278 334 398
#     4  11  22  42  71  98 131 175 229 285 337 400
#     4  11  24  41  65 100 141 181 223 278 340 398
#     4  12  25  43  71 101 132 172 224 283 344 407
#     4  10  21  39  66  99 134 176 224 273 329 395
#
# _framework density 24.687736999999998
#
# number of rings (size 3 to 8) (size 9 to 14) (size 15 to 20)
#    0.000    0.857    2.857    4.714    0.000    6.000 
#    0.000    0.000    0.000    3.000    0.000    0.000 
#    0.000    0.000    0.000    0.000    0.000    0.000 
#
# Total GULP energy -156091.375765 kJ/mol
# GULP energy per Si atom -5574.691992 kJ/mol
# Density = 2.463155 g / cm^3
# Si number density = 24.687737 Si / 1000 Ang^3
#
#
#
# Elastic Constant Matrix: (Units=GPa)
#
#
# Indices 1 2 3 4 5 6 
#
# 1 225.3954 34.9692 79.0503 0.0000 0.0000 0.0000
# 2 34.9692 92.3816 18.5960 0.0000 0.0000 0.0000
# 3 79.0503 18.5960 215.6927 0.0000 0.0000 0.0000
# 4 0.0000 0.0000 0.0000 -23.6900 0.0000 0.0000
# 5 0.0000 0.0000 0.0000 0.0000 243.5540 0.0000
# 6 0.0000 0.0000 0.0000 0.0000 0.0000 -3.6305
#
#
#
# Elastic Compliance Matrix: (Units=1/GPa)
#
#
# Indices 1 2 3 4 5 6 
#
# 1 0.005328 -0.001652 -0.001810 0.000000 0.000000 0.000000
# 2 -0.001652 0.011528 -0.000388 0.000000 0.000000 0.000000
# 3 -0.001810 -0.000388 0.005333 0.000000 0.000000 0.000000
# 4 0.000000 0.000000 0.000000 -0.042212 0.000000 0.000000
# 5 0.000000 0.000000 0.000000 0.000000 0.004106 0.000000
# 6 0.000000 0.000000 0.000000 0.000000 0.000000 -0.275448
#
#
# Mechanical properties :
#
#
# Convention : Reuss Voigt Hill
#
# Bulk Modulus (GPa) = 69.02483 88.74453 78.88468
# Shear Modulus (GPa) = -17.93186 69.97033 26.01923
#
# Velocity S-wave (km/s) = -2.69801 5.32951 3.24996
# Velocity P-wave (km/s) = 4.27951 8.59630 6.79009
#
# Compressibility (1/GPa) = 0.01448754
#
# Stress axis : x y z
#
# Youngs Moduli (GPa) = 187.69224 86.74298 187.50730
#
# Poissons Ratio (x) = 0.14333 0.33942
# Poissons Ratio (y) = 0.31014 0.07281
# Poissons Ratio (z) = 0.33976 0.03368
#
# Static dielectric constant tensor:
#      x y z
#    x 1.889520 0.000000 0.000000 
#    y 0.000000 2.025870 0.000000 
#    z 0.000000 0.000000 1.930360 
# 
# From -- ./inp_files/21039.got.cif
#   From: 2010.05.17/outbox.cif.g08.bks.cpg/sg38_11_cif.got.tgz:21039.got - 2010.06.03 18:07:57.
