data_PCOD9359286
_publ_section_title
;
Structure prediction by ZEFSAII (Michael W. Deem and Ramdas Pophale) SiO2 
 PCOD9359286
Probable space group: A M M 2
;
_chemical_formula_sum "Si O2"
_cell_formula_units_Z 26
_cell_length_a 10.907068
_cell_length_b 7.406408
_cell_length_c 14.022729
_cell_angle_alpha 90.000000
_cell_angle_beta 90.000000
_cell_angle_gamma 90.000000
_cell_volume 1132.786838
_symmetry_space_group_name_H-M "A M M 2"
_symmetry_group_IT_number 38
_symmetry_cell_setting 'orthorhombic'
loop_
_space_group_symop_operation_xyz
x,y,z
-x,-y,z
-x,y,z
x,-y,z
x,1/2+y,1/2+z
-x,1/2-y,1/2+z
-x,1/2+y,1/2+z
x,1/2-y,1/2+z
loop_
_atom_site_type_symbol
_atom_site_label
_atom_site_fract_x
_atom_site_fract_y
_atom_site_fract_z
Si Si1 0.000000 0.000000 0.429361
Si Si2 0.363538 0.217703 0.351424
Si Si3 0.186628 0.791940 0.000108
Si Si4 0.860826 0.780429 0.220885
O O1 0.894780 0.156865 0.438759
O O2 0.500000 0.281690 0.327845
O O3 0.322509 0.271122 0.458019
O O4 0.254053 0.284912 0.282758
O O5 0.365068 0.000000 0.344551
O O6 0.149061 0.000000 0.990766
O O7 0.166742 0.740583 0.110131
O O8 0.000000 0.717054 0.242402
O O9 0.866484 0.000000 0.230787
#
# Coordination Sequence:
#
# PCOD9359286 Si02
#       4
#     2   8   8   8
#     4  12  22  40  66  98 132 162 204 276 316 386
#     4  10  22  40  63  93 132 177 215 258 318 379
#     4  11  23  41  66  95 129 168 213 261 321 380
#     4   9  19  36  62  91 125 166 212 263 321 377
#
# _framework density 22.952242999999999
#
# number of rings (size 3 to 8) (size 9 to 14) (size 15 to 20)
#    0.000    1.846    3.077    0.462    2.154    1.846 
#    2.769    3.077    0.000    0.000    0.000    0.000 
#    0.000    0.000    0.000    0.000    0.000    0.000 
#
# Total GULP energy -72417.363505 kJ/mol
# GULP energy per Si atom -5570.566423 kJ/mol
# Density = 2.290000 g / cm^3
# Si number density = 22.952243 Si / 1000 Ang^3
#
#
#
# Elastic Constant Matrix: (Units=GPa)
#
#
# Indices 1 2 3 4 5 6 
#
# 1 231.6804 21.4254 89.9486 0.0000 0.0000 0.0000
# 2 21.4254 109.2293 9.9703 0.0000 0.0000 0.0000
# 3 89.9486 9.9703 107.5686 0.0000 0.0000 0.0000
# 4 0.0000 0.0000 0.0000 12.8289 0.0000 0.0000
# 5 0.0000 0.0000 0.0000 0.0000 91.0103 0.0000
# 6 0.0000 0.0000 0.0000 0.0000 0.0000 30.3671
#
#
#
# Elastic Compliance Matrix: (Units=1/GPa)
#
#
# Indices 1 2 3 4 5 6 
#
# 1 0.006456 -0.000780 -0.005327 0.000000 0.000000 0.000000
# 2 -0.000780 0.009327 -0.000212 0.000000 0.000000 0.000000
# 3 -0.005327 -0.000212 0.013770 0.000000 0.000000 0.000000
# 4 0.000000 0.000000 0.000000 0.077949 0.000000 0.000000
# 5 0.000000 0.000000 0.000000 0.000000 0.010988 0.000000
# 6 0.000000 0.000000 0.000000 0.000000 0.000000 0.032930
#
#
# Mechanical properties :
#
#
# Convention : Reuss Voigt Hill
#
# Bulk Modulus (GPa) = 59.11486 76.79632 67.95559
# Shear Modulus (GPa) = 29.46414 48.65019 39.05717
#
# Velocity S-wave (km/s) = 3.58678 4.60894 4.12961
# Velocity P-wave (km/s) = 6.55476 7.86479 7.23947
#
# Compressibility (1/GPa) = 0.01691622
#
# Stress axis : x y z
#
# Youngs Moduli (GPa) = 154.88387 107.21038 72.62107
#
# Poissons Ratio (x) = 0.08365 0.38682
# Poissons Ratio (y) = 0.12085 0.01540
# Poissons Ratio (z) = 0.82500 0.02274
#
# Static dielectric constant tensor:
#      x y z
#    x 0.937000 0.000000 0.000000 
#    y 0.000000 1.844890 0.000000 
#    z 0.000000 0.000000 1.943540 
# 
# From -- ./inp_files/13171.got.cif
#   From: 2010.05.17/outbox.cif.g08.bks.cpg/sg38_7_cif.got.tgz:13171.got - 2010.06.03 18:07:57.
