data_PCOD9359198
_publ_section_title
;
Structure prediction by ZEFSAII (Michael W. Deem and Ramdas Pophale) SiO2 
 PCOD9359198
Probable space group: A M M 2
;
_chemical_formula_sum "Si O2"
_cell_formula_units_Z 64
_cell_length_a 8.951375
_cell_length_b 28.949789
_cell_length_c 13.133347
_cell_angle_alpha 90.000000
_cell_angle_beta 90.000000
_cell_angle_gamma 90.000000
_cell_volume 3403.381025
_symmetry_space_group_name_H-M "A M M 2"
_symmetry_group_IT_number 38
_symmetry_cell_setting 'orthorhombic'
loop_
_space_group_symop_operation_xyz
x,y,z
-x,-y,z
-x,y,z
x,-y,z
x,1/2+y,1/2+z
-x,1/2-y,1/2+z
-x,1/2+y,1/2+z
x,1/2-y,1/2+z
loop_
_atom_site_type_symbol
_atom_site_label
_atom_site_fract_x
_atom_site_fract_y
_atom_site_fract_z
Si Si1 0.327219 0.444348 0.623290
Si Si2 0.320634 0.358027 0.237200
Si Si3 0.179802 0.379875 0.023179
Si Si4 0.176852 0.113797 0.950180
Si Si5 0.671559 0.751287 0.232807
Si Si6 0.331292 0.795925 0.012881
Si Si7 0.174153 0.285694 0.905386
Si Si8 0.178636 0.945241 0.336992
O O1 0.500000 0.429379 0.619220
O O2 0.321514 0.500000 0.622183
O O3 0.242164 0.425260 0.524599
O O4 0.256306 0.429551 0.731863
O O5 0.500000 0.361388 0.239021
O O6 0.257687 0.380162 0.132967
O O7 0.251747 0.381142 0.338462
O O8 0.282449 0.302866 0.235966
O O9 0.000000 0.383155 0.037228
O O10 0.212750 0.330736 0.969456
O O11 0.225111 0.418004 0.939048
O O12 0.000000 0.109175 0.938816
O O13 0.221866 0.161073 0.007331
O O14 0.500000 0.755131 0.270440
O O15 0.668676 0.768571 0.117627
O O16 0.782662 0.787155 0.287705
O O17 0.500000 0.811644 0.989063
O O18 0.272910 0.758000 0.935102
O O19 0.000000 0.276231 0.920411
O O20 0.000000 0.938504 0.325537
O O21 0.206844 0.000000 0.349278
#
# Coordination Sequence:
#
# PCOD9359198 Si02
#       8
#     8   8   8   8   8   8   8   8
#     4  10  22  42  67  94 122 152 190 240 296 353
#     4  11  22  39  60  83 115 159 203 246 296 350
#     4  10  22  38  57  87 120 155 199 246 296 354
#     4  12  25  40  61  89 119 156 199 244 298 354
#     4  10  22  37  54  76 110 154 197 244 295 346
#     4  11  22  38  56  80 114 154 200 243 291 347
#     4  11  22  34  53  81 115 153 195 242 292 347
#     4   9  19  39  65  91 121 156 194 241 297 353
#
# _framework density 18.804829999999999
#
# number of rings (size 3 to 8) (size 9 to 14) (size 15 to 20)
#    0.000    1.500    2.500    2.625    1.750    3.250 
#    0.000    0.625    0.000    2.250    0.000    0.000 
#    0.000    0.000    0.000    0.000    0.000    0.000 
#
# Total GULP energy -178569.609387 kJ/mol
# GULP energy per Si atom -5580.300293 kJ/mol
# Density = 1.876203 g / cm^3
# Si number density = 18.804830 Si / 1000 Ang^3
#
#
#
# Elastic Constant Matrix: (Units=GPa)
#
#
# Indices 1 2 3 4 5 6 
#
# 1 75.3772 34.1602 63.5335 0.0000 0.0000 0.0000
# 2 34.1602 40.9948 46.7860 0.0000 0.0000 0.0000
# 3 63.5335 46.7860 142.4787 0.0000 0.0000 0.0000
# 4 0.0000 0.0000 0.0000 35.0487 0.0000 0.0000
# 5 0.0000 0.0000 0.0000 0.0000 38.5904 0.0000
# 6 0.0000 0.0000 0.0000 0.0000 0.0000 22.4030
#
#
#
# Elastic Compliance Matrix: (Units=1/GPa)
#
#
# Indices 1 2 3 4 5 6 
#
# 1 0.024908 -0.012922 -0.006864 0.000000 0.000000 0.000000
# 2 -0.012922 0.045718 -0.009250 0.000000 0.000000 0.000000
# 3 -0.006864 -0.009250 0.013117 0.000000 0.000000 0.000000
# 4 0.000000 0.000000 0.000000 0.028532 0.000000 0.000000
# 5 0.000000 0.000000 0.000000 0.000000 0.025913 0.000000
# 6 0.000000 0.000000 0.000000 0.000000 0.000000 0.044637
#
#
# Mechanical properties :
#
#
# Convention : Reuss Voigt Hill
#
# Bulk Modulus (GPa) = 38.95488 60.86779 49.91133
# Shear Modulus (GPa) = 20.04379 26.83317 23.43848
#
# Velocity S-wave (km/s) = 3.26833 3.78157 3.53428
# Velocity P-wave (km/s) = 5.91633 7.17673 6.57679
#
# Compressibility (1/GPa) = 0.02567072
#
# Stress axis : x y z
#
# Youngs Moduli (GPa) = 40.14788 21.87307 76.23839
#
# Poissons Ratio (x) = 0.28265 0.52327
# Poissons Ratio (y) = 0.51880 0.70524
# Poissons Ratio (z) = 0.27556 0.20234
#
# Static dielectric constant tensor:
#      x y z
#    x 1.643780 0.000000 0.000000 
#    y 0.000000 1.637130 0.000000 
#    z 0.000000 0.000000 1.707980 
# 
# From -- ./inp_files/8512.got.cif
#   From: 2010.05.17/outbox.cif.g08.bks.cpg/sg38_5_cif.got.tgz:8512.got - 2010.06.03 18:07:57.
