data_PCOD9359728
_publ_section_title
;
Structure prediction by ZEFSAII (Michael W. Deem and Ramdas Pophale) SiO2 
 PCOD9359728
Probable space group: A B M 2
;
_chemical_formula_sum "Si O2"
_cell_formula_units_Z 48
_cell_length_a 9.632061
_cell_length_b 8.658982
_cell_length_c 32.575364
_cell_angle_alpha 90.000000
_cell_angle_beta 90.000000
_cell_angle_gamma 90.000000
_cell_volume 2716.910539
_symmetry_space_group_name_H-M "A B M 2"
_symmetry_group_IT_number 39
_symmetry_cell_setting 'orthorhombic'
loop_
_space_group_symop_operation_xyz
x,y,z
-x,-y,z
-x,1/2+y,z
x,1/2-y,z
x,1/2+y,1/2+z
-x,1/2-y,1/2+z
-x,y,1/2+z
x,-y,1/2+z
loop_
_atom_site_type_symbol
_atom_site_label
_atom_site_fract_x
_atom_site_fract_y
_atom_site_fract_z
Si Si1 0.342509 0.064786 0.995920
Si Si2 0.155340 0.064265 0.162188
Si Si3 0.655660 0.063949 0.586243
Si Si4 0.655842 0.935176 0.826996
Si Si5 0.342156 0.934091 0.912153
Si Si6 0.844998 0.064828 0.249359
O O1 0.346286 0.250000 0.991900
O O2 0.500000 0.000000 0.997231
O O3 0.276892 0.994214 0.954730
O O4 0.285068 0.022700 0.040972
O O5 0.150944 0.250000 0.163204
O O6 0.250012 0.013020 0.124135
O O7 0.207645 0.002935 0.206124
O O8 0.000000 0.000000 0.157153
O O9 0.647547 0.250000 0.587213
O O10 0.500000 0.000000 0.589989
O O11 0.648737 0.750000 0.830637
O O12 0.747900 0.976379 0.787640
O O13 0.500000 0.000000 0.821994
O O14 0.717429 0.003288 0.869366
O O15 0.346636 0.750000 0.912080
O O16 0.500000 0.000000 0.912107
O O17 0.851721 0.250000 0.246165
O O18 0.000000 0.000000 0.255552
#
# Coordination Sequence:
#
# PCOD9359728 Si02
#       6
#     8   8   8   8   8   8
#     4   9  15  26  43  65  95 127 159 195 237 284
#     4  10  20  35  53  73  97 128 165 201 241 290
#     4   9  19  32  49  74 101 129 162 201 243 286
#     4  10  20  33  50  74 101 129 162 200 243 287
#     4  10  17  26  43  68  97 128 161 196 238 285
#     4  10  21  36  54  74  96 127 165 201 242 292
#
# _framework density 17.667127000000001
#
# number of rings (size 3 to 8) (size 9 to 14) (size 15 to 20)
#    0.000    2.333    0.000    6.500    0.000    5.333 
#    0.000    3.333    0.000    1.000    0.000    2.333 
#    0.000    0.000    0.000    0.000    0.000    0.000 
#
# Total GULP energy -133776.763866 kJ/mol
# GULP energy per Si atom -5574.031828 kJ/mol
# Density = 1.762692 g / cm^3
# Si number density = 17.667127 Si / 1000 Ang^3
#
#
#
# Elastic Constant Matrix: (Units=GPa)
#
#
# Indices 1 2 3 4 5 6 
#
# 1 32.4902 19.9049 65.1461 0.0000 0.0000 0.0000
# 2 19.9049 73.2230 66.2805 0.0000 0.0000 0.0000
# 3 65.1461 66.2805 229.8568 0.0000 0.0000 0.0000
# 4 0.0000 0.0000 0.0000 29.2490 0.0000 0.0000
# 5 0.0000 0.0000 0.0000 0.0000 -13.9590 0.0000
# 6 0.0000 0.0000 0.0000 0.0000 0.0000 16.6850
#
#
#
# Elastic Compliance Matrix: (Units=1/GPa)
#
#
# Indices 1 2 3 4 5 6 
#
# 1 0.071412 -0.001478 -0.019813 0.000000 0.000000 0.000000
# 2 -0.001478 0.018511 -0.004919 0.000000 0.000000 0.000000
# 3 -0.019813 -0.004919 0.011384 0.000000 0.000000 0.000000
# 4 0.000000 0.000000 0.000000 0.034189 0.000000 0.000000
# 5 0.000000 0.000000 0.000000 0.000000 -0.071638 0.000000
# 6 0.000000 0.000000 0.000000 0.000000 0.000000 0.059934
#
#
# Mechanical properties :
#
#
# Convention : Reuss Voigt Hill
#
# Bulk Modulus (GPa) = 20.45528 70.91478 45.68503
# Shear Modulus (GPa) = 25.97290 18.67756 22.32523
#
# Velocity S-wave (km/s) = 3.83838 3.25498 3.55866
# Velocity P-wave (km/s) = 5.58995 7.37245 6.54219
#
# Compressibility (1/GPa) = 0.04888713
#
# Stress axis : x y z
#
# Youngs Moduli (GPa) = 14.00332 54.02125 87.83893
#
# Poissons Ratio (x) = 0.07983 1.74039
# Poissons Ratio (y) = 0.02069 0.43208
# Poissons Ratio (z) = 0.27745 0.26573
#
# Static dielectric constant tensor:
#      x y z
#    x 1.566910 0.000000 0.000000 
#    y 0.000000 1.593630 0.000000 
#    z 0.000000 0.000000 1.669570 
# 
# From -- ./inp_files/16910.got.cif
#   From: 2010.05.17/outbox.cif.g08.bks.cpg/sg39_9_cif.got.tgz:16910.got - 2010.06.03 18:22:40.
