data_PCOD9359550
_publ_section_title
;
Structure prediction by ZEFSAII (Michael W. Deem and Ramdas Pophale) SiO2 
 PCOD9359550
Probable space group: A M M 2
;
_chemical_formula_sum "Si O2"
_cell_formula_units_Z 20
_cell_length_a 9.000000
_cell_length_b 12.000000
_cell_length_c 21.000000
_cell_angle_alpha 90.000000
_cell_angle_beta 90.000000
_cell_angle_gamma 90.000000
_cell_volume 2268.000000
_symmetry_space_group_name_H-M "A M M 2"
_symmetry_group_IT_number 38
_symmetry_cell_setting 'orthorhombic'
loop_
_space_group_symop_operation_xyz
x,y,z
-x,-y,z
-x,y,z
x,-y,z
x,1/2+y,1/2+z
-x,1/2-y,1/2+z
-x,1/2+y,1/2+z
x,1/2-y,1/2+z
loop_
_atom_site_type_symbol
_atom_site_label
_atom_site_fract_x
_atom_site_fract_y
_atom_site_fract_z
Si Si1 0.672086 0.500000 0.681221
Si Si2 0.820128 0.131349 0.390135
Si Si3 0.819058 0.751644 0.021728
Si Si4 0.178926 0.631594 0.154057
Si Si5 0.324083 0.223392 0.263276
Si Si6 0.178029 0.500000 0.546406
O O1 0.500000 0.500000 0.659420
O O2 0.695992 0.391494 0.724033
O O3 0.777435 0.500000 0.620431
O O4 0.775364 0.182200 0.458916
O O5 0.750979 0.201316 0.331785
O O6 0.000000 0.136937 0.385875
O O7 0.778260 0.000000 0.385699
O O8 0.772582 0.695800 0.089098
O O9 0.000000 0.750858 0.022699
O O10 0.769192 0.881053 0.018667
O O11 0.211207 0.500000 0.148068
O O12 0.252270 0.683647 0.217268
O O13 0.000000 0.644575 0.158960
O O14 0.500000 0.243570 0.271056
O O15 0.000000 0.500000 0.540440
#
# Coordination Sequence:
#
# PCOD9359550 Si02
#       6
#     4   8   8   8   8   4
#     4  10  20  34  54  80 110 141 176 225 274 321
#     4  10  20  35  56  80 109 145 184 226 273 327
#     4   9  18  33  55  84 111 138 177 227 278 324
#     4  10  20  36  59  85 112 142 181 228 275 327
#     4  11  22  37  56  80 113 146 182 228 274 326
#     4  10  18  32  58  84 108 137 176 227 276 329
#
# _framework density 8.8183419999999995
#
# number of rings (size 3 to 8) (size 9 to 14) (size 15 to 20)
#    0.000    2.000    3.000    1.200    0.000    3.600 
#    1.800    2.000    0.000    2.400    0.000    0.000 
#    0.000    0.000    0.000    0.000    0.000    0.000 
#
# Total GULP energy -111572.830653 kJ/mol
# GULP energy per Si atom -5578.641533 kJ/mol
# Density = 0.879827 g / cm^3
# Si number density = 8.818342 Si / 1000 Ang^3
#
#
#
# Elastic Constant Matrix: (Units=GPa)
#
#
# Indices 1 2 3 4 5 6 
#
# 1 21.8743 30.9814 30.6761 0.0000 0.0000 0.0000
# 2 30.9814 129.0554 68.6866 0.0000 0.0000 0.0000
# 3 30.6761 68.6866 149.3728 0.0000 0.0000 0.0000
# 4 0.0000 0.0000 0.0000 31.9577 0.0000 0.0000
# 5 0.0000 0.0000 0.0000 0.0000 9.8098 0.0000
# 6 0.0000 0.0000 0.0000 0.0000 0.0000 17.4694
#
#
#
# Elastic Compliance Matrix: (Units=1/GPa)
#
#
# Indices 1 2 3 4 5 6 
#
# 1 0.079034 -0.013683 -0.009939 0.000000 0.000000 0.000000
# 2 -0.013683 0.012629 -0.002997 0.000000 0.000000 0.000000
# 3 -0.009939 -0.002997 0.010114 0.000000 0.000000 0.000000
# 4 0.000000 0.000000 0.000000 0.031291 0.000000 0.000000
# 5 0.000000 0.000000 0.000000 0.000000 0.101939 0.000000
# 6 0.000000 0.000000 0.000000 0.000000 0.000000 0.057243
#
#
# Mechanical properties :
#
#
# Convention : Reuss Voigt Hill
#
# Bulk Modulus (GPa) = 20.60238 62.33228 41.46733
# Shear Modulus (GPa) = 13.82485 23.17795 18.50140
#
# Velocity S-wave (km/s) = 2.80280 3.62911 3.24239
# Velocity P-wave (km/s) = 4.70969 7.27872 6.13029
#
# Compressibility (1/GPa) = 0.04853809
#
# Stress axis : x y z
#
# Youngs Moduli (GPa) = 12.65278 79.18587 98.87460
#
# Poissons Ratio (x) = 1.08354 0.98269
# Poissons Ratio (y) = 0.17313 0.29632
# Poissons Ratio (z) = 0.12575 0.23731
#
# Static dielectric constant tensor:
#      x y z
#    x 1.590070 0.000000 0.000000 
#    y 0.000000 1.611570 0.000000 
#    z 0.000000 0.000000 1.572560 
# 
# From -- ./inp_files/19493.got.cif
#   From: 2010.05.17/outbox.ucp.g08.bks.cvg/sg38_10_cif.got.tgz:19493.got - 2010.06.11 10:39:43.
