data_PCOD9359447
_publ_section_title
;
Structure prediction by ZEFSAII (Michael W. Deem and Ramdas Pophale) SiO2 
 PCOD9359447
Probable space group: A M M 2
;
_chemical_formula_sum "Si O2"
_cell_formula_units_Z 48
_cell_length_a 21.093112
_cell_length_b 7.787687
_cell_length_c 14.862403
_cell_angle_alpha 90.000000
_cell_angle_beta 90.000000
_cell_angle_gamma 90.000000
_cell_volume 2441.395727
_symmetry_space_group_name_H-M "A M M 2"
_symmetry_group_IT_number 38
_symmetry_cell_setting 'orthorhombic'
loop_
_space_group_symop_operation_xyz
x,y,z
-x,-y,z
-x,y,z
x,-y,z
x,1/2+y,1/2+z
-x,1/2-y,1/2+z
-x,1/2+y,1/2+z
x,1/2-y,1/2+z
loop_
_atom_site_type_symbol
_atom_site_label
_atom_site_fract_x
_atom_site_fract_y
_atom_site_fract_z
Si Si1 0.423801 0.500000 0.556360
Si Si2 0.000000 0.208658 0.316563
Si Si3 0.865732 0.697189 0.747413
Si Si4 0.777020 0.303516 0.402238
Si Si5 0.369301 0.803800 0.894204
Si Si6 0.423921 0.000000 0.269693
Si Si7 0.860001 0.303889 0.062155
Si Si8 0.000000 0.707321 0.026454
O O1 0.500000 0.500000 0.554625
O O2 0.399292 0.338885 0.494242
O O3 0.403607 0.500000 0.662532
O O4 0.934846 0.270141 0.273089
O O5 0.000000 0.250880 0.421350
O O6 0.000000 0.000000 0.311859
O O7 0.873604 0.500000 0.719722
O O8 0.820164 0.702513 0.832403
O O9 0.837301 0.797017 0.663904
O O10 0.778024 0.500000 0.371803
O O11 0.703992 0.250369 0.406446
O O12 0.812307 0.291431 0.497203
O O13 0.401128 0.666581 0.827441
O O14 0.371889 0.000000 0.855422
O O15 0.500000 0.000000 0.268399
O O16 0.863759 0.500000 0.029099
O O17 0.932169 0.232000 0.062890
O O18 0.000000 0.500000 0.038605
#
# Coordination Sequence:
#
# PCOD9359447 Si02
#       8
#     4   4   8   8   8   4   8   4
#     4   9  20  44  69 101 139 170 216 269 312 377
#     4   9  17  34  56  79 106 146 198 253 318 375
#     4  11  22  37  59  83 114 153 199 257 313 375
#     4  11  23  41  59  85 120 159 204 248 302 367
#     4   9  23  43  65  95 141 176 214 271 317 377
#     4  11  22  40  75 107 133 178 222 259 324 387
#     4  11  22  37  59  83 115 154 200 255 315 378
#     4   9  17  34  56  79 108 146 196 257 316 371
#
# _framework density 19.660885
#
# number of rings (size 3 to 8) (size 9 to 14) (size 15 to 20)
#    0.500    1.333    1.667    2.500    2.333    1.333 
#    1.500    3.333    0.000    0.000    0.000    0.000 
#    0.000    0.000    0.000    0.000    0.000    0.000 
#
# Total GULP energy -133756.165347 kJ/mol
# GULP energy per Si atom -5573.173556 kJ/mol
# Density = 1.961614 g / cm^3
# Si number density = 19.660885 Si / 1000 Ang^3
#
#
#
# Elastic Constant Matrix: (Units=GPa)
#
#
# Indices 1 2 3 4 5 6 
#
# 1 117.4681 28.8700 56.5923 0.0000 0.0000 0.0000
# 2 28.8700 66.0918 32.2634 0.0000 0.0000 0.0000
# 3 56.5923 32.2634 149.6395 0.0000 0.0000 0.0000
# 4 0.0000 0.0000 0.0000 27.2934 0.0000 0.0000
# 5 0.0000 0.0000 0.0000 0.0000-1358.4662 0.0000
# 6 0.0000 0.0000 0.0000 0.0000 0.0000 18.0336
#
#
#
# Elastic Compliance Matrix: (Units=1/GPa)
#
#
# Indices 1 2 3 4 5 6 
#
# 1 0.010945 -0.003085 -0.003474 0.000000 0.000000 0.000000
# 2 -0.003085 0.017780 -0.002667 0.000000 0.000000 0.000000
# 3 -0.003474 -0.002667 0.008572 0.000000 0.000000 0.000000
# 4 0.000000 0.000000 0.000000 0.036639 0.000000 0.000000
# 5 0.000000 0.000000 0.000000 0.000000 -0.000736 0.000000
# 6 0.000000 0.000000 0.000000 0.000000 0.000000 0.055452
#
#
# Mechanical properties :
#
#
# Convention : Reuss Voigt Hill
#
# Bulk Modulus (GPa) = 53.06560 63.18341 58.12450
# Shear Modulus (GPa) = 32.59789 -248.26291 -107.83251
#
# Velocity S-wave (km/s) = 4.07628 -11.24929 -7.41386
# Velocity P-wave (km/s) = 7.01454 11.68428 6.60752
#
# Compressibility (1/GPa) = 0.01884460
#
# Stress axis : x y z
#
# Youngs Moduli (GPa) = 91.36718 56.24352 116.66466
#
# Poissons Ratio (x) = 0.17351 0.40530
# Poissons Ratio (y) = 0.28186 0.31112
# Poissons Ratio (z) = 0.31742 0.14999
#
# Static dielectric constant tensor:
#      x y z
#    x 1.707000 0.000000 0.000000 
#    y 0.000000 1.703510 0.000000 
#    z 0.000000 0.000000 1.681170 
# 
# From -- ./inp_files/15091.got.cif
#   From: 2010.05.17/outbox.cif.g08.bks.cpg/sg38_8_cif.got.tgz:15091.got - 2010.06.03 18:07:57.
