data_PCOD9359169
_publ_section_title
;
Structure prediction by ZEFSAII (Michael W. Deem and Ramdas Pophale) SiO2 
 PCOD9359169
Probable space group: A M M 2
;
_chemical_formula_sum "Si O2"
_cell_formula_units_Z 34
_cell_length_a 7.481843
_cell_length_b 23.106564
_cell_length_c 8.777796
_cell_angle_alpha 90.000000
_cell_angle_beta 90.000000
_cell_angle_gamma 90.000000
_cell_volume 1517.502600
_symmetry_space_group_name_H-M "A M M 2"
_symmetry_group_IT_number 38
_symmetry_cell_setting 'orthorhombic'
loop_
_space_group_symop_operation_xyz
x,y,z
-x,-y,z
-x,y,z
x,-y,z
x,1/2+y,1/2+z
-x,1/2-y,1/2+z
-x,1/2+y,1/2+z
x,1/2-y,1/2+z
loop_
_atom_site_type_symbol
_atom_site_label
_atom_site_fract_x
_atom_site_fract_y
_atom_site_fract_z
Si Si1 0.214220 0.562874 0.692180
Si Si2 0.208710 0.414668 0.343043
Si Si3 0.711749 0.180872 0.362016
Si Si4 0.283040 0.295591 0.200747
Si Si5 0.500000 0.500000 0.220707
O O1 0.280574 0.500000 0.746849
O O2 0.268714 0.571067 0.515978
O O3 0.263667 0.617615 0.792678
O O4 0.000000 0.561240 0.690851
O O5 0.225440 0.346428 0.313851
O O6 0.342036 0.449542 0.234100
O O7 0.000000 0.430971 0.325640
O O8 0.500000 0.190074 0.372659
O O9 0.779685 0.232500 0.254403
O O10 0.782974 0.188317 0.532371
O O11 0.500000 0.295540 0.199215
#
# Coordination Sequence:
#
# PCOD9359169 Si02
#       5
#     8   8   8   8   2
#     4  10  22  40  59  89 127 167 215 262 316 384
#     4  11  23  40  66  97 129 169 216 260 317 383
#     4  10  22  38  65  92 126 167 217 266 323 382
#     4  10  21  41  62  94 126 166 215 269 323 380
#     4  12  22  40  68  92 136 168 212 262 316 378
#
# _framework density 22.405234
#
# number of rings (size 3 to 8) (size 9 to 14) (size 15 to 20)
#    0.000    1.647    2.353    1.765    1.647    4.235 
#    2.118    0.000    0.000    0.000    0.000    0.000 
#    0.000    0.000    0.000    0.000    0.000    0.000 
#
# Total GULP energy -94782.385313 kJ/mol
# GULP energy per Si atom -5575.434430 kJ/mol
# Density = 2.235424 g / cm^3
# Si number density = 22.405234 Si / 1000 Ang^3
#
#
#
# Elastic Constant Matrix: (Units=GPa)
#
#
# Indices 1 2 3 4 5 6 
#
# 1 99.4412 5.8896 2.7770 0.0000 0.0000 0.0000
# 2 5.8896 213.7399 60.2530 0.0000 0.0000 0.0000
# 3 2.7770 60.2530 56.0589 0.0000 0.0000 0.0000
# 4 0.0000 0.0000 0.0000 24.8731 0.0000 0.0000
# 5 0.0000 0.0000 0.0000 0.0000 -29.0539 0.0000
# 6 0.0000 0.0000 0.0000 0.0000 0.0000 24.0279
#
#
#
# Elastic Compliance Matrix: (Units=1/GPa)
#
#
# Indices 1 2 3 4 5 6 
#
# 1 0.010076 -0.000196 -0.000288 0.000000 0.000000 0.000000
# 2 -0.000196 0.006716 -0.007209 0.000000 0.000000 0.000000
# 3 -0.000288 -0.007209 0.025601 0.000000 0.000000 0.000000
# 4 0.000000 0.000000 0.000000 0.040204 0.000000 0.000000
# 5 0.000000 0.000000 0.000000 0.000000 -0.034419 0.000000
# 6 0.000000 0.000000 0.000000 0.000000 0.000000 0.041618
#
#
# Mechanical properties :
#
#
# Convention : Reuss Voigt Hill
#
# Bulk Modulus (GPa) = 37.02849 56.34214 46.68531
# Shear Modulus (GPa) = 43.78842 23.99077 33.88960
#
# Velocity S-wave (km/s) = 4.42564 3.27581 3.89340
# Velocity P-wave (km/s) = 6.53281 6.28565 6.41042
#
# Compressibility (1/GPa) = 0.02700623
#
# Stress axis : x y z
#
# Youngs Moduli (GPa) = 99.24702 148.89399 39.06110
#
# Poissons Ratio (x) = 0.02925 0.01125
# Poissons Ratio (y) = 0.01950 0.28159
# Poissons Ratio (z) = 0.02858 1.07337
#
# Static dielectric constant tensor:
#      x y z
#    x 1.923780 0.000000 0.000000 
#    y 0.000000 1.831090 0.000000 
#    z 0.000000 0.000000 1.826790 
# 
# From -- ./inp_files/3138.got.cif
#   From: 2010.05.17/outbox.cif.g08.bks.cpg/sg38_2_cif.got.tgz:3138.got - 2010.06.03 18:07:57.
