data_PCOD9359508
_publ_section_title
;
Structure prediction by ZEFSAII (Michael W. Deem and Ramdas Pophale) SiO2 
 PCOD9359508
Probable space group: A M M 2
;
_chemical_formula_sum "Si O2"
_cell_formula_units_Z 64
_cell_length_a 7.422599
_cell_length_b 24.131658
_cell_length_c 14.541303
_cell_angle_alpha 90.000000
_cell_angle_beta 90.000000
_cell_angle_gamma 90.000000
_cell_volume 2604.632676
_symmetry_space_group_name_H-M "A M M 2"
_symmetry_group_IT_number 38
_symmetry_cell_setting 'orthorhombic'
loop_
_space_group_symop_operation_xyz
x,y,z
-x,-y,z
-x,y,z
x,-y,z
x,1/2+y,1/2+z
-x,1/2-y,1/2+z
-x,1/2+y,1/2+z
x,1/2-y,1/2+z
loop_
_atom_site_type_symbol
_atom_site_label
_atom_site_fract_x
_atom_site_fract_y
_atom_site_fract_z
Si Si1 0.795851 0.079271 0.928170
Si Si2 0.706909 0.201429 0.954891
Si Si3 0.216569 0.939736 0.525627
Si Si4 0.713106 0.183614 0.498663
Si Si5 0.779815 0.439682 0.635239
Si Si6 0.219460 0.179665 0.168622
Si Si7 0.796066 0.705815 0.207366
Si Si8 0.222513 0.586166 0.233922
O O1 0.718774 0.060158 0.830538
O O2 0.000000 0.059109 0.932347
O O3 0.803026 0.146147 0.921985
O O4 0.717277 0.065123 0.028262
O O5 0.500000 0.197878 0.925305
O O6 0.776105 0.264010 0.937320
O O7 0.718548 0.192753 0.065079
O O8 0.263494 0.881410 0.476416
O O9 0.275094 0.935786 0.633357
O O10 0.000000 0.940525 0.525847
O O11 0.277868 0.000000 0.489169
O O12 0.500000 0.192422 0.510616
O O13 0.803016 0.194228 0.597531
O O14 0.725619 0.500000 0.671362
O O15 0.724146 0.383478 0.687591
O O16 0.000000 0.438277 0.633977
O O17 0.284514 0.233576 0.223804
O O18 0.000000 0.181417 0.169733
O O19 0.708643 0.649302 0.238794
O O20 0.000000 0.706871 0.242862
O O21 0.000000 0.585125 0.233733
#
# Coordination Sequence:
#
# PCOD9359508 Si02
#       8
#     8   8   8   8   8   8   8   8
#     4   9  16  25  37  52  71  98 128 153 179 214
#     4   9  16  25  37  53  72  93 119 155 194 225
#     4   9  17  28  41  57  78 104 131 157 185 220
#     4   9  16  25  38  55  73  94 121 155 194 229
#     4   8  13  20  31  49  70  90 115 145 171 199
#     4   8  13  22  37  53  67  88 117 148 184 222
#     4   8  13  23  38  53  69  89 116 152 189 223
#     4   8  14  24  37  53  72  94 123 155 180 207
#
# _framework density 24.571601000000001
#
# number of rings (size 3 to 8) (size 9 to 14) (size 15 to 20)
#    0.000    3.500    0.000    2.250    0.000    2.250 
#    0.000    5.000    0.000    6.000    0.000    0.000 
#    0.000    1.000    0.000    7.000    0.000    5.000 
#
# Total GULP energy -178169.686229 kJ/mol
# GULP energy per Si atom -5567.802695 kJ/mol
# Density = 2.451568 g / cm^3
# Si number density = 24.571601 Si / 1000 Ang^3
#
#
#
# Elastic Constant Matrix: (Units=GPa)
#
#
# Indices 1 2 3 4 5 6 
#
# 1 93.1364 14.0123 -1.6628 0.0000 0.0000 0.0000
# 2 14.0123 280.6369 6.6872 0.0000 0.0000 0.0000
# 3 -1.6628 6.6872 20.0770 0.0000 0.0000 0.0000
# 4 0.0000 0.0000 0.0000 -13.1283 0.0000 0.0000
# 5 0.0000 0.0000 0.0000 0.0000 16.0412 0.0000
# 6 0.0000 0.0000 0.0000 0.0000 0.0000 -59.0038
#
#
#
# Elastic Compliance Matrix: (Units=1/GPa)
#
#
# Indices 1 2 3 4 5 6 
#
# 1 0.010842 -0.000567 0.001087 0.000000 0.000000 0.000000
# 2 -0.000567 0.003622 -0.001253 0.000000 0.000000 0.000000
# 3 0.001087 -0.001253 0.050316 0.000000 0.000000 0.000000
# 4 0.000000 0.000000 0.000000 -0.076171 0.000000 0.000000
# 5 0.000000 0.000000 0.000000 0.000000 0.062339 0.000000
# 6 0.000000 0.000000 0.000000 0.000000 0.000000 -0.016948
#
#
# Mechanical properties :
#
#
# Convention : Reuss Voigt Hill
#
# Bulk Modulus (GPa) = 15.79489 47.99152 31.89321
# Shear Modulus (GPa) = 88.38616 13.76941 51.07778
#
# Velocity S-wave (km/s) = 6.00408 2.36980 4.56426
# Velocity P-wave (km/s) = 7.38291 5.20208 6.38627
#
# Compressibility (1/GPa) = 0.06331160
#
# Stress axis : x y z
#
# Youngs Moduli (GPa) = 92.23662 276.12805 19.87455
#
# Poissons Ratio (x) = 0.15663 -0.02160
# Poissons Ratio (y) = 0.05232 0.02491
# Poissons Ratio (z) = -0.10025 0.34605
#
# Static dielectric constant tensor:
#      x y z
#    x 1.948960 0.000000 0.000000 
#    y 0.000000 2.034760 0.000000 
#    z 0.000000 0.000000 1.947240 
# 
# From -- ./inp_files/20278.got.cif
#   From: 2010.05.17/outbox.cif.g08.bks.cpg/sg38_11_cif.got.tgz:20278.got - 2010.06.03 18:07:57.
