data_PCOD9359561
_publ_section_title
;
Structure prediction by ZEFSAII (Michael W. Deem and Ramdas Pophale) SiO2 
 PCOD9359561
Probable space group: A M M 2
;
_chemical_formula_sum "Si O2"
_cell_formula_units_Z 32
_cell_length_a 9.000000
_cell_length_b 24.000000
_cell_length_c 15.000000
_cell_angle_alpha 90.000000
_cell_angle_beta 90.000000
_cell_angle_gamma 90.000000
_cell_volume 3240.000000
_symmetry_space_group_name_H-M "A M M 2"
_symmetry_group_IT_number 38
_symmetry_cell_setting 'orthorhombic'
loop_
_space_group_symop_operation_xyz
x,y,z
-x,-y,z
-x,y,z
x,-y,z
x,1/2+y,1/2+z
-x,1/2-y,1/2+z
-x,1/2+y,1/2+z
x,1/2-y,1/2+z
loop_
_atom_site_type_symbol
_atom_site_label
_atom_site_fract_x
_atom_site_fract_y
_atom_site_fract_z
Si Si1 0.327211 0.777034 0.346070
Si Si2 0.322393 0.622581 0.541050
Si Si3 0.327847 0.936172 0.213670
Si Si4 0.819513 0.941102 0.543109
Si Si5 0.825710 0.381124 0.872681
Si Si6 0.674303 0.150372 0.855543
Si Si7 0.822734 0.779335 0.152591
Si Si8 0.821320 0.343788 0.165250
O O1 0.500000 0.786562 0.327417
O O2 0.260168 0.826303 0.403603
O O3 0.311514 0.715307 0.383954
O O4 0.237222 0.781138 0.253664
O O5 0.500000 0.631236 0.535328
O O6 0.295134 0.572821 0.609739
O O7 0.270036 0.615567 0.439941
O O8 0.251398 0.675458 0.589842
O O9 0.500000 0.919445 0.228166
O O10 0.224460 0.899250 0.275202
O O11 0.310695 0.000000 0.238008
O O12 0.787074 0.930275 0.440246
O O13 0.762275 0.891390 0.601940
O O14 0.000000 0.940865 0.550002
O O15 0.762559 0.000000 0.574387
O O16 0.000000 0.370384 0.875920
O O17 0.500000 0.139391 0.838568
O O18 0.761352 0.146273 0.764059
O O19 0.781749 0.716435 0.126658
O O20 0.000000 0.786414 0.152227
O O21 0.000000 0.345202 0.168932
#
# Coordination Sequence:
#
# PCOD9359561 Si02
#       8
#     8   8   8   8   8   8   8   8
#     4  10  19  33  51  75 110 147 180 215 262 323
#     4  10  20  35  54  77 109 146 181 217 267 325
#     4  10  21  37  56  77 107 147 185 221 266 324
#     4   9  19  36  56  78 107 144 183 223 273 326
#     4  11  21  33  54  82 110 142 180 225 273 325
#     4   9  20  36  54  78 110 147 182 219 269 326
#     4  10  19  31  51  80 109 138 175 220 270 319
#     4   9  19  36  56  79 106 139 181 228 273 319
#
# _framework density 9.8765429999999999
#
# number of rings (size 3 to 8) (size 9 to 14) (size 15 to 20)
#    0.000    2.250    1.250    1.500    1.750    2.250 
#    0.000    1.875    0.000    2.625    0.000    0.000 
#    0.000    0.000    0.000    0.000    0.000    0.000 
#
# Total GULP energy -178276.766306 kJ/mol
# GULP energy per Si atom -5571.148947 kJ/mol
# Density = 0.985406 g / cm^3
# Si number density = 9.876543 Si / 1000 Ang^3
#
#
#
# Elastic Constant Matrix: (Units=GPa)
#
#
# Indices 1 2 3 4 5 6 
#
# 1 -14.9764 12.7476 -3.9261 0.0000 0.0000 0.0000
# 2 12.7476 59.9973 10.2482 0.0000 0.0000 0.0000
# 3 -3.9261 10.2482 37.0244 0.0000 0.0000 0.0000
# 4 0.0000 0.0000 0.0000 16.3667 0.0000 0.0000
# 5 0.0000 0.0000 0.0000 0.0000 13.2884 0.0000
# 6 0.0000 0.0000 0.0000 0.0000 0.0000 9.9011
#
#
#
# Elastic Compliance Matrix: (Units=1/GPa)
#
#
# Indices 1 2 3 4 5 6 
#
# 1 -0.053359 0.012914 -0.009233 0.000000 0.000000 0.000000
# 2 0.012914 0.014369 -0.002608 0.000000 0.000000 0.000000
# 3 -0.009233 -0.002608 0.026752 0.000000 0.000000 0.000000
# 4 0.000000 0.000000 0.000000 0.061100 0.000000 0.000000
# 5 0.000000 0.000000 0.000000 0.000000 0.075254 0.000000
# 6 0.000000 0.000000 0.000000 0.000000 0.000000 0.100999
#
#
# Mechanical properties :
#
#
# Convention : Reuss Voigt Hill
#
# Bulk Modulus (GPa) = -99.09962 13.35387 -42.87288
# Shear Modulus (GPa) = 22.76828 12.10960 17.43894
#
# Velocity S-wave (km/s) = 3.39874 2.47867 2.97450
# Velocity P-wave (km/s) = 5.90560 3.86869 3.15510
#
# Compressibility (1/GPa) = -0.01009086
#
# Stress axis : x y z
#
# Youngs Moduli (GPa) = -18.74103 69.59442 37.38042
#
# Poissons Ratio (x) = -0.89876 0.34513
# Poissons Ratio (y) = 0.24203 0.09748
# Poissons Ratio (z) = -0.17303 0.18149
#
# Static dielectric constant tensor:
#      x y z
#    x 1.665440 0.000000 0.000000 
#    y 0.000000 1.756660 0.000000 
#    z 0.000000 0.000000 1.695540 
# 
# From -- ./inp_files/12844.got.cif
#   From: 2010.05.17/outbox.ucp.g08.bks.cvg/sg38_7_cif.got.tgz:12844.got - 2010.06.11 10:39:43.
