data_PCOD9359221
_publ_section_title
;
Structure prediction by ZEFSAII (Michael W. Deem and Ramdas Pophale) SiO2 
 PCOD9359221
Probable space group: A M M 2
;
_chemical_formula_sum "Si O2"
_cell_formula_units_Z 48
_cell_length_a 8.869518
_cell_length_b 20.825871
_cell_length_c 14.763440
_cell_angle_alpha 90.000000
_cell_angle_beta 90.000000
_cell_angle_gamma 90.000000
_cell_volume 2727.035282
_symmetry_space_group_name_H-M "A M M 2"
_symmetry_group_IT_number 38
_symmetry_cell_setting 'orthorhombic'
loop_
_space_group_symop_operation_xyz
x,y,z
-x,-y,z
-x,y,z
x,-y,z
x,1/2+y,1/2+z
-x,1/2-y,1/2+z
-x,1/2+y,1/2+z
x,1/2-y,1/2+z
loop_
_atom_site_type_symbol
_atom_site_label
_atom_site_fract_x
_atom_site_fract_y
_atom_site_fract_z
Si Si1 0.319827 0.073618 0.041430
Si Si2 0.319629 0.809430 0.544004
Si Si3 0.681136 0.426830 0.915428
Si Si4 0.180398 0.772886 0.729653
Si Si5 0.180221 0.620691 0.727932
Si Si6 0.180937 0.809702 0.933637
O O1 0.500000 0.081924 0.041091
O O2 0.257918 0.088249 0.141784
O O3 0.284821 0.000000 0.017337
O O4 0.245041 0.124781 0.974476
O O5 0.500000 0.802949 0.541943
O O6 0.277243 0.874501 0.491112
O O7 0.262272 0.807069 0.646669
O O8 0.246864 0.749419 0.491252
O O9 0.500000 0.422913 0.902401
O O10 0.718347 0.500000 0.940921
O O11 0.760078 0.408702 0.821301
O O12 0.215389 0.696809 0.726821
O O13 0.221428 0.799497 0.828485
O O14 0.000000 0.779261 0.718431
O O15 0.000000 0.613306 0.721774
O O16 0.000000 0.808752 0.941839
#
# Coordination Sequence:
#
# PCOD9359221 Si02
#       6
#     8   8   8   8   8   8
#     4  11  24  40  58  85 120 154 191 237 288 342
#     4  11  22  36  60  87 114 152 195 238 284 341
#     4  10  22  39  57  83 120 157 193 237 288 341
#     4  10  22  38  58  86 118 150 188 239 289 336
#     4  11  21  35  58  88 120 153 190 235 288 344
#     4  11  22  39  61  84 115 152 192 239 286 339
#
# _framework density 17.601531999999999
#
# number of rings (size 3 to 8) (size 9 to 14) (size 15 to 20)
#    0.000    1.333    3.333    2.500    0.000    6.333 
#    0.000    0.833    0.000    3.000    0.000    0.000 
#    0.000    0.000    0.000    0.000    0.000    0.000 
#
# Total GULP energy -134145.475595 kJ/mol
# GULP energy per Si atom -5589.394816 kJ/mol
# Density = 1.756147 g / cm^3
# Si number density = 17.601532 Si / 1000 Ang^3
#
#
#
# Elastic Constant Matrix: (Units=GPa)
#
#
# Indices 1 2 3 4 5 6 
#
# 1 43.7838 54.8859 51.2554 0.0000 0.0000 0.0000
# 2 54.8859 140.8089 77.3192 0.0000 0.0000 0.0000
# 3 51.2554 77.3192 136.3756 0.0000 0.0000 0.0000
# 4 0.0000 0.0000 0.0000 13.5203 0.0000 0.0000
# 5 0.0000 0.0000 0.0000 0.0000 32.6775 0.0000
# 6 0.0000 0.0000 0.0000 0.0000 0.0000 11.8804
#
#
#
# Elastic Compliance Matrix: (Units=1/GPa)
#
#
# Indices 1 2 3 4 5 6 
#
# 1 0.056684 -0.015096 -0.012745 0.000000 0.000000 0.000000
# 2 -0.015096 0.014333 -0.002452 0.000000 0.000000 0.000000
# 3 -0.012745 -0.002452 0.013513 0.000000 0.000000 0.000000
# 4 0.000000 0.000000 0.000000 0.073963 0.000000 0.000000
# 5 0.000000 0.000000 0.000000 0.000000 0.030602 0.000000
# 6 0.000000 0.000000 0.000000 0.000000 0.000000 0.084173
#
#
# Mechanical properties :
#
#
# Convention : Reuss Voigt Hill
#
# Bulk Modulus (GPa) = 41.76704 76.43215 59.09959
# Shear Modulus (GPa) = 14.62693 20.78281 17.70487
#
# Velocity S-wave (km/s) = 2.88584 3.43992 3.17499
# Velocity P-wave (km/s) = 5.90634 7.70034 6.86222
#
# Compressibility (1/GPa) = 0.02394233
#
# Stress axis : x y z
#
# Youngs Moduli (GPa) = 17.64176 69.77010 74.00217
#
# Poissons Ratio (x) = 1.05327 0.94316
# Poissons Ratio (y) = 0.26633 0.18147
# Poissons Ratio (z) = 0.22484 0.17110
#
# Static dielectric constant tensor:
#      x y z
#    x 1.588880 0.000000 0.000000 
#    y 0.000000 1.587450 0.000000 
#    z 0.000000 0.000000 1.569540 
# 
# From -- ./inp_files/12019.got.cif
#   From: 2010.05.17/outbox.cif.g08.bks.cpg/sg38_7_cif.got.tgz:12019.got - 2010.06.03 18:07:57.
