data_PCOD9359126
_publ_section_title
;
Structure prediction by ZEFSAII (Michael W. Deem and Ramdas Pophale) SiO2 
 PCOD9359126
Probable space group: A M M 2
;
_chemical_formula_sum "Si O2"
_cell_formula_units_Z 48
_cell_length_a 17.236137
_cell_length_b 8.765257
_cell_length_c 16.216175
_cell_angle_alpha 90.000000
_cell_angle_beta 90.000000
_cell_angle_gamma 90.000000
_cell_volume 2449.926268
_symmetry_space_group_name_H-M "A M M 2"
_symmetry_group_IT_number 38
_symmetry_cell_setting 'orthorhombic'
loop_
_space_group_symop_operation_xyz
x,y,z
-x,-y,z
-x,y,z
x,-y,z
x,1/2+y,1/2+z
-x,1/2-y,1/2+z
-x,1/2+y,1/2+z
x,1/2-y,1/2+z
loop_
_atom_site_type_symbol
_atom_site_label
_atom_site_fract_x
_atom_site_fract_y
_atom_site_fract_z
Si Si1 0.000000 0.323121 0.727010
Si Si2 0.161395 0.318448 0.284881
Si Si3 0.840505 0.817607 0.464521
Si Si4 0.314603 0.317196 0.715638
Si Si5 0.678631 0.183261 0.543163
Si Si6 0.000000 0.677020 0.529211
Si Si7 0.589326 0.185889 0.377169
O O1 0.922882 0.242256 0.759343
O O2 0.000000 0.318145 0.628068
O O3 0.000000 0.500000 0.753846
O O4 0.163230 0.500000 0.280797
O O5 0.176777 0.259657 0.377139
O O6 0.228530 0.249205 0.227976
O O7 0.769144 0.781939 0.525164
O O8 0.922595 0.757736 0.496749
O O9 0.842885 0.000000 0.453560
O O10 0.311204 0.500000 0.716140
O O11 0.346485 0.259570 0.628314
O O12 0.364959 0.266018 0.794858
O O13 0.631264 0.233045 0.461923
O O14 0.671121 0.000000 0.550549
O O15 0.000000 0.500000 0.502286
O O16 0.500000 0.234868 0.375303
O O17 0.590758 0.000000 0.377050
#
# Coordination Sequence:
#
# PCOD9359126 Si02
#       7
#     4   8   8   8   8   4   8
#     4  11  24  41  60  85 121 161 206 256 307 364
#     4  12  24  39  61  88 121 161 208 258 307 362
#     4  11  22  39  61  85 118 161 206 253 306 366
#     4  11  22  39  63  93 126 165 209 254 310 371
#     4  10  21  39  63  92 123 162 208 253 308 371
#     4  11  24  39  56  85 119 157 204 254 303 360
#     4   9  19  39  65  91 124 164 204 251 311 378
#
# _framework density 19.592427000000001
#
# number of rings (size 3 to 8) (size 9 to 14) (size 15 to 20)
#    0.000    1.333    1.667    4.500    0.000    6.000 
#    0.000    0.000    0.000    3.500    0.000    0.000 
#    0.000    0.000    0.000    0.000    0.000    0.000 
#
# Total GULP energy -134199.786883 kJ/mol
# GULP energy per Si atom -5591.657787 kJ/mol
# Density = 1.954783 g / cm^3
# Si number density = 19.592427 Si / 1000 Ang^3
#
#
#
# Elastic Constant Matrix: (Units=GPa)
#
#
# Indices 1 2 3 4 5 6 
#
# 1 126.3860 35.2301 62.1347 0.0000 0.0000 0.0000
# 2 35.2301 73.9177 47.1792 0.0000 0.0000 0.0000
# 3 62.1347 47.1792 154.3831 0.0000 0.0000 0.0000
# 4 0.0000 0.0000 0.0000 32.5607 0.0000 0.0000
# 5 0.0000 0.0000 0.0000 0.0000 10.0031 0.0000
# 6 0.0000 0.0000 0.0000 0.0000 0.0000 8.8144
#
#
#
# Elastic Compliance Matrix: (Units=1/GPa)
#
#
# Indices 1 2 3 4 5 6 
#
# 1 0.010315 -0.002816 -0.003291 0.000000 0.000000 0.000000
# 2 -0.002816 0.017575 -0.004238 0.000000 0.000000 0.000000
# 3 -0.003291 -0.004238 0.009097 0.000000 0.000000 0.000000
# 4 0.000000 0.000000 0.000000 0.030712 0.000000 0.000000
# 5 0.000000 0.000000 0.000000 0.000000 0.099969 0.000000
# 6 0.000000 0.000000 0.000000 0.000000 0.000000 0.113450
#
#
# Mechanical properties :
#
#
# Convention : Reuss Voigt Hill
#
# Bulk Modulus (GPa) = 61.35569 71.53054 66.44311
# Shear Modulus (GPa) = 16.27390 24.28517 20.27954
#
# Velocity S-wave (km/s) = 2.88518 3.52450 3.22074
# Velocity P-wave (km/s) = 6.51790 7.29050 6.91500
#
# Compressibility (1/GPa) = 0.01629841
#
# Stress axis : x y z
#
# Youngs Moduli (GPa) = 96.94499 56.89771 109.92639
#
# Poissons Ratio (x) = 0.16021 0.36177
# Poissons Ratio (y) = 0.27297 0.46584
# Poissons Ratio (z) = 0.31905 0.24112
#
# Static dielectric constant tensor:
#      x y z
#    x 1.670430 0.000000 0.000000 
#    y 0.000000 1.663200 0.000000 
#    z 0.000000 0.000000 1.690630 
# 
# From -- ./inp_files/15044.got.cif
#   From: 2010.05.17/outbox.cif.g08.bks.cpg/sg38_8_cif.got.tgz:15044.got - 2010.06.03 18:07:57.
