data_PCOD9359240
_publ_section_title
;
Structure prediction by ZEFSAII (Michael W. Deem and Ramdas Pophale) SiO2 
 PCOD9359240
Probable space group: A M M 2
;
_chemical_formula_sum "Si O2"
_cell_formula_units_Z 48
_cell_length_a 8.826133
_cell_length_b 20.758303
_cell_length_c 14.640697
_cell_angle_alpha 90.000000
_cell_angle_beta 90.000000
_cell_angle_gamma 90.000000
_cell_volume 2682.403253
_symmetry_space_group_name_H-M "A M M 2"
_symmetry_group_IT_number 38
_symmetry_cell_setting 'orthorhombic'
loop_
_space_group_symop_operation_xyz
x,y,z
-x,-y,z
-x,y,z
x,-y,z
x,1/2+y,1/2+z
-x,1/2-y,1/2+z
-x,1/2+y,1/2+z
x,1/2-y,1/2+z
loop_
_atom_site_type_symbol
_atom_site_label
_atom_site_fract_x
_atom_site_fract_y
_atom_site_fract_z
Si Si1 0.680643 0.184848 0.415450
Si Si2 0.819518 0.574847 0.040376
Si Si3 0.681785 0.426835 0.429312
Si Si4 0.318894 0.875912 0.728284
Si Si5 0.179745 0.304498 0.525646
Si Si6 0.180561 0.766807 0.233509
O O1 0.500000 0.184443 0.410776
O O2 0.740963 0.122870 0.469438
O O3 0.735428 0.247854 0.471233
O O4 0.751107 0.191011 0.314878
O O5 0.789788 0.500000 0.019917
O O6 0.757795 0.591522 0.140985
O O7 0.000000 0.585954 0.038707
O O8 0.500000 0.420211 0.440955
O O9 0.724986 0.500000 0.452123
O O10 0.713842 0.412782 0.322587
O O11 0.764195 0.372842 0.488515
O O12 0.500000 0.874478 0.715218
O O13 0.256672 0.803499 0.737389
O O14 0.208814 0.295764 0.633271
O O15 0.000000 0.297183 0.510013
O O16 0.000000 0.760004 0.245776
#
# Coordination Sequence:
#
# PCOD9359240 Si02
#       6
#     8   8   8   8   8   8
#     4  12  24  39  63  90 120 158 202 252 303 360
#     4  11  24  41  61  88 124 164 204 250 306 365
#     4  10  22  39  59  87 124 161 198 245 300 355
#     4  11  21  35  60  92 125 160 199 246 302 360
#     4  11  23  39  62  88 119 159 201 247 296 357
#     4  11  23  39  61  90 123 157 202 251 298 354
#
# _framework density 17.894400000000001
#
# number of rings (size 3 to 8) (size 9 to 14) (size 15 to 20)
#    0.000    1.000    3.333    4.000    0.000    5.000 
#    0.000    0.833    0.000    1.000    0.000    0.000 
#    0.000    0.000    0.000    0.000    0.000    0.000 
#
# Total GULP energy -134229.262637 kJ/mol
# GULP energy per Si atom -5592.885943 kJ/mol
# Density = 1.785367 g / cm^3
# Si number density = 17.894400 Si / 1000 Ang^3
#
#
#
# Elastic Constant Matrix: (Units=GPa)
#
#
# Indices 1 2 3 4 5 6 
#
# 1 72.5045 43.9085 48.1915 0.0000 0.0000 0.0000
# 2 43.9085 97.6329 34.8907 0.0000 0.0000 0.0000
# 3 48.1915 34.8907 85.6016 0.0000 0.0000 0.0000
# 4 0.0000 0.0000 0.0000 14.5259 0.0000 0.0000
# 5 0.0000 0.0000 0.0000 0.0000 73.6456 0.0000
# 6 0.0000 0.0000 0.0000 0.0000 0.0000 28.4640
#
#
#
# Elastic Compliance Matrix: (Units=1/GPa)
#
#
# Indices 1 2 3 4 5 6 
#
# 1 0.026100 -0.007593 -0.011599 0.000000 0.000000 0.000000
# 2 -0.007593 0.014198 -0.001512 0.000000 0.000000 0.000000
# 3 -0.011599 -0.001512 0.018828 0.000000 0.000000 0.000000
# 4 0.000000 0.000000 0.000000 0.068843 0.000000 0.000000
# 5 0.000000 0.000000 0.000000 0.000000 0.013579 0.000000
# 6 0.000000 0.000000 0.000000 0.000000 0.000000 0.035132
#
#
# Mechanical properties :
#
#
# Convention : Reuss Voigt Hill
#
# Bulk Modulus (GPa) = 56.44011 56.63561 56.53786
# Shear Modulus (GPa) = 22.32217 31.91030 27.11623
#
# Velocity S-wave (km/s) = 3.53574 4.22744 3.89697
# Velocity P-wave (km/s) = 6.94822 7.45299 7.20502
#
# Compressibility (1/GPa) = 0.01771790
#
# Stress axis : x y z
#
# Youngs Moduli (GPa) = 38.31445 70.43425 53.11186
#
# Poissons Ratio (x) = 0.53480 0.61603
# Poissons Ratio (y) = 0.29092 0.08032
# Poissons Ratio (z) = 0.44440 0.10651
#
# Static dielectric constant tensor:
#      x y z
#    x 1.599580 0.000000 0.000000 
#    y 0.000000 1.583960 0.000000 
#    z 0.000000 0.000000 1.593640 
# 
# From -- ./inp_files/12024.got.cif
#   From: 2010.05.17/outbox.cif.g08.bks.cpg/sg38_7_cif.got.tgz:12024.got - 2010.06.03 18:07:57.
