data_PCOD9359856
_publ_section_title
;
Structure prediction by ZEFSAII (Michael W. Deem and Ramdas Pophale) SiO2 
 PCOD9359856
Probable space group: A B M 2
;
_chemical_formula_sum "Si O2"
_cell_formula_units_Z 56
_cell_length_a 18.496453
_cell_length_b 9.138058
_cell_length_c 19.329081
_cell_angle_alpha 90.000000
_cell_angle_beta 90.000000
_cell_angle_gamma 90.000000
_cell_volume 3267.033363
_symmetry_space_group_name_H-M "A B M 2"
_symmetry_group_IT_number 39
_symmetry_cell_setting 'orthorhombic'
loop_
_space_group_symop_operation_xyz
x,y,z
-x,-y,z
-x,1/2+y,z
x,1/2-y,z
x,1/2+y,1/2+z
-x,1/2-y,1/2+z
-x,y,1/2+z
x,-y,1/2+z
loop_
_atom_site_type_symbol
_atom_site_label
_atom_site_fract_x
_atom_site_fract_y
_atom_site_fract_z
Si Si1 0.304681 0.574525 0.805180
Si Si2 0.075534 0.421990 0.129516
Si Si3 0.758240 0.576378 0.933925
Si Si4 0.704298 0.079231 0.590611
Si Si5 0.921164 0.423337 0.465942
Si Si6 0.201837 0.922113 0.200747
Si Si7 0.423452 0.577509 0.691856
O O1 0.302924 0.750000 0.806512
O O2 0.293333 0.508765 0.880921
O O3 0.237434 0.508140 0.763501
O O4 0.373882 0.530322 0.757760
O O5 0.074240 0.250000 0.144354
O O6 0.095216 0.438215 0.048216
O O7 0.126532 0.507497 0.181187
O O8 0.000000 0.500000 0.135805
O O9 0.758269 0.750000 0.917704
O O10 0.723780 0.561149 0.010571
O O11 0.843781 0.528725 0.932320
O O12 0.724280 0.250000 0.608889
O O13 0.623773 0.058643 0.621491
O O14 0.750181 0.963961 0.634136
O O15 0.930369 0.250000 0.451587
O O16 0.000000 0.500000 0.451885
O O17 0.199336 0.750000 0.213027
O O18 0.500000 0.500000 0.689373
O O19 0.435252 0.750000 0.699969
#
# Coordination Sequence:
#
# PCOD9359856 Si02
#       7
#     8   8   8   8   8   8   8
#     4  10  22  38  55  78 109 145 181 224 274 323
#     4  10  18  31  49  74 106 140 178 228 280 324
#     4  10  19  35  56  80 110 146 184 225 274 325
#     4   9  18  35  56  79 109 141 172 218 273 318
#     4   9  18  31  50  75 106 144 181 222 273 321
#     4  11  20  32  52  78 103 137 182 225 267 322
#     4   9  19  36  59  82 108 141 177 218 272 329
#
# _framework density 17.140933
#
# number of rings (size 3 to 8) (size 9 to 14) (size 15 to 20)
#    0.000    2.286    1.429    3.000    0.000    4.571 
#    0.000    1.429    0.000    5.143    0.000    0.000 
#    0.000    0.000    0.000    0.000    0.000    0.000 
#
# Total GULP energy -155898.717984 kJ/mol
# GULP energy per Si atom -5567.811357 kJ/mol
# Density = 1.710192 g / cm^3
# Si number density = 17.140933 Si / 1000 Ang^3
#
#
#
# Elastic Constant Matrix: (Units=GPa)
#
#
# Indices 1 2 3 4 5 6 
#
# 1 89.7019 30.1521 33.8686 0.0000 0.0000 0.0000
# 2 30.1521 42.3050 31.3070 0.0000 0.0000 0.0000
# 3 33.8686 31.3070 60.8143 0.0000 0.0000 0.0000
# 4 0.0000 0.0000 0.0000 -101.0252 0.0000 0.0000
# 5 0.0000 0.0000 0.0000 0.0000 15.1844 0.0000
# 6 0.0000 0.0000 0.0000 0.0000 0.0000 32.9470
#
#
#
# Elastic Compliance Matrix: (Units=1/GPa)
#
#
# Indices 1 2 3 4 5 6 
#
# 1 0.015464 -0.007509 -0.004747 0.000000 0.000000 0.000000
# 2 -0.007509 0.041831 -0.017353 0.000000 0.000000 0.000000
# 3 -0.004747 -0.017353 0.028020 0.000000 0.000000 0.000000
# 4 0.000000 0.000000 0.000000 -0.009899 0.000000 0.000000
# 5 0.000000 0.000000 0.000000 0.000000 0.065857 0.000000
# 6 0.000000 0.000000 0.000000 0.000000 0.000000 0.030352
#
#
# Mechanical properties :
#
#
# Convention : Reuss Voigt Hill
#
# Bulk Modulus (GPa) = 38.31598 42.60850 40.46224
# Shear Modulus (GPa) = 20.87309 -4.07921 8.39694
#
# Velocity S-wave (km/s) = 3.49339 -1.54434 2.21572
# Velocity P-wave (km/s) = 6.21882 4.66173 5.49570
#
# Compressibility (1/GPa) = 0.02609877
#
# Stress axis : x y z
#
# Youngs Moduli (GPa) = 64.66487 23.90551 35.68872
#
# Poissons Ratio (x) = 0.17951 0.16940
# Poissons Ratio (y) = 0.48558 0.61929
# Poissons Ratio (z) = 0.30694 0.41482
#
# Static dielectric constant tensor:
#      x y z
#    x 1.586310 0.000000 0.000000 
#    y 0.000000 1.581400 0.000000 
#    z 0.000000 0.000000 1.630080 
# 
# From -- ./inp_files/14908.got.cif
#   From: 2010.05.17/outbox.cif.g08.bks.cpg/sg39_8_cif.got.tgz:14908.got - 2010.06.03 18:22:40.
