data_PCOD9359624
_publ_section_title
;
Structure prediction by ZEFSAII (Michael W. Deem and Ramdas Pophale) SiO2 
 PCOD9359624
Probable space group: A M M 2
;
_chemical_formula_sum "Si O2"
_cell_formula_units_Z 24
_cell_length_a 18.000000
_cell_length_b 9.000000
_cell_length_c 15.000000
_cell_angle_alpha 90.000000
_cell_angle_beta 90.000000
_cell_angle_gamma 90.000000
_cell_volume 2430.000000
_symmetry_space_group_name_H-M "A M M 2"
_symmetry_group_IT_number 38
_symmetry_cell_setting 'orthorhombic'
loop_
_space_group_symop_operation_xyz
x,y,z
-x,-y,z
-x,y,z
x,-y,z
x,1/2+y,1/2+z
-x,1/2-y,1/2+z
-x,1/2+y,1/2+z
x,1/2-y,1/2+z
loop_
_atom_site_type_symbol
_atom_site_label
_atom_site_fract_x
_atom_site_fract_y
_atom_site_fract_z
Si Si1 0.500000 0.331604 0.220940
Si Si2 0.500000 0.163373 0.384247
Si Si3 0.195672 0.678349 0.166782
Si Si4 0.348035 0.327209 0.666381
Si Si5 0.086707 0.179651 0.303968
Si Si6 0.812470 0.324268 0.961347
Si Si7 0.346617 0.331776 0.987621
O O1 0.500000 0.500000 0.188377
O O2 0.500000 0.310873 0.326336
O O3 0.575038 0.248336 0.194023
O O4 0.575286 0.165453 0.439684
O O5 0.500000 0.000000 0.336159
O O6 0.197428 0.500000 0.171562
O O7 0.274119 0.744855 0.200341
O O8 0.128814 0.744762 0.222745
O O9 0.185877 0.726924 0.063466
O O10 0.346353 0.500000 0.689256
O O11 0.346691 0.295314 0.560925
O O12 0.128244 0.236893 0.392821
O O13 0.000000 0.213058 0.306019
O O14 0.095264 0.000000 0.297825
O O15 0.827629 0.500000 0.966041
O O16 0.727078 0.308330 0.929075
O O17 0.336713 0.500000 0.028306
#
# Coordination Sequence:
#
# PCOD9359624 Si02
#       7
#     4   4   8   8   8   8   8
#     4  12  25  38  53  81 119 155 197 246 291 338
#     4  10  21  34  53  83 115 153 195 238 289 346
#     4  10  21  39  62  89 119 156 199 247 303 358
#     4  11  22  38  60  84 113 153 198 242 295 351
#     4  10  21  37  59  88 120 157 199 245 297 360
#     4   8  17  35  58  82 113 156 198 235 288 360
#     4   9  18  35  57  81 112 151 194 240 292 348
#
# _framework density 9.8765429999999999
#
# number of rings (size 3 to 8) (size 9 to 14) (size 15 to 20)
#    0.000    2.167    0.000    4.250    2.333    2.333 
#    0.000    5.833    0.000    0.000    0.000    0.000 
#    0.000    0.000    0.000    0.000    0.000    0.000 
#
# Total GULP energy -133735.471324 kJ/mol
# GULP energy per Si atom -5572.311305 kJ/mol
# Density = 0.985406 g / cm^3
# Si number density = 9.876543 Si / 1000 Ang^3
#
#
#
# Elastic Constant Matrix: (Units=GPa)
#
#
# Indices 1 2 3 4 5 6 
#
# 1 186.1416 63.3966 75.1647 0.0000 0.0000 0.0000
# 2 63.3966 66.3498 22.5529 0.0000 0.0000 0.0000
# 3 75.1647 22.5529 74.1131 0.0000 0.0000 0.0000
# 4 0.0000 0.0000 0.0000 23.1127 0.0000 0.0000
# 5 0.0000 0.0000 0.0000 0.0000 34.6221 0.0000
# 6 0.0000 0.0000 0.0000 0.0000 0.0000 28.5506
#
#
#
# Elastic Compliance Matrix: (Units=1/GPa)
#
#
# Indices 1 2 3 4 5 6 
#
# 1 0.012150 -0.008277 -0.009804 0.000000 0.000000 0.000000
# 2 -0.008277 0.022449 0.001563 0.000000 0.000000 0.000000
# 3 -0.009804 0.001563 0.022960 0.000000 0.000000 0.000000
# 4 0.000000 0.000000 0.000000 0.043266 0.000000 0.000000
# 5 0.000000 0.000000 0.000000 0.000000 0.028883 0.000000
# 6 0.000000 0.000000 0.000000 0.000000 0.000000 0.035026
#
#
# Mechanical properties :
#
#
# Convention : Reuss Voigt Hill
#
# Bulk Modulus (GPa) = 40.77675 72.09255 56.43465
# Shear Modulus (GPa) = 24.27852 28.28977 26.28415
#
# Velocity S-wave (km/s) = 3.50966 3.78851 3.65174
# Velocity P-wave (km/s) = 6.09193 7.46412 6.81266
#
# Compressibility (1/GPa) = 0.02452378
#
# Stress axis : x y z
#
# Youngs Moduli (GPa) = 82.30479 44.54589 43.55390
#
# Poissons Ratio (x) = 0.36870 0.42699
# Poissons Ratio (y) = 0.68122 -0.06807
# Poissons Ratio (z) = 0.80689 -0.06962
#
# Static dielectric constant tensor:
#      x y z
#    x 1.778990 0.000000 0.000000 
#    y 0.000000 1.685460 0.000000 
#    z 0.000000 0.000000 1.781900 
# 
# From -- ./inp_files/15011.got.cif
#   From: 2010.05.17/outbox.ucp.g08.bks.cvg/sg38_8_cif.got.tgz:15011.got - 2010.06.11 10:39:43.
