data_PCOD9359293
_publ_section_title
;
Structure prediction by ZEFSAII (Michael W. Deem and Ramdas Pophale) SiO2 
 PCOD9359293
Probable space group: A M M 2
;
_chemical_formula_sum "Si O2"
_cell_formula_units_Z 34
_cell_length_a 17.589977
_cell_length_b 9.905659
_cell_length_c 9.488470
_cell_angle_alpha 90.000000
_cell_angle_beta 90.000000
_cell_angle_gamma 90.000000
_cell_volume 1653.273992
_symmetry_space_group_name_H-M "A M M 2"
_symmetry_group_IT_number 38
_symmetry_cell_setting 'orthorhombic'
loop_
_space_group_symop_operation_xyz
x,y,z
-x,-y,z
-x,y,z
x,-y,z
x,1/2+y,1/2+z
-x,1/2-y,1/2+z
-x,1/2+y,1/2+z
x,1/2-y,1/2+z
loop_
_atom_site_type_symbol
_atom_site_label
_atom_site_fract_x
_atom_site_fract_y
_atom_site_fract_z
Si Si1 0.411783 0.652515 0.971300
Si Si2 0.673309 0.343188 0.265698
Si Si3 0.818358 0.152585 0.289268
Si Si4 0.000000 0.500000 0.407391
Si Si5 0.083468 0.246744 0.027354
O O1 0.500000 0.666734 0.012985
O O2 0.402629 0.500000 0.911742
O O3 0.387560 0.766837 0.862781
O O4 0.357709 0.662266 0.106700
O O5 0.682940 0.500000 0.305131
O O6 0.750705 0.259435 0.281426
O O7 0.879746 0.190358 0.169474
O O8 0.859693 0.160972 0.440355
O O9 0.790861 0.000000 0.265002
O O10 0.064608 0.619066 0.427422
O O11 0.000000 0.309817 0.058108
#
# Coordination Sequence:
#
# PCOD9359293 Si02
#       5
#     8   8   8   2   8
#     4  10  22  43  66  93 126 159 200 251 301 363
#     4  11  25  40  63  94 126 162 204 249 304 362
#     4  12  24  42  62  91 126 162 205 256 304 364
#     4   8  20  40  62  90 120 156 204 258 312 356
#     4  10  22  40  65  85 123 160 205 253 309 359
#
# _framework density 20.565255000000001
#
# number of rings (size 3 to 8) (size 9 to 14) (size 15 to 20)
#    0.706    0.706    1.176    3.529    1.647    9.412 
#    0.000    0.000    0.000    0.000    0.000    0.000 
#    0.000    0.000    0.000    0.000    0.000    0.000 
#
# Total GULP energy -94665.816728 kJ/mol
# GULP energy per Si atom -5568.577455 kJ/mol
# Density = 2.051845 g / cm^3
# Si number density = 20.565255 Si / 1000 Ang^3
#
#
#
# Elastic Constant Matrix: (Units=GPa)
#
#
# Indices 1 2 3 4 5 6 
#
# 1 65.0897 22.7075 -15.2162 0.0000 0.0000 0.0000
# 2 22.7075 126.4335 27.6150 0.0000 0.0000 0.0000
# 3 -15.2162 27.6150 28.0919 0.0000 0.0000 0.0000
# 4 0.0000 0.0000 0.0000 23.2284 0.0000 0.0000
# 5 0.0000 0.0000 0.0000 0.0000 23.0519 0.0000
# 6 0.0000 0.0000 0.0000 0.0000 0.0000 31.1670
#
#
#
# Elastic Compliance Matrix: (Units=1/GPa)
#
#
# Indices 1 2 3 4 5 6 
#
# 1 0.023497 -0.008914 0.021490 0.000000 0.000000 0.000000
# 2 -0.008914 0.013453 -0.018053 0.000000 0.000000 0.000000
# 3 0.021490 -0.018053 0.064984 0.000000 0.000000 0.000000
# 4 0.000000 0.000000 0.000000 0.043051 0.000000 0.000000
# 5 0.000000 0.000000 0.000000 0.000000 0.043380 0.000000
# 6 0.000000 0.000000 0.000000 0.000000 0.000000 0.032085
#
#
# Mechanical properties :
#
#
# Convention : Reuss Voigt Hill
#
# Bulk Modulus (GPa) = 10.99146 32.20307 21.59727
# Shear Modulus (GPa) = 19.10359 27.79006 23.44682
#
# Velocity S-wave (km/s) = 3.05113 3.68001 3.38023
# Velocity P-wave (km/s) = 4.21531 5.80944 5.07535
#
# Compressibility (1/GPa) = 0.09097969
#
# Stress axis : x y z
#
# Youngs Moduli (GPa) = 42.55905 74.33153 15.38842
#
# Poissons Ratio (x) = 0.66257 -0.33069
# Poissons Ratio (y) = 0.37936 0.27781
# Poissons Ratio (z) = -0.91458 1.34191
#
# Static dielectric constant tensor:
#      x y z
#    x 1.742800 0.000000 0.000000 
#    y 0.000000 1.714470 0.000000 
#    z 0.000000 0.000000 1.729450 
# 
# From -- ./inp_files/6616.got.cif
#   From: 2010.05.17/outbox.cif.g08.bks.cpg/sg38_4_cif.got.tgz:6616.got - 2010.06.03 18:07:57.
