data_PCOD9359317
_publ_section_title
;
Structure prediction by ZEFSAII (Michael W. Deem and Ramdas Pophale) SiO2 
 PCOD9359317
Probable space group: A M M 2
;
_chemical_formula_sum "Si O2"
_cell_formula_units_Z 56
_cell_length_a 13.912781
_cell_length_b 19.979254
_cell_length_c 9.736488
_cell_angle_alpha 90.000000
_cell_angle_beta 90.000000
_cell_angle_gamma 90.000000
_cell_volume 2706.422218
_symmetry_space_group_name_H-M "A M M 2"
_symmetry_group_IT_number 38
_symmetry_cell_setting 'orthorhombic'
loop_
_space_group_symop_operation_xyz
x,y,z
-x,-y,z
-x,y,z
x,-y,z
x,1/2+y,1/2+z
-x,1/2-y,1/2+z
-x,1/2+y,1/2+z
x,1/2-y,1/2+z
loop_
_atom_site_type_symbol
_atom_site_label
_atom_site_fract_x
_atom_site_fract_y
_atom_site_fract_z
Si Si1 0.115382 0.176252 0.684050
Si Si2 0.300419 0.921924 0.021508
Si Si3 0.111602 0.422700 0.675512
Si Si4 0.384532 0.691415 0.711230
Si Si5 0.616202 0.182073 0.526112
Si Si6 0.883875 0.199897 0.370534
Si Si7 0.281136 0.920730 0.713260
O O1 0.141814 0.198909 0.529647
O O2 0.147013 0.234320 0.788628
O O3 0.173954 0.109078 0.710573
O O4 0.000000 0.167681 0.692040
O O5 0.186062 0.915441 0.050997
O O6 0.350975 0.873869 0.129448
O O7 0.325190 0.000000 0.043232
O O8 0.322972 0.904051 0.864434
O O9 0.118634 0.500000 0.724605
O O10 0.140664 0.368479 0.790143
O O11 0.000000 0.410611 0.637105
O O12 0.500000 0.691910 0.715225
O O13 0.354838 0.755925 0.622968
O O14 0.350858 0.692150 0.869091
O O15 0.500000 0.178442 0.525977
O O16 0.659430 0.116159 0.595272
O O17 0.000000 0.201903 0.367288
O O18 0.281312 0.000000 0.697566
#
# Coordination Sequence:
#
# PCOD9359317 Si02
#       7
#     8   8   8   8   8   8   8
#     4  10  23  40  60  89 123 162 207 258 308 363
#     4  10  23  40  60  91 127 165 209 254 303 361
#     4   9  19  36  59  87 121 162 207 252 298 354
#     4  10  22  42  69  98 124 157 200 247 311 376
#     4  10  23  43  68  95 123 157 199 253 311 371
#     4   9  20  37  58  84 114 156 206 251 303 357
#     4  11  26  42  60  90 124 167 213 253 310 366
#
# _framework density 20.691524000000001
#
# number of rings (size 3 to 8) (size 9 to 14) (size 15 to 20)
#    0.000    2.143    0.000    0.857    6.000    4.286 
#    0.000    5.714    0.000    0.000    0.000    0.000 
#    0.000    0.000    0.000    0.000    0.000    0.000 
#
# Total GULP energy -156511.305083 kJ/mol
# GULP energy per Si atom -5589.689467 kJ/mol
# Density = 2.064443 g / cm^3
# Si number density = 20.691524 Si / 1000 Ang^3
#
#
#
# Elastic Constant Matrix: (Units=GPa)
#
#
# Indices 1 2 3 4 5 6 
#
# 1 50.6232 24.6072 31.6929 0.0000 0.0000 0.0000
# 2 24.6072 96.8361 83.5990 0.0000 0.0000 0.0000
# 3 31.6929 83.5990 167.9186 0.0000 0.0000 0.0000
# 4 0.0000 0.0000 0.0000 33.3990 0.0000 0.0000
# 5 0.0000 0.0000 0.0000 0.0000 30.8505 0.0000
# 6 0.0000 0.0000 0.0000 0.0000 0.0000 34.0666
#
#
#
# Elastic Compliance Matrix: (Units=1/GPa)
#
#
# Indices 1 2 3 4 5 6 
#
# 1 0.023132 -0.003699 -0.002525 0.000000 0.000000 0.000000
# 2 -0.003699 0.018702 -0.008613 0.000000 0.000000 0.000000
# 3 -0.002525 -0.008613 0.010720 0.000000 0.000000 0.000000
# 4 0.000000 0.000000 0.000000 0.029941 0.000000 0.000000
# 5 0.000000 0.000000 0.000000 0.000000 0.032414 0.000000
# 6 0.000000 0.000000 0.000000 0.000000 0.000000 0.029354
#
#
# Mechanical properties :
#
#
# Convention : Reuss Voigt Hill
#
# Bulk Modulus (GPa) = 43.70286 66.13068 54.91677
# Shear Modulus (GPa) = 27.53864 31.36180 29.45022
#
# Velocity S-wave (km/s) = 3.65213 3.89740 3.77676
# Velocity P-wave (km/s) = 6.24108 7.23067 6.75402
#
# Compressibility (1/GPa) = 0.02288180
#
# Stress axis : x y z
#
# Youngs Moduli (GPa) = 43.22979 53.46996 93.28641
#
# Poissons Ratio (x) = 0.19777 0.23550
# Poissons Ratio (y) = 0.15990 0.80346
# Poissons Ratio (z) = 0.10914 0.46053
#
# Static dielectric constant tensor:
#      x y z
#    x 1.775030 0.000000 0.000000 
#    y 0.000000 1.697880 0.000000 
#    z 0.000000 0.000000 1.725480 
# 
# From -- ./inp_files/5679.got.cif
#   From: 2010.05.17/outbox.cif.g08.bks.cpg/sg38_3_cif.got.tgz:5679.got - 2010.06.03 18:07:57.
