data_PCOD9359967
_publ_section_title
;
Structure prediction by ZEFSAII (Michael W. Deem and Ramdas Pophale) SiO2 
 PCOD9359967
Probable space group: A B M 2
;
_chemical_formula_sum "Si O2"
_cell_formula_units_Z 64
_cell_length_a 17.324472
_cell_length_b 18.900788
_cell_length_c 9.518122
_cell_angle_alpha 90.000000
_cell_angle_beta 90.000000
_cell_angle_gamma 90.000000
_cell_volume 3116.672618
_symmetry_space_group_name_H-M "A B M 2"
_symmetry_group_IT_number 39
_symmetry_cell_setting 'orthorhombic'
loop_
_space_group_symop_operation_xyz
x,y,z
-x,-y,z
-x,1/2+y,z
x,1/2-y,z
x,1/2+y,1/2+z
-x,1/2-y,1/2+z
-x,y,1/2+z
x,-y,1/2+z
loop_
_atom_site_type_symbol
_atom_site_label
_atom_site_fract_x
_atom_site_fract_y
_atom_site_fract_z
Si Si1 0.602782 0.602605 0.393370
Si Si2 0.821337 0.532665 0.888471
Si Si3 0.025862 0.165222 0.429089
Si Si4 0.336662 0.552573 0.478220
Si Si5 0.514407 0.085515 0.610548
Si Si6 0.081533 0.539533 0.117494
Si Si7 0.897174 0.166509 0.637890
Si Si8 0.746020 0.597215 0.247582
O O1 0.631553 0.521290 0.418034
O O2 0.560037 0.620758 0.538553
O O3 0.541309 0.605829 0.266146
O O4 0.680872 0.638767 0.336323
O O5 0.740368 0.575330 0.894935
O O6 0.877647 0.554429 0.764311
O O7 0.792021 0.454127 0.849242
O O8 0.866313 0.517374 0.032533
O O9 0.042141 0.250000 0.447562
O O10 0.073055 0.110897 0.526933
O O11 0.046809 0.144795 0.268891
O O12 0.939265 0.153485 0.488946
O O13 0.412720 0.598545 0.506059
O O14 0.300909 0.548932 0.635478
O O15 0.500000 0.000000 0.613418
O O16 0.000000 0.500000 0.135625
O O17 0.894402 0.250000 0.648843
O O18 0.810538 0.141491 0.666990
#
# Coordination Sequence:
#
# PCOD9359967 Si02
#       8
#     8   8   8   8   8   8   8   8
#     4   9  18  28  48  71 106 140 172 212 259 331
#     4  11  21  34  48  77 107 143 179 226 281 337
#     4  10  23  40  58  78 104 145 193 244 293 342
#     4   9  18  29  48  70 107 141 172 216 266 334
#     4   9  15  28  43  70 101 142 173 203 254 325
#     4  12  24  35  54  77 110 145 189 238 290 351
#     4  10  21  38  58  78 103 139 191 245 294 346
#     4  10  18  34  50  75 107 140 179 224 279 335
#
# _framework density 20.534721000000001
#
# number of rings (size 3 to 8) (size 9 to 14) (size 15 to 20)
#    0.000    2.000    2.500    2.250    1.750    1.000 
#    0.000    0.000    0.000    0.000    0.000    3.500 
#    0.000    0.000    0.000    0.000    0.000    0.000 
#
# Total GULP energy -178146.858240 kJ/mol
# GULP energy per Si atom -5567.089320 kJ/mol
# Density = 2.048798 g / cm^3
# Si number density = 20.534721 Si / 1000 Ang^3
#
#
#
# Elastic Constant Matrix: (Units=GPa)
#
#
# Indices 1 2 3 4 5 6 
#
# 1 107.1612 9.6316 47.5721 0.0000 0.0000 0.0000
# 2 9.6316 34.3665 15.5819 0.0000 0.0000 0.0000
# 3 47.5721 15.5819 96.8079 0.0000 0.0000 0.0000
# 4 0.0000 0.0000 0.0000 19.0016 0.0000 0.0000
# 5 0.0000 0.0000 0.0000 0.0000 46.1909 0.0000
# 6 0.0000 0.0000 0.0000 0.0000 0.0000 12.9629
#
#
#
# Elastic Compliance Matrix: (Units=1/GPa)
#
#
# Indices 1 2 3 4 5 6 
#
# 1 0.011953 -0.000741 -0.005755 0.000000 0.000000 0.000000
# 2 -0.000741 0.031435 -0.004696 0.000000 0.000000 0.000000
# 3 -0.005755 -0.004696 0.013913 0.000000 0.000000 0.000000
# 4 0.000000 0.000000 0.000000 0.052627 0.000000 0.000000
# 5 0.000000 0.000000 0.000000 0.000000 0.021649 0.000000
# 6 0.000000 0.000000 0.000000 0.000000 0.000000 0.077143
#
#
# Mechanical properties :
#
#
# Convention : Reuss Voigt Hill
#
# Bulk Modulus (GPa) = 28.63762 42.65631 35.64696
# Shear Modulus (GPa) = 20.59802 26.66778 23.63290
#
# Velocity S-wave (km/s) = 3.17058 3.60761 3.39614
# Velocity P-wave (km/s) = 5.23256 6.17827 5.72498
#
# Compressibility (1/GPa) = 0.03491911
#
# Stress axis : x y z
#
# Youngs Moduli (GPa) = 83.66160 31.81200 71.87355
#
# Poissons Ratio (x) = 0.02357 0.41360
# Poissons Ratio (y) = 0.06198 0.33749
# Poissons Ratio (z) = 0.48143 0.14938
#
# Static dielectric constant tensor:
#      x y z
#    x 1.828300 0.000000 0.000000 
#    y 0.000000 1.739210 0.000000 
#    z 0.000000 0.000000 1.785860 
# 
# From -- ./inp_files/3845.got.cif
#   From: 2010.05.17/outbox.cif.g08.bks.cpg/sg39_2_cif.got.tgz:3845.got - 2010.06.03 18:22:40.
