data_PCOD9359702
_publ_section_title
;
Structure prediction by ZEFSAII (Michael W. Deem and Ramdas Pophale) SiO2 
 PCOD9359702
Probable space group: A B M 2
;
_chemical_formula_sum "Si O2"
_cell_formula_units_Z 48
_cell_length_a 9.948799
_cell_length_b 16.379490
_cell_length_c 15.497383
_cell_angle_alpha 90.000000
_cell_angle_beta 90.000000
_cell_angle_gamma 90.000000
_cell_volume 2525.395476
_symmetry_space_group_name_H-M "A B M 2"
_symmetry_group_IT_number 39
_symmetry_cell_setting 'orthorhombic'
loop_
_space_group_symop_operation_xyz
x,y,z
-x,-y,z
-x,1/2+y,z
x,1/2-y,z
x,1/2+y,1/2+z
-x,1/2-y,1/2+z
-x,y,1/2+z
x,-y,1/2+z
loop_
_atom_site_type_symbol
_atom_site_label
_atom_site_fract_x
_atom_site_fract_y
_atom_site_fract_z
Si Si1 0.464034 0.585451 0.266110
Si Si2 0.014414 0.909505 0.792952
Si Si3 0.602973 0.250000 0.970226
Si Si4 0.765544 0.919033 0.907940
Si Si5 0.133973 0.750000 0.241203
Si Si6 0.712989 0.093206 0.895045
Si Si7 0.585140 0.250000 0.164191
Si Si8 0.310856 0.250000 0.919523
O O1 0.500000 0.500000 0.218831
O O2 0.323343 0.582151 0.318798
O O3 0.577261 0.588357 0.339686
O O4 0.463739 0.667008 0.209948
O O5 0.918523 0.914638 0.877445
O O6 0.956974 0.831600 0.741547
O O7 0.164394 0.897088 0.827959
O O8 0.000000 0.000000 0.751261
O O9 0.543537 0.250000 0.065394
O O10 0.692995 0.170916 0.954525
O O11 0.471557 0.250000 0.907861
O O12 0.725631 0.837811 0.959534
O O13 0.734250 0.007957 0.945063
O O14 0.251717 0.750000 0.170905
O O15 0.221170 0.750000 0.331435
#
# Coordination Sequence:
#
# PCOD9359702 Si02
#       8
#     8   8   4   8   4   8   4   4
#     4  10  18  34  58  80 101 136 182 233 259 303
#     4   9  17  29  55  87 102 125 175 235 266 302
#     4  12  23  32  49  80 114 145 168 225 264 322
#     4   9  16  31  58  80 101 133 174 226 262 312
#     4  10  17  33  59  75 104 148 177 221 258 325
#     4  10  19  32  54  85 105 127 184 233 263 289
#     4  12  22  37  51  76 117 146 182 200 281 343
#     4  10  16  32  53  75  97 135 185 210 255 300
#
# _framework density 19.006924999999999
#
# number of rings (size 3 to 8) (size 9 to 14) (size 15 to 20)
#    0.000    2.000    5.000    1.000    0.000    0.000 
#    3.000    0.000    0.000   11.000    0.000    0.000 
#    0.000    0.000    0.000    0.000    0.000    0.000 
#
# Total GULP energy -133606.474100 kJ/mol
# GULP energy per Si atom -5566.936421 kJ/mol
# Density = 1.896366 g / cm^3
# Si number density = 19.006925 Si / 1000 Ang^3
#
#
#
# Elastic Constant Matrix: (Units=GPa)
#
#
# Indices 1 2 3 4 5 6 
#
# 1 59.1193 0.9060 -13.1681 0.0000 0.0000 0.0000
# 2 0.9060 200.1691 10.0449 0.0000 0.0000 0.0000
# 3 -13.1681 10.0449 17.4288 0.0000 0.0000 0.0000
# 4 0.0000 0.0000 0.0000 -2.1230 0.0000 0.0000
# 5 0.0000 0.0000 0.0000 0.0000 6.4359 0.0000
# 6 0.0000 0.0000 0.0000 0.0000 0.0000 16.9056
#
#
#
# Elastic Compliance Matrix: (Units=1/GPa)
#
#
# Indices 1 2 3 4 5 6 
#
# 1 0.020492 -0.000896 0.015999 0.000000 0.000000 0.000000
# 2 -0.000896 0.005184 -0.003664 0.000000 0.000000 0.000000
# 3 0.015999 -0.003664 0.071576 0.000000 0.000000 0.000000
# 4 0.000000 0.000000 0.000000 -0.471029 0.000000 0.000000
# 5 0.000000 0.000000 0.000000 0.000000 0.155378 0.000000
# 6 0.000000 0.000000 0.000000 0.000000 0.000000 0.059152
#
#
# Mechanical properties :
#
#
# Convention : Reuss Voigt Hill
#
# Bulk Modulus (GPa) = 8.32434 30.25363 19.28898
# Shear Modulus (GPa) = -35.19115 22.83932 -6.17591
#
# Velocity S-wave (km/s) = -4.30756 3.47022 -1.80454
# Velocity P-wave (km/s) = 4.51121 5.65758 2.41426
#
# Compressibility (1/GPa) = 0.12012965
#
# Stress axis : x y z
#
# Youngs Moduli (GPa) = 48.79897 192.91206 13.97121
#
# Poissons Ratio (x) = 0.17277 -0.22352
# Poissons Ratio (y) = 0.04370 0.05119
# Poissons Ratio (z) = -0.78073 0.70687
#
# Static dielectric constant tensor:
#      x y z
#    x 1.648510 0.000000 0.000000 
#    y 0.000000 1.785610 0.000000 
#    z 0.000000 0.000000 1.602840 
# 
# From -- ./inp_files/8410.got.cif
#   From: 2010.05.17/outbox.cif.g08.bks.cpg/sg39_5_cif.got.tgz:8410.got - 2010.06.03 18:22:40.
