data_PCOD9359865
_publ_section_title
;
Structure prediction by ZEFSAII (Michael W. Deem and Ramdas Pophale) SiO2 
 PCOD9359865
Probable space group: A B M 2
;
_chemical_formula_sum "Si O2"
_cell_formula_units_Z 56
_cell_length_a 17.910331
_cell_length_b 9.391604
_cell_length_c 19.195790
_cell_angle_alpha 90.000000
_cell_angle_beta 90.000000
_cell_angle_gamma 90.000000
_cell_volume 3228.861186
_symmetry_space_group_name_H-M "A B M 2"
_symmetry_group_IT_number 39
_symmetry_cell_setting 'orthorhombic'
loop_
_space_group_symop_operation_xyz
x,y,z
-x,-y,z
-x,1/2+y,z
x,1/2-y,z
x,1/2+y,1/2+z
-x,1/2-y,1/2+z
-x,y,1/2+z
x,-y,1/2+z
loop_
_atom_site_type_symbol
_atom_site_label
_atom_site_fract_x
_atom_site_fract_y
_atom_site_fract_z
Si Si1 0.173206 0.088641 0.202560
Si Si2 0.697032 0.408008 0.588352
Si Si3 0.789595 0.085102 0.988836
Si Si4 0.733050 0.418670 0.838412
Si Si5 0.076909 0.419193 0.596910
Si Si6 0.422849 0.082528 0.829513
Si Si7 0.428055 0.912774 0.161253
O O1 0.144176 0.250000 0.216512
O O2 0.234311 0.101464 0.141729
O O3 0.218767 0.037258 0.270582
O O4 0.112605 0.985121 0.167667
O O5 0.665936 0.250000 0.577902
O O6 0.728518 0.478008 0.519015
O O7 0.640538 0.512984 0.624961
O O8 0.769203 0.250000 0.004403
O O9 0.786227 0.069032 0.905904
O O10 0.865712 0.058516 0.031965
O O11 0.714369 0.250000 0.828747
O O12 0.655168 0.503809 0.848871
O O13 0.066126 0.250000 0.604387
O O14 0.000000 0.500000 0.583024
O O15 0.424441 0.250000 0.850748
O O16 0.421801 0.079868 0.744972
O O17 0.500000 0.000000 0.850695
O O18 0.434347 0.750000 0.140757
O O19 0.500000 0.000000 0.139994
#
# Coordination Sequence:
#
# PCOD9359865 Si02
#       7
#     8   8   8   8   8   8   8
#     4   9  18  32  54  80 105 135 171 213 261 312
#     4  10  18  31  51  75 102 134 173 218 262 312
#     4   9  20  36  55  78 107 144 178 213 262 320
#     4  10  19  35  56  79 110 144 180 223 269 320
#     4  10  20  36  58  82 108 139 176 216 263 319
#     4  10  20  32  50  76 107 143 183 227 274 321
#     4  10  19  30  47  72 102 135 175 224 273 320
#
# _framework density 17.343577
#
# number of rings (size 3 to 8) (size 9 to 14) (size 15 to 20)
#    0.000    2.286    1.429    1.714    0.000    3.429 
#    0.000    1.429    0.000    5.143    0.000    0.000 
#    0.000    0.000    0.000    0.000    0.000    0.000 
#
# Total GULP energy -155948.417380 kJ/mol
# GULP energy per Si atom -5569.586335 kJ/mol
# Density = 1.730410 g / cm^3
# Si number density = 17.343577 Si / 1000 Ang^3
#
#
#
# Elastic Constant Matrix: (Units=GPa)
#
#
# Indices 1 2 3 4 5 6 
#
# 1 76.3970 64.7491 15.5991 0.0000 0.0000 0.0000
# 2 64.7491 119.6279 30.5604 0.0000 0.0000 0.0000
# 3 15.5991 30.5604 58.8716 0.0000 0.0000 0.0000
# 4 0.0000 0.0000 0.0000 9.3980 0.0000 0.0000
# 5 0.0000 0.0000 0.0000 0.0000 17.7681 0.0000
# 6 0.0000 0.0000 0.0000 0.0000 0.0000 24.4477
#
#
#
# Elastic Compliance Matrix: (Units=1/GPa)
#
#
# Indices 1 2 3 4 5 6 
#
# 1 0.024193 -0.013209 0.000446 0.000000 0.000000 0.000000
# 2 -0.013209 0.016849 -0.005246 0.000000 0.000000 0.000000
# 3 0.000446 -0.005246 0.019591 0.000000 0.000000 0.000000
# 4 0.000000 0.000000 0.000000 0.106405 0.000000 0.000000
# 5 0.000000 0.000000 0.000000 0.000000 0.056281 0.000000
# 6 0.000000 0.000000 0.000000 0.000000 0.000000 0.040904
#
#
# Mechanical properties :
#
#
# Convention : Reuss Voigt Hill
#
# Bulk Modulus (GPa) = 40.62456 52.96820 46.79638
# Shear Modulus (GPa) = 16.21029 19.92195 18.06612
#
# Velocity S-wave (km/s) = 3.06053 3.39287 3.23098
# Velocity P-wave (km/s) = 5.99695 6.77906 6.39996
#
# Compressibility (1/GPa) = 0.02461565
#
# Stress axis : x y z
#
# Youngs Moduli (GPa) = 41.33390 59.35157 51.04309
#
# Poissons Ratio (x) = 0.78396 -0.02278
# Poissons Ratio (y) = 0.54597 0.26779
# Poissons Ratio (z) = -0.01844 0.31138
#
# Static dielectric constant tensor:
#      x y z
#    x 1.505620 0.000000 0.000000 
#    y 0.000000 1.652480 0.000000 
#    z 0.000000 0.000000 1.571580 
# 
# From -- ./inp_files/14910.got.cif
#   From: 2010.05.17/outbox.cif.g08.bks.cpg/sg39_8_cif.got.tgz:14910.got - 2010.06.03 18:22:40.
