data_PCOD9359185
_publ_section_title
;
Structure prediction by ZEFSAII (Michael W. Deem and Ramdas Pophale) SiO2 
 PCOD9359185
Probable space group: A M M 2
;
_chemical_formula_sum "Si O2"
_cell_formula_units_Z 40
_cell_length_a 7.790947
_cell_length_b 7.654573
_cell_length_c 34.054507
_cell_angle_alpha 90.000000
_cell_angle_beta 90.000000
_cell_angle_gamma 90.000000
_cell_volume 2030.887266
_symmetry_space_group_name_H-M "A M M 2"
_symmetry_group_IT_number 38
_symmetry_cell_setting 'orthorhombic'
loop_
_space_group_symop_operation_xyz
x,y,z
-x,-y,z
-x,y,z
x,-y,z
x,1/2+y,1/2+z
-x,1/2-y,1/2+z
-x,1/2+y,1/2+z
x,1/2-y,1/2+z
loop_
_atom_site_type_symbol
_atom_site_label
_atom_site_fract_x
_atom_site_fract_y
_atom_site_fract_z
Si Si1 0.204736 0.000000 0.423800
Si Si2 0.208182 0.799787 0.980888
Si Si3 0.000000 0.710438 0.713840
Si Si4 0.308757 0.286923 0.568479
Si Si5 0.701146 0.701050 0.273020
Si Si6 0.705457 0.500000 0.832995
Si Si7 0.000000 0.213978 0.123687
O O1 0.269286 0.828675 0.446691
O O2 0.236450 0.000000 0.377668
O O3 0.000000 0.000000 0.429151
O O4 0.000000 0.802065 0.981525
O O5 0.266071 0.000000 0.975318
O O6 0.266717 0.735921 0.023770
O O7 0.830309 0.771662 0.736933
O O8 0.000000 0.770071 0.668764
O O9 0.000000 0.500000 0.714473
O O10 0.500000 0.231622 0.579164
O O11 0.303586 0.500000 0.568291
O O12 0.166100 0.228459 0.599198
O O13 0.500000 0.739057 0.263167
O O14 0.710566 0.500000 0.285706
O O15 0.757647 0.831023 0.307708
O O16 0.500000 0.500000 0.834060
O O17 0.000000 0.000000 0.123838
#
# Coordination Sequence:
#
# PCOD9359185 Si02
#       7
#     4   8   4   8   8   4   4
#     4  10  22  34  54  86 118 150 194 244 290 347
#     4   9  17  33  54  76 111 155 194 238 286 337
#     4  11  21  35  63  92 120 157 200 246 306 370
#     4   9  16  29  52  80 112 152 196 236 284 344
#     4  10  22  41  64  88 119 159 200 246 302 364
#     4  10  22  40  60  86 120 156 196 251 301 354
#     4   9  18  31  51  85 117 147 189 243 292 347
#
# _framework density 19.695824000000002
#
# number of rings (size 3 to 8) (size 9 to 14) (size 15 to 20)
#    0.000    2.400    2.000    0.300    1.400    2.400 
#    0.000    2.000    4.400    0.000    0.000    0.000 
#    0.000    0.000    0.000    0.000    0.000    0.000 
#
# Total GULP energy -111653.917040 kJ/mol
# GULP energy per Si atom -5582.695852 kJ/mol
# Density = 1.965100 g / cm^3
# Si number density = 19.695824 Si / 1000 Ang^3
#
#
#
# Elastic Constant Matrix: (Units=GPa)
#
#
# Indices 1 2 3 4 5 6 
#
# 1 94.7860 36.9955 73.8728 0.0000 0.0000 0.0000
# 2 36.9955 92.9453 68.2082 0.0000 0.0000 0.0000
# 3 73.8728 68.2082 197.8634 0.0000 0.0000 0.0000
# 4 0.0000 0.0000 0.0000 -14.4378 0.0000 0.0000
# 5 0.0000 0.0000 0.0000 0.0000 -24.7957 0.0000
# 6 0.0000 0.0000 0.0000 0.0000 0.0000 8.2204
#
#
#
# Elastic Compliance Matrix: (Units=1/GPa)
#
#
# Indices 1 2 3 4 5 6 
#
# 1 0.015316 -0.002543 -0.004842 0.000000 0.000000 0.000000
# 2 -0.002543 0.014825 -0.004161 0.000000 0.000000 0.000000
# 3 -0.004842 -0.004161 0.008296 0.000000 0.000000 0.000000
# 4 0.000000 0.000000 0.000000 -0.069263 0.000000 0.000000
# 5 0.000000 0.000000 0.000000 0.000000 -0.040330 0.000000
# 6 0.000000 0.000000 0.000000 0.000000 0.000000 0.121649
#
#
# Mechanical properties :
#
#
# Convention : Reuss Voigt Hill
#
# Bulk Modulus (GPa) = 65.16661 82.63862 73.90262
# Shear Modulus (GPa) = 63.53196 7.56526 35.54861
#
# Velocity S-wave (km/s) = 5.68565 1.96199 4.25300
# Velocity P-wave (km/s) = 8.73272 6.86885 7.85626
#
# Compressibility (1/GPa) = 0.01534528
#
# Stress axis : x y z
#
# Youngs Moduli (GPa) = 65.29078 67.45428 120.54058
#
# Poissons Ratio (x) = 0.17156 0.58360
# Poissons Ratio (y) = 0.16606 0.50156
# Poissons Ratio (z) = 0.31611 0.28067
#
# Static dielectric constant tensor:
#      x y z
#    x 1.698590 0.000000 0.000000 
#    y 0.000000 1.729950 0.000000 
#    z 0.000000 0.000000 1.643800 
# 
# From -- ./inp_files/23302.got.cif
#   From: 2010.05.17/outbox.cif.g08.bks.cpg/sg38_12_cif.got.tgz:23302.got - 2010.06.03 18:07:57.
