data_PCOD9359717
_publ_section_title
;
Structure prediction by ZEFSAII (Michael W. Deem and Ramdas Pophale) SiO2 
 PCOD9359717
Probable space group: A B M 2
;
_chemical_formula_sum "Si O2"
_cell_formula_units_Z 56
_cell_length_a 16.873771
_cell_length_b 17.765185
_cell_length_c 9.091069
_cell_angle_alpha 90.000000
_cell_angle_beta 90.000000
_cell_angle_gamma 90.000000
_cell_volume 2725.190330
_symmetry_space_group_name_H-M "A B M 2"
_symmetry_group_IT_number 39
_symmetry_cell_setting 'orthorhombic'
loop_
_space_group_symop_operation_xyz
x,y,z
-x,-y,z
-x,1/2+y,z
x,1/2-y,z
x,1/2+y,1/2+z
-x,1/2-y,1/2+z
-x,y,1/2+z
x,-y,1/2+z
loop_
_atom_site_type_symbol
_atom_site_label
_atom_site_fract_x
_atom_site_fract_y
_atom_site_fract_z
Si Si1 0.509727 0.880427 0.695220
Si Si2 0.773127 0.463556 0.576473
Si Si3 0.603416 0.458907 0.456728
Si Si4 0.392855 0.641726 0.933997
Si Si5 0.051031 0.424042 0.032664
Si Si6 0.053173 0.664712 0.825405
Si Si7 0.222822 0.608891 0.901374
O O1 0.452664 0.929908 0.588764
O O2 0.566892 0.926112 0.806719
O O3 0.449203 0.836673 0.799929
O O4 0.566526 0.835474 0.585705
O O5 0.692892 0.435214 0.497806
O O6 0.855546 0.434993 0.507143
O O7 0.770777 0.439773 0.748286
O O8 0.775783 0.552487 0.540652
O O9 0.604505 0.549266 0.440970
O O10 0.301368 0.659195 0.910930
O O11 0.044031 0.397858 0.200133
O O12 0.000000 0.500000 0.007149
O O13 0.013969 0.356656 0.940457
O O14 0.046227 0.750000 0.771523
O O15 0.140379 0.652409 0.893518
#
# Coordination Sequence:
#
# PCOD9359717 Si02
#       7
#     8   8   8   8   8   8   8
#     4  10  17  26  41  64 108 154 185 226 293 348
#     4  10  21  32  51  80 114 148 192 243 289 346
#     4  10  17  26  40  67 107 152 185 226 286 352
#     4  10  17  26  41  67 103 148 187 230 279 350
#     4  11  22  41  65  91 120 157 200 248 300 355
#     4  11  24  42  63  89 121 158 198 244 303 363
#     4  10  21  34  51  79 114 150 192 236 291 347
#
# _framework density 20.549022999999998
#
# number of rings (size 3 to 8) (size 9 to 14) (size 15 to 20)
#    0.000    1.714    2.857    4.286    8.000    0.000 
#    0.000    0.000    0.000    0.000    0.000    1.000 
#    0.000    0.000    0.000    0.000    0.000    0.000 
#
# Total GULP energy -156274.116239 kJ/mol
# GULP energy per Si atom -5581.218437 kJ/mol
# Density = 2.050225 g / cm^3
# Si number density = 20.549023 Si / 1000 Ang^3
#
#
#
# Elastic Constant Matrix: (Units=GPa)
#
#
# Indices 1 2 3 4 5 6 
#
# 1 154.0023 22.4450 41.1888 0.0000 0.0000 0.0000
# 2 22.4450 75.5112 17.1857 0.0000 0.0000 0.0000
# 3 41.1888 17.1857 83.0392 0.0000 0.0000 0.0000
# 4 0.0000 0.0000 0.0000 -1.4910 0.0000 0.0000
# 5 0.0000 0.0000 0.0000 0.0000 30.7383 0.0000
# 6 0.0000 0.0000 0.0000 0.0000 0.0000 -12.0009
#
#
#
# Elastic Compliance Matrix: (Units=1/GPa)
#
#
# Indices 1 2 3 4 5 6 
#
# 1 0.007641 -0.001478 -0.003484 0.000000 0.000000 0.000000
# 2 -0.001478 0.014184 -0.002202 0.000000 0.000000 0.000000
# 3 -0.003484 -0.002202 0.014226 0.000000 0.000000 0.000000
# 4 0.000000 0.000000 0.000000 -0.670681 0.000000 0.000000
# 5 0.000000 0.000000 0.000000 0.000000 0.032533 0.000000
# 6 0.000000 0.000000 0.000000 0.000000 0.000000 -0.083327
#
#
# Mechanical properties :
#
#
# Convention : Reuss Voigt Hill
#
# Bulk Modulus (GPa) = 46.03643 52.68796 49.36219
# Shear Modulus (GPa) = -7.53176 18.89815 5.68320
#
# Velocity S-wave (km/s) = -1.91657 3.03588 1.66484
# Velocity P-wave (km/s) = 4.18978 6.16316 5.26967
#
# Compressibility (1/GPa) = 0.02172193
#
# Stress axis : x y z
#
# Youngs Moduli (GPa) = 130.87886 70.50368 70.29193
#
# Poissons Ratio (x) = 0.10422 0.24489
# Poissons Ratio (y) = 0.19346 0.15480
# Poissons Ratio (z) = 0.45598 0.15526
#
# Static dielectric constant tensor:
#      x y z
#    x 1.764240 0.000000 0.000000 
#    y 0.000000 1.751660 0.000000 
#    z 0.000000 0.000000 1.746830 
# 
# From -- ./inp_files/3822.got.cif
#   From: 2010.05.17/outbox.cif.g08.bks.cpg/sg39_2_cif.got.tgz:3822.got - 2010.06.03 18:22:40.
