data_PCOD9359083
_publ_section_title
;
Structure prediction by ZEFSAII (Michael W. Deem and Ramdas Pophale) SiO2 
 PCOD9359083
Probable space group: A M M 2
;
_chemical_formula_sum "Si O2"
_cell_formula_units_Z 48
_cell_length_a 14.565059
_cell_length_b 17.811993
_cell_length_c 8.946752
_cell_angle_alpha 90.000000
_cell_angle_beta 90.000000
_cell_angle_gamma 90.000000
_cell_volume 2321.080287
_symmetry_space_group_name_H-M "A M M 2"
_symmetry_group_IT_number 38
_symmetry_cell_setting 'orthorhombic'
loop_
_space_group_symop_operation_xyz
x,y,z
-x,-y,z
-x,y,z
x,-y,z
x,1/2+y,1/2+z
-x,1/2-y,1/2+z
-x,1/2+y,1/2+z
x,1/2-y,1/2+z
loop_
_atom_site_type_symbol
_atom_site_label
_atom_site_fract_x
_atom_site_fract_y
_atom_site_fract_z
Si Si1 0.000000 0.238745 0.737980
Si Si2 0.676357 0.412387 0.990024
Si Si3 0.676685 0.652197 0.669090
Si Si4 0.500000 0.802852 0.982009
Si Si5 0.196348 0.918095 0.944919
Si Si6 0.000000 0.639638 0.526133
Si Si7 0.500000 0.354184 0.138831
Si Si8 0.205805 0.193889 0.679096
O O1 0.000000 0.326063 0.692241
O O2 0.903058 0.209317 0.672389
O O3 0.000000 0.210275 0.909060
O O4 0.699441 0.500000 0.979888
O O5 0.591748 0.400492 0.104127
O O6 0.758971 0.360124 0.048311
O O7 0.648430 0.378780 0.829793
O O8 0.589930 0.664950 0.562845
O O9 0.742757 0.592426 0.590683
O O10 0.734997 0.729785 0.680145
O O11 0.500000 0.715130 0.022861
O O12 0.500000 0.820971 0.806315
O O13 0.090905 0.906195 0.990002
O O14 0.209878 0.000000 0.875831
O O15 0.222302 0.851924 0.831544
#
# Coordination Sequence:
#
# PCOD9359083 Si02
#       8
#     4   8   8   4   8   4   4   8
#     4  10  22  38  64 100 126 166 228 276 314 388
#     4  12  26  44  67 100 139 175 217 272 335 392
#     4  12  24  43  69 100 130 176 218 276 322 393
#     4  12  26  43  72 102 128 168 228 278 319 395
#     4  11  23  41  64  97 134 174 221 271 331 387
#     4  10  21  38  64  94 131 172 218 274 325 378
#     4  12  25  45  70  98 133 174 218 274 334 385
#     4  11  23  41  68  95 131 179 223 273 324 392
#
# _framework density 20.680026000000002
#
# number of rings (size 3 to 8) (size 9 to 14) (size 15 to 20)
#    0.000    0.667    3.333    5.000    2.333    0.000 
#    0.000    5.000    0.000    0.000    0.000    0.000 
#    0.000    0.000    0.000    0.000    0.000    0.000 
#
# Total GULP energy -134213.582886 kJ/mol
# GULP energy per Si atom -5592.232620 kJ/mol
# Density = 2.063296 g / cm^3
# Si number density = 20.680026 Si / 1000 Ang^3
#
#
#
# Elastic Constant Matrix: (Units=GPa)
#
#
# Indices 1 2 3 4 5 6 
#
# 1 112.7836 23.2060 36.4580 0.0000 0.0000 0.0000
# 2 23.2060 112.1506 31.0174 0.0000 0.0000 0.0000
# 3 36.4580 31.0174 93.4142 0.0000 0.0000 0.0000
# 4 0.0000 0.0000 0.0000 19.8433 0.0000 0.0000
# 5 0.0000 0.0000 0.0000 0.0000 21.2047 0.0000
# 6 0.0000 0.0000 0.0000 0.0000 0.0000 28.4320
#
#
#
# Elastic Compliance Matrix: (Units=1/GPa)
#
#
# Indices 1 2 3 4 5 6 
#
# 1 0.010273 -0.001120 -0.003638 0.000000 0.000000 0.000000
# 2 -0.001120 0.009940 -0.002864 0.000000 0.000000 0.000000
# 3 -0.003638 -0.002864 0.013076 0.000000 0.000000 0.000000
# 4 0.000000 0.000000 0.000000 0.050395 0.000000 0.000000
# 5 0.000000 0.000000 0.000000 0.000000 0.047159 0.000000
# 6 0.000000 0.000000 0.000000 0.000000 0.000000 0.035172
#
#
# Mechanical properties :
#
#
# Convention : Reuss Voigt Hill
#
# Bulk Modulus (GPa) = 55.41078 55.52347 55.46713
# Shear Modulus (GPa) = 26.69919 29.07378 27.88648
#
# Velocity S-wave (km/s) = 3.59703 3.75358 3.67614
# Velocity P-wave (km/s) = 6.64109 6.75966 6.70064
#
# Compressibility (1/GPa) = 0.01804703
#
# Stress axis : x y z
#
# Youngs Moduli (GPa) = 97.34479 100.60121 76.47877
#
# Poissons Ratio (x) = 0.11263 0.27819
# Poissons Ratio (y) = 0.10899 0.21901
# Poissons Ratio (z) = 0.35410 0.28808
#
# Static dielectric constant tensor:
#      x y z
#    x 1.762800 0.000000 0.000000 
#    y 0.000000 1.712820 0.000000 
#    z 0.000000 0.000000 1.758640 
# 
# From -- ./inp_files/5536.got.cif
#   From: 2010.05.17/outbox.cif.g08.bks.cpg/sg38_3_cif.got.tgz:5536.got - 2010.06.03 18:07:57.
