data_PCOD9359482
_publ_section_title
;
Structure prediction by ZEFSAII (Michael W. Deem and Ramdas Pophale) SiO2 
 PCOD9359482
Probable space group: A M M 2
;
_chemical_formula_sum "Si O2"
_cell_formula_units_Z 34
_cell_length_a 19.094599
_cell_length_b 10.645329
_cell_length_c 7.059003
_cell_angle_alpha 90.000000
_cell_angle_beta 90.000000
_cell_angle_gamma 90.000000
_cell_volume 1434.871458
_symmetry_space_group_name_H-M "A M M 2"
_symmetry_group_IT_number 38
_symmetry_cell_setting 'orthorhombic'
loop_
_space_group_symop_operation_xyz
x,y,z
-x,-y,z
-x,y,z
x,-y,z
x,1/2+y,1/2+z
-x,1/2-y,1/2+z
-x,1/2+y,1/2+z
x,1/2-y,1/2+z
loop_
_atom_site_type_symbol
_atom_site_label
_atom_site_fract_x
_atom_site_fract_y
_atom_site_fract_z
Si Si1 0.134066 0.000000 0.948860
Si Si2 0.224193 0.747071 0.975457
Si Si3 0.868686 0.500000 0.006714
Si Si4 0.579310 0.500000 0.199762
Si Si5 0.000000 0.500000 0.724903
Si Si6 0.667359 0.751176 0.725294
Si Si7 0.579928 0.000000 0.248041
O O1 0.181235 0.877386 0.988346
O O2 0.115791 0.000000 0.728343
O O3 0.062704 0.000000 0.064855
O O4 0.312318 0.730826 0.974574
O O5 0.177396 0.622628 0.963767
O O6 0.244349 0.740524 0.226161
O O7 0.938730 0.500000 0.888004
O O8 0.500000 0.500000 0.271278
O O9 0.621976 0.376321 0.252679
O O10 0.575205 0.500000 0.973947
O O11 0.623392 0.623756 0.697020
O O12 0.500000 0.000000 0.177679
#
# Coordination Sequence:
#
# PCOD9359482 Si02
#       7
#     4   8   4   4   2   8   4
#     4  12  27  51  74 110 147 191 234 298 364 430
#     4  12  24  46  76 104 140 181 244 296 355 423
#     4  12  27  52  73 111 150 185 238 304 350 438
#     4  11  24  42  62  97 144 187 236 294 363 433
#     4  12  30  50  78 110 148 198 230 282 374 448
#     4  12  22  43  70 100 136 186 239 299 355 416
#     4  11  24  42  64  99 145 188 235 294 362 434
#
# _framework density 23.695505000000001
#
# number of rings (size 3 to 8) (size 9 to 14) (size 15 to 20)
#    0.000    0.235    4.706    5.294    0.000    0.941 
#    0.000    1.176    0.000    0.000    0.000    0.000 
#    0.000    0.000    0.000    0.000    0.000    0.000 
#
# Total GULP energy -94789.113692 kJ/mol
# GULP energy per Si atom -5575.830217 kJ/mol
# Density = 2.364157 g / cm^3
# Si number density = 23.695505 Si / 1000 Ang^3
#
#
#
# Elastic Constant Matrix: (Units=GPa)
#
#
# Indices 1 2 3 4 5 6 
#
# 1 280.5429 176.6706 107.6072 0.0000 0.0000 0.0000
# 2 176.6706 262.3276 58.2004 0.0000 0.0000 0.0000
# 3 107.6072 58.2004 223.5295 0.0000 0.0000 0.0000
# 4 0.0000 0.0000 0.0000 42.3615 0.0000 0.0000
# 5 0.0000 0.0000 0.0000 0.0000 46.6009 0.0000
# 6 0.0000 0.0000 0.0000 0.0000 0.0000 -9.7472
#
#
#
# Elastic Compliance Matrix: (Units=1/GPa)
#
#
# Indices 1 2 3 4 5 6 
#
# 1 0.007177 -0.004316 -0.002331 0.000000 0.000000 0.000000
# 2 -0.004316 0.006642 0.000349 0.000000 0.000000 0.000000
# 3 -0.002331 0.000349 0.005505 0.000000 0.000000 0.000000
# 4 0.000000 0.000000 0.000000 0.023606 0.000000 0.000000
# 5 0.000000 0.000000 0.000000 0.000000 0.021459 0.000000
# 6 0.000000 0.000000 0.000000 0.000000 0.000000 -0.102593
#
#
# Mechanical properties :
#
#
# Convention : Reuss Voigt Hill
#
# Bulk Modulus (GPa) = 148.67730 161.26182 154.96956
# Shear Modulus (GPa) = -213.99304 44.10449 -84.94428
#
# Velocity S-wave (km/s) = -9.51344 4.31896 -5.99384
# Velocity P-wave (km/s) = 7.60217 9.64753 4.20011
#
# Compressibility (1/GPa) = 0.00672598
#
# Stress axis : x y z
#
# Youngs Moduli (GPa) = 139.33929 150.56803 181.64931
#
# Poissons Ratio (x) = 0.64988 0.42344
# Poissons Ratio (y) = 0.60141 -0.06331
# Poissons Ratio (z) = 0.32481 -0.05248
#
# Static dielectric constant tensor:
#      x y z
#    x 1.763990 0.000000 0.000000 
#    y 0.000000 1.778940 0.000000 
#    z 0.000000 0.000000 2.733690 
# 
# From -- ./inp_files/6635.got.cif
#   From: 2010.05.17/outbox.cif.g08.bks.cpg/sg38_4_cif.got.tgz:6635.got - 2010.06.03 18:07:57.
