data_PCOD9359422
_publ_section_title
;
Structure prediction by ZEFSAII (Michael W. Deem and Ramdas Pophale) SiO2 
 PCOD9359422
Probable space group: A M M 2
;
_chemical_formula_sum "Si O2"
_cell_formula_units_Z 56
_cell_length_a 19.960835
_cell_length_b 18.184954
_cell_length_c 7.185619
_cell_angle_alpha 90.000000
_cell_angle_beta 90.000000
_cell_angle_gamma 90.000000
_cell_volume 2608.285323
_symmetry_space_group_name_H-M "A M M 2"
_symmetry_group_IT_number 38
_symmetry_cell_setting 'orthorhombic'
loop_
_space_group_symop_operation_xyz
x,y,z
-x,-y,z
-x,y,z
x,-y,z
x,1/2+y,1/2+z
-x,1/2-y,1/2+z
-x,1/2+y,1/2+z
x,1/2-y,1/2+z
loop_
_atom_site_type_symbol
_atom_site_label
_atom_site_fract_x
_atom_site_fract_y
_atom_site_fract_z
Si Si1 0.141825 0.656377 0.087320
Si Si2 0.924033 0.801023 0.950449
Si Si3 0.715447 0.189547 0.581735
Si Si4 0.571645 0.188176 0.575362
Si Si5 0.572393 0.359847 0.644440
Si Si6 0.862258 0.417943 0.706881
Si Si7 0.717856 0.859763 0.152762
O O1 0.091226 0.657650 0.257970
O O2 0.216767 0.659797 0.170822
O O3 0.126294 0.732789 0.978231
O O4 0.137669 0.595056 0.929297
O O5 0.000000 0.773718 0.953916
O O6 0.909921 0.857773 0.114867
O O7 0.643058 0.169858 0.667220
O O8 0.715813 0.157249 0.374127
O O9 0.721108 0.277734 0.567853
O O10 0.500000 0.167651 0.663982
O O11 0.572217 0.276916 0.561077
O O12 0.571882 0.154814 0.368052
O O13 0.500000 0.394792 0.598007
O O14 0.645292 0.393716 0.601323
O O15 0.883070 0.500000 0.661340
O O16 0.786897 0.403099 0.629084
#
# Coordination Sequence:
#
# PCOD9359422 Si02
#       7
#     8   8   8   8   8   8   8
#     4  11  21  39  65  92 119 154 200 244 291 350
#     4  12  24  40  66  95 118 150 196 241 294 361
#     4   9  15  26  47  76 101 139 188 232 276 336
#     4   8  13  20  33  60 101 137 168 219 282 329
#     4   8  13  21  36  63  99 137 176 224 279 332
#     4  11  25  42  61  89 125 159 196 245 298 349
#     4   9  16  28  49  74 105 143 188 234 284 340
#
# _framework density 21.470043
#
# number of rings (size 3 to 8) (size 9 to 14) (size 15 to 20)
#    0.000    2.286    2.857    1.286    0.000    1.429 
#    0.000    0.000    0.000    0.429    0.000    0.000 
#    0.000    0.000    0.000    3.286    0.000    1.000 
#
# Total GULP energy -156092.149143 kJ/mol
# GULP energy per Si atom -5574.719612 kJ/mol
# Density = 2.142118 g / cm^3
# Si number density = 21.470043 Si / 1000 Ang^3
#
#
#
# Elastic Constant Matrix: (Units=GPa)
#
#
# Indices 1 2 3 4 5 6 
#
# 1 117.2014 -13.8031 6.6317 0.0000 0.0000 0.0000
# 2 -13.8031 28.1803 -2.3714 0.0000 0.0000 0.0000
# 3 6.6317 -2.3714 61.3837 0.0000 0.0000 0.0000
# 4 0.0000 0.0000 0.0000 22.4024 0.0000 0.0000
# 5 0.0000 0.0000 0.0000 0.0000 15.3275 0.0000
# 6 0.0000 0.0000 0.0000 0.0000 0.0000 -5.1200
#
#
#
# Elastic Compliance Matrix: (Units=1/GPa)
#
#
# Indices 1 2 3 4 5 6 
#
# 1 0.009095 0.004386 -0.000813 0.000000 0.000000 0.000000
# 2 0.004386 0.037717 0.000983 0.000000 0.000000 0.000000
# 3 -0.000813 0.000983 0.016417 0.000000 0.000000 0.000000
# 4 0.000000 0.000000 0.000000 0.044638 0.000000 0.000000
# 5 0.000000 0.000000 0.000000 0.000000 0.065242 0.000000
# 6 0.000000 0.000000 0.000000 0.000000 0.000000 -0.195312
#
#
# Mechanical properties :
#
#
# Convention : Reuss Voigt Hill
#
# Bulk Modulus (GPa) = 13.82329 20.85331 17.33830
# Shear Modulus (GPa) = -694.27240 20.94254 -336.66493
#
# Velocity S-wave (km/s) = -18.00194 3.12658 -12.53584
# Velocity P-wave (km/s) = 20.63107 4.77156 14.19283
#
# Compressibility (1/GPa) = 0.07234167
#
# Stress axis : x y z
#
# Youngs Moduli (GPa) = 109.95139 26.51325 60.91325
#
# Poissons Ratio (x) = -0.11630 0.04953
# Poissons Ratio (y) = -0.48229 -0.05989
# Poissons Ratio (z) = 0.08940 -0.02607
#
# Static dielectric constant tensor:
#      x y z
#    x 1.859750 0.000000 0.000000 
#    y 0.000000 1.706500 0.000000 
#    z 0.000000 0.000000 1.828000 
# 
# From -- ./inp_files/6797.got.cif
#   From: 2010.05.17/outbox.cif.g08.bks.cpg/sg38_4_cif.got.tgz:6797.got - 2010.06.03 18:07:57.
