data_PCOD9359990
_publ_section_title
;
Structure prediction by ZEFSAII (Michael W. Deem and Ramdas Pophale) SiO2 
 PCOD9359990
Probable space group: A B M 2
;
_chemical_formula_sum "Si O2"
_cell_formula_units_Z 64
_cell_length_a 19.984689
_cell_length_b 8.518476
_cell_length_c 21.138556
_cell_angle_alpha 90.000000
_cell_angle_beta 90.000000
_cell_angle_gamma 90.000000
_cell_volume 3598.608614
_symmetry_space_group_name_H-M "A B M 2"
_symmetry_group_IT_number 39
_symmetry_cell_setting 'orthorhombic'
loop_
_space_group_symop_operation_xyz
x,y,z
-x,-y,z
-x,1/2+y,z
x,1/2-y,z
x,1/2+y,1/2+z
-x,1/2-y,1/2+z
-x,y,1/2+z
x,-y,1/2+z
loop_
_atom_site_type_symbol
_atom_site_label
_atom_site_fract_x
_atom_site_fract_y
_atom_site_fract_z
Si Si1 0.427086 0.438241 0.169160
Si Si2 0.286653 0.560152 0.722279
Si Si3 0.785015 0.060290 0.347471
Si Si4 0.210376 0.058675 0.096113
Si Si5 0.927555 0.060691 0.394584
Si Si6 0.704729 0.939768 0.973006
Si Si7 0.071857 0.939127 0.542049
Si Si8 0.427789 0.436491 0.526616
O O1 0.500000 0.500000 0.189077
O O2 0.429097 0.250000 0.168191
O O3 0.363862 0.489164 0.211384
O O4 0.415152 0.494747 0.097050
O O5 0.286076 0.750000 0.722938
O O6 0.251883 0.500099 0.785423
O O7 0.244495 0.506426 0.660889
O O8 0.785610 0.250000 0.346354
O O9 0.862261 0.007947 0.355861
O O10 0.743859 0.011972 0.410020
O O11 0.210437 0.250000 0.096879
O O12 0.134417 0.006879 0.083792
O O13 0.253703 0.011604 0.035180
O O14 0.928986 0.250000 0.393549
O O15 0.918577 0.012566 0.468423
O O16 0.000000 0.000000 0.373108
O O17 0.700917 0.750000 0.973380
O O18 0.631082 0.008570 0.980783
O O19 0.071229 0.750000 0.542503
O O20 0.000000 0.000000 0.563454
O O21 0.500000 0.500000 0.506203
O O22 0.429913 0.250000 0.531296
#
# Coordination Sequence:
#
# PCOD9359990 Si02
#       8
#     8   8   8   8   8   8   8   8
#     4  10  19  34  56  80 107 142 181 220 267 322
#     4  10  21  36  55  78 108 146 181 221 268 322
#     4  10  21  36  56  80 109 144 181 225 271 319
#     4   9  16  32  56  76 100 139 179 213 262 322
#     4   9  17  31  52  78 104 136 175 219 267 317
#     4  10  18  35  58  78 104 140 181 220 266 321
#     4   9  16  29  51  77 104 134 174 220 267 318
#     4  11  21  33  53  83 113 141 176 224 272 317
#
# _framework density 17.784652999999999
#
# number of rings (size 3 to 8) (size 9 to 14) (size 15 to 20)
#    0.000    2.250    2.500    2.250    0.000    2.000 
#    0.000    2.500    0.000    4.500    0.000    0.000 
#    0.000    0.000    0.000    0.000    0.000    0.000 
#
# Total GULP energy -178506.161159 kJ/mol
# GULP energy per Si atom -5578.317536 kJ/mol
# Density = 1.774417 g / cm^3
# Si number density = 17.784653 Si / 1000 Ang^3
#
#
#
# Elastic Constant Matrix: (Units=GPa)
#
#
# Indices 1 2 3 4 5 6 
#
# 1 201.7760 34.4448 88.7806 0.0000 0.0000 0.0000
# 2 34.4448 25.2314 21.6891 0.0000 0.0000 0.0000
# 3 88.7806 21.6891 112.8026 0.0000 0.0000 0.0000
# 4 0.0000 0.0000 0.0000 19.4129 0.0000 0.0000
# 5 0.0000 0.0000 0.0000 0.0000 30.2919 0.0000
# 6 0.0000 0.0000 0.0000 0.0000 0.0000 29.7285
#
#
#
# Elastic Compliance Matrix: (Units=1/GPa)
#
#
# Indices 1 2 3 4 5 6 
#
# 1 0.008506 -0.007017 -0.005345 0.000000 0.000000 0.000000
# 2 -0.007017 0.053269 -0.004720 0.000000 0.000000 0.000000
# 3 -0.005345 -0.004720 0.013979 0.000000 0.000000 0.000000
# 4 0.000000 0.000000 0.000000 0.051512 0.000000 0.000000
# 5 0.000000 0.000000 0.000000 0.000000 0.033012 0.000000
# 6 0.000000 0.000000 0.000000 0.000000 0.000000 0.033638
#
#
# Mechanical properties :
#
#
# Convention : Reuss Voigt Hill
#
# Bulk Modulus (GPa) = 24.04379 69.95988 47.00184
# Shear Modulus (GPa) = 20.66597 28.87970 24.77284
#
# Velocity S-wave (km/s) = 3.41253 4.03408 3.73625
# Velocity P-wave (km/s) = 5.39221 7.81799 6.71554
#
# Compressibility (1/GPa) = 0.04159077
#
# Stress axis : x y z
#
# Youngs Moduli (GPa) = 117.56870 18.77256 71.53360
#
# Poissons Ratio (x) = 0.13172 0.38236
# Poissons Ratio (y) = 0.82495 0.33763
# Poissons Ratio (z) = 0.62843 0.08860
#
# Static dielectric constant tensor:
#      x y z
#    x 1.621110 0.000000 0.000000 
#    y 0.000000 1.611810 0.000000 
#    z 0.000000 0.000000 1.578460 
# 
# From -- ./inp_files/13109.got.cif
#   From: 2010.05.17/outbox.cif.g08.bks.cpg/sg39_7_cif.got.tgz:13109.got - 2010.06.03 18:22:40.
