data_PCOD9359316
_publ_section_title
;
Structure prediction by ZEFSAII (Michael W. Deem and Ramdas Pophale) SiO2 
 PCOD9359316
Probable space group: A M M 2
;
_chemical_formula_sum "Si O2"
_cell_formula_units_Z 48
_cell_length_a 19.020294
_cell_length_b 13.134708
_cell_length_c 6.917717
_cell_angle_alpha 90.000000
_cell_angle_beta 90.000000
_cell_angle_gamma 90.000000
_cell_volume 1728.225621
_symmetry_space_group_name_H-M "A M M 2"
_symmetry_group_IT_number 38
_symmetry_cell_setting 'orthorhombic'
loop_
_space_group_symop_operation_xyz
x,y,z
-x,-y,z
-x,y,z
x,-y,z
x,1/2+y,1/2+z
-x,1/2-y,1/2+z
-x,1/2+y,1/2+z
x,1/2-y,1/2+z
loop_
_atom_site_type_symbol
_atom_site_label
_atom_site_fract_x
_atom_site_fract_y
_atom_site_fract_z
Si Si1 0.417222 0.661000 0.609520
Si Si2 0.419052 0.107686 0.554182
Si Si3 0.142425 0.832228 0.152570
Si Si4 0.757267 0.889385 0.446964
Si Si5 0.918945 0.385983 0.273159
Si Si6 0.280115 0.336034 0.383134
O O1 0.500000 0.652624 0.541840
O O2 0.399551 0.781338 0.630638
O O3 0.416269 0.613772 0.821568
O O4 0.353176 0.624129 0.474592
O O5 0.500000 0.102537 0.607770
O O6 0.257339 0.119456 0.676042
O O7 0.387764 0.000000 0.616467
O O8 0.164338 0.879677 0.357615
O O9 0.120461 0.716135 0.200275
O O10 0.085702 0.878033 0.007811
O O11 0.214112 0.850342 0.027911
O O12 0.719542 0.787697 0.367549
O O13 0.732420 0.000000 0.380105
O O14 0.892179 0.500000 0.222516
O O15 0.000000 0.379155 0.210854
#
# Coordination Sequence:
#
# PCOD9359316 Si02
#       6
#     8   8   8   8   8   8
#     4  10  22  42  67  95 136 183 236 305 369 433
#     4   9  19  37  60  85 118 164 216 275 348 421
#     4  12  24  48  74 108 152 194 244 314 367 442
#     4  12  26  45  72 106 144 191 247 308 377 450
#     4  11  25  48  79 112 151 202 250 301 373 448
#     4  12  24  46  71 105 144 191 251 305 370 451
#
# _framework density 27.774152000000001
#
# number of rings (size 3 to 8) (size 9 to 14) (size 15 to 20)
#    0.000    1.000    3.333    2.000    0.000    4.667 
#    0.000    0.833    0.000    9.000    0.000    0.000 
#    0.000    0.000    0.000    0.000    0.000    0.000 
#
# Total GULP energy -134249.424728 kJ/mol
# GULP energy per Si atom -5593.726030 kJ/mol
# Density = 2.771094 g / cm^3
# Si number density = 27.774152 Si / 1000 Ang^3
#
#
#
# Elastic Constant Matrix: (Units=GPa)
#
#
# Indices 1 2 3 4 5 6 
#
# 1 122.3469 37.3032 23.8565 0.0000 0.0000 0.0000
# 2 37.3032 218.1294 62.1395 0.0000 0.0000 0.0000
# 3 23.8565 62.1395 154.5998 0.0000 0.0000 0.0000
# 4 0.0000 0.0000 0.0000 16.5468 0.0000 0.0000
# 5 0.0000 0.0000 0.0000 0.0000 31.1102 0.0000
# 6 0.0000 0.0000 0.0000 0.0000 0.0000 23.9058
#
#
#
# Elastic Compliance Matrix: (Units=1/GPa)
#
#
# Indices 1 2 3 4 5 6 
#
# 1 0.008719 -0.001251 -0.000843 0.000000 0.000000 0.000000
# 2 -0.001251 0.005357 -0.001960 0.000000 0.000000 0.000000
# 3 -0.000843 -0.001960 0.007386 0.000000 0.000000 0.000000
# 4 0.000000 0.000000 0.000000 0.060435 0.000000 0.000000
# 5 0.000000 0.000000 0.000000 0.000000 0.032144 0.000000
# 6 0.000000 0.000000 0.000000 0.000000 0.000000 0.041831
#
#
# Mechanical properties :
#
#
# Convention : Reuss Voigt Hill
#
# Bulk Modulus (GPa) = 74.88008 82.40828 78.64418
# Shear Modulus (GPa) = 29.68584 39.09769 34.39176
#
# Velocity S-wave (km/s) = 3.27284 3.75600 3.52272
# Velocity P-wave (km/s) = 6.42658 6.96745 6.70247
#
# Compressibility (1/GPa) = 0.01335469
#
# Stress axis : x y z
#
# Youngs Moduli (GPa) = 114.68905 186.68045 135.38850
#
# Poissons Ratio (x) = 0.23355 0.11408
# Poissons Ratio (y) = 0.14348 0.26537
# Poissons Ratio (z) = 0.09664 0.36590
#
# Static dielectric constant tensor:
#      x y z
#    x 2.251840 0.000000 0.000000 
#    y 0.000000 2.114160 0.000000 
#    z 0.000000 0.000000 2.208750 
# 
# From -- ./inp_files/10477.got.cif
#   From: 2010.05.17/outbox.cif.g08.bks.cpg/sg38_6_cif.got.tgz:10477.got - 2010.06.03 18:07:57.
