data_PCOD9359497
_publ_section_title
;
Structure prediction by ZEFSAII (Michael W. Deem and Ramdas Pophale) SiO2 
 PCOD9359497
Probable space group: A M M 2
;
_chemical_formula_sum "Si O2"
_cell_formula_units_Z 64
_cell_length_a 22.937001
_cell_length_b 7.319503
_cell_length_c 14.656051
_cell_angle_alpha 90.000000
_cell_angle_beta 90.000000
_cell_angle_gamma 90.000000
_cell_volume 2460.566995
_symmetry_space_group_name_H-M "A M M 2"
_symmetry_group_IT_number 38
_symmetry_cell_setting 'orthorhombic'
loop_
_space_group_symop_operation_xyz
x,y,z
-x,-y,z
-x,y,z
x,-y,z
x,1/2+y,1/2+z
-x,1/2-y,1/2+z
-x,1/2+y,1/2+z
x,1/2-y,1/2+z
loop_
_atom_site_type_symbol
_atom_site_label
_atom_site_fract_x
_atom_site_fract_y
_atom_site_fract_z
Si Si1 0.563456 0.708571 0.556490
Si Si2 0.562263 0.715904 0.842733
Si Si3 0.936984 0.213801 0.779170
Si Si4 0.937966 0.279469 0.564383
Si Si5 0.686811 0.782609 0.820130
Si Si6 0.808943 0.293024 0.308025
Si Si7 0.811152 0.292953 0.525100
Si Si8 0.312655 0.275418 0.531754
O O1 0.500000 0.790221 0.579469
O O2 0.562873 0.500000 0.591071
O O3 0.564743 0.701274 0.444866
O O4 0.627423 0.787066 0.578284
O O5 0.500000 0.772920 0.801405
O O6 0.560593 0.500000 0.856747
O O7 0.621119 0.751355 0.786927
O O8 0.940160 0.230232 0.670454
O O9 0.872942 0.293250 0.798673
O O10 0.000000 0.286491 0.812481
O O11 0.935276 0.000000 0.808577
O O12 0.937387 0.500000 0.552506
O O13 0.875069 0.208827 0.533832
O O14 0.000000 0.216246 0.523989
O O15 0.746979 0.710218 0.776386
O O16 0.694910 0.000000 0.821798
O O17 0.683754 0.717606 0.925466
O O18 0.814432 0.500000 0.269357
O O19 0.801021 0.306048 0.416962
O O20 0.815716 0.500000 0.562714
O O21 0.751184 0.213251 0.564704
O O22 0.312505 0.500000 0.533641
#
# Coordination Sequence:
#
# PCOD9359497 Si02
#       8
#     8   8   8   8   8   8   8   8
#     4   8  12  18  29  44  63  91 125 155 186 227
#     4   9  15  20  27  43  69  99 128 156 187 227
#     4   9  17  29  45  63  83 107 132 162 203 246
#     4   9  17  28  42  60  81 105 132 162 196 236
#     4   8  13  22  35  49  68  95 126 161 197 230
#     4   8  14  25  42  63  82 102 134 173 206 235
#     4   8  13  22  38  59  80 101 128 164 200 229
#     4   7  10  17  30  48  68  90 117 151 189 222
#
# _framework density 26.010263999999999
#
# number of rings (size 3 to 8) (size 9 to 14) (size 15 to 20)
#    0.000    3.750    0.000    2.625    0.000    1.250 
#    0.000    3.125    0.000    7.500    0.000    3.500 
#    0.000    1.000    0.000    4.250    0.000    3.500 
#
# Total GULP energy -178175.550789 kJ/mol
# GULP energy per Si atom -5567.985962 kJ/mol
# Density = 2.595106 g / cm^3
# Si number density = 26.010264 Si / 1000 Ang^3
#
#
#
# Elastic Constant Matrix: (Units=GPa)
#
#
# Indices 1 2 3 4 5 6 
#
# 1 374.9822 16.2666 4.6136 0.0000 0.0000 0.0000
# 2 16.2666 111.7684 -9.6019 0.0000 0.0000 0.0000
# 3 4.6136 -9.6019 66.7673 0.0000 0.0000 0.0000
# 4 0.0000 0.0000 0.0000 -4.0983 0.0000 0.0000
# 5 0.0000 0.0000 0.0000 0.0000 76.9592 0.0000
# 6 0.0000 0.0000 0.0000 0.0000 0.0000 228.4035
#
#
#
# Elastic Compliance Matrix: (Units=1/GPa)
#
#
# Indices 1 2 3 4 5 6 
#
# 1 0.002688 -0.000412 -0.000245 0.000000 0.000000 0.000000
# 2 -0.000412 0.009122 0.001340 0.000000 0.000000 0.000000
# 3 -0.000245 0.001340 0.015187 0.000000 0.000000 0.000000
# 4 0.000000 0.000000 0.000000 -0.244004 0.000000 0.000000
# 5 0.000000 0.000000 0.000000 0.000000 0.012994 0.000000
# 6 0.000000 0.000000 0.000000 0.000000 0.000000 0.004378
#
#
# Mechanical properties :
#
#
# Convention : Reuss Voigt Hill
#
# Bulk Modulus (GPa) = 35.25684 64.00828 49.63256
# Shear Modulus (GPa) = -26.10334 96.40219 35.14943
#
# Velocity S-wave (km/s) = -3.17137 6.09455 3.68008
# Velocity P-wave (km/s) = 0.41750 8.61319 6.09760
#
# Compressibility (1/GPa) = 0.02836329
#
# Stress axis : x y z
#
# Youngs Moduli (GPa) = 372.06688 109.62253 65.84541
#
# Poissons Ratio (x) = 0.04519 0.01613
# Poissons Ratio (y) = 0.15337 -0.08826
# Poissons Ratio (z) = 0.09116 -0.14693
#
# Static dielectric constant tensor:
#      x y z
#    x 2.207170 0.000000 0.000000 
#    y 0.000000 2.016950 0.000000 
#    z 0.000000 0.000000 2.007390 
# 
# From -- ./inp_files/19023.got.cif
#   From: 2010.05.17/outbox.cif.g08.bks.cpg/sg38_10_cif.got.tgz:19023.got - 2010.06.03 18:07:57.
