data_PCOD9359935
_publ_section_title
;
Structure prediction by ZEFSAII (Michael W. Deem and Ramdas Pophale) SiO2 
 PCOD9359935
Probable space group: A B M 2
;
_chemical_formula_sum "Si O2"
_cell_formula_units_Z 52
_cell_length_a 21.973503
_cell_length_b 7.872406
_cell_length_c 14.347096
_cell_angle_alpha 90.000000
_cell_angle_beta 90.000000
_cell_angle_gamma 90.000000
_cell_volume 2481.822887
_symmetry_space_group_name_H-M "A B M 2"
_symmetry_group_IT_number 39
_symmetry_cell_setting 'orthorhombic'
loop_
_space_group_symop_operation_xyz
x,y,z
-x,-y,z
-x,1/2+y,z
x,1/2-y,z
x,1/2+y,1/2+z
-x,1/2-y,1/2+z
-x,y,1/2+z
x,-y,1/2+z
loop_
_atom_site_type_symbol
_atom_site_label
_atom_site_fract_x
_atom_site_fract_y
_atom_site_fract_z
Si Si1 0.000000 0.000000 0.778200
Si Si2 0.096576 0.552158 0.136466
Si Si3 0.803052 0.947092 0.269375
Si Si4 0.432587 0.546690 0.644592
Si Si5 0.334242 0.447331 0.790215
Si Si6 0.900717 0.543728 0.418308
Si Si7 0.433022 0.954431 0.431061
O O1 0.950164 0.943691 0.856209
O O2 0.050677 0.943917 0.701162
O O3 0.076000 0.750000 0.143318
O O4 0.162353 0.541615 0.185541
O O5 0.097601 0.503506 0.027854
O O6 0.815144 0.750000 0.252057
O O7 0.836641 0.990599 0.367000
O O8 0.731399 0.973451 0.275237
O O9 0.500000 0.500000 0.679556
O O10 0.426043 0.750000 0.648244
O O11 0.378304 0.465040 0.701869
O O12 0.429862 0.487749 0.537618
O O13 0.323035 0.250000 0.810414
O O14 0.376528 0.522375 0.872121
O O15 0.913049 0.750000 0.409401
O O16 0.429552 0.750000 0.429683
O O17 0.500000 0.000000 0.394456
#
# Coordination Sequence:
#
# PCOD9359935 Si02
#       7
#     4   8   8   8   8   8   8
#     4  10  18  32  56  88 116 142 176 220 266 318
#     4  10  20  36  58  82 111 146 182 222 267 318
#     4  10  22  39  55  76 108 144 184 228 272 323
#     4  10  20  36  56  82 113 145 181 224 274 326
#     4  11  22  37  57  81 108 143 185 228 275 326
#     4   9  19  35  54  79 111 145 180 219 267 320
#     4   9  20  36  55  80 111 143 179 223 271 326
#
# _framework density 20.952342000000002
#
# number of rings (size 3 to 8) (size 9 to 14) (size 15 to 20)
#    0.000    2.154    0.000    2.769    0.000    4.923 
#    0.000    7.692    0.000    0.000    0.000    0.000 
#    0.000    0.000    0.000    0.000    0.000    0.000 
#
# Total GULP energy -144836.071322 kJ/mol
# GULP energy per Si atom -5570.618128 kJ/mol
# Density = 2.090465 g / cm^3
# Si number density = 20.952342 Si / 1000 Ang^3
#
#
#
# Elastic Constant Matrix: (Units=GPa)
#
#
# Indices 1 2 3 4 5 6 
#
# 1 170.8096 6.0542 69.5920 0.0000 0.0000 0.0000
# 2 6.0542 44.4284 13.6660 0.0000 0.0000 0.0000
# 3 69.5920 13.6660 173.4093 0.0000 0.0000 0.0000
# 4 0.0000 0.0000 0.0000 5.0327 0.0000 0.0000
# 5 0.0000 0.0000 0.0000 0.0000 24.7679 0.0000
# 6 0.0000 0.0000 0.0000 0.0000 0.0000 -87.1746
#
#
#
# Elastic Compliance Matrix: (Units=1/GPa)
#
#
# Indices 1 2 3 4 5 6 
#
# 1 0.006999 -0.000092 -0.002802 0.000000 0.000000 0.000000
# 2 -0.000092 0.023069 -0.001781 0.000000 0.000000 0.000000
# 3 -0.002802 -0.001781 0.007031 0.000000 0.000000 0.000000
# 4 0.000000 0.000000 0.000000 0.198699 0.000000 0.000000
# 5 0.000000 0.000000 0.000000 0.000000 0.040375 0.000000
# 6 0.000000 0.000000 0.000000 0.000000 0.000000 -0.011471
#
#
# Mechanical properties :
#
#
# Convention : Reuss Voigt Hill
#
# Bulk Modulus (GPa) = 36.03640 63.03020 49.53330
# Shear Modulus (GPa) = 17.64906 8.48089 13.06497
#
# Velocity S-wave (km/s) = 2.90546 2.01407 2.49982
# Velocity P-wave (km/s) = 5.33781 5.96294 5.65901
#
# Compressibility (1/GPa) = 0.02774972
#
# Stress axis : x y z
#
# Youngs Moduli (GPa) = 142.87371 43.34914 142.21907
#
# Poissons Ratio (x) = 0.00399 0.39845
# Poissons Ratio (y) = 0.01314 0.25330
# Poissons Ratio (z) = 0.40028 0.07721
#
# Static dielectric constant tensor:
#      x y z
#    x 1.719370 0.000000 0.000000 
#    y 0.000000 1.869820 0.000000 
#    z 0.000000 0.000000 1.750980 
# 
# From -- ./inp_files/10272.got.cif
#   From: 2010.05.17/outbox.cif.g08.bks.cpg/sg39_6_cif.got.tgz:10272.got - 2010.06.03 18:22:40.
