data_PCOD9359164
_publ_section_title
;
Structure prediction by ZEFSAII (Michael W. Deem and Ramdas Pophale) SiO2 
 PCOD9359164
Probable space group: A M M 2
;
_chemical_formula_sum "Si O2"
_cell_formula_units_Z 58
_cell_length_a 16.836341
_cell_length_b 16.880356
_cell_length_c 9.627929
_cell_angle_alpha 90.000000
_cell_angle_beta 90.000000
_cell_angle_gamma 90.000000
_cell_volume 2736.290444
_symmetry_space_group_name_H-M "A M M 2"
_symmetry_group_IT_number 38
_symmetry_cell_setting 'orthorhombic'
loop_
_space_group_symop_operation_xyz
x,y,z
-x,-y,z
-x,y,z
x,-y,z
x,1/2+y,1/2+z
-x,1/2-y,1/2+z
-x,1/2+y,1/2+z
x,1/2-y,1/2+z
loop_
_atom_site_type_symbol
_atom_site_label
_atom_site_fract_x
_atom_site_fract_y
_atom_site_fract_z
Si Si1 0.661695 0.910503 0.033340
Si Si2 0.907563 0.214539 0.679319
Si Si3 0.369103 0.413583 0.135807
Si Si4 0.000000 0.500000 0.890462
Si Si5 0.791658 0.589180 0.314007
Si Si6 0.312437 0.367523 0.845034
Si Si7 0.586388 0.214777 0.843798
Si Si8 0.126384 0.353471 0.879921
O O1 0.668210 0.904082 0.196819
O O2 0.639042 0.000000 0.992580
O O3 0.747098 0.895284 0.959745
O O4 0.602954 0.845811 0.969582
O O5 0.854431 0.153515 0.767383
O O6 0.892274 0.301150 0.743227
O O7 0.887412 0.200526 0.517484
O O8 0.000000 0.195797 0.697682
O O9 0.402796 0.500000 0.169972
O O10 0.280873 0.410147 0.203734
O O11 0.411707 0.340031 0.207158
O O12 0.360026 0.404584 0.972473
O O13 0.069603 0.429574 0.890174
O O14 0.825451 0.500000 0.315790
O O15 0.342044 0.276701 0.838332
O O16 0.219163 0.374880 0.874285
O O17 0.500000 0.253379 0.857082
#
# Coordination Sequence:
#
# PCOD9359164 Si02
#       8
#     8   8   8   2   8   8   8   8
#     4  10  23  43  66  99 136 183 235 279 347 412
#     4  12  24  44  65 101 138 185 234 291 356 419
#     4  10  21  40  66  99 128 174 231 279 341 402
#     4  12  28  52  68 114 140 192 232 294 368 416
#     4   9  20  39  66  94 133 178 231 282 332 421
#     4  12  25  41  71 104 135 184 229 293 352 411
#     4  11  25  45  68 100 140 182 232 287 351 422
#     4  12  28  45  74 100 148 184 238 290 360 425
#
# _framework density 21.196580000000001
#
# number of rings (size 3 to 8) (size 9 to 14) (size 15 to 20)
#    0.000    1.103    2.759    4.138    6.759    3.586 
#    0.000    0.000    0.000    3.310    0.000    0.000 
#    0.000    0.000    0.000    0.000    0.000    0.000 
#
# Total GULP energy -161873.861956 kJ/mol
# GULP energy per Si atom -5581.857309 kJ/mol
# Density = 2.114834 g / cm^3
# Si number density = 21.196580 Si / 1000 Ang^3
#
#
#
# Elastic Constant Matrix: (Units=GPa)
#
#
# Indices 1 2 3 4 5 6 
#
# 1 85.0547 22.3994 6.2744 0.0000 0.0000 0.0000
# 2 22.3994 102.0382 26.5155 0.0000 0.0000 0.0000
# 3 6.2744 26.5155 134.5234 0.0000 0.0000 0.0000
# 4 0.0000 0.0000 0.0000 30.8171 0.0000 0.0000
# 5 0.0000 0.0000 0.0000 0.0000 5.2338 0.0000
# 6 0.0000 0.0000 0.0000 0.0000 0.0000 21.5622
#
#
#
# Elastic Compliance Matrix: (Units=1/GPa)
#
#
# Indices 1 2 3 4 5 6 
#
# 1 0.012479 -0.002728 -0.000044 0.000000 0.000000 0.000000
# 2 -0.002728 0.010926 -0.002026 0.000000 0.000000 0.000000
# 3 -0.000044 -0.002026 0.007835 0.000000 0.000000 0.000000
# 4 0.000000 0.000000 0.000000 0.032449 0.000000 0.000000
# 5 0.000000 0.000000 0.000000 0.000000 0.191067 0.000000
# 6 0.000000 0.000000 0.000000 0.000000 0.000000 0.046377
#
#
# Mechanical properties :
#
#
# Convention : Reuss Voigt Hill
#
# Bulk Modulus (GPa) = 46.20516 47.99941 47.10228
# Shear Modulus (GPa) = 15.72600 29.28442 22.50521
#
# Velocity S-wave (km/s) = 2.72676 3.72097 3.26197
# Velocity P-wave (km/s) = 5.63554 6.41521 6.03797
#
# Compressibility (1/GPa) = 0.02164261
#
# Stress axis : x y z
#
# Youngs Moduli (GPa) = 80.13600 91.52805 127.63053
#
# Poissons Ratio (x) = 0.24967 0.00566
# Poissons Ratio (y) = 0.21860 0.25862
# Poissons Ratio (z) = 0.00355 0.18546
#
# Static dielectric constant tensor:
#      x y z
#    x 1.741780 0.000000 0.000000 
#    y 0.000000 1.779620 0.000000 
#    z 0.000000 0.000000 1.774540 
# 
# From -- ./inp_files/6367.got.cif
#   From: 2010.05.17/outbox.cif.g08.bks.cpg/sg38_4_cif.got.tgz:6367.got - 2010.06.03 18:07:57.
