data_PCOD9359064
_publ_section_title
;
Structure prediction by ZEFSAII (Michael W. Deem and Ramdas Pophale) SiO2 
 PCOD9359064
Probable space group: A M M 2
;
_chemical_formula_sum "Si O2"
_cell_formula_units_Z 42
_cell_length_a 7.443468
_cell_length_b 9.873291
_cell_length_c 25.618203
_cell_angle_alpha 90.000000
_cell_angle_beta 90.000000
_cell_angle_gamma 90.000000
_cell_volume 1882.720822
_symmetry_space_group_name_H-M "A M M 2"
_symmetry_group_IT_number 38
_symmetry_cell_setting 'orthorhombic'
loop_
_space_group_symop_operation_xyz
x,y,z
-x,-y,z
-x,y,z
x,-y,z
x,1/2+y,1/2+z
-x,1/2-y,1/2+z
-x,1/2+y,1/2+z
x,1/2-y,1/2+z
loop_
_atom_site_type_symbol
_atom_site_label
_atom_site_fract_x
_atom_site_fract_y
_atom_site_fract_z
Si Si1 0.293412 0.261578 0.608040
Si Si2 0.217621 0.351439 0.998253
Si Si3 0.281959 0.849674 0.720571
Si Si4 0.714994 0.653573 0.810694
Si Si5 0.784923 0.346566 0.408976
Si Si6 0.000000 0.000000 0.098417
O O1 0.500000 0.307281 0.615256
O O2 0.284036 0.169012 0.556779
O O3 0.238875 0.183858 0.660854
O O4 0.156762 0.382680 0.598842
O O5 0.269986 0.500000 0.977828
O O6 0.281340 0.231410 0.960497
O O7 0.000000 0.346779 0.999262
O O8 0.500000 0.851731 0.724169
O O9 0.217148 0.732632 0.759478
O O10 0.218954 0.000000 0.735637
O O11 0.500000 0.643397 0.805617
O O12 0.784638 0.500000 0.816281
O O13 0.749979 0.749816 0.859932
O O14 0.715647 0.500000 0.402907
O O15 0.000000 0.356493 0.414160
#
# Coordination Sequence:
#
# PCOD9359064 Si02
#       6
#     8   8   8   8   8   2
#     4  11  24  42  68  96 132 177 219 265 328 391
#     4  10  21  39  64  93 129 169 214 272 333 389
#     4   9  19  38  64  92 124 163 211 268 327 388
#     4  10  21  38  61  89 123 164 212 267 323 379
#     4  10  22  39  61  89 125 167 212 263 321 381
#     4  12  26  44  62  98 140 172 216 280 316 388
#
# _framework density 22.308140999999999
#
# number of rings (size 3 to 8) (size 9 to 14) (size 15 to 20)
#    0.000    1.905    0.952    2.000    2.667    4.190 
#    1.714    0.000    0.000    0.000    0.000    0.000 
#    0.000    0.000    0.000    0.000    0.000    0.000 
#
# Total GULP energy -117125.513353 kJ/mol
# GULP energy per Si atom -5577.405398 kJ/mol
# Density = 2.225737 g / cm^3
# Si number density = 22.308141 Si / 1000 Ang^3
#
#
#
# Elastic Constant Matrix: (Units=GPa)
#
#
# Indices 1 2 3 4 5 6 
#
# 1 94.3045 22.3511 -9.4009 0.0000 0.0000 0.0000
# 2 22.3511 219.5313 84.5289 0.0000 0.0000 0.0000
# 3 -9.4009 84.5289 153.9462 0.0000 0.0000 0.0000
# 4 0.0000 0.0000 0.0000 -93.8753 0.0000 0.0000
# 5 0.0000 0.0000 0.0000 0.0000 18.8282 0.0000
# 6 0.0000 0.0000 0.0000 0.0000 0.0000 26.9222
#
#
#
# Elastic Compliance Matrix: (Units=1/GPa)
#
#
# Indices 1 2 3 4 5 6 
#
# 1 0.011191 -0.001779 0.001660 0.000000 0.000000 0.000000
# 2 -0.001779 0.006059 -0.003436 0.000000 0.000000 0.000000
# 3 0.001660 -0.003436 0.008484 0.000000 0.000000 0.000000
# 4 0.000000 0.000000 0.000000 -0.010652 0.000000 0.000000
# 5 0.000000 0.000000 0.000000 0.000000 0.053112 0.000000
# 6 0.000000 0.000000 0.000000 0.000000 0.000000 0.037144
#
#
# Mechanical properties :
#
#
# Convention : Reuss Voigt Hill
#
# Bulk Modulus (GPa) = 53.69035 73.63779 63.66407
# Shear Modulus (GPa) = 42.13940 15.06187 28.60064
#
# Velocity S-wave (km/s) = 4.35094 2.60123 3.58449
# Velocity P-wave (km/s) = 7.02572 6.48867 6.76253
#
# Compressibility (1/GPa) = 0.01862532
#
# Stress axis : x y z
#
# Youngs Moduli (GPa) = 89.35790 165.04210 117.87558
#
# Poissons Ratio (x) = 0.29353 -0.19567
# Poissons Ratio (y) = 0.15893 0.40496
# Poissons Ratio (z) = -0.14833 0.56701
#
# Static dielectric constant tensor:
#      x y z
#    x 1.848940 0.000000 0.000000 
#    y 0.000000 1.816360 0.000000 
#    z 0.000000 0.000000 1.791510 
# 
# From -- ./inp_files/23256.got.cif
#   From: 2010.05.17/outbox.cif.g08.bks.cpg/sg38_12_cif.got.tgz:23256.got - 2010.06.03 18:07:57.
