data_PCOD9359608
_publ_section_title
;
Structure prediction by ZEFSAII (Michael W. Deem and Ramdas Pophale) SiO2 
 PCOD9359608
Probable space group: A M M 2
;
_chemical_formula_sum "Si O2"
_cell_formula_units_Z 28
_cell_length_a 15.000000
_cell_length_b 15.000000
_cell_length_c 12.000000
_cell_angle_alpha 90.000000
_cell_angle_beta 90.000000
_cell_angle_gamma 90.000000
_cell_volume 2700.000000
_symmetry_space_group_name_H-M "A M M 2"
_symmetry_group_IT_number 38
_symmetry_cell_setting 'orthorhombic'
loop_
_space_group_symop_operation_xyz
x,y,z
-x,-y,z
-x,y,z
x,-y,z
x,1/2+y,1/2+z
-x,1/2-y,1/2+z
-x,1/2+y,1/2+z
x,1/2-y,1/2+z
loop_
_atom_site_type_symbol
_atom_site_label
_atom_site_fract_x
_atom_site_fract_y
_atom_site_fract_z
Si Si1 0.726274 0.102943 0.000000
Si Si2 0.897631 0.394742 0.082461
Si Si3 0.748076 0.657766 0.256084
Si Si4 0.897625 0.103415 0.142554
Si Si5 0.598935 0.397338 0.844350
Si Si6 0.397299 0.765035 0.133934
Si Si7 0.797032 0.155011 0.365859
O O1 0.820988 0.134703 0.054952
O O2 0.653607 0.175544 0.041216
O O3 0.709820 0.000000 0.039407
O O4 0.726107 0.101180 0.865965
O O5 0.897011 0.500000 0.056524
O O6 0.829760 0.378362 0.183541
O O7 0.000000 0.368873 0.106772
O O8 0.858122 0.346353 0.974298
O O9 0.664518 0.682958 0.175765
O O10 0.779699 0.749225 0.313035
O O11 0.850741 0.108041 0.264357
O O12 0.000000 0.141506 0.141533
O O13 0.907858 0.000000 0.114096
O O14 0.500000 0.384546 0.900408
O O15 0.599946 0.500000 0.807853
O O16 0.599329 0.330977 0.740243
O O17 0.697492 0.381769 0.897208
O O18 0.500000 0.743037 0.105426
#
# Coordination Sequence:
#
# PCOD9359608 Si02
#       7
#     8   8   8   8   8   8   8
#     4  11  22  40  65  92 125 168 214 260 314 380
#     4  11  25  44  65  89 122 169 215 256 310 377
#     4  11  24  42  60  93 130 167 202 258 317 380
#     4  10  20  35  58  90 125 163 210 267 327 377
#     4   9  16  29  55  90 124 158 200 251 307 366
#     4  10  21  39  62  91 126 162 203 254 314 373
#     4  11  21  37  62  89 126 162 213 267 316 373
#
# _framework density 10.370369999999999
#
# number of rings (size 3 to 8) (size 9 to 14) (size 15 to 20)
#    0.000    1.571    2.857    3.429    0.000    4.286 
#    0.000    5.000    0.000    2.143    0.000    0.000 
#    0.000    0.000    0.000    0.000    0.000    0.000 
#
# Total GULP energy -156167.133537 kJ/mol
# GULP energy per Si atom -5577.397626 kJ/mol
# Density = 1.034677 g / cm^3
# Si number density = 10.370370 Si / 1000 Ang^3
#
#
#
# Elastic Constant Matrix: (Units=GPa)
#
#
# Indices 1 2 3 4 5 6 
#
# 1 189.1694 19.8473 53.0910 0.0000 0.0000 0.0000
# 2 19.8473 48.9254 5.3561 0.0000 0.0000 0.0000
# 3 53.0910 5.3561 97.8249 0.0000 0.0000 0.0000
# 4 0.0000 0.0000 0.0000 14.2744 0.0000 0.0000
# 5 0.0000 0.0000 0.0000 0.0000 22.3043 0.0000
# 6 0.0000 0.0000 0.0000 0.0000 0.0000 20.9576
#
#
#
# Elastic Compliance Matrix: (Units=1/GPa)
#
#
# Indices 1 2 3 4 5 6 
#
# 1 0.006474 -0.002255 -0.003390 0.000000 0.000000 0.000000
# 2 -0.002255 0.021348 0.000055 0.000000 0.000000 0.000000
# 3 -0.003390 0.000055 0.012059 0.000000 0.000000 0.000000
# 4 0.000000 0.000000 0.000000 0.070056 0.000000 0.000000
# 5 0.000000 0.000000 0.000000 0.000000 0.044834 0.000000
# 6 0.000000 0.000000 0.000000 0.000000 0.000000 0.047715
#
#
# Mechanical properties :
#
#
# Convention : Reuss Voigt Hill
#
# Bulk Modulus (GPa) = 34.84206 54.72317 44.78262
# Shear Modulus (GPa) = 22.39793 28.68228 25.54010
#
# Velocity S-wave (km/s) = 3.28975 3.72276 3.51293
# Velocity P-wave (km/s) = 5.59153 6.70226 6.17193
#
# Compressibility (1/GPa) = 0.02870094
#
# Stress axis : x y z
#
# Youngs Moduli (GPa) = 154.45521 46.84251 82.92379
#
# Poissons Ratio (x) = 0.10564 0.28113
# Poissons Ratio (y) = 0.34834 -0.00457
# Poissons Ratio (z) = 0.52364 -0.00258
#
# Static dielectric constant tensor:
#      x y z
#    x 1.782130 0.000000 0.000000 
#    y 0.000000 1.895660 0.000000 
#    z 0.000000 0.000000 1.747170 
# 
# From -- ./inp_files/10105.got.cif
#   From: 2010.05.17/outbox.ucp.g08.bks.cvg/sg38_6_cif.got.tgz:10105.got - 2010.06.11 10:39:43.
