data_PCOD9359535
_publ_section_title
;
Structure prediction by ZEFSAII (Michael W. Deem and Ramdas Pophale) SiO2 
 PCOD9359535
Probable space group: A M M 2
;
_chemical_formula_sum "Si O2"
_cell_formula_units_Z 40
_cell_length_a 8.180076
_cell_length_b 7.318735
_cell_length_c 29.878150
_cell_angle_alpha 90.000000
_cell_angle_beta 90.000000
_cell_angle_gamma 90.000000
_cell_volume 1788.739363
_symmetry_space_group_name_H-M "A M M 2"
_symmetry_group_IT_number 38
_symmetry_cell_setting 'orthorhombic'
loop_
_space_group_symop_operation_xyz
x,y,z
-x,-y,z
-x,y,z
x,-y,z
x,1/2+y,1/2+z
-x,1/2-y,1/2+z
-x,1/2+y,1/2+z
x,1/2-y,1/2+z
loop_
_atom_site_type_symbol
_atom_site_label
_atom_site_fract_x
_atom_site_fract_y
_atom_site_fract_z
Si Si1 0.311013 0.219999 0.602940
Si Si2 0.000000 0.277268 0.862402
Si Si3 0.183952 0.222027 0.508105
Si Si4 0.000000 0.776100 0.258750
Si Si5 0.687227 0.212611 0.204031
Si Si6 0.321832 0.777197 0.415699
O O1 0.500000 0.274543 0.598945
O O2 0.222696 0.285451 0.558179
O O3 0.256556 0.277930 0.652177
O O4 0.302604 0.000000 0.602949
O O5 0.834894 0.217377 0.887424
O O6 0.000000 0.500000 0.864127
O O7 0.000000 0.224676 0.810634
O O8 0.299136 0.278898 0.467497
O O9 0.000000 0.271979 0.495722
O O10 0.192444 0.000000 0.509605
O O11 0.166395 0.712473 0.234362
O O12 0.000000 0.000000 0.256281
O O13 0.500000 0.288522 0.206835
O O14 0.672560 0.000000 0.216009
O O15 0.500000 0.719928 0.398830
O O16 0.319286 0.000000 0.415131
#
# Coordination Sequence:
#
# PCOD9359535 Si02
#       6
#     8   4   8   4   8   8
#     4   9  17  28  43  65  91 118 149 182 215 256
#     4   9  16  26  37  55  79 105 143 181 212 255
#     4   9  15  23  36  57  87 117 143 173 212 257
#     4   9  18  30  44  59  81 113 149 187 224 261
#     4   9  18  32  47  63  87 119 151 182 219 262
#     4   9  15  23  36  54  80 112 141 171 210 256
#
# _framework density 22.362117999999999
#
# number of rings (size 3 to 8) (size 9 to 14) (size 15 to 20)
#    0.000    3.000    1.000    0.600    1.400    3.200 
#    0.000    4.000    0.000    0.000    0.000    0.000 
#    0.000    3.200    0.000   11.000    0.000   10.600 
#
# Total GULP energy -111613.720530 kJ/mol
# GULP energy per Si atom -5580.686027 kJ/mol
# Density = 2.231122 g / cm^3
# Si number density = 22.362118 Si / 1000 Ang^3
#
#
#
# Elastic Constant Matrix: (Units=GPa)
#
#
# Indices 1 2 3 4 5 6 
#
# 1 176.6920 6.5456 112.7695 0.0000 0.0000 0.0000
# 2 6.5456 85.6678 -0.5651 0.0000 0.0000 0.0000
# 3 112.7695 -0.5651 158.7362 0.0000 0.0000 0.0000
# 4 0.0000 0.0000 0.0000 6.9895 0.0000 0.0000
# 5 0.0000 0.0000 0.0000 0.0000 14.0823 0.0000
# 6 0.0000 0.0000 0.0000 0.0000 0.0000 -15.7030
#
#
#
# Elastic Compliance Matrix: (Units=1/GPa)
#
#
# Indices 1 2 3 4 5 6 
#
# 1 0.010415 -0.000845 -0.007402 0.000000 0.000000 0.000000
# 2 -0.000845 0.011742 0.000642 0.000000 0.000000 0.000000
# 3 -0.007402 0.000642 0.011561 0.000000 0.000000 0.000000
# 4 0.000000 0.000000 0.000000 0.143072 0.000000 0.000000
# 5 0.000000 0.000000 0.000000 0.000000 0.071011 0.000000
# 6 0.000000 0.000000 0.000000 0.000000 0.000000 -0.063682
#
#
# Mechanical properties :
#
#
# Convention : Reuss Voigt Hill
#
# Bulk Modulus (GPa) = 54.03146 73.17734 63.60440
# Shear Modulus (GPa) = 24.33119 21.23015 22.78067
#
# Velocity S-wave (km/s) = 3.30214 3.08454 3.19520
# Velocity P-wave (km/s) = 6.22522 6.74394 6.48976
#
# Compressibility (1/GPa) = 0.01850774
#
# Stress axis : x y z
#
# Youngs Moduli (GPa) = 96.01491 85.16607 86.50048
#
# Poissons Ratio (x) = 0.07193 0.64028
# Poissons Ratio (y) = 0.08110 -0.05552
# Poissons Ratio (z) = 0.71071 -0.05466
#
# Static dielectric constant tensor:
#      x y z
#    x 1.809770 0.000000 0.000000 
#    y 0.000000 1.955210 0.000000 
#    z 0.000000 0.000000 1.778640 
# 
# From -- ./inp_files/19513.got.cif
#   From: 2010.05.17/outbox.cif.g08.bks.cpg/sg38_10_cif.got.tgz:19513.got - 2010.06.03 18:07:57.
