data_PCOD9359176
_publ_section_title
;
Structure prediction by ZEFSAII (Michael W. Deem and Ramdas Pophale) SiO2 
 PCOD9359176
Probable space group: A M M 2
;
_chemical_formula_sum "Si O2"
_cell_formula_units_Z 56
_cell_length_a 14.863337
_cell_length_b 13.928955
_cell_length_c 11.902180
_cell_angle_alpha 90.000000
_cell_angle_beta 90.000000
_cell_angle_gamma 90.000000
_cell_volume 2464.117278
_symmetry_space_group_name_H-M "A M M 2"
_symmetry_group_IT_number 38
_symmetry_cell_setting 'orthorhombic'
loop_
_space_group_symop_operation_xyz
x,y,z
-x,-y,z
-x,y,z
x,-y,z
x,1/2+y,1/2+z
-x,1/2-y,1/2+z
-x,1/2+y,1/2+z
x,1/2-y,1/2+z
loop_
_atom_site_type_symbol
_atom_site_label
_atom_site_fract_x
_atom_site_fract_y
_atom_site_fract_z
Si Si1 0.098104 0.888582 0.844840
Si Si2 0.600869 0.185061 0.077390
Si Si3 0.706048 0.612283 0.361715
Si Si4 0.900859 0.199331 0.082747
Si Si5 0.818268 0.892174 0.491620
Si Si6 0.364734 0.105204 0.624404
Si Si7 0.251950 0.385814 0.739393
O O1 0.197280 0.847851 0.818661
O O2 0.000000 0.848976 0.807653
O O3 0.097941 0.000000 0.810241
O O4 0.099120 0.875061 0.979086
O O5 0.500000 0.143588 0.070157
O O6 0.593915 0.299802 0.074600
O O7 0.653832 0.154095 0.190646
O O8 0.664553 0.156919 0.973101
O O9 0.721684 0.500000 0.386796
O O10 0.637550 0.616751 0.258573
O O11 0.825171 0.166677 0.168296
O O12 0.000000 0.196730 0.133261
O O13 0.881000 0.304134 0.028709
O O14 0.737942 0.895179 0.581350
O O15 0.770957 0.873846 0.370964
O O16 0.859687 0.000000 0.487992
O O17 0.400964 0.000000 0.594953
O O18 0.250050 0.500000 0.716879
#
# Coordination Sequence:
#
# PCOD9359176 Si02
#       7
#     8   8   8   8   8   8   8
#     4   9  17  31  57  95 131 164 210 266 319 373
#     4  12  26  41  68 101 129 167 224 285 345 405
#     4  10  21  41  68  95 132 174 214 272 333 395
#     4  11  22  37  64  98 132 176 227 268 316 391
#     4  10  23  44  68  95 135 181 222 272 337 402
#     4  10  23  44  68  94 130 177 225 271 333 406
#     4  11  24  44  69  97 137 180 220 277 342 405
#
# _framework density 22.726189999999999
#
# number of rings (size 3 to 8) (size 9 to 14) (size 15 to 20)
#    0.000    1.571    2.857    0.857    4.000    3.714 
#    0.000    5.000    0.000    5.143    0.000    2.000 
#    0.000    0.000    0.000    0.000    0.000    0.000 
#
# Total GULP energy -156378.529976 kJ/mol
# GULP energy per Si atom -5584.947499 kJ/mol
# Density = 2.267446 g / cm^3
# Si number density = 22.726190 Si / 1000 Ang^3
#
#
#
# Elastic Constant Matrix: (Units=GPa)
#
#
# Indices 1 2 3 4 5 6 
#
# 1 128.5953 25.6295 9.5926 0.0000 0.0000 0.0000
# 2 25.6295 120.5244 22.2081 0.0000 0.0000 0.0000
# 3 9.5926 22.2081 76.6389 0.0000 0.0000 0.0000
# 4 0.0000 0.0000 0.0000 34.2625 0.0000 0.0000
# 5 0.0000 0.0000 0.0000 0.0000 -31.0197 0.0000
# 6 0.0000 0.0000 0.0000 0.0000 0.0000 -38.8236
#
#
#
# Elastic Compliance Matrix: (Units=1/GPa)
#
#
# Indices 1 2 3 4 5 6 
#
# 1 0.008142 -0.001631 -0.000547 0.000000 0.000000 0.000000
# 2 -0.001631 0.009092 -0.002430 0.000000 0.000000 0.000000
# 3 -0.000547 -0.002430 0.013821 0.000000 0.000000 0.000000
# 4 0.000000 0.000000 0.000000 0.029186 0.000000 0.000000
# 5 0.000000 0.000000 0.000000 0.000000 -0.032238 0.000000
# 6 0.000000 0.000000 0.000000 0.000000 0.000000 -0.025758
#
#
# Mechanical properties :
#
#
# Convention : Reuss Voigt Hill
#
# Bulk Modulus (GPa) = 45.78914 48.95767 47.37340
# Shear Modulus (GPa) = 266.79105 10.77239 138.78172
#
# Velocity S-wave (km/s) = 10.84659 2.17953 7.82301
# Velocity P-wave (km/s) = 13.30626 5.28422 10.12372
#
# Compressibility (1/GPa) = 0.02183924
#
# Stress axis : x y z
#
# Youngs Moduli (GPa) = 122.81833 109.99059 72.35421
#
# Poissons Ratio (x) = 0.17936 0.03955
# Poissons Ratio (y) = 0.20028 0.17585
# Poissons Ratio (z) = 0.06713 0.26733
#
# Static dielectric constant tensor:
#      x y z
#    x 1.925810 0.000000 0.000000 
#    y 0.000000 1.878210 0.000000 
#    z 0.000000 0.000000 1.809060 
# 
# From -- ./inp_files/10099.got.cif
#   From: 2010.05.17/outbox.cif.g08.bks.cpg/sg38_6_cif.got.tgz:10099.got - 2010.06.03 18:07:57.
