data_PCOD9359966
_publ_section_title
;
Structure prediction by ZEFSAII (Michael W. Deem and Ramdas Pophale) SiO2 
 PCOD9359966
Probable space group: A B M 2
;
_chemical_formula_sum "Si O2"
_cell_formula_units_Z 64
_cell_length_a 12.466254
_cell_length_b 23.019668
_cell_length_c 12.210958
_cell_angle_alpha 90.000000
_cell_angle_beta 90.000000
_cell_angle_gamma 90.000000
_cell_volume 3504.166752
_symmetry_space_group_name_H-M "A B M 2"
_symmetry_group_IT_number 39
_symmetry_cell_setting 'orthorhombic'
loop_
_space_group_symop_operation_xyz
x,y,z
-x,-y,z
-x,1/2+y,z
x,1/2-y,z
x,1/2+y,1/2+z
-x,1/2-y,1/2+z
-x,y,1/2+z
x,-y,1/2+z
loop_
_atom_site_type_symbol
_atom_site_label
_atom_site_fract_x
_atom_site_fract_y
_atom_site_fract_z
Si Si1 0.657069 0.814563 0.778540
Si Si2 0.779113 0.096195 0.158869
Si Si3 0.566727 0.314805 0.651966
Si Si4 0.876731 0.073558 0.941569
Si Si5 0.623369 0.007878 0.618026
Si Si6 0.440986 0.099440 0.947549
Si Si7 0.920674 0.456826 0.340649
Si Si8 0.337112 0.596224 0.808667
O O1 0.685375 0.750000 0.819306
O O2 0.737519 0.840501 0.689247
O O3 0.543125 0.810498 0.718827
O O4 0.637924 0.864806 0.868204
O O5 0.830396 0.069479 0.267391
O O6 0.684300 0.053266 0.117295
O O7 0.866414 0.094536 0.064257
O O8 0.599436 0.250000 0.617322
O O9 0.543847 0.357297 0.550459
O O10 0.647055 0.345460 0.737077
O O11 0.771882 0.095738 0.877748
O O12 0.993474 0.087622 0.891389
O O13 0.876171 0.002688 0.930243
O O14 0.613158 0.042398 0.502398
O O15 0.671737 0.046594 0.715535
O O16 0.500000 0.000000 0.650996
O O17 0.554117 0.088605 0.883362
O O18 0.000000 0.500000 0.271688
#
# Coordination Sequence:
#
# PCOD9359966 Si02
#       8
#     8   8   8   8   8   8   8   8
#     4  10  22  37  54  79 112 154 199 233 271 336
#     4  12  21  36  59  81 113 149 185 235 285 347
#     4   9  18  33  51  76 110 153 201 234 268 330
#     4   9  20  35  55  79 111 142 183 224 288 346
#     4  11  21  30  49  84 118 147 181 227 290 355
#     4  10  20  31  52  77 116 156 188 226 284 336
#     4   8  21  35  54  82 110 140 178 230 288 346
#     4  10  18  34  48  76 113 151 183 233 286 344
#
# _framework density 18.263971000000002
#
# number of rings (size 3 to 8) (size 9 to 14) (size 15 to 20)
#    0.750    1.250    1.250    4.125    3.500    3.000 
#    0.000    0.625    0.000    1.500    0.000    0.000 
#    0.000    0.000    0.000    0.000    0.000    0.000 
#
# Total GULP energy -178166.917011 kJ/mol
# GULP energy per Si atom -5567.716157 kJ/mol
# Density = 1.822240 g / cm^3
# Si number density = 18.263971 Si / 1000 Ang^3
#
#
#
# Elastic Constant Matrix: (Units=GPa)
#
#
# Indices 1 2 3 4 5 6 
#
# 1 50.4405 22.2045 13.3921 0.0000 0.0000 0.0000
# 2 22.2045 58.2978 16.9277 0.0000 0.0000 0.0000
# 3 13.3921 16.9277 66.0523 0.0000 0.0000 0.0000
# 4 0.0000 0.0000 0.0000 73.0485 0.0000 0.0000
# 5 0.0000 0.0000 0.0000 0.0000 17.8591 0.0000
# 6 0.0000 0.0000 0.0000 0.0000 0.0000 8.6115
#
#
#
# Elastic Compliance Matrix: (Units=1/GPa)
#
#
# Indices 1 2 3 4 5 6 
#
# 1 0.024275 -0.008445 -0.002757 0.000000 0.000000 0.000000
# 2 -0.008445 0.021471 -0.003790 0.000000 0.000000 0.000000
# 3 -0.002757 -0.003790 0.016670 0.000000 0.000000 0.000000
# 4 0.000000 0.000000 0.000000 0.013690 0.000000 0.000000
# 5 0.000000 0.000000 0.000000 0.000000 0.055994 0.000000
# 6 0.000000 0.000000 0.000000 0.000000 0.000000 0.116124
#
#
# Mechanical properties :
#
#
# Convention : Reuss Voigt Hill
#
# Bulk Modulus (GPa) = 30.83580 31.09326 30.96453
# Shear Modulus (GPa) = 17.29989 28.05490 22.67739
#
# Velocity S-wave (km/s) = 3.08102 3.92354 3.52752
# Velocity P-wave (km/s) = 5.43847 6.13081 5.79499
#
# Compressibility (1/GPa) = 0.03242984
#
# Stress axis : x y z
#
# Youngs Moduli (GPa) = 41.19431 46.57553 59.98831
#
# Poissons Ratio (x) = 0.39334 0.16542
# Poissons Ratio (y) = 0.34790 0.22736
# Poissons Ratio (z) = 0.11359 0.17653
#
# Static dielectric constant tensor:
#      x y z
#    x 1.635670 0.000000 0.000000 
#    y 0.000000 1.631410 0.000000 
#    z 0.000000 0.000000 1.667250 
# 
# From -- ./inp_files/6099.got.cif
#   From: 2010.05.17/outbox.cif.g08.bks.cpg/sg39_4_cif.got.tgz:6099.got - 2010.06.03 18:22:40.
