data_PCOD9359308
_publ_section_title
;
Structure prediction by ZEFSAII (Michael W. Deem and Ramdas Pophale) SiO2 
 PCOD9359308
Probable space group: A M M 2
;
_chemical_formula_sum "Si O2"
_cell_formula_units_Z 32
_cell_length_a 10.348948
_cell_length_b 25.977934
_cell_length_c 5.148553
_cell_angle_alpha 90.000000
_cell_angle_beta 90.000000
_cell_angle_gamma 90.000000
_cell_volume 1384.159066
_symmetry_space_group_name_H-M "A M M 2"
_symmetry_group_IT_number 38
_symmetry_cell_setting 'orthorhombic'
loop_
_space_group_symop_operation_xyz
x,y,z
-x,-y,z
-x,y,z
x,-y,z
x,1/2+y,1/2+z
-x,1/2-y,1/2+z
-x,1/2+y,1/2+z
x,1/2-y,1/2+z
loop_
_atom_site_type_symbol
_atom_site_label
_atom_site_fract_x
_atom_site_fract_y
_atom_site_fract_z
Si Si1 0.145569 0.123526 0.511770
Si Si2 0.639930 0.343430 0.620986
Si Si3 0.356740 0.558504 0.253399
Si Si4 0.182884 0.282844 0.339731
O O1 0.241260 0.154774 0.320596
O O2 0.233106 0.074177 0.581662
O O3 0.133277 0.160429 0.764035
O O4 0.000000 0.113372 0.416319
O O5 0.500000 0.335627 0.744016
O O6 0.640449 0.398490 0.476978
O O7 0.669297 0.298677 0.410661
O O8 0.500000 0.562247 0.122611
O O9 0.344224 0.500000 0.347247
O O10 0.145305 0.251941 0.596020
#
# Coordination Sequence:
#
# PCOD9359308 Si02
#       4
#     8   8   8   8
#     4  11  24  41  65  99 139 181 227 281 341 415
#     4  10  22  41  67 100 135 175 227 286 344 409
#     4   9  20  41  67  94 129 177 230 286 347 409
#     4  11  23  45  65  96 131 182 229 278 331 395
#
# _framework density 23.118729999999999
#
# number of rings (size 3 to 8) (size 9 to 14) (size 15 to 20)
#    0.000    1.750    2.500    0.750    0.000    8.500 
#    0.000    2.500    0.000    0.000    0.000    0.000 
#    0.000    0.000    0.000    0.000    0.000    0.000 
#
# Total GULP energy -89101.182131 kJ/mol
# GULP energy per Si atom -5568.823883 kJ/mol
# Density = 2.306611 g / cm^3
# Si number density = 23.118730 Si / 1000 Ang^3
#
#
#
# Elastic Constant Matrix: (Units=GPa)
#
#
# Indices 1 2 3 4 5 6 
#
# 1 222.8993 41.1455 47.2523 0.0000 0.0000 0.0000
# 2 41.1455 95.1152 24.8499 0.0000 0.0000 0.0000
# 3 47.2523 24.8499 96.4089 0.0000 0.0000 0.0000
# 4 0.0000 0.0000 0.0000 27.8464 0.0000 0.0000
# 5 0.0000 0.0000 0.0000 0.0000 10.7529 0.0000
# 6 0.0000 0.0000 0.0000 0.0000 0.0000 -20.8399
#
#
#
# Elastic Compliance Matrix: (Units=1/GPa)
#
#
# Indices 1 2 3 4 5 6 
#
# 1 0.005255 -0.001716 -0.002133 0.000000 0.000000 0.000000
# 2 -0.001716 0.011833 -0.002209 0.000000 0.000000 0.000000
# 3 -0.002133 -0.002209 0.011988 0.000000 0.000000 0.000000
# 4 0.000000 0.000000 0.000000 0.035911 0.000000 0.000000
# 5 0.000000 0.000000 0.000000 0.000000 0.092998 0.000000
# 6 0.000000 0.000000 0.000000 0.000000 0.000000 -0.047985
#
#
# Mechanical properties :
#
#
# Convention : Reuss Voigt Hill
#
# Bulk Modulus (GPa) = 58.96568 71.21319 65.08943
# Shear Modulus (GPa) = 39.13279 23.63026 31.38153
#
# Velocity S-wave (km/s) = 4.11869 3.20054 3.68830
# Velocity P-wave (km/s) = 6.94112 6.67293 6.80835
#
# Compressibility (1/GPa) = 0.01695902
#
# Stress axis : x y z
#
# Youngs Moduli (GPa) = 190.28172 84.50936 83.42004
#
# Poissons Ratio (x) = 0.14502 0.17797
# Poissons Ratio (y) = 0.32652 0.18427
# Poissons Ratio (z) = 0.40596 0.18668
#
# Static dielectric constant tensor:
#      x y z
#    x 1.963060 0.000000 0.000000 
#    y 0.000000 1.859850 0.000000 
#    z 0.000000 0.000000 1.977250 
# 
# From -- ./inp_files/448.got.cif
#   From: 2010.05.17/outbox.cif.g08.bks.cpg/sg38_1_cif.got.tgz:448.got - 2010.06.03 18:07:57.
