data_PCOD9359399
_publ_section_title
;
Structure prediction by ZEFSAII (Michael W. Deem and Ramdas Pophale) SiO2 
 PCOD9359399
Probable space group: A M M 2
;
_chemical_formula_sum "Si O2"
_cell_formula_units_Z 64
_cell_length_a 7.625362
_cell_length_b 15.272984
_cell_length_c 28.821224
_cell_angle_alpha 90.000000
_cell_angle_beta 90.000000
_cell_angle_gamma 90.000000
_cell_volume 3356.578307
_symmetry_space_group_name_H-M "A M M 2"
_symmetry_group_IT_number 38
_symmetry_cell_setting 'orthorhombic'
loop_
_space_group_symop_operation_xyz
x,y,z
-x,-y,z
-x,y,z
x,-y,z
x,1/2+y,1/2+z
-x,1/2-y,1/2+z
-x,1/2+y,1/2+z
x,1/2-y,1/2+z
loop_
_atom_site_type_symbol
_atom_site_label
_atom_site_fract_x
_atom_site_fract_y
_atom_site_fract_z
Si Si1 0.214057 0.901318 0.408340
Si Si2 0.213663 0.899557 0.951535
Si Si3 0.788225 0.599428 0.014903
Si Si4 0.214930 0.777075 0.867360
Si Si5 0.210738 0.099278 0.785114
Si Si6 0.791512 0.402939 0.555846
Si Si7 0.710859 0.401199 0.178357
Si Si8 0.703934 0.724938 0.099518
O O1 0.266419 0.882484 0.461823
O O2 0.271372 0.822937 0.375053
O O3 0.000000 0.901996 0.408296
O O4 0.271199 0.000000 0.396582
O O5 0.271507 0.832567 0.912387
O O6 0.000000 0.895820 0.951502
O O7 0.261503 0.000000 0.940512
O O8 0.275055 0.880291 0.003919
O O9 0.731939 0.500000 0.026808
O O10 0.728177 0.668824 0.052617
O O11 0.000000 0.600900 0.015188
O O12 0.274644 0.829008 0.821777
O O13 0.000000 0.776735 0.866757
O O14 0.251829 0.120686 0.731816
O O15 0.000000 0.096088 0.789672
O O16 0.275995 0.000000 0.794589
O O17 0.724469 0.500000 0.568796
O O18 0.764157 0.323378 0.590495
O O19 0.000000 0.410619 0.550777
O O20 0.500000 0.404915 0.173170
O O21 0.778056 0.500000 0.169410
O O22 0.783046 0.331232 0.141728
O O23 0.500000 0.732227 0.109295
#
# Coordination Sequence:
#
# PCOD9359399 Si02
#       8
#     8   8   8   8   8   8   8   8
#     4   8  14  24  39  62  91 121 151 180 213 259
#     4   8  13  22  39  64  91 117 144 174 212 260
#     4   9  17  29  46  69  96 125 157 191 226 268
#     4   9  14  21  38  63  90 116 141 176 220 262
#     4   9  17  28  44  68  91 109 138 183 229 267
#     4   9  18  32  49  69  94 125 159 191 222 261
#     4   9  19  35  50  64  87 119 150 180 223 280
#     4  11  21  31  47  69  92 121 156 192 231 277
#
# _framework density 19.067036999999999
#
# number of rings (size 3 to 8) (size 9 to 14) (size 15 to 20)
#    0.000    3.000    0.000    3.375    0.000    5.500 
#    0.000    1.250    0.000    3.750    0.000    5.250 
#    0.000    0.000    0.000    0.000    0.000    0.000 
#
# Total GULP energy -178444.237105 kJ/mol
# GULP energy per Si atom -5576.382410 kJ/mol
# Density = 1.902364 g / cm^3
# Si number density = 19.067037 Si / 1000 Ang^3
#
#
#
# Elastic Constant Matrix: (Units=GPa)
#
#
# Indices 1 2 3 4 5 6 
#
# 1 31.9294 4.3007 2.8084 0.0000 0.0000 0.0000
# 2 4.3007 169.7012 115.8846 0.0000 0.0000 0.0000
# 3 2.8084 115.8846 112.2428 0.0000 0.0000 0.0000
# 4 0.0000 0.0000 0.0000 31.4488 0.0000 0.0000
# 5 0.0000 0.0000 0.0000 0.0000 27.8098 0.0000
# 6 0.0000 0.0000 0.0000 0.0000 0.0000 -0.3552
#
#
#
# Elastic Compliance Matrix: (Units=1/GPa)
#
#
# Indices 1 2 3 4 5 6 
#
# 1 0.031427 -0.000880 0.000122 0.000000 0.000000 0.000000
# 2 -0.000880 0.020002 -0.020629 0.000000 0.000000 0.000000
# 3 0.000122 -0.020629 0.030205 0.000000 0.000000 0.000000
# 4 0.000000 0.000000 0.000000 0.031798 0.000000 0.000000
# 5 0.000000 0.000000 0.000000 0.000000 0.035958 0.000000
# 6 0.000000 0.000000 0.000000 0.000000 0.000000 -2.815314
#
#
# Mechanical properties :
#
#
# Convention : Reuss Voigt Hill
#
# Bulk Modulus (GPa) = 25.73351 62.20675 43.97013
# Shear Modulus (GPa) = -1.91556 24.50601 11.29522
#
# Velocity S-wave (km/s) = -1.00341 3.58894 2.43656
# Velocity P-wave (km/s) = 3.49044 7.06187 5.57015
#
# Compressibility (1/GPa) = 0.03885983
#
# Stress axis : x y z
#
# Youngs Moduli (GPa) = 31.81995 49.99496 33.10762
#
# Poissons Ratio (x) = 0.04398 -0.00404
# Poissons Ratio (y) = 0.02799 0.68298
# Poissons Ratio (z) = -0.00388 1.03135
#
# Static dielectric constant tensor:
#      x y z
#    x 1.715430 0.000000 0.000000 
#    y 0.000000 1.694470 0.000000 
#    z 0.000000 0.000000 1.646520 
# 
# From -- ./inp_files/24731.got.cif
#   From: 2010.05.17/outbox.cif.g08.bks.cpg/sg38_13_cif.got.tgz:24731.got - 2010.06.03 18:07:57.
