data_PCOD9359042
_publ_section_title
;
Structure prediction by ZEFSAII (Michael W. Deem and Ramdas Pophale) SiO2 
 PCOD9359042
Probable space group: A M M 2
;
_chemical_formula_sum "Si O2"
_cell_formula_units_Z 48
_cell_length_a 8.754407
_cell_length_b 14.936353
_cell_length_c 18.947135
_cell_angle_alpha 90.000000
_cell_angle_beta 90.000000
_cell_angle_gamma 90.000000
_cell_volume 2477.506782
_symmetry_space_group_name_H-M "A M M 2"
_symmetry_group_IT_number 38
_symmetry_cell_setting 'orthorhombic'
loop_
_space_group_symop_operation_xyz
x,y,z
-x,-y,z
-x,y,z
x,-y,z
x,1/2+y,1/2+z
-x,1/2-y,1/2+z
-x,1/2+y,1/2+z
x,1/2-y,1/2+z
loop_
_atom_site_type_symbol
_atom_site_label
_atom_site_fract_x
_atom_site_fract_y
_atom_site_fract_z
Si Si1 0.814444 0.101881 0.966900
Si Si2 0.317696 0.103980 0.410864
Si Si3 0.816173 0.104545 0.128686
Si Si4 0.681200 0.277992 0.191199
Si Si5 0.183038 0.270997 0.340101
Si Si6 0.179658 0.393371 0.064417
O O1 0.500000 0.214646 0.690662
O O2 0.763528 0.169141 0.906465
O O3 0.765505 0.000000 0.952303
O O4 0.771010 0.124509 0.047193
O O5 0.500000 0.113551 0.406890
O O6 0.237787 0.170847 0.356960
O O7 0.261108 0.126321 0.490073
O O8 0.277979 0.000000 0.397910
O O9 0.732860 0.175822 0.177148
O O10 0.000000 0.102438 0.966594
O O11 0.782132 0.000000 0.142623
O O12 0.747672 0.304837 0.267024
O O13 0.751332 0.337489 0.128509
O O14 0.000000 0.115657 0.134645
O O15 0.000000 0.274088 0.336238
O O16 0.195857 0.500000 0.077436
O O17 0.000000 0.372440 0.057158
#
# Coordination Sequence:
#
# PCOD9359042 Si02
#       6
#     8   8   8   8   8   8
#     4   8  16  33  58  85 108 133 172 224 276 324
#     4  10  21  38  60  86 116 148 184 232 290 344
#     4   9  18  36  62  87 110 140 183 233 282 338
#     4  12  25  38  54  80 118 156 189 234 289 339
#     4  11  22  36  57  83 113 151 192 231 275 335
#     4  10  21  39  63  87 111 145 192 240 284 338
#
# _framework density 19.374317000000001
#
# number of rings (size 3 to 8) (size 9 to 14) (size 15 to 20)
#    0.000    2.000    0.000    5.000    0.000    5.000 
#    0.000    2.500    0.000    3.500    0.000    0.000 
#    0.000    0.000    0.000    0.000    0.000    0.000 
#
# Total GULP energy -134109.560828 kJ/mol
# GULP energy per Si atom -5587.898368 kJ/mol
# Density = 1.933022 g / cm^3
# Si number density = 19.374317 Si / 1000 Ang^3
#
#
#
# Elastic Constant Matrix: (Units=GPa)
#
#
# Indices 1 2 3 4 5 6 
#
# 1 47.6142 13.7967 2.4877 0.0000 0.0000 0.0000
# 2 13.7967 32.1589 10.7225 0.0000 0.0000 0.0000
# 3 2.4877 10.7225 32.5781 0.0000 0.0000 0.0000
# 4 0.0000 0.0000 0.0000 8.9579 0.0000 0.0000
# 5 0.0000 0.0000 0.0000 0.0000 26.1929 0.0000
# 6 0.0000 0.0000 0.0000 0.0000 0.0000 14.9510
#
#
#
# Elastic Compliance Matrix: (Units=1/GPa)
#
#
# Indices 1 2 3 4 5 6 
#
# 1 0.024072 -0.010912 0.001753 0.000000 0.000000 0.000000
# 2 -0.010912 0.039875 -0.012291 0.000000 0.000000 0.000000
# 3 0.001753 -0.012291 0.034607 0.000000 0.000000 0.000000
# 4 0.000000 0.000000 0.000000 0.111634 0.000000 0.000000
# 5 0.000000 0.000000 0.000000 0.000000 0.038178 0.000000
# 6 0.000000 0.000000 0.000000 0.000000 0.000000 0.066885
#
#
# Mechanical properties :
#
#
# Convention : Reuss Voigt Hill
#
# Bulk Modulus (GPa) = 17.96780 18.48500 18.22640
# Shear Modulus (GPa) = 13.27307 15.70998 14.49153
#
# Velocity S-wave (km/s) = 2.62025 2.85066 2.73788
# Velocity P-wave (km/s) = 4.29517 4.51627 4.40711
#
# Compressibility (1/GPa) = 0.05565511
#
# Stress axis : x y z
#
# Youngs Moduli (GPa) = 41.54136 25.07831 28.89591
#
# Poissons Ratio (x) = 0.27366 -0.05066
# Poissons Ratio (y) = 0.45330 0.35516
# Poissons Ratio (z) = -0.07284 0.30824
#
# Static dielectric constant tensor:
#      x y z
#    x 1.645440 0.000000 0.000000 
#    y 0.000000 1.683190 0.000000 
#    z 0.000000 0.000000 1.659450 
# 
# From -- ./inp_files/16626.got.cif
#   From: 2010.05.17/outbox.cif.g08.bks.cpg/sg38_9_cif.got.tgz:16626.got - 2010.06.03 18:07:57.
