data_PCOD9359928
_publ_section_title
;
Structure prediction by ZEFSAII (Michael W. Deem and Ramdas Pophale) SiO2 
 PCOD9359928
Probable space group: A B M 2
;
_chemical_formula_sum "Si O2"
_cell_formula_units_Z 48
_cell_length_a 8.983560
_cell_length_b 15.942774
_cell_length_c 16.124806
_cell_angle_alpha 90.000000
_cell_angle_beta 90.000000
_cell_angle_gamma 90.000000
_cell_volume 2309.440942
_symmetry_space_group_name_H-M "A B M 2"
_symmetry_group_IT_number 39
_symmetry_cell_setting 'orthorhombic'
loop_
_space_group_symop_operation_xyz
x,y,z
-x,-y,z
-x,1/2+y,z
x,1/2-y,z
x,1/2+y,1/2+z
-x,1/2-y,1/2+z
-x,y,1/2+z
x,-y,1/2+z
loop_
_atom_site_type_symbol
_atom_site_label
_atom_site_fract_x
_atom_site_fract_y
_atom_site_fract_z
Si Si1 0.853256 0.846882 0.386640
Si Si2 0.028828 0.404723 0.726215
Si Si3 0.100902 0.916015 0.478871
Si Si4 0.728637 0.845480 0.825672
Si Si5 0.581929 0.410069 0.799399
Si Si6 0.763302 0.345247 0.638278
O O1 0.822179 0.750000 0.366174
O O2 0.954027 0.890032 0.315852
O O3 0.700170 0.897694 0.374442
O O4 0.962109 0.851269 0.465713
O O5 0.933835 0.343972 0.670006
O O6 0.000000 0.500000 0.700050
O O7 0.198547 0.381996 0.741558
O O8 0.211351 0.902637 0.400709
O O9 0.210782 0.899433 0.555774
O O10 0.000000 0.000000 0.482274
O O11 0.782533 0.750000 0.838557
O O12 0.553199 0.847500 0.816615
O O13 0.500000 0.500000 0.795686
O O14 0.667266 0.386881 0.713081
O O15 0.711636 0.250000 0.622356
#
# Coordination Sequence:
#
# PCOD9359928 Si02
#       6
#     8   8   8   8   8   8
#     4  10  19  36  59  86 115 153 197 241 288 348
#     4  10  18  32  55  82 112 150 197 246 290 343
#     4  11  22  38  61  88 118 154 196 247 297 348
#     4  11  20  35  58  87 117 154 197 244 296 355
#     4  11  22  38  60  86 119 158 197 244 296 353
#     4  11  22  39  58  83 117 159 202 248 296 347
#
# _framework density 20.78425
#
# number of rings (size 3 to 8) (size 9 to 14) (size 15 to 20)
#    0.000    1.333    0.000   12.000    0.000    0.000 
#    0.000    4.167    0.000    0.000    0.000    0.000 
#    0.000    0.000    0.000    0.000    0.000    0.000 
#
# Total GULP energy -133609.835491 kJ/mol
# GULP energy per Si atom -5567.076479 kJ/mol
# Density = 2.073694 g / cm^3
# Si number density = 20.784250 Si / 1000 Ang^3
#
#
#
# Elastic Constant Matrix: (Units=GPa)
#
#
# Indices 1 2 3 4 5 6 
#
# 1 103.4445 16.5922 26.1596 0.0000 0.0000 0.0000
# 2 16.5922 136.9823 10.8077 0.0000 0.0000 0.0000
# 3 26.1596 10.8077 59.2790 0.0000 0.0000 0.0000
# 4 0.0000 0.0000 0.0000 15.1530 0.0000 0.0000
# 5 0.0000 0.0000 0.0000 0.0000 30.8873 0.0000
# 6 0.0000 0.0000 0.0000 0.0000 0.0000 36.0352
#
#
#
# Elastic Compliance Matrix: (Units=1/GPa)
#
#
# Indices 1 2 3 4 5 6 
#
# 1 0.011005 -0.000964 -0.004681 0.000000 0.000000 0.000000
# 2 -0.000964 0.007491 -0.000940 0.000000 0.000000 0.000000
# 3 -0.004681 -0.000940 0.019107 0.000000 0.000000 0.000000
# 4 0.000000 0.000000 0.000000 0.065993 0.000000 0.000000
# 5 0.000000 0.000000 0.000000 0.000000 0.032376 0.000000
# 6 0.000000 0.000000 0.000000 0.000000 0.000000 0.027751
#
#
# Mechanical properties :
#
#
# Convention : Reuss Voigt Hill
#
# Bulk Modulus (GPa) = 40.92868 45.20276 43.06572
# Shear Modulus (GPa) = 27.02160 32.82487 29.92323
#
# Velocity S-wave (km/s) = 3.60960 3.97837 3.79846
# Velocity P-wave (km/s) = 6.09157 6.54973 6.32480
#
# Compressibility (1/GPa) = 0.02443275
#
# Stress axis : x y z
#
# Youngs Moduli (GPa) = 90.86503 133.49081 52.33820
#
# Poissons Ratio (x) = 0.12865 0.24499
# Poissons Ratio (y) = 0.08757 0.04922
# Poissons Ratio (z) = 0.42533 0.12555
#
# Static dielectric constant tensor:
#      x y z
#    x 1.761760 0.000000 0.000000 
#    y 0.000000 1.728030 0.000000 
#    z 0.000000 0.000000 1.849380 
# 
# From -- ./inp_files/11595.got.cif
#   From: 2010.05.17/outbox.cif.g08.bks.cpg/sg39_6_cif.got.tgz:11595.got - 2010.06.03 18:22:40.
