data_PCOD9359710
_publ_section_title
;
Structure prediction by ZEFSAII (Michael W. Deem and Ramdas Pophale) SiO2 
 PCOD9359710
Probable space group: A B M 2
;
_chemical_formula_sum "Si O2"
_cell_formula_units_Z 64
_cell_length_a 22.173426
_cell_length_b 8.979462
_cell_length_c 14.525641
_cell_angle_alpha 90.000000
_cell_angle_beta 90.000000
_cell_angle_gamma 90.000000
_cell_volume 2892.134087
_symmetry_space_group_name_H-M "A B M 2"
_symmetry_group_IT_number 39
_symmetry_cell_setting 'orthorhombic'
loop_
_space_group_symop_operation_xyz
x,y,z
-x,-y,z
-x,1/2+y,z
x,1/2-y,z
x,1/2+y,1/2+z
-x,1/2-y,1/2+z
-x,y,1/2+z
x,-y,1/2+z
loop_
_atom_site_type_symbol
_atom_site_label
_atom_site_fract_x
_atom_site_fract_y
_atom_site_fract_z
Si Si1 0.441908 0.083589 0.819460
Si Si2 0.812345 0.065839 0.367497
Si Si3 0.940240 0.919413 0.849883
Si Si4 0.811816 0.072144 0.071270
Si Si5 0.687655 0.919138 0.071992
Si Si6 0.560246 0.583208 0.599890
Si Si7 0.937193 0.577259 0.075457
Si Si8 0.314125 0.581598 0.350790
O O1 0.439251 0.250000 0.860772
O O2 0.448361 0.096389 0.709898
O O3 0.377622 0.004278 0.833637
O O4 0.500000 0.000000 0.855505
O O5 0.812283 0.250000 0.380710
O O6 0.874798 0.024520 0.319557
O O7 0.750247 0.023790 0.317936
O O8 0.812437 0.979875 0.464189
O O9 0.945146 0.750000 0.820869
O O10 0.938078 0.924580 0.962369
O O11 0.000000 0.000000 0.819344
O O12 0.811801 0.250000 0.081509
O O13 0.747692 0.005312 0.105082
O O14 0.875644 0.004953 0.105512
O O15 0.686862 0.750000 0.107880
O O16 0.623639 0.998497 0.088432
O O17 0.692385 0.909760 0.960860
O O18 0.500000 0.500000 0.565688
O O19 0.564531 0.750000 0.560880
O O20 0.935784 0.750000 0.103116
O O21 0.000000 0.500000 0.103559
O O22 0.320092 0.750000 0.312020
#
# Coordination Sequence:
#
# PCOD9359710 Si02
#       8
#     8   8   8   8   8   8   8   8
#     4   9  18  33  51  69  90 116 146 182 223 268
#     4   8  14  25  38  53  78 112 148 183 221 265
#     4   8  13  19  29  46  70 103 140 176 212 254
#     4  10  17  25  38  58  85 116 150 187 228 273
#     4  10  19  32  49  68  93 123 154 189 229 273
#     4  10  20  34  51  70  92 118 148 183 225 273
#     4   9  15  23  34  51  77 112 152 189 227 270
#     4   8  15  29  48  67  87 116 151 185 223 266
#
# _framework density 22.128988
#
# number of rings (size 3 to 8) (size 9 to 14) (size 15 to 20)
#    0.000    3.000    0.000    3.750    0.000    4.000 
#    0.000    4.375    0.000    0.000    0.000    0.000 
#    0.000    1.000    0.000    6.500    0.000   11.125 
#
# Total GULP energy -178343.336774 kJ/mol
# GULP energy per Si atom -5573.229274 kJ/mol
# Density = 2.207862 g / cm^3
# Si number density = 22.128988 Si / 1000 Ang^3
#
#
#
# Elastic Constant Matrix: (Units=GPa)
#
#
# Indices 1 2 3 4 5 6 
#
# 1 308.8598 113.9734 4.0383 0.0000 0.0000 0.0000
# 2 113.9734 132.8102 7.0533 0.0000 0.0000 0.0000
# 3 4.0383 7.0533 53.0374 0.0000 0.0000 0.0000
# 4 0.0000 0.0000 0.0000 -34.1968 0.0000 0.0000
# 5 0.0000 0.0000 0.0000 0.0000 53.2894 0.0000
# 6 0.0000 0.0000 0.0000 0.0000 0.0000 40.6824
#
#
#
# Elastic Compliance Matrix: (Units=1/GPa)
#
#
# Indices 1 2 3 4 5 6 
#
# 1 0.004740 -0.004077 0.000181 0.000000 0.000000 0.000000
# 2 -0.004077 0.011090 -0.001164 0.000000 0.000000 0.000000
# 3 0.000181 -0.001164 0.018996 0.000000 0.000000 0.000000
# 4 0.000000 0.000000 0.000000 -0.029243 0.000000 0.000000
# 5 0.000000 0.000000 0.000000 0.000000 0.018765 0.000000
# 6 0.000000 0.000000 0.000000 0.000000 0.000000 0.024581
#
#
# Mechanical properties :
#
#
# Convention : Reuss Voigt Hill
#
# Bulk Modulus (GPa) = 40.47731 82.75972 61.61851
# Shear Modulus (GPa) = 74.31034 36.59782 55.45408
#
# Velocity S-wave (km/s) = 5.80116 4.07116 5.01137
# Velocity P-wave (km/s) = 7.95000 7.71875 7.83523
#
# Compressibility (1/GPa) = 0.02470520
#
# Stress axis : x y z
#
# Youngs Moduli (GPa) = 210.97442 90.16835 52.64356
#
# Poissons Ratio (x) = 0.36764 -0.00955
# Poissons Ratio (y) = 0.86020 0.06130
# Poissons Ratio (z) = -0.03825 0.10499
#
# Static dielectric constant tensor:
#      x y z
#    x 1.876280 0.000000 0.000000 
#    y 0.000000 1.797400 0.000000 
#    z 0.000000 0.000000 1.856600 
# 
# From -- ./inp_files/15076.got.cif
#   From: 2010.05.17/outbox.cif.g08.bks.cpg/sg39_8_cif.got.tgz:15076.got - 2010.06.03 18:22:40.
