data_PCOD9359033
_publ_section_title
;
Structure prediction by ZEFSAII (Michael W. Deem and Ramdas Pophale) SiO2 
 PCOD9359033
Probable space group: A M M 2
;
_chemical_formula_sum "Si O2"
_cell_formula_units_Z 58
_cell_length_a 9.049892
_cell_length_b 14.985297
_cell_length_c 24.370057
_cell_angle_alpha 90.000000
_cell_angle_beta 90.000000
_cell_angle_gamma 90.000000
_cell_volume 3304.953065
_symmetry_space_group_name_H-M "A M M 2"
_symmetry_group_IT_number 38
_symmetry_cell_setting 'orthorhombic'
loop_
_space_group_symop_operation_xyz
x,y,z
-x,-y,z
-x,y,z
x,-y,z
x,1/2+y,1/2+z
-x,1/2-y,1/2+z
-x,1/2+y,1/2+z
x,1/2-y,1/2+z
loop_
_atom_site_type_symbol
_atom_site_label
_atom_site_fract_x
_atom_site_fract_y
_atom_site_fract_z
Si Si1 0.175824 0.261494 0.517970
Si Si2 0.675977 0.104881 0.804628
Si Si3 0.663355 0.314616 0.629258
Si Si4 0.674861 0.894401 0.455115
Si Si5 0.825034 0.895201 0.339996
Si Si6 0.176393 0.262139 0.741207
Si Si7 0.500000 0.500000 0.628596
Si Si8 0.324291 0.105609 0.932521
O O1 0.243406 0.287296 0.576478
O O2 0.239166 0.166847 0.497742
O O3 0.233209 0.333569 0.473551
O O4 0.000000 0.260204 0.519513
O O5 0.500000 0.119617 0.797661
O O6 0.766496 0.168508 0.764993
O O7 0.710659 0.124308 0.868706
O O8 0.704718 0.000000 0.795524
O O9 0.500000 0.270618 0.626754
O O10 0.744309 0.287329 0.684900
O O11 0.626339 0.420057 0.628451
O O12 0.500000 0.877721 0.458507
O O13 0.732861 0.871592 0.394062
O O14 0.701618 0.000000 0.463244
O O15 0.785823 0.835219 0.288003
O O16 0.000000 0.883109 0.351705
O O17 0.800613 0.000000 0.328018
O O18 0.000000 0.261552 0.734269
O O19 0.500000 0.121752 0.940729
O O20 0.299494 0.000000 0.942180
#
# Coordination Sequence:
#
# PCOD9359033 Si02
#       8
#     8   8   8   8   8   8   2   8
#     4  12  24  37  57  85 118 152 188 235 290 345
#     4   9  19  37  58  83 113 153 197 239 282 333
#     4  10  23  42  62  83 110 146 195 231 276 329
#     4  10  21  38  59  85 113 150 195 240 283 334
#     4   9  19  34  54  83 120 155 186 227 287 348
#     4  11  22  36  57  86 119 151 188 237 290 342
#     4   8  24  44  66  84 106 156 194 240 272 322
#     4   9  19  35  58  85 117 153 194 237 283 336
#
# _framework density 17.549416999999998
#
# number of rings (size 3 to 8) (size 9 to 14) (size 15 to 20)
#    0.414    1.655    0.000    4.138    1.931    5.241 
#    0.000    2.759    0.000    4.138    0.000    0.000 
#    0.000    0.000    0.000    0.000    0.000    0.000 
#
# Total GULP energy -161622.692738 kJ/mol
# GULP energy per Si atom -5573.196301 kJ/mol
# Density = 1.750947 g / cm^3
# Si number density = 17.549417 Si / 1000 Ang^3
#
#
#
# Elastic Constant Matrix: (Units=GPa)
#
#
# Indices 1 2 3 4 5 6 
#
# 1 112.8906 74.3117 92.4253 0.0000 0.0000 0.0000
# 2 74.3117 88.6629 85.4633 0.0000 0.0000 0.0000
# 3 92.4253 85.4633 133.3756 0.0000 0.0000 0.0000
# 4 0.0000 0.0000 0.0000 0.1614 0.0000 0.0000
# 5 0.0000 0.0000 0.0000 0.0000 29.9285 0.0000
# 6 0.0000 0.0000 0.0000 0.0000 0.0000 24.6365
#
#
#
# Elastic Compliance Matrix: (Units=1/GPa)
#
#
# Indices 1 2 3 4 5 6 
#
# 1 0.023738 -0.010565 -0.009680 0.000000 0.000000 0.000000
# 2 -0.010565 0.034200 -0.014593 0.000000 0.000000 0.000000
# 3 -0.009680 -0.014593 0.023556 0.000000 0.000000 0.000000
# 4 0.000000 0.000000 0.000000 6.197352 0.000000 0.000000
# 5 0.000000 0.000000 0.000000 0.000000 0.033413 0.000000
# 6 0.000000 0.000000 0.000000 0.000000 0.000000 0.040590
#
#
# Mechanical properties :
#
#
# Convention : Reuss Voigt Hill
#
# Bulk Modulus (GPa) = 84.61535 93.25883 88.93709
# Shear Modulus (GPa) = 0.77803 16.46052 8.61928
#
# Velocity S-wave (km/s) = 0.66656 3.06592 2.21858
# Velocity P-wave (km/s) = 6.99375 8.11106 7.57304
#
# Compressibility (1/GPa) = 0.01181819
#
# Stress axis : x y z
#
# Youngs Moduli (GPa) = 42.12731 29.23950 42.45131
#
# Poissons Ratio (x) = 0.30891 0.41092
# Poissons Ratio (y) = 0.44507 0.61951
# Poissons Ratio (z) = 0.40778 0.42670
#
# Static dielectric constant tensor:
#      x y z
#    x 1.590170 0.000000 0.000000 
#    y 0.000000 1.591480 0.000000 
#    z 0.000000 0.000000 1.571010 
# 
# From -- ./inp_files/22081.got.cif
#   From: 2010.05.17/outbox.cif.g08.bks.cpg/sg38_12_cif.got.tgz:22081.got - 2010.06.03 18:07:57.
