data_PCOD9359901
_publ_section_title
;
Structure prediction by ZEFSAII (Michael W. Deem and Ramdas Pophale) SiO2 
 PCOD9359901
Probable space group: A B M 2
;
_chemical_formula_sum "Si O2"
_cell_formula_units_Z 64
_cell_length_a 14.592152
_cell_length_b 8.637228
_cell_length_c 31.803432
_cell_angle_alpha 90.000000
_cell_angle_beta 90.000000
_cell_angle_gamma 90.000000
_cell_volume 4008.369209
_symmetry_space_group_name_H-M "A B M 2"
_symmetry_group_IT_number 39
_symmetry_cell_setting 'orthorhombic'
loop_
_space_group_symop_operation_xyz
x,y,z
-x,-y,z
-x,1/2+y,z
x,1/2-y,z
x,1/2+y,1/2+z
-x,1/2-y,1/2+z
-x,y,1/2+z
x,-y,1/2+z
loop_
_atom_site_type_symbol
_atom_site_label
_atom_site_fract_x
_atom_site_fract_y
_atom_site_fract_z
Si Si1 0.598008 0.435964 0.162030
Si Si2 0.208321 0.436222 0.627119
Si Si3 0.785529 0.435149 0.792993
Si Si4 0.599084 0.063982 0.260120
Si Si5 0.103871 0.435045 0.459131
Si Si6 0.896457 0.565245 0.046908
Si Si7 0.102440 0.064254 0.208085
Si Si8 0.896623 0.065407 0.371390
O O1 0.500000 0.500000 0.147888
O O2 0.594113 0.250000 0.161519
O O3 0.686330 0.484290 0.135355
O O4 0.611841 0.483194 0.210931
O O5 0.204306 0.250000 0.623750
O O6 0.163960 0.511157 0.586063
O O7 0.151369 0.489105 0.667921
O O8 0.786611 0.250000 0.798148
O O9 0.682636 0.494977 0.786350
O O10 0.841295 0.473233 0.750336
O O11 0.835602 0.513056 0.832291
O O12 0.600112 0.250000 0.262177
O O13 0.500000 0.000000 0.273226
O O14 0.102895 0.250000 0.459293
O O15 0.142668 0.498692 0.502957
O O16 0.142667 0.497807 0.415224
O O17 0.000000 0.500000 0.459084
O O18 0.901753 0.750000 0.044561
O O19 0.000000 0.500000 0.052382
O O20 0.100582 0.250000 0.203096
O O21 0.000000 0.000000 0.211727
O O22 0.902116 0.250000 0.374264
O O23 0.000000 0.000000 0.365787
#
# Coordination Sequence:
#
# PCOD9359901 Si02
#       8
#     8   8   8   8   8   8   8   8
#     4   9  19  33  52  73  97 128 165 210 256 300
#     4  11  21  35  51  72 100 133 170 208 251 300
#     4  11  22  35  51  74 101 135 174 212 254 304
#     4  10  19  34  53  75  99 131 168 214 261 304
#     4  10  18  32  52  74 100 131 167 210 254 299
#     4  11  21  34  51  74 102 135 171 210 252 299
#     4  11  23  35  48  67  97 136 173 208 246 293
#     4  11  21  34  52  75 104 137 172 212 254 303
#
# _framework density 15.966594000000001
#
# number of rings (size 3 to 8) (size 9 to 14) (size 15 to 20)
#    0.000    1.500    1.250    7.125    0.000    4.000 
#    0.000    0.000    0.000    0.000    0.000    0.875 
#    0.000    2.000    0.000    0.000    0.000    0.000 
#
# Total GULP energy -178703.965923 kJ/mol
# GULP energy per Si atom -5584.498935 kJ/mol
# Density = 1.593025 g / cm^3
# Si number density = 15.966594 Si / 1000 Ang^3
#
#
#
# Elastic Constant Matrix: (Units=GPa)
#
#
# Indices 1 2 3 4 5 6 
#
# 1 114.5975 44.5316 64.1634 0.0000 0.0000 0.0000
# 2 44.5316 111.7039 64.1337 0.0000 0.0000 0.0000
# 3 64.1634 64.1337 136.0756 0.0000 0.0000 0.0000
# 4 0.0000 0.0000 0.0000 27.5222 0.0000 0.0000
# 5 0.0000 0.0000 0.0000 0.0000 4.0641 0.0000
# 6 0.0000 0.0000 0.0000 0.0000 0.0000 25.4843
#
#
#
# Elastic Compliance Matrix: (Units=1/GPa)
#
#
# Indices 1 2 3 4 5 6 
#
# 1 0.012220 -0.002143 -0.004752 0.000000 0.000000 0.000000
# 2 -0.002143 0.012649 -0.004951 0.000000 0.000000 0.000000
# 3 -0.004752 -0.004951 0.011923 0.000000 0.000000 0.000000
# 4 0.000000 0.000000 0.000000 0.036334 0.000000 0.000000
# 5 0.000000 0.000000 0.000000 0.000000 0.246055 0.000000
# 6 0.000000 0.000000 0.000000 0.000000 0.000000 0.039240
#
#
# Mechanical properties :
#
#
# Convention : Reuss Voigt Hill
#
# Bulk Modulus (GPa) = 76.33834 78.67048 77.50441
# Shear Modulus (GPa) = 12.93730 24.05066 18.49398
#
# Velocity S-wave (km/s) = 2.84962 3.88533 3.40706
# Velocity P-wave (km/s) = 7.66434 8.33706 8.00777
#
# Compressibility (1/GPa) = 0.01309958
#
# Stress axis : x y z
#
# Youngs Moduli (GPa) = 81.83613 79.05561 83.87196
#
# Poissons Ratio (x) = 0.16944 0.39853
# Poissons Ratio (y) = 0.17540 0.41526
# Poissons Ratio (z) = 0.38886 0.39142
#
# Static dielectric constant tensor:
#      x y z
#    x 1.530300 0.000000 0.000000 
#    y 0.000000 1.535070 0.000000 
#    z 0.000000 0.000000 1.541620 
# 
# From -- ./inp_files/17893.got.cif
#   From: 2010.05.17/outbox.cif.g08.bks.cpg/sg39_9_cif.got.tgz:17893.got - 2010.06.03 18:22:40.
