data_PCOD9359036
_publ_section_title
;
Structure prediction by ZEFSAII (Michael W. Deem and Ramdas Pophale) SiO2 
 PCOD9359036
Probable space group: A M M 2
;
_chemical_formula_sum "Si O2"
_cell_formula_units_Z 48
_cell_length_a 8.555124
_cell_length_b 18.811201
_cell_length_c 15.253051
_cell_angle_alpha 90.000000
_cell_angle_beta 90.000000
_cell_angle_gamma 90.000000
_cell_volume 2454.706400
_symmetry_space_group_name_H-M "A M M 2"
_symmetry_group_IT_number 38
_symmetry_cell_setting 'orthorhombic'
loop_
_space_group_symop_operation_xyz
x,y,z
-x,-y,z
-x,y,z
x,-y,z
x,1/2+y,1/2+z
-x,1/2-y,1/2+z
-x,1/2+y,1/2+z
x,1/2-y,1/2+z
loop_
_atom_site_type_symbol
_atom_site_label
_atom_site_fract_x
_atom_site_fract_y
_atom_site_fract_z
Si Si1 0.686764 0.000000 0.661780
Si Si2 0.687188 0.500000 0.366563
Si Si3 0.818262 0.394801 0.024687
Si Si4 0.686779 0.732189 0.782152
Si Si5 0.685872 0.076851 0.338670
Si Si6 0.816341 0.236980 0.089136
Si Si7 0.812149 0.152598 0.922510
O O1 0.758269 0.067248 0.611900
O O2 0.500000 0.000000 0.652551
O O3 0.726686 0.000000 0.763388
O O4 0.500000 0.500000 0.375520
O O5 0.753707 0.573091 0.405154
O O6 0.804527 0.311011 0.037271
O O7 0.000000 0.412518 0.009910
O O8 0.719038 0.419970 0.942194
O O9 0.500000 0.733249 0.794320
O O10 0.747867 0.652126 0.803033
O O11 0.727656 0.744447 0.680612
O O12 0.754869 0.791997 0.847560
O O13 0.500000 0.076910 0.322857
O O14 0.747685 0.000000 0.305785
O O15 0.000000 0.224652 0.108841
O O16 0.759524 0.178794 0.019135
O O17 0.000000 0.154550 0.921532
#
# Coordination Sequence:
#
# PCOD9359036 Si02
#       7
#     4   4   8   8   8   8   8
#     4  11  23  37  55  86 125 158 193 247 310 372
#     4  11  25  43  63  92 123 160 209 257 314 374
#     4  11  21  35  58  88 118 153 200 247 299 362
#     4  11  23  39  64  94 124 163 210 259 311 369
#     4  10  21  38  59  86 123 160 195 245 308 363
#     4  10  23  41  62  89 122 162 209 256 308 370
#     4  11  23  43  67  90 125 167 208 260 316 372
#
# _framework density 19.554272000000001
#
# number of rings (size 3 to 8) (size 9 to 14) (size 15 to 20)
#    0.000    1.333    2.500    3.000    0.000    7.333 
#    1.500    0.000    0.000    0.000    0.000    0.000 
#    0.000    0.000    0.000    0.000    0.000    0.000 
#
# Total GULP energy -134025.815999 kJ/mol
# GULP energy per Si atom -5584.409000 kJ/mol
# Density = 1.950977 g / cm^3
# Si number density = 19.554272 Si / 1000 Ang^3
#
#
#
# Elastic Constant Matrix: (Units=GPa)
#
#
# Indices 1 2 3 4 5 6 
#
# 1 14.8126 14.0180 2.3194 0.0000 0.0000 0.0000
# 2 14.0180 129.8548 22.6930 0.0000 0.0000 0.0000
# 3 2.3194 22.6930 56.7707 0.0000 0.0000 0.0000
# 4 0.0000 0.0000 0.0000 27.1905 0.0000 0.0000
# 5 0.0000 0.0000 0.0000 0.0000 16.1566 0.0000
# 6 0.0000 0.0000 0.0000 0.0000 0.0000 14.3194
#
#
#
# Elastic Compliance Matrix: (Units=1/GPa)
#
#
# Indices 1 2 3 4 5 6 
#
# 1 0.075194 -0.008150 0.000186 0.000000 0.000000 0.000000
# 2 -0.008150 0.009163 -0.003330 0.000000 0.000000 0.000000
# 3 0.000186 -0.003330 0.018938 0.000000 0.000000 0.000000
# 4 0.000000 0.000000 0.000000 0.036777 0.000000 0.000000
# 5 0.000000 0.000000 0.000000 0.000000 0.061894 0.000000
# 6 0.000000 0.000000 0.000000 0.000000 0.000000 0.069836
#
#
# Mechanical properties :
#
#
# Convention : Reuss Voigt Hill
#
# Bulk Modulus (GPa) = 12.39049 31.05541 21.72295
# Shear Modulus (GPa) = 15.56219 22.36047 18.96133
#
# Velocity S-wave (km/s) = 2.82414 3.38525 3.11734
# Velocity P-wave (km/s) = 4.12123 5.58534 4.90818
#
# Compressibility (1/GPa) = 0.08070708
#
# Stress axis : x y z
#
# Youngs Moduli (GPa) = 13.29897 109.13989 52.80364
#
# Poissons Ratio (x) = 0.88946 -0.00980
# Poissons Ratio (y) = 0.10838 0.17581
# Poissons Ratio (z) = -0.00247 0.36339
#
# Static dielectric constant tensor:
#      x y z
#    x 1.682100 0.000000 0.000000 
#    y 0.000000 1.730920 0.000000 
#    z 0.000000 0.000000 1.657350 
# 
# From -- ./inp_files/12064.got.cif
#   From: 2010.05.17/outbox.cif.g08.bks.cpg/sg38_7_cif.got.tgz:12064.got - 2010.06.03 18:07:57.
