data_PCOD9359703
_publ_section_title
;
Structure prediction by ZEFSAII (Michael W. Deem and Ramdas Pophale) SiO2 
 PCOD9359703
Probable space group: A B M 2
;
_chemical_formula_sum "Si O2"
_cell_formula_units_Z 40
_cell_length_a 16.314882
_cell_length_b 13.261273
_cell_length_c 8.807622
_cell_angle_alpha 90.000000
_cell_angle_beta 90.000000
_cell_angle_gamma 90.000000
_cell_volume 1905.582783
_symmetry_space_group_name_H-M "A B M 2"
_symmetry_group_IT_number 39
_symmetry_cell_setting 'orthorhombic'
loop_
_space_group_symop_operation_xyz
x,y,z
-x,-y,z
-x,1/2+y,z
x,1/2-y,z
x,1/2+y,1/2+z
-x,1/2-y,1/2+z
-x,y,1/2+z
x,-y,1/2+z
loop_
_atom_site_type_symbol
_atom_site_label
_atom_site_fract_x
_atom_site_fract_y
_atom_site_fract_z
Si Si1 0.585604 0.634405 0.764360
Si Si2 0.716623 0.360576 0.761600
Si Si3 0.272315 0.944981 0.419947
Si Si4 0.881820 0.935554 0.341311
Si Si5 0.500000 0.500000 0.016654
Si Si6 0.000000 0.500000 0.081678
O O1 0.560801 0.750000 0.740371
O O2 0.682215 0.628711 0.803691
O O3 0.559727 0.562116 0.627778
O O4 0.542806 0.584139 0.911712
O O5 0.677932 0.250000 0.766939
O O6 0.716537 0.405978 0.590982
O O7 0.685565 0.446579 0.876878
O O8 0.811586 0.354880 0.812642
O O9 0.176980 0.967390 0.381011
O O10 0.933941 0.949113 0.190398
O O11 0.947710 0.925829 0.474460
#
# Coordination Sequence:
#
# PCOD9359703 Si02
#       6
#     8   8   8   8   4   4
#     4  11  22  41  65  90 125 165 198 245 301 355
#     4  10  20  38  58  85 120 151 198 254 300 352
#     4  10  20  37  61  88 117 157 204 246 297 353
#     4   9  18  32  57  84 111 160 193 246 305 355
#     4  10  24  40  62  96 130 154 202 244 294 368
#     4  10  16  32  60  78 120 160 188 250 320 340
#
# _framework density 20.990953000000001
#
# number of rings (size 3 to 8) (size 9 to 14) (size 15 to 20)
#    1.200    0.800    2.000    2.400    0.000    0.000 
#    0.000   10.000    0.000    0.000    0.000    0.000 
#    0.000    0.000    0.000    0.000    0.000    0.000 
#
# Total GULP energy -111350.001200 kJ/mol
# GULP energy per Si atom -5567.500060 kJ/mol
# Density = 2.094318 g / cm^3
# Si number density = 20.990953 Si / 1000 Ang^3
#
#
#
# Elastic Constant Matrix: (Units=GPa)
#
#
# Indices 1 2 3 4 5 6 
#
# 1 68.8738 9.1403 29.2796 0.0000 0.0000 0.0000
# 2 9.1403 121.7053 35.3979 0.0000 0.0000 0.0000
# 3 29.2796 35.3979 112.9579 0.0000 0.0000 0.0000
# 4 0.0000 0.0000 0.0000 -7.9205 0.0000 0.0000
# 5 0.0000 0.0000 0.0000 0.0000 31.3190 0.0000
# 6 0.0000 0.0000 0.0000 0.0000 0.0000 15.2134
#
#
#
# Elastic Compliance Matrix: (Units=1/GPa)
#
#
# Indices 1 2 3 4 5 6 
#
# 1 0.016317 0.000005 -0.004231 0.000000 0.000000 0.000000
# 2 0.000005 0.009041 -0.002834 0.000000 0.000000 0.000000
# 3 -0.004231 -0.002834 0.010838 0.000000 0.000000 0.000000
# 4 0.000000 0.000000 0.000000 -0.126254 0.000000 0.000000
# 5 0.000000 0.000000 0.000000 0.000000 0.031930 0.000000
# 6 0.000000 0.000000 0.000000 0.000000 0.000000 0.065732
#
#
# Mechanical properties :
#
#
# Convention : Reuss Voigt Hill
#
# Bulk Modulus (GPa) = 45.30031 50.13030 47.71530
# Shear Modulus (GPa) = 171.92611 23.03697 97.48154
#
# Velocity S-wave (km/s) = 9.05995 3.31640 6.82207
# Velocity P-wave (km/s) = 11.44864 6.21276 9.21058
#
# Compressibility (1/GPa) = 0.02207491
#
# Stress axis : x y z
#
# Youngs Moduli (GPa) = 61.28424 110.61259 92.26918
#
# Poissons Ratio (x) = -0.00057 0.39041
# Poissons Ratio (y) = -0.00032 0.26153
# Poissons Ratio (z) = 0.25931 0.31352
#
# Static dielectric constant tensor:
#      x y z
#    x 1.808050 0.000000 0.000000 
#    y 0.000000 1.829200 0.000000 
#    z 0.000000 0.000000 1.748070 
# 
# From -- ./inp_files/3930.got.cif
#   From: 2010.05.17/outbox.cif.g08.bks.cpg/sg39_2_cif.got.tgz:3930.got - 2010.06.03 18:22:40.
