data_PCOD9359050
_publ_section_title
;
Structure prediction by ZEFSAII (Michael W. Deem and Ramdas Pophale) SiO2 
 PCOD9359050
Probable space group: A M M 2
;
_chemical_formula_sum "Si O2"
_cell_formula_units_Z 56
_cell_length_a 17.052237
_cell_length_b 8.798646
_cell_length_c 20.796098
_cell_angle_alpha 90.000000
_cell_angle_beta 90.000000
_cell_angle_gamma 90.000000
_cell_volume 3120.175772
_symmetry_space_group_name_H-M "A M M 2"
_symmetry_group_IT_number 38
_symmetry_cell_setting 'orthorhombic'
loop_
_space_group_symop_operation_xyz
x,y,z
-x,-y,z
-x,y,z
x,-y,z
x,1/2+y,1/2+z
-x,1/2-y,1/2+z
-x,1/2+y,1/2+z
x,1/2-y,1/2+z
loop_
_atom_site_type_symbol
_atom_site_label
_atom_site_fract_x
_atom_site_fract_y
_atom_site_fract_z
Si Si1 0.669455 0.681911 0.437200
Si Si2 0.253432 0.817263 0.563248
Si Si3 0.912238 0.184877 0.611849
Si Si4 0.337395 0.181736 0.698773
Si Si5 0.500000 0.318487 0.739265
Si Si6 0.500000 0.683219 0.383119
Si Si7 0.908794 0.180334 0.762173
Si Si8 0.239985 0.819802 0.316988
O O1 0.674309 0.500000 0.435109
O O2 0.700531 0.741468 0.505070
O O3 0.579310 0.724544 0.421032
O O4 0.723268 0.751465 0.381329
O O5 0.162661 0.765598 0.570642
O O6 0.296073 0.785651 0.630954
O O7 0.253403 0.000000 0.554181
O O8 0.899243 0.224982 0.686975
O O9 0.000000 0.236191 0.592847
O O10 0.912994 0.000000 0.610393
O O11 0.422844 0.254396 0.704884
O O12 0.286137 0.248184 0.756768
O O13 0.342633 0.000000 0.706264
O O14 0.500000 0.500000 0.739093
O O15 0.500000 0.259400 0.812964
O O16 0.500000 0.500000 0.373818
O O17 0.849887 0.272313 0.806409
O O18 0.000000 0.201251 0.778418
O O19 0.890656 0.000000 0.766386
O O20 0.249243 0.000000 0.316866
#
# Coordination Sequence:
#
# PCOD9359050 Si02
#       8
#     8   8   8   8   4   4   8   8
#     4  11  24  41  62  84 115 158 201 246 302 361
#     4  10  21  38  60  88 120 155 197 243 296 355
#     4   8  14  29  56  86 114 149 193 238 287 347
#     4  11  22  39  62  87 119 157 196 242 296 353
#     4  12  24  37  60  93 121 151 195 251 300 347
#     4  10  22  41  62  81 109 155 201 245 298 361
#     4   9  17  33  59  88 118 156 200 244 295 353
#     4  12  23  36  58  89 121 154 198 247 295 350
#
# _framework density 17.947707000000001
#
# number of rings (size 3 to 8) (size 9 to 14) (size 15 to 20)
#    0.000    1.714    2.857    3.643    0.000    2.571 
#    0.000    2.143    0.000    3.000    0.000    0.000 
#    0.000    0.000    0.000    0.000    0.000    0.000 
#
# Total GULP energy -156370.045999 kJ/mol
# GULP energy per Si atom -5584.644500 kJ/mol
# Density = 1.790686 g / cm^3
# Si number density = 17.947707 Si / 1000 Ang^3
#
#
#
# Elastic Constant Matrix: (Units=GPa)
#
#
# Indices 1 2 3 4 5 6 
#
# 1 129.3031 51.3399 52.4428 0.0000 0.0000 0.0000
# 2 51.3399 58.2021 53.5415 0.0000 0.0000 0.0000
# 3 52.4428 53.5415 89.7120 0.0000 0.0000 0.0000
# 4 0.0000 0.0000 0.0000 29.1199 0.0000 0.0000
# 5 0.0000 0.0000 0.0000 0.0000 17.1492 0.0000
# 6 0.0000 0.0000 0.0000 0.0000 0.0000 13.9861
#
#
#
# Elastic Compliance Matrix: (Units=1/GPa)
#
#
# Indices 1 2 3 4 5 6 
#
# 1 0.011998 -0.009161 -0.001546 0.000000 0.000000 0.000000
# 2 -0.009161 0.045094 -0.021557 0.000000 0.000000 0.000000
# 3 -0.001546 -0.021557 0.024916 0.000000 0.000000 0.000000
# 4 0.000000 0.000000 0.000000 0.034341 0.000000 0.000000
# 5 0.000000 0.000000 0.000000 0.000000 0.058312 0.000000
# 6 0.000000 0.000000 0.000000 0.000000 0.000000 0.071500
#
#
# Mechanical properties :
#
#
# Convention : Reuss Voigt Hill
#
# Bulk Modulus (GPa) = 57.21192 65.76284 61.48738
# Shear Modulus (GPa) = 15.79698 20.04391 17.92044
#
# Velocity S-wave (km/s) = 2.96998 3.34547 3.16330
# Velocity P-wave (km/s) = 6.61115 7.18636 6.90475
#
# Compressibility (1/GPa) = 0.01747888
#
# Stress axis : x y z
#
# Youngs Moduli (GPa) = 83.34439 22.17610 40.13430
#
# Poissons Ratio (x) = 0.20316 0.06206
# Poissons Ratio (y) = 0.76354 0.86518
# Poissons Ratio (z) = 0.12888 0.47805
#
# Static dielectric constant tensor:
#      x y z
#    x 1.656020 0.000000 0.000000 
#    y 0.000000 1.601990 0.000000 
#    z 0.000000 0.000000 1.573570 
# 
# From -- ./inp_files/21111.got.cif
#   From: 2010.05.17/outbox.cif.g08.bks.cpg/sg38_11_cif.got.tgz:21111.got - 2010.06.03 18:07:57.
