data_PCOD9359133
_publ_section_title
;
Structure prediction by ZEFSAII (Michael W. Deem and Ramdas Pophale) SiO2 
 PCOD9359133
Probable space group: A M M 2
;
_chemical_formula_sum "Si O2"
_cell_formula_units_Z 58
_cell_length_a 8.741256
_cell_length_b 18.081394
_cell_length_c 17.515390
_cell_angle_alpha 90.000000
_cell_angle_beta 90.000000
_cell_angle_gamma 90.000000
_cell_volume 2768.379094
_symmetry_space_group_name_H-M "A M M 2"
_symmetry_group_IT_number 38
_symmetry_cell_setting 'orthorhombic'
loop_
_space_group_symop_operation_xyz
x,y,z
-x,-y,z
-x,y,z
x,-y,z
x,1/2+y,1/2+z
-x,1/2-y,1/2+z
-x,1/2+y,1/2+z
x,1/2-y,1/2+z
loop_
_atom_site_type_symbol
_atom_site_label
_atom_site_fract_x
_atom_site_fract_y
_atom_site_fract_z
Si Si1 0.182187 0.416112 0.425940
Si Si2 0.680287 0.412626 0.720200
Si Si3 0.824602 0.292292 0.825088
Si Si4 0.500000 0.000000 0.405960
Si Si5 0.333074 0.640216 0.959093
Si Si6 0.678419 0.356631 0.273090
Si Si7 0.819329 0.839947 0.611198
Si Si8 0.816231 0.666330 0.577642
O O1 0.211639 0.500000 0.453124
O O2 0.262626 0.402769 0.345304
O O3 0.225802 0.357652 0.491636
O O4 0.000000 0.408317 0.413792
O O5 0.500000 0.398587 0.736336
O O6 0.703963 0.500000 0.729035
O O7 0.785759 0.363842 0.775028
O O8 0.724489 0.385430 0.635845
O O9 0.714499 0.227830 0.796495
O O10 0.000000 0.269346 0.814933
O O11 0.786810 0.311551 0.912293
O O12 0.629962 0.934590 0.413537
O O13 0.500000 0.678651 0.964842
O O14 0.272414 0.622211 0.042722
O O15 0.500000 0.368492 0.260950
O O16 0.766127 0.367693 0.193598
O O17 0.787180 0.751742 0.599900
O O18 0.000000 0.850306 0.602522
O O19 0.000000 0.654007 0.586026
#
# Coordination Sequence:
#
# PCOD9359133 Si02
#       8
#     8   8   8   2   8   8   8   8
#     4  10  22  42  67  96 132 171 214 267 327 391
#     4  11  24  38  58  90 131 172 210 257 316 387
#     4  12  24  40  64  94 128 166 216 266 320 387
#     4   8  24  44  66  88 132 164 206 276 320 388
#     4  10  22  42  65  91 122 168 207 259 323 380
#     4  12  25  42  65  96 130 170 216 272 324 382
#     4  11  22  40  66  97 129 165 214 269 323 384
#     4  10  21  39  65  94 126 164 209 263 320 382
#
# _framework density 20.950887000000002
#
# number of rings (size 3 to 8) (size 9 to 14) (size 15 to 20)
#    0.414    0.828    1.379    4.966    0.966    4.138 
#    1.241    1.034    0.000    0.000    0.000    0.000 
#    0.000    0.000    0.000    0.000    0.000    0.000 
#
# Total GULP energy -161837.172167 kJ/mol
# GULP energy per Si atom -5580.592144 kJ/mol
# Density = 2.090320 g / cm^3
# Si number density = 20.950887 Si / 1000 Ang^3
#
#
#
# Elastic Constant Matrix: (Units=GPa)
#
#
# Indices 1 2 3 4 5 6 
#
# 1 52.4445 8.9903 14.5418 0.0000 0.0000 0.0000
# 2 8.9903 30.7558 -5.8922 0.0000 0.0000 0.0000
# 3 14.5418 -5.8922 99.1048 0.0000 0.0000 0.0000
# 4 0.0000 0.0000 0.0000 22.1337 0.0000 0.0000
# 5 0.0000 0.0000 0.0000 0.0000 143.6781 0.0000
# 6 0.0000 0.0000 0.0000 0.0000 0.0000 27.3860
#
#
#
# Elastic Compliance Matrix: (Units=1/GPa)
#
#
# Indices 1 2 3 4 5 6 
#
# 1 0.021224 -0.006879 -0.003523 0.000000 0.000000 0.000000
# 2 -0.006879 0.035118 0.003097 0.000000 0.000000 0.000000
# 3 -0.003523 0.003097 0.010791 0.000000 0.000000 0.000000
# 4 0.000000 0.000000 0.000000 0.045180 0.000000 0.000000
# 5 0.000000 0.000000 0.000000 0.000000 0.006960 0.000000
# 6 0.000000 0.000000 0.000000 0.000000 0.000000 0.036515
#
#
# Mechanical properties :
#
#
# Convention : Reuss Voigt Hill
#
# Bulk Modulus (GPa) = 19.03892 24.17608 21.60750
# Shear Modulus (GPa) = 26.60899 49.61724 38.11312
#
# Velocity S-wave (km/s) = 3.56766 4.87176 4.26979
# Velocity P-wave (km/s) = 5.10667 6.57342 5.88591
#
# Compressibility (1/GPa) = 0.05252400
#
# Stress axis : x y z
#
# Youngs Moduli (GPa) = 47.11667 28.47515 92.66606
#
# Poissons Ratio (x) = 0.19588 0.32648
# Poissons Ratio (y) = 0.32411 -0.28701
# Poissons Ratio (z) = 0.16600 -0.08820
#
# Static dielectric constant tensor:
#      x y z
#    x 1.620530 0.000000 0.000000 
#    y 0.000000 1.743110 0.000000 
#    z 0.000000 0.000000 1.779390 
# 
# From -- ./inp_files/17016.got.cif
#   From: 2010.05.17/outbox.cif.g08.bks.cpg/sg38_9_cif.got.tgz:17016.got - 2010.06.03 18:07:57.
