data_PCOD9359183
_publ_section_title
;
Structure prediction by ZEFSAII (Michael W. Deem and Ramdas Pophale) SiO2 
 PCOD9359183
Probable space group: A M M 2
;
_chemical_formula_sum "Si O2"
_cell_formula_units_Z 32
_cell_length_a 16.393429
_cell_length_b 5.714983
_cell_length_c 13.868122
_cell_angle_alpha 90.000000
_cell_angle_beta 90.000000
_cell_angle_gamma 90.000000
_cell_volume 1299.278944
_symmetry_space_group_name_H-M "A M M 2"
_symmetry_group_IT_number 38
_symmetry_cell_setting 'orthorhombic'
loop_
_space_group_symop_operation_xyz
x,y,z
-x,-y,z
-x,y,z
x,-y,z
x,1/2+y,1/2+z
-x,1/2-y,1/2+z
-x,1/2+y,1/2+z
x,1/2-y,1/2+z
loop_
_atom_site_type_symbol
_atom_site_label
_atom_site_fract_x
_atom_site_fract_y
_atom_site_fract_z
Si Si1 0.000000 0.000000 0.435190
Si Si2 0.402005 0.750962 0.347073
Si Si3 0.380406 0.749711 0.078529
Si Si4 0.828130 0.000000 0.322975
Si Si5 0.222573 0.500000 0.610314
Si Si6 0.000000 0.500000 0.433747
Si Si7 0.176501 0.500000 0.392507
O O1 0.917753 0.000000 0.371546
O O2 0.000000 0.749230 0.488641
O O3 0.500000 0.751478 0.332048
O O4 0.370224 0.500000 0.312244
O O5 0.389288 0.752021 0.462709
O O6 0.369555 0.000000 0.309360
O O7 0.412061 0.500000 0.112343
O O8 0.285594 0.781678 0.105414
O O9 0.416491 0.000000 0.109743
O O10 0.789364 0.751131 0.357617
O O11 0.827848 0.000000 0.207507
O O12 0.177397 0.500000 0.508657
O O13 0.080546 0.500000 0.367450
#
# Coordination Sequence:
#
# PCOD9359183 Si02
#       7
#     2   8   8   4   4   2   4
#     4   8  16  35  52  73 102 126 166 215 246 289
#     4   8  12  20  34  55  86 119 154 198 239 278
#     4   8  16  26  41  65  96 127 159 205 243 286
#     4  10  22  36  56  78 102 136 171 209 254 302
#     4  10  22  33  55  74 110 134 170 206 256 304
#     4   8  16  35  52  73 102 126 166 215 246 289
#     4  10  22  36  56  78 102 136 171 209 254 302
#
# _framework density 24.629045000000001
#
# number of rings (size 3 to 8) (size 9 to 14) (size 15 to 20)
#    0.750    2.500    0.000    0.000    3.500    0.500 
#    0.000    0.000    0.000    9.000    0.000    0.000 
#    0.000    8.000    0.000    0.000    0.000    0.000 
#
# Total GULP energy -89141.317285 kJ/mol
# GULP energy per Si atom -5571.332330 kJ/mol
# Density = 2.457299 g / cm^3
# Si number density = 24.629045 Si / 1000 Ang^3
#
#
#
# Elastic Constant Matrix: (Units=GPa)
#
#
# Indices 1 2 3 4 5 6 
#
# 1 85.0084 31.6791 4.1661 0.0000 0.0000 0.0000
# 2 31.6791 340.5479 33.7045 0.0000 0.0000 0.0000
# 3 4.1661 33.7045 149.8473 0.0000 0.0000 0.0000
# 4 0.0000 0.0000 0.0000 -148.8533 0.0000 0.0000
# 5 0.0000 0.0000 0.0000 0.0000 9.9556 0.0000
# 6 0.0000 0.0000 0.0000 0.0000 0.0000 46.7748
#
#
#
# Elastic Compliance Matrix: (Units=1/GPa)
#
#
# Indices 1 2 3 4 5 6 
#
# 1 0.012187 -0.001125 -0.000086 0.000000 0.000000 0.000000
# 2 -0.001125 0.003107 -0.000668 0.000000 0.000000 0.000000
# 3 -0.000086 -0.000668 0.006826 0.000000 0.000000 0.000000
# 4 0.000000 0.000000 0.000000 -0.006718 0.000000 0.000000
# 5 0.000000 0.000000 0.000000 0.000000 0.100446 0.000000
# 6 0.000000 0.000000 0.000000 0.000000 0.000000 0.021379
#
#
# Mechanical properties :
#
#
# Convention : Reuss Voigt Hill
#
# Bulk Modulus (GPa) = 54.45686 79.38922 66.92304
# Shear Modulus (GPa) = 33.98914 15.29900 24.64407
#
# Velocity S-wave (km/s) = 3.71892 2.49505 3.16667
# Velocity P-wave (km/s) = 6.37176 6.37215 6.37196
#
# Compressibility (1/GPa) = 0.01836316
#
# Stress axis : x y z
#
# Youngs Moduli (GPa) = 82.05422 321.83432 146.49854
#
# Poissons Ratio (x) = 0.36213 0.01256
# Poissons Ratio (y) = 0.09233 0.09780
# Poissons Ratio (z) = 0.00704 0.21486
#
# Static dielectric constant tensor:
#      x y z
#    x 1.952060 0.000000 0.000000 
#    y 0.000000 2.057690 0.000000 
#    z 0.000000 0.000000 1.873210 
# 
# From -- ./inp_files/10837.got.cif
#   From: 2010.05.17/outbox.cif.g08.bks.cpg/sg38_6_cif.got.tgz:10837.got - 2010.06.03 18:07:57.
