data_PCOD9359517
_publ_section_title
;
Structure prediction by ZEFSAII (Michael W. Deem and Ramdas Pophale) SiO2 
 PCOD9359517
Probable space group: A M M 2
;
_chemical_formula_sum "Si O2"
_cell_formula_units_Z 56
_cell_length_a 7.559715
_cell_length_b 14.235052
_cell_length_c 30.584902
_cell_angle_alpha 90.000000
_cell_angle_beta 90.000000
_cell_angle_gamma 90.000000
_cell_volume 3291.331105
_symmetry_space_group_name_H-M "A M M 2"
_symmetry_group_IT_number 38
_symmetry_cell_setting 'orthorhombic'
loop_
_space_group_symop_operation_xyz
x,y,z
-x,-y,z
-x,y,z
x,-y,z
x,1/2+y,1/2+z
-x,1/2-y,1/2+z
-x,1/2+y,1/2+z
x,1/2-y,1/2+z
loop_
_atom_site_type_symbol
_atom_site_label
_atom_site_fract_x
_atom_site_fract_y
_atom_site_fract_z
Si Si1 0.283829 0.890152 0.134580
Si Si2 0.210474 0.607448 0.825721
Si Si3 0.712472 0.108462 0.230204
Si Si4 0.212793 0.894921 0.959304
Si Si5 0.713172 0.605274 0.999300
Si Si6 0.211642 0.212005 0.410682
Si Si7 0.287906 0.788521 0.048014
O O1 0.500000 0.889377 0.133790
O O2 0.228353 0.854667 0.182838
O O3 0.220335 0.829040 0.093781
O O4 0.232829 0.000000 0.129940
O O5 0.281853 0.500000 0.827032
O O6 0.237089 0.649111 0.777195
O O7 0.281677 0.670154 0.865351
O O8 0.000000 0.600204 0.832137
O O9 0.500000 0.107500 0.229179
O O10 0.774943 0.000000 0.231489
O O11 0.280933 0.812911 0.927210
O O12 0.000000 0.897263 0.955047
O O13 0.280306 0.000000 0.951585
O O14 0.251797 0.860541 0.008496
O O15 0.500000 0.603477 0.002857
O O16 0.779223 0.500000 0.007281
O O17 0.779507 0.687050 0.031757
O O18 0.755719 0.639658 0.950307
O O19 0.000000 0.222159 0.406258
O O20 0.500000 0.780688 0.051966
#
# Coordination Sequence:
#
# PCOD9359517 Si02
#       7
#     8   8   8   8   8   8   8
#     4   8  13  22  37  56  75  95 122 153 182 219
#     4   9  16  25  37  54  75  97 122 152 184 220
#     4   8  14  24  37  53  73  96 121 150 185 223
#     4   9  17  28  40  56  79 102 125 157 191 221
#     4   9  17  27  38  56  81 103 126 159 191 217
#     4   9  17  28  41  56  75 102 132 155 183 227
#     4   9  16  26  41  58  76 102 132 156 183 222
#
# _framework density 17.014392999999998
#
# number of rings (size 3 to 8) (size 9 to 14) (size 15 to 20)
#    0.000    3.286    0.000    1.714    0.000    2.286 
#    0.000    2.143    0.000    2.571    0.000    1.000 
#    0.000    1.143    0.000    0.000    0.000    0.000 
#
# Total GULP energy -155910.954781 kJ/mol
# GULP energy per Si atom -5568.248385 kJ/mol
# Density = 1.697567 g / cm^3
# Si number density = 17.014393 Si / 1000 Ang^3
#
#
#
# Elastic Constant Matrix: (Units=GPa)
#
#
# Indices 1 2 3 4 5 6 
#
# 1 37.9021 4.7723 4.5976 0.0000 0.0000 0.0000
# 2 4.7723 111.7883 80.8702 0.0000 0.0000 0.0000
# 3 4.5976 80.8702 179.6231 0.0000 0.0000 0.0000
# 4 0.0000 0.0000 0.0000 23.7316 0.0000 0.0000
# 5 0.0000 0.0000 0.0000 0.0000 18.2071 0.0000
# 6 0.0000 0.0000 0.0000 0.0000 0.0000 6.5751
#
#
#
# Elastic Compliance Matrix: (Units=1/GPa)
#
#
# Indices 1 2 3 4 5 6 
#
# 1 0.026534 -0.000951 -0.000251 0.000000 0.000000 0.000000
# 2 -0.000951 0.013300 -0.005964 0.000000 0.000000 0.000000
# 3 -0.000251 -0.005964 0.008259 0.000000 0.000000 0.000000
# 4 0.000000 0.000000 0.000000 0.042138 0.000000 0.000000
# 5 0.000000 0.000000 0.000000 0.000000 0.054924 0.000000
# 6 0.000000 0.000000 0.000000 0.000000 0.000000 0.152088
#
#
# Mechanical properties :
#
#
# Convention : Reuss Voigt Hill
#
# Bulk Modulus (GPa) = 29.61978 56.64374 43.13176
# Shear Modulus (GPa) = 15.48812 25.64100 20.56456
#
# Velocity S-wave (km/s) = 3.02038 3.88624 3.48035
# Velocity P-wave (km/s) = 5.44151 7.31445 6.44636
#
# Compressibility (1/GPa) = 0.03376123
#
# Stress axis : x y z
#
# Youngs Moduli (GPa) = 37.68750 75.18556 121.08498
#
# Poissons Ratio (x) = 0.07152 0.03038
# Poissons Ratio (y) = 0.03585 0.72213
# Poissons Ratio (z) = 0.00946 0.44839
#
# Static dielectric constant tensor:
#      x y z
#    x 1.632940 0.000000 0.000000 
#    y 0.000000 1.578360 0.000000 
#    z 0.000000 0.000000 1.595080 
# 
# From -- ./inp_files/22532.got.cif
#   From: 2010.05.17/outbox.cif.g08.bks.cpg/sg38_12_cif.got.tgz:22532.got - 2010.06.03 18:07:57.
