data_PCOD9359538
_publ_section_title
;
Structure prediction by ZEFSAII (Michael W. Deem and Ramdas Pophale) SiO2 
 PCOD9359538
Probable space group: A M M 2
;
_chemical_formula_sum "Si O2"
_cell_formula_units_Z 32
_cell_length_a 14.203291
_cell_length_b 19.019829
_cell_length_c 5.324892
_cell_angle_alpha 90.000000
_cell_angle_beta 90.000000
_cell_angle_gamma 90.000000
_cell_volume 1438.488509
_symmetry_space_group_name_H-M "A M M 2"
_symmetry_group_IT_number 38
_symmetry_cell_setting 'orthorhombic'
loop_
_space_group_symop_operation_xyz
x,y,z
-x,-y,z
-x,y,z
x,-y,z
x,1/2+y,1/2+z
-x,1/2-y,1/2+z
-x,1/2+y,1/2+z
x,1/2-y,1/2+z
loop_
_atom_site_type_symbol
_atom_site_label
_atom_site_fract_x
_atom_site_fract_y
_atom_site_fract_z
Si Si1 0.613580 0.287061 0.771080
Si Si2 0.212414 0.915138 0.642198
Si Si3 0.108884 0.585892 0.646049
Si Si4 0.391741 0.081159 0.951159
O O1 0.500000 0.277612 0.786229
O O2 0.650116 0.240960 0.535697
O O3 0.627280 0.366736 0.680413
O O4 0.150148 0.890527 0.879274
O O5 0.319510 0.903657 0.728570
O O6 0.202510 0.000000 0.629555
O O7 0.171615 0.888477 0.379761
O O8 0.112761 0.500000 0.643129
O O9 0.000000 0.605378 0.678253
O O10 0.500000 0.091477 0.869930
O O11 0.379211 0.000000 0.028573
#
# Coordination Sequence:
#
# PCOD9359538 Si02
#       4
#     8   8   8   8
#     4   9  18  33  51  70  96 133 175 215 251 290
#     4   9  17  28  43  66  95 126 162 202 245 297
#     4   9  16  27  43  63  91 126 160 200 253 302
#     4   9  18  33  52  76 108 143 174 207 252 306
#
# _framework density 22.245573
#
# number of rings (size 3 to 8) (size 9 to 14) (size 15 to 20)
#    0.000    3.000    0.000    0.750    0.000    5.000 
#    0.000    7.500    0.000   21.000    0.000    0.000 
#    0.000   20.000    0.000    0.000    0.000    0.000 
#
# Total GULP energy -89382.550896 kJ/mol
# GULP energy per Si atom -5586.409431 kJ/mol
# Density = 2.219494 g / cm^3
# Si number density = 22.245573 Si / 1000 Ang^3
#
#
#
# Elastic Constant Matrix: (Units=GPa)
#
#
# Indices 1 2 3 4 5 6 
#
# 1 113.8414 20.3528 45.7267 0.0000 0.0000 0.0000
# 2 20.3528 73.9823 28.5077 0.0000 0.0000 0.0000
# 3 45.7267 28.5077 129.0751 0.0000 0.0000 0.0000
# 4 0.0000 0.0000 0.0000 19.9077 0.0000 0.0000
# 5 0.0000 0.0000 0.0000 0.0000 11.9567 0.0000
# 6 0.0000 0.0000 0.0000 0.0000 0.0000 4.0118
#
#
#
# Elastic Compliance Matrix: (Units=1/GPa)
#
#
# Indices 1 2 3 4 5 6 
#
# 1 0.010407 -0.001577 -0.003339 0.000000 0.000000 0.000000
# 2 -0.001577 0.015013 -0.002757 0.000000 0.000000 0.000000
# 3 -0.003339 -0.002757 0.009539 0.000000 0.000000 0.000000
# 4 0.000000 0.000000 0.000000 0.050232 0.000000 0.000000
# 5 0.000000 0.000000 0.000000 0.000000 0.083635 0.000000
# 6 0.000000 0.000000 0.000000 0.000000 0.000000 0.249265
#
#
# Mechanical properties :
#
#
# Convention : Reuss Voigt Hill
#
# Bulk Modulus (GPa) = 50.98340 56.23038 53.60689
# Shear Modulus (GPa) = 11.36431 21.99602 16.68016
#
# Velocity S-wave (km/s) = 2.26267 3.14790 2.74125
# Velocity P-wave (km/s) = 5.45843 6.20841 5.84546
#
# Compressibility (1/GPa) = 0.01961423
#
# Stress axis : x y z
#
# Youngs Moduli (GPa) = 96.08873 66.60934 104.83100
#
# Poissons Ratio (x) = 0.10501 0.34999
# Poissons Ratio (y) = 0.15149 0.28905
# Poissons Ratio (z) = 0.32081 0.18366
#
# Static dielectric constant tensor:
#      x y z
#    x 1.830030 0.000000 0.000000 
#    y 0.000000 1.840170 0.000000 
#    z 0.000000 0.000000 1.830570 
# 
# From -- ./inp_files/725.got.cif
#   From: 2010.05.17/outbox.cif.g08.bks.cpg/sg38_1_cif.got.tgz:725.got - 2010.06.03 18:07:57.
