data_PCOD9359567
_publ_section_title
;
Structure prediction by ZEFSAII (Michael W. Deem and Ramdas Pophale) SiO2 
 PCOD9359567
Probable space group: A M M 2
;
_chemical_formula_sum "Si O2"
_cell_formula_units_Z 32
_cell_length_a 9.000000
_cell_length_b 24.000000
_cell_length_c 15.000000
_cell_angle_alpha 90.000000
_cell_angle_beta 90.000000
_cell_angle_gamma 90.000000
_cell_volume 3240.000000
_symmetry_space_group_name_H-M "A M M 2"
_symmetry_group_IT_number 38
_symmetry_cell_setting 'orthorhombic'
loop_
_space_group_symop_operation_xyz
x,y,z
-x,-y,z
-x,y,z
x,-y,z
x,1/2+y,1/2+z
-x,1/2-y,1/2+z
-x,1/2+y,1/2+z
x,1/2-y,1/2+z
loop_
_atom_site_type_symbol
_atom_site_label
_atom_site_fract_x
_atom_site_fract_y
_atom_site_fract_z
Si Si1 0.172600 0.126891 0.361380
Si Si2 0.323674 0.153427 0.191037
Si Si3 0.659561 0.065674 0.497151
Si Si4 0.326548 0.614145 0.307444
Si Si5 0.324215 0.781915 0.680595
Si Si6 0.677151 0.340942 0.493224
Si Si7 0.177430 0.777549 0.492728
Si Si8 0.161094 0.565299 0.158172
O O1 0.250337 0.118677 0.268130
O O2 0.211357 0.077894 0.428367
O O3 0.231192 0.180359 0.416493
O O4 0.000000 0.134051 0.347261
O O5 0.500000 0.148588 0.197443
O O6 0.283768 0.218542 0.206301
O O7 0.278041 0.138566 0.090807
O O8 0.500000 0.089929 0.470262
O O9 0.710901 0.087020 0.593213
O O10 0.643519 0.000000 0.503227
O O11 0.500000 0.599588 0.292971
O O12 0.300594 0.673999 0.259235
O O13 0.297753 0.618376 0.411597
O O14 0.215747 0.573772 0.257504
O O15 0.500000 0.781861 0.659492
O O16 0.235285 0.793880 0.590488
O O17 0.500000 0.328837 0.496152
O O18 0.760722 0.283612 0.475138
O O19 0.000000 0.778068 0.492817
O O20 0.149142 0.500000 0.140240
O O21 0.000000 0.591367 0.141210
#
# Coordination Sequence:
#
# PCOD9359567 Si02
#       8
#     8   8   8   8   8   8   8   8
#     4  11  22  33  49  75 104 134 167 204 250 301
#     4   9  18  33  51  70  97 134 172 209 247 290
#     4  10  21  37  57  79 101 128 164 204 246 295
#     4  10  19  32  53  77  99 129 171 212 249 294
#     4   9  18  31  48  72 101 133 167 205 249 293
#     4   9  19  35  52  71  98 133 173 214 252 288
#     4  10  20  31  45  70 103 136 168 202 244 297
#     4  10  21  36  53  76 107 136 160 195 247 302
#
# _framework density 9.8765429999999999
#
# number of rings (size 3 to 8) (size 9 to 14) (size 15 to 20)
#    0.000    2.250    0.000    3.750    0.000    9.500 
#    0.000    0.000    0.000    0.750    0.000    1.750 
#    0.000    0.000    0.000    0.000    0.000    0.000 
#
# Total GULP energy -178332.649950 kJ/mol
# GULP energy per Si atom -5572.895311 kJ/mol
# Density = 0.985406 g / cm^3
# Si number density = 9.876543 Si / 1000 Ang^3
#
#
#
# Elastic Constant Matrix: (Units=GPa)
#
#
# Indices 1 2 3 4 5 6 
#
# 1 -19.1583 2.0790 39.3443 0.0000 0.0000 0.0000
# 2 2.0790 6.8578 11.2750 0.0000 0.0000 0.0000
# 3 39.3443 11.2750 82.2507 0.0000 0.0000 0.0000
# 4 0.0000 0.0000 0.0000 18.2398 0.0000 0.0000
# 5 0.0000 0.0000 0.0000 0.0000 44.4509 0.0000
# 6 0.0000 0.0000 0.0000 0.0000 0.0000 16.1588
#
#
#
# Elastic Compliance Matrix: (Units=1/GPa)
#
#
# Indices 1 2 3 4 5 6 
#
# 1 -0.024971 -0.015580 0.014080 0.000000 0.000000 0.000000
# 2 -0.015580 0.178525 -0.017020 0.000000 0.000000 0.000000
# 3 0.014080 -0.017020 0.007756 0.000000 0.000000 0.000000
# 4 0.000000 0.000000 0.000000 0.054825 0.000000 0.000000
# 5 0.000000 0.000000 0.000000 0.000000 0.022497 0.000000
# 6 0.000000 0.000000 0.000000 0.000000 0.000000 0.061886
#
#
# Mechanical properties :
#
#
# Convention : Reuss Voigt Hill
#
# Bulk Modulus (GPa) = 8.04688 19.48298 13.76493
# Shear Modulus (GPa) = 13.19331 16.92001 15.05666
#
# Velocity S-wave (km/s) = 2.58720 2.92991 2.76387
# Velocity P-wave (km/s) = 3.60658 4.61849 4.14354
#
# Compressibility (1/GPa) = 0.12427181
#
# Stress axis : x y z
#
# Youngs Moduli (GPa) = -40.04633 5.60145 128.93709
#
# Poissons Ratio (x) = 0.08727 -1.81549
# Poissons Ratio (y) = -0.62391 2.19450
# Poissons Ratio (z) = 0.56387 0.09534
#
# Static dielectric constant tensor:
#      x y z
#    x 1.706330 0.000000 0.000000 
#    y 0.000000 1.727900 0.000000 
#    z 0.000000 0.000000 1.709200 
# 
# From -- ./inp_files/12708.got.cif
#   From: 2010.05.17/outbox.ucp.g08.bks.cvg/sg38_7_cif.got.tgz:12708.got - 2010.06.11 10:39:43.
