data_PCOD9359917
_publ_section_title
;
Structure prediction by ZEFSAII (Michael W. Deem and Ramdas Pophale) SiO2 
 PCOD9359917
Probable space group: A B M 2
;
_chemical_formula_sum "Si O2"
_cell_formula_units_Z 64
_cell_length_a 9.650190
_cell_length_b 31.803278
_cell_length_c 8.631117
_cell_angle_alpha 90.000000
_cell_angle_beta 90.000000
_cell_angle_gamma 90.000000
_cell_volume 2648.956054
_symmetry_space_group_name_H-M "A B M 2"
_symmetry_group_IT_number 39
_symmetry_cell_setting 'orthorhombic'
loop_
_space_group_symop_operation_xyz
x,y,z
-x,-y,z
-x,1/2+y,z
x,1/2-y,z
x,1/2+y,1/2+z
-x,1/2-y,1/2+z
-x,y,1/2+z
x,-y,1/2+z
loop_
_atom_site_type_symbol
_atom_site_label
_atom_site_fract_x
_atom_site_fract_y
_atom_site_fract_z
Si Si1 0.251900 0.794350 0.219490
Si Si2 0.331144 0.204982 0.357051
Si Si3 0.068312 0.295803 0.134195
Si Si4 0.679031 0.385169 0.874141
Si Si5 0.641704 0.976460 0.272319
Si Si6 0.743695 0.384415 0.231882
Si Si7 0.064905 0.388957 0.142556
Si Si8 0.766806 0.956187 0.953559
O O1 0.293817 0.750000 0.291901
O O2 0.289415 0.838139 0.296828
O O3 0.085804 0.795347 0.202469
O O4 0.305861 0.794777 0.041649
O O5 0.397911 0.250000 0.314198
O O6 0.183370 0.205170 0.268906
O O7 0.389794 0.158776 0.319552
O O8 0.082141 0.250000 0.050455
O O9 0.079594 0.342651 0.060519
O O10 0.619626 0.429375 0.827966
O O11 0.830101 0.386719 0.789020
O O12 0.685105 0.385596 0.058983
O O13 0.500000 0.000000 0.301180
O O14 0.772469 0.001908 0.347529
O O15 0.673526 0.972463 0.092402
O O16 0.698692 0.420871 0.345320
O O17 0.908468 0.391629 0.202181
O O18 0.110268 0.428923 0.037321
#
# Coordination Sequence:
#
# PCOD9359917 Si02
#       8
#     8   8   8   8   8   8   8   8
#     4   8  14  23  39  67 106 154 195 219 249 302
#     4   8  13  23  41  68 104 142 181 222 263 319
#     4   8  13  22  39  66 104 152 196 225 252 297
#     4   9  18  33  54  81 110 147 191 228 276 336
#     4  11  24  44  64  80 101 133 186 255 306 337
#     4  10  18  32  53  81 121 157 185 224 269 328
#     4   9  18  32  51  80 120 158 188 222 267 328
#     4  11  23  39  59  83 107 141 189 235 288 347
#
# _framework density 24.160461000000002
#
# number of rings (size 3 to 8) (size 9 to 14) (size 15 to 20)
#    0.000    2.750    0.000    1.875    0.000    3.000 
#    0.000   13.125    0.000    0.750    0.000    1.750 
#    0.000   11.000    0.000    0.125    0.000    0.000 
#
# Total GULP energy -178423.039335 kJ/mol
# GULP energy per Si atom -5575.719979 kJ/mol
# Density = 2.410547 g / cm^3
# Si number density = 24.160461 Si / 1000 Ang^3
#
#
#
# Elastic Constant Matrix: (Units=GPa)
#
#
# Indices 1 2 3 4 5 6 
#
# 1 66.0792 25.2103 0.7114 0.0000 0.0000 0.0000
# 2 25.2103 195.8851 38.0344 0.0000 0.0000 0.0000
# 3 0.7114 38.0344 66.7028 0.0000 0.0000 0.0000
# 4 0.0000 0.0000 0.0000 19.2583 0.0000 0.0000
# 5 0.0000 0.0000 0.0000 0.0000 -1.5606 0.0000
# 6 0.0000 0.0000 0.0000 0.0000 0.0000 -45.1471
#
#
#
# Elastic Compliance Matrix: (Units=1/GPa)
#
#
# Indices 1 2 3 4 5 6 
#
# 1 0.015990 -0.002277 0.001128 0.000000 0.000000 0.000000
# 2 -0.002277 0.006065 -0.003434 0.000000 0.000000 0.000000
# 3 0.001128 -0.003434 0.016938 0.000000 0.000000 0.000000
# 4 0.000000 0.000000 0.000000 0.051926 0.000000 0.000000
# 5 0.000000 0.000000 0.000000 0.000000 -0.640799 0.000000
# 6 0.000000 0.000000 0.000000 0.000000 0.000000 -0.022150
#
#
# Mechanical properties :
#
#
# Convention : Reuss Voigt Hill
#
# Bulk Modulus (GPa) = 33.52725 50.73106 42.12915
# Shear Modulus (GPa) = -9.04286 12.15753 1.55734
#
# Velocity S-wave (km/s) = -1.93674 2.24564 0.80373
# Velocity P-wave (km/s) = 2.98425 5.26944 4.28210
#
# Compressibility (1/GPa) = 0.02982649
#
# Stress axis : x y z
#
# Youngs Moduli (GPa) = 62.53961 164.88547 59.03926
#
# Poissons Ratio (x) = 0.37542 -0.06658
# Poissons Ratio (y) = 0.14239 0.20274
# Poissons Ratio (z) = -0.07053 0.56620
#
# Static dielectric constant tensor:
#      x y z
#    x 1.937280 0.000000 0.000000 
#    y 0.000000 2.060200 0.000000 
#    z 0.000000 0.000000 1.940710 
# 
# From -- ./inp_files/2907.got.cif
#   From: 2010.05.17/outbox.cif.g08.bks.cpg/sg39_2_cif.got.tgz:2907.got - 2010.06.03 18:22:40.
