data_PCOD9359519
_publ_section_title
;
Structure prediction by ZEFSAII (Michael W. Deem and Ramdas Pophale) SiO2 
 PCOD9359519
Probable space group: A M M 2
;
_chemical_formula_sum "Si O2"
_cell_formula_units_Z 48
_cell_length_a 7.515694
_cell_length_b 9.668923
_cell_length_c 32.544791
_cell_angle_alpha 90.000000
_cell_angle_beta 90.000000
_cell_angle_gamma 90.000000
_cell_volume 2364.986566
_symmetry_space_group_name_H-M "A M M 2"
_symmetry_group_IT_number 38
_symmetry_cell_setting 'orthorhombic'
loop_
_space_group_symop_operation_xyz
x,y,z
-x,-y,z
-x,y,z
x,-y,z
x,1/2+y,1/2+z
-x,1/2-y,1/2+z
-x,1/2+y,1/2+z
x,1/2-y,1/2+z
loop_
_atom_site_type_symbol
_atom_site_label
_atom_site_fract_x
_atom_site_fract_y
_atom_site_fract_z
Si Si1 0.286421 0.159809 0.085570
Si Si2 0.718007 0.659259 0.917792
Si Si3 0.788462 0.657047 0.675001
Si Si4 0.287067 0.158019 0.841410
Si Si5 0.786526 0.342832 0.249163
Si Si6 0.717084 0.161335 0.995601
O O1 0.500000 0.158429 0.084499
O O2 0.236856 0.221419 0.129609
O O3 0.223561 0.000000 0.086943
O O4 0.226772 0.213232 0.041011
O O5 0.500000 0.659250 0.917803
O O6 0.774599 0.500000 0.918067
O O7 0.777759 0.741652 0.877240
O O8 0.775687 0.743252 0.958201
O O9 0.715356 0.500000 0.675141
O O10 0.717035 0.747751 0.712447
O O11 0.000000 0.646302 0.680864
O O12 0.500000 0.150411 0.845889
O O13 0.250237 0.208568 0.795247
O O14 0.218169 0.000000 0.845193
O O15 0.717465 0.500000 0.246478
O O16 0.000000 0.349393 0.244982
O O17 0.500000 0.161212 0.995069
O O18 0.769971 0.000000 0.990675
#
# Coordination Sequence:
#
# PCOD9359519 Si02
#       6
#     8   8   8   8   8   8
#     4   8  14  25  42  64  87 111 141 175 208 243
#     4   9  16  25  39  62  90 114 137 170 211 251
#     4   9  17  29  45  64  85 110 141 175 210 249
#     4   9  17  29  45  64  85 110 141 175 209 246
#     4   9  18  32  47  62  83 112 143 173 208 252
#     4   8  13  23  40  59  80 110 145 174 202 243
#
# _framework density 20.296099000000002
#
# number of rings (size 3 to 8) (size 9 to 14) (size 15 to 20)
#    0.000    3.333    0.000    1.500    0.000    3.333 
#    0.000    0.833    0.000    2.000    0.000    4.667 
#    0.000    0.000    0.000    0.000    0.000    0.000 
#
# Total GULP energy -133743.236685 kJ/mol
# GULP energy per Si atom -5572.634862 kJ/mol
# Density = 2.024990 g / cm^3
# Si number density = 20.296099 Si / 1000 Ang^3
#
#
#
# Elastic Constant Matrix: (Units=GPa)
#
#
# Indices 1 2 3 4 5 6 
#
# 1 50.7568 4.3944 1.5092 0.0000 0.0000 0.0000
# 2 4.3944 88.5693 112.6706 0.0000 0.0000 0.0000
# 3 1.5092 112.6706 252.9046 0.0000 0.0000 0.0000
# 4 0.0000 0.0000 0.0000 31.8999 0.0000 0.0000
# 5 0.0000 0.0000 0.0000 0.0000 32.1471 0.0000
# 6 0.0000 0.0000 0.0000 0.0000 0.0000 -1.1969
#
#
#
# Elastic Compliance Matrix: (Units=1/GPa)
#
#
# Indices 1 2 3 4 5 6 
#
# 1 0.019846 -0.001925 0.000739 0.000000 0.000000 0.000000
# 2 -0.001925 0.026246 -0.011681 0.000000 0.000000 0.000000
# 3 0.000739 -0.011681 0.009154 0.000000 0.000000 0.000000
# 4 0.000000 0.000000 0.000000 0.031348 0.000000 0.000000
# 5 0.000000 0.000000 0.000000 0.000000 0.031107 0.000000
# 6 0.000000 0.000000 0.000000 0.000000 0.000000 -0.835492
#
#
# Mechanical properties :
#
#
# Convention : Reuss Voigt Hill
#
# Bulk Modulus (GPa) = 33.88448 69.93103 51.90775
# Shear Modulus (GPa) = -7.32903 30.81377 11.74237
#
# Velocity S-wave (km/s) = -1.90234 3.90065 2.40792
# Velocity P-wave (km/s) = 3.45052 7.40385 5.77595
#
# Compressibility (1/GPa) = 0.02951204
#
# Stress axis : x y z
#
# Youngs Moduli (GPa) = 50.38675 38.10083 109.24467
#
# Poissons Ratio (x) = 0.07334 -0.08075
# Poissons Ratio (y) = 0.09699 1.27612
# Poissons Ratio (z) = -0.03724 0.44507
#
# Static dielectric constant tensor:
#      x y z
#    x 1.763030 0.000000 0.000000 
#    y 0.000000 1.700920 0.000000 
#    z 0.000000 0.000000 1.734430 
# 
# From -- ./inp_files/22421.got.cif
#   From: 2010.05.17/outbox.cif.g08.bks.cpg/sg38_12_cif.got.tgz:22421.got - 2010.06.03 18:07:57.
