data_PCOD9359209
_publ_section_title
;
Structure prediction by ZEFSAII (Michael W. Deem and Ramdas Pophale) SiO2 
 PCOD9359209
Probable space group: A M M 2
;
_chemical_formula_sum "Si O2"
_cell_formula_units_Z 64
_cell_length_a 17.890849
_cell_length_b 28.131873
_cell_length_c 5.796331
_cell_angle_alpha 90.000000
_cell_angle_beta 90.000000
_cell_angle_gamma 90.000000
_cell_volume 2917.311314
_symmetry_space_group_name_H-M "A M M 2"
_symmetry_group_IT_number 38
_symmetry_cell_setting 'orthorhombic'
loop_
_space_group_symop_operation_xyz
x,y,z
-x,-y,z
-x,y,z
x,-y,z
x,1/2+y,1/2+z
-x,1/2-y,1/2+z
-x,1/2+y,1/2+z
x,1/2-y,1/2+z
loop_
_atom_site_type_symbol
_atom_site_label
_atom_site_fract_x
_atom_site_fract_y
_atom_site_fract_z
Si Si1 0.783267 0.947586 0.975220
Si Si2 0.182439 0.872000 0.598794
Si Si3 0.311520 0.728534 0.529721
Si Si4 0.857635 0.238156 0.577219
Si Si5 0.581860 0.948900 0.728674
Si Si6 0.583104 0.357240 0.551600
Si Si7 0.914046 0.552996 0.844904
Si Si8 0.679382 0.910877 0.356160
O O1 0.789054 0.900868 0.820193
O O2 0.779176 0.000000 0.862528
O O3 0.858212 0.947315 0.129546
O O4 0.713517 0.940681 0.146316
O O5 0.159654 0.817581 0.615740
O O6 0.115205 0.904892 0.505762
O O7 0.252791 0.876635 0.427735
O O8 0.334592 0.756405 0.292729
O O9 0.221489 0.733467 0.546185
O O10 0.350505 0.678191 0.486886
O O11 0.893557 0.244184 0.320241
O O12 0.500000 0.948601 0.609245
O O13 0.582799 0.902759 0.886600
O O14 0.651073 0.944460 0.557687
O O15 0.585621 0.000000 0.852242
O O16 0.500000 0.335770 0.553055
O O17 0.608110 0.379034 0.794632
O O18 0.907665 0.500000 0.953802
O O19 0.000000 0.559764 0.778961
#
# Coordination Sequence:
#
# PCOD9359209 Si02
#       8
#     8   8   8   8   8   8   8   8
#     4  10  22  37  60  96 135 171 216 268 326 397
#     4  11  23  37  65  97 131 170 217 274 331 400
#     4  10  23  41  65  91 124 164 214 278 345 410
#     4  10  23  39  65  94 129 171 224 280 339 400
#     4  10  23  41  59  83 120 168 219 272 337 409
#     4  11  25  41  62  88 121 165 220 282 345 414
#     4   9  20  40  66 100 142 182 217 258 319 397
#     4  11  22  36  61  86 126 165 214 270 334 398
#
# _framework density 21.938008
#
# number of rings (size 3 to 8) (size 9 to 14) (size 15 to 20)
#    0.000    1.750    0.000    3.375   12.250    4.500 
#    0.000    2.500    0.000    0.750    0.000    0.000 
#    0.000    0.000    0.000    0.000    0.000    0.000 
#
# Total GULP energy -178451.415277 kJ/mol
# GULP energy per Si atom -5576.606727 kJ/mol
# Density = 2.188808 g / cm^3
# Si number density = 21.938008 Si / 1000 Ang^3
#
#
#
# Elastic Constant Matrix: (Units=GPa)
#
#
# Indices 1 2 3 4 5 6 
#
# 1 86.9946 2.0348 7.7357 0.0000 0.0000 0.0000
# 2 2.0348 71.0669 26.1037 0.0000 0.0000 0.0000
# 3 7.7357 26.1037 88.3906 0.0000 0.0000 0.0000
# 4 0.0000 0.0000 0.0000 34.2000 0.0000 0.0000
# 5 0.0000 0.0000 0.0000 0.0000 13.2016 0.0000
# 6 0.0000 0.0000 0.0000 0.0000 0.0000 25.5218
#
#
#
# Elastic Compliance Matrix: (Units=1/GPa)
#
#
# Indices 1 2 3 4 5 6 
#
# 1 0.011585 0.000046 -0.001027 0.000000 0.000000 0.000000
# 2 0.000046 0.015784 -0.004665 0.000000 0.000000 0.000000
# 3 -0.001027 -0.004665 0.012781 0.000000 0.000000 0.000000
# 4 0.000000 0.000000 0.000000 0.029240 0.000000 0.000000
# 5 0.000000 0.000000 0.000000 0.000000 0.075748 0.000000
# 6 0.000000 0.000000 0.000000 0.000000 0.000000 0.039182
#
#
# Mechanical properties :
#
#
# Convention : Reuss Voigt Hill
#
# Bulk Modulus (GPa) = 34.65490 35.35562 35.00526
# Shear Modulus (GPa) = 24.36257 28.62319 26.49288
#
# Velocity S-wave (km/s) = 3.33606 3.61602 3.47886
# Velocity P-wave (km/s) = 5.53806 5.79528 5.66813
#
# Compressibility (1/GPa) = 0.02885595
#
# Stress axis : x y z
#
# Youngs Moduli (GPa) = 86.31660 63.35713 78.24065
#
# Poissons Ratio (x) = -0.00289 0.08038
# Poissons Ratio (y) = -0.00394 0.36501
# Poissons Ratio (z) = 0.08868 0.29558
#
# Static dielectric constant tensor:
#      x y z
#    x 1.790580 0.000000 0.000000 
#    y 0.000000 1.797490 0.000000 
#    z 0.000000 0.000000 1.896610 
# 
# From -- ./inp_files/1744.got.cif
#   From: 2010.05.17/outbox.cif.g08.bks.cpg/sg38_1_cif.got.tgz:1744.got - 2010.06.03 18:07:57.
