data_PCOD9359103
_publ_section_title
;
Structure prediction by ZEFSAII (Michael W. Deem and Ramdas Pophale) SiO2 
 PCOD9359103
Probable space group: A M M 2
;
_chemical_formula_sum "Si O2"
_cell_formula_units_Z 48
_cell_length_a 15.486002
_cell_length_b 8.736551
_cell_length_c 19.447510
_cell_angle_alpha 90.000000
_cell_angle_beta 90.000000
_cell_angle_gamma 90.000000
_cell_volume 2631.136207
_symmetry_space_group_name_H-M "A M M 2"
_symmetry_group_IT_number 38
_symmetry_cell_setting 'orthorhombic'
loop_
_space_group_symop_operation_xyz
x,y,z
-x,-y,z
-x,y,z
x,-y,z
x,1/2+y,1/2+z
-x,1/2-y,1/2+z
-x,1/2+y,1/2+z
x,1/2-y,1/2+z
loop_
_atom_site_type_symbol
_atom_site_label
_atom_site_fract_x
_atom_site_fract_y
_atom_site_fract_z
Si Si1 0.848706 0.182909 0.934510
Si Si2 0.500000 0.816413 0.343911
Si Si3 0.000000 0.186560 0.186540
Si Si4 0.650514 0.317279 0.089783
Si Si5 0.000000 0.682628 0.843693
Si Si6 0.839637 0.184983 0.093024
Si Si7 0.648665 0.683812 0.438467
Si Si8 0.500000 0.816258 0.182882
O O1 0.748426 0.222419 0.921567
O O2 0.915736 0.261423 0.884212
O O3 0.857905 0.000000 0.927651
O O4 0.866333 0.221490 0.014480
O O5 0.583218 0.749681 0.382854
O O6 0.500000 0.775578 0.263446
O O7 0.500000 0.000000 0.349789
O O8 0.000000 0.239373 0.265063
O O9 0.914248 0.233004 0.145328
O O10 0.000000 0.000000 0.186152
O O11 0.645810 0.500000 0.088490
O O12 0.747540 0.261902 0.106349
O O13 0.583355 0.250337 0.144277
O O14 0.629326 0.252098 0.013816
O O15 0.000000 0.500000 0.842031
O O16 0.828771 0.000000 0.096361
O O17 0.641513 0.500000 0.442244
O O18 0.500000 0.000000 0.176977
#
# Coordination Sequence:
#
# PCOD9359103 Si02
#       8
#     8   4   4   8   4   8   8   4
#     4   9  19  36  58  80 103 140 185 225 266 321
#     4  11  24  39  58  85 115 147 184 231 280 325
#     4   9  19  35  55  79 108 145 186 224 268 329
#     4  11  22  37  59  87 115 142 183 236 281 324
#     4  11  22  33  51  81 114 145 176 222 280 329
#     4   9  18  37  61  80 103 142 190 230 270 324
#     4  10  21  39  62  84 110 147 188 228 277 336
#     4  11  24  41  58  79 113 155 190 221 272 337
#
# _framework density 18.243068000000001
#
# number of rings (size 3 to 8) (size 9 to 14) (size 15 to 20)
#    0.000    2.000    0.000    4.750    0.000    7.333 
#    0.000    7.083    0.000    0.000    0.000    0.000 
#    0.000    0.000    0.000    0.000    0.000    0.000 
#
# Total GULP energy -134080.825352 kJ/mol
# GULP energy per Si atom -5586.701056 kJ/mol
# Density = 1.820155 g / cm^3
# Si number density = 18.243068 Si / 1000 Ang^3
#
#
#
# Elastic Constant Matrix: (Units=GPa)
#
#
# Indices 1 2 3 4 5 6 
#
# 1 145.0972 63.1385 140.7520 0.0000 0.0000 0.0000
# 2 63.1385 67.0269 70.3424 0.0000 0.0000 0.0000
# 3 140.7520 70.3424 181.9839 0.0000 0.0000 0.0000
# 4 0.0000 0.0000 0.0000 29.1659 0.0000 0.0000
# 5 0.0000 0.0000 0.0000 0.0000 -22.7714 0.0000
# 6 0.0000 0.0000 0.0000 0.0000 0.0000 28.8658
#
#
#
# Elastic Compliance Matrix: (Units=1/GPa)
#
#
# Indices 1 2 3 4 5 6 
#
# 1 0.029137 -0.006388 -0.020066 0.000000 0.000000 0.000000
# 2 -0.006388 0.026502 -0.005304 0.000000 0.000000 0.000000
# 3 -0.020066 -0.005304 0.023065 0.000000 0.000000 0.000000
# 4 0.000000 0.000000 0.000000 0.034287 0.000000 0.000000
# 5 0.000000 0.000000 0.000000 0.000000 -0.043915 0.000000
# 6 0.000000 0.000000 0.000000 0.000000 0.000000 0.034643
#
#
# Mechanical properties :
#
#
# Convention : Reuss Voigt Hill
#
# Bulk Modulus (GPa) = 65.83695 104.73043 85.28369
# Shear Modulus (GPa) = 29.01954 15.04374 22.03164
#
# Velocity S-wave (km/s) = 3.99270 2.87475 3.47893
# Velocity P-wave (km/s) = 7.57778 8.27961 7.93645
#
# Compressibility (1/GPa) = 0.01518904
#
# Stress axis : x y z
#
# Youngs Moduli (GPa) = 34.32062 37.73240 43.35578
#
# Poissons Ratio (x) = 0.24102 0.87000
# Poissons Ratio (y) = 0.21923 0.22994
# Poissons Ratio (z) = 0.68869 0.20012
#
# Static dielectric constant tensor:
#      x y z
#    x 1.609550 0.000000 0.000000 
#    y 0.000000 1.613630 0.000000 
#    z 0.000000 0.000000 1.602640 
# 
# From -- ./inp_files/18252.got.cif
#   From: 2010.05.17/outbox.cif.g08.bks.cpg/sg38_10_cif.got.tgz:18252.got - 2010.06.03 18:07:57.
