data_PCOD9359469
_publ_section_title
;
Structure prediction by ZEFSAII (Michael W. Deem and Ramdas Pophale) SiO2 
 PCOD9359469
Probable space group: A M M 2
;
_chemical_formula_sum "Si O2"
_cell_formula_units_Z 48
_cell_length_a 9.019916
_cell_length_b 23.221961
_cell_length_c 11.698389
_cell_angle_alpha 90.000000
_cell_angle_beta 90.000000
_cell_angle_gamma 90.000000
_cell_volume 2450.346169
_symmetry_space_group_name_H-M "A M M 2"
_symmetry_group_IT_number 38
_symmetry_cell_setting 'orthorhombic'
loop_
_space_group_symop_operation_xyz
x,y,z
-x,-y,z
-x,y,z
x,-y,z
x,1/2+y,1/2+z
-x,1/2-y,1/2+z
-x,1/2+y,1/2+z
x,1/2-y,1/2+z
loop_
_atom_site_type_symbol
_atom_site_label
_atom_site_fract_x
_atom_site_fract_y
_atom_site_fract_z
Si Si1 0.824342 0.138665 0.041790
Si Si2 0.673579 0.345457 0.785642
Si Si3 0.834090 0.932535 0.431622
Si Si4 0.677536 0.933296 0.851968
Si Si5 0.170016 0.357337 0.159581
Si Si6 0.823243 0.267563 0.974947
O O1 0.757064 0.148640 0.166385
O O2 0.000000 0.128389 0.048149
O O3 0.745548 0.088175 0.971591
O O4 0.799683 0.199738 0.978453
O O5 0.500000 0.336522 0.769030
O O6 0.709969 0.403863 0.854314
O O7 0.741411 0.296716 0.868748
O O8 0.831183 0.902368 0.554559
O O9 0.000000 0.921040 0.382864
O O10 0.815344 0.000000 0.443196
O O11 0.500000 0.931028 0.855862
O O12 0.736649 0.887809 0.758043
O O13 0.721040 0.000000 0.826884
O O14 0.000000 0.348449 0.200201
O O15 0.221961 0.298852 0.094968
O O16 0.000000 0.278876 0.964773
#
# Coordination Sequence:
#
# PCOD9359469 Si02
#       6
#     8   8   8   8   8   8
#     4  11  24  42  65  87 115 159 208 253 298 358
#     4  11  23  38  58  88 123 154 190 242 305 366
#     4   9  18  35  60  87 116 155 203 248 288 342
#     4  11  25  42  59  87 128 167 205 252 308 367
#     4   9  18  36  62  91 119 153 199 250 300 355
#     4   9  21  41  64  89 118 154 201 251 301 358
#
# _framework density 19.58907
#
# number of rings (size 3 to 8) (size 9 to 14) (size 15 to 20)
#    0.000    2.000    0.000    4.000    2.333    7.000 
#    0.000    0.000    0.000    0.000    0.000    0.000 
#    0.000    0.000    0.000    0.000    0.000    0.000 
#
# Total GULP energy -134011.237447 kJ/mol
# GULP energy per Si atom -5583.801560 kJ/mol
# Density = 1.954448 g / cm^3
# Si number density = 19.589070 Si / 1000 Ang^3
#
#
#
# Elastic Constant Matrix: (Units=GPa)
#
#
# Indices 1 2 3 4 5 6 
#
# 1 61.2596 22.4138 32.2213 0.0000 0.0000 0.0000
# 2 22.4138 58.4632 11.6043 0.0000 0.0000 0.0000
# 3 32.2213 11.6043 73.7559 0.0000 0.0000 0.0000
# 4 0.0000 0.0000 0.0000 12.3043 0.0000 0.0000
# 5 0.0000 0.0000 0.0000 0.0000 77.7644 0.0000
# 6 0.0000 0.0000 0.0000 0.0000 0.0000 14.5124
#
#
#
# Elastic Compliance Matrix: (Units=1/GPa)
#
#
# Indices 1 2 3 4 5 6 
#
# 1 0.023882 -0.007314 -0.009283 0.000000 0.000000 0.000000
# 2 -0.007314 0.019896 0.000065 0.000000 0.000000 0.000000
# 3 -0.009283 0.000065 0.017603 0.000000 0.000000 0.000000
# 4 0.000000 0.000000 0.000000 0.081272 0.000000 0.000000
# 5 0.000000 0.000000 0.000000 0.000000 0.012859 0.000000
# 6 0.000000 0.000000 0.000000 0.000000 0.000000 0.068907
#
#
# Mechanical properties :
#
#
# Convention : Reuss Voigt Hill
#
# Bulk Modulus (GPa) = 35.31262 36.21753 35.76508
# Shear Modulus (GPa) = 18.73204 29.39884 24.06544
#
# Velocity S-wave (km/s) = 3.09568 3.87819 3.50882
# Velocity P-wave (km/s) = 5.55369 6.21149 5.89178
#
# Compressibility (1/GPa) = 0.02831849
#
# Stress axis : x y z
#
# Youngs Moduli (GPa) = 41.87184 50.26175 56.80744
#
# Poissons Ratio (x) = 0.36759 0.52733
# Poissons Ratio (y) = 0.30623 -0.00368
# Poissons Ratio (z) = 0.38868 -0.00325
#
# Static dielectric constant tensor:
#      x y z
#    x 1.656910 0.000000 0.000000 
#    y 0.000000 1.693700 0.000000 
#    z 0.000000 0.000000 1.688890 
# 
# From -- ./inp_files/8126.got.cif
#   From: 2010.05.17/outbox.cif.g08.bks.cpg/sg38_5_cif.got.tgz:8126.got - 2010.06.03 18:07:57.
