data_PCOD9359677
_publ_section_title
;
Structure prediction by ZEFSAII (Michael W. Deem and Ramdas Pophale) SiO2 
 PCOD9359677
Probable space group: A B M 2
;
_chemical_formula_sum "Si O2"
_cell_formula_units_Z 64
_cell_length_a 37.172084
_cell_length_b 14.730322
_cell_length_c 5.342721
_cell_angle_alpha 90.000000
_cell_angle_beta 90.000000
_cell_angle_gamma 90.000000
_cell_volume 2925.443036
_symmetry_space_group_name_H-M "A B M 2"
_symmetry_group_IT_number 39
_symmetry_cell_setting 'orthorhombic'
loop_
_space_group_symop_operation_xyz
x,y,z
-x,-y,z
-x,1/2+y,z
x,1/2-y,z
x,1/2+y,1/2+z
-x,1/2-y,1/2+z
-x,y,1/2+z
x,-y,1/2+z
loop_
_atom_site_type_symbol
_atom_site_label
_atom_site_fract_x
_atom_site_fract_y
_atom_site_fract_z
Si Si1 0.980727 0.141134 0.289290
Si Si2 0.749356 0.358734 0.326343
Si Si3 0.373880 0.101400 0.417188
Si Si4 0.292275 0.860644 0.825007
Si Si5 0.596996 0.395622 0.416819
Si Si6 0.514365 0.396215 0.256173
Si Si7 0.172818 0.442206 0.790993
Si Si8 0.095926 0.558408 0.389713
O O1 0.983701 0.250000 0.283716
O O2 0.939722 0.115518 0.342540
O O3 0.005236 0.107480 0.520366
O O4 0.747947 0.250000 0.329335
O O5 0.730444 0.388120 0.068952
O O6 0.790700 0.387909 0.332086
O O7 0.727749 0.389936 0.571848
O O8 0.332264 0.100568 0.345729
O O9 0.395387 0.145328 0.187740
O O10 0.389769 0.999895 0.447732
O O11 0.380183 0.144601 0.688363
O O12 0.295202 0.750000 0.823294
O O13 0.555574 0.394972 0.339223
O O14 0.500000 0.500000 0.225245
O O15 0.508384 0.355244 0.983380
O O16 0.172976 0.480139 0.507316
O O17 0.134484 0.393855 0.841546
O O18 0.095271 0.519090 0.671981
#
# Coordination Sequence:
#
# PCOD9359677 Si02
#       8
#     8   8   8   8   8   8   8   8
#     4  10  21  36  54  81 115 147 187 235 275 320
#     4  10  21  39  58  78 103 139 179 223 265 321
#     4  10  18  32  45  66  99 128 155 198 249 293
#     4  10  21  37  55  74 100 133 176 215 253 305
#     4  10  19  30  45  70 104 127 154 205 248 306
#     4  10  16  25  41  63  94 127 158 189 238 301
#     4  10  21  39  56  84 113 140 177 231 278 322
#     4  10  21  36  57  80 112 147 183 224 274 332
#
# _framework density 21.877026999999998
#
# number of rings (size 3 to 8) (size 9 to 14) (size 15 to 20)
#    0.000    2.000    0.000    6.000    0.000    2.000 
#   13.500    0.000    0.000    9.000    0.000    0.000 
#    0.000   37.000    0.000    0.000    0.000    0.000 
#
# Total GULP energy -178760.142199 kJ/mol
# GULP energy per Si atom -5586.254444 kJ/mol
# Density = 2.182723 g / cm^3
# Si number density = 21.877027 Si / 1000 Ang^3
#
#
#
# Elastic Constant Matrix: (Units=GPa)
#
#
# Indices 1 2 3 4 5 6 
#
# 1 98.1491 -4.3125 -16.2085 0.0000 0.0000 0.0000
# 2 -4.3125 49.0883 -3.3479 0.0000 0.0000 0.0000
# 3 -16.2085 -3.3479 120.4249 0.0000 0.0000 0.0000
# 4 0.0000 0.0000 0.0000 -9.4615 0.0000 0.0000
# 5 0.0000 0.0000 0.0000 0.0000 42.2433 0.0000
# 6 0.0000 0.0000 0.0000 0.0000 0.0000 439.2702
#
#
#
# Elastic Compliance Matrix: (Units=1/GPa)
#
#
# Indices 1 2 3 4 5 6 
#
# 1 0.010471 0.001018 0.001438 0.000000 0.000000 0.000000
# 2 0.001018 0.020509 0.000707 0.000000 0.000000 0.000000
# 3 0.001438 0.000707 0.008517 0.000000 0.000000 0.000000
# 4 0.000000 0.000000 0.000000 -0.105692 0.000000 0.000000
# 5 0.000000 0.000000 0.000000 0.000000 0.023672 0.000000
# 6 0.000000 0.000000 0.000000 0.000000 0.000000 0.002277
#
#
# Mechanical properties :
#
#
# Convention : Reuss Voigt Hill
#
# Bulk Modulus (GPa) = 21.82344 24.43605 23.12974
# Shear Modulus (GPa) = -159.75730 113.84583 -22.95573
#
# Velocity S-wave (km/s) = -8.55475 7.22163 -3.24282
# Velocity P-wave (km/s) = 9.35848 8.98498 1.85083
#
# Compressibility (1/GPa) = 0.04582230
#
# Stress axis : x y z
#
# Youngs Moduli (GPa) = 95.50446 48.75886 117.41113
#
# Poissons Ratio (x) = -0.04963 -0.16879
# Poissons Ratio (y) = -0.09722 -0.08303
# Poissons Ratio (z) = -0.13730 -0.03448
#
# Static dielectric constant tensor:
#      x y z
#    x 1.762010 0.000000 0.000000 
#    y 0.000000 1.737050 0.000000 
#    z 0.000000 0.000000 1.855220 
# 
# From -- ./inp_files/1536.got.cif
#   From: 2010.05.17/outbox.cif.g08.bks.cpg/sg39_1_cif.got.tgz:1536.got - 2010.06.03 18:22:40.
