data_PCOD9359410
_publ_section_title
;
Structure prediction by ZEFSAII (Michael W. Deem and Ramdas Pophale) SiO2 
 PCOD9359410
Probable space group: A M M 2
;
_chemical_formula_sum "Si O2"
_cell_formula_units_Z 40
_cell_length_a 8.063699
_cell_length_b 19.059481
_cell_length_c 14.093235
_cell_angle_alpha 90.000000
_cell_angle_beta 90.000000
_cell_angle_gamma 90.000000
_cell_volume 2165.988130
_symmetry_space_group_name_H-M "A M M 2"
_symmetry_group_IT_number 38
_symmetry_cell_setting 'orthorhombic'
loop_
_space_group_symop_operation_xyz
x,y,z
-x,-y,z
-x,y,z
x,-y,z
x,1/2+y,1/2+z
-x,1/2-y,1/2+z
-x,1/2+y,1/2+z
x,1/2-y,1/2+z
loop_
_atom_site_type_symbol
_atom_site_label
_atom_site_fract_x
_atom_site_fract_y
_atom_site_fract_z
Si Si1 0.698582 0.000000 0.014251
Si Si2 0.700883 0.288241 0.795060
Si Si3 0.302906 0.789974 0.506608
Si Si4 0.297333 0.856519 0.698381
Si Si5 0.703182 0.000000 0.795612
Si Si6 0.194869 0.147379 0.101471
O O1 0.755450 0.929190 0.065743
O O2 0.500000 0.000000 0.012917
O O3 0.757278 0.000000 0.904953
O O4 0.500000 0.289830 0.795767
O O5 0.763607 0.302673 0.901107
O O6 0.750711 0.209637 0.763434
O O7 0.758304 0.339243 0.711201
O O8 0.500000 0.802108 0.501862
O O9 0.237960 0.838427 0.592144
O O10 0.278551 0.709588 0.540226
O O11 0.500000 0.857443 0.696552
O O12 0.242013 0.929808 0.741805
O O13 0.500000 0.000000 0.795707
O O14 0.000000 0.156643 0.090618
#
# Coordination Sequence:
#
# PCOD9359410 Si02
#       6
#     4   8   8   8   4   8
#     4  11  21  35  54  73  98 136 177 213 256 311
#     4   9  17  32  52  72  97 135 180 217 251 300
#     4   9  17  32  54  77 102 135 174 213 252 303
#     4   8  14  25  44  72 101 126 161 208 251 290
#     4   9  16  27  48  77 104 128 157 203 256 299
#     4  11  22  34  50  76 107 135 168 214 268 318
#
# _framework density 18.467321999999999
#
# number of rings (size 3 to 8) (size 9 to 14) (size 15 to 20)
#    0.000    2.600    0.000    4.500    0.000    4.000 
#    0.000    1.000    0.000    4.800    0.000    0.000 
#    0.000    0.000    0.000    0.000    0.000    0.000 
#
# Total GULP energy -111554.761916 kJ/mol
# GULP energy per Si atom -5577.738096 kJ/mol
# Density = 1.842529 g / cm^3
# Si number density = 18.467322 Si / 1000 Ang^3
#
#
#
# Elastic Constant Matrix: (Units=GPa)
#
#
# Indices 1 2 3 4 5 6 
#
# 1 8.4733 -5.7507 5.2156 0.0000 0.0000 0.0000
# 2 -5.7507 137.9772 91.1806 0.0000 0.0000 0.0000
# 3 5.2156 91.1806 182.4153 0.0000 0.0000 0.0000
# 4 0.0000 0.0000 0.0000 27.9650 0.0000 0.0000
# 5 0.0000 0.0000 0.0000 0.0000 -4.5924 0.0000
# 6 0.0000 0.0000 0.0000 0.0000 0.0000 -1.5359
#
#
#
# Elastic Compliance Matrix: (Units=1/GPa)
#
#
# Indices 1 2 3 4 5 6 
#
# 1 0.132132 0.011951 -0.009752 0.000000 0.000000 0.000000
# 2 0.011951 0.011903 -0.006292 0.000000 0.000000 0.000000
# 3 -0.009752 -0.006292 0.008906 0.000000 0.000000 0.000000
# 4 0.000000 0.000000 0.000000 0.035759 0.000000 0.000000
# 5 0.000000 0.000000 0.000000 0.000000 -0.217753 0.000000
# 6 0.000000 0.000000 0.000000 0.000000 0.000000 -0.651078
#
#
# Mechanical properties :
#
#
# Convention : Reuss Voigt Hill
#
# Bulk Modulus (GPa) = 6.90814 56.68409 31.79611
# Shear Modulus (GPa) = -8.01675 20.24870 6.11597
#
# Velocity S-wave (km/s) = -2.08578 3.31488 1.82180
# Velocity P-wave (km/s) = 1.43240 6.73885 4.65620
#
# Compressibility (1/GPa) = 0.14475686
#
# Stress axis : x y z
#
# Youngs Moduli (GPa) = 7.56820 84.00905 112.28726
#
# Poissons Ratio (x) = -1.00403 1.09501
# Poissons Ratio (y) = -0.09045 0.70648
# Poissons Ratio (z) = 0.07380 0.52856
#
# Static dielectric constant tensor:
#      x y z
#    x 1.635610 0.000000 0.000000 
#    y 0.000000 1.549710 0.000000 
#    z 0.000000 0.000000 1.654530 
# 
# From -- ./inp_files/11703.got.cif
#   From: 2010.05.17/outbox.cif.g08.bks.cpg/sg38_6_cif.got.tgz:11703.got - 2010.06.03 18:07:57.
