data_PCOD9359388
_publ_section_title
;
Structure prediction by ZEFSAII (Michael W. Deem and Ramdas Pophale) SiO2 
 PCOD9359388
Probable space group: A M M 2
;
_chemical_formula_sum "Si O2"
_cell_formula_units_Z 48
_cell_length_a 12.943407
_cell_length_b 10.175172
_cell_length_c 19.952462
_cell_angle_alpha 90.000000
_cell_angle_beta 90.000000
_cell_angle_gamma 90.000000
_cell_volume 2627.767029
_symmetry_space_group_name_H-M "A M M 2"
_symmetry_group_IT_number 38
_symmetry_cell_setting 'orthorhombic'
loop_
_space_group_symop_operation_xyz
x,y,z
-x,-y,z
-x,y,z
x,-y,z
x,1/2+y,1/2+z
-x,1/2-y,1/2+z
-x,1/2+y,1/2+z
x,1/2-y,1/2+z
loop_
_atom_site_type_symbol
_atom_site_label
_atom_site_fract_x
_atom_site_fract_y
_atom_site_fract_z
Si Si1 0.620919 0.655738 0.081250
Si Si2 0.878230 0.500000 0.972240
Si Si3 0.877752 0.000000 0.173647
Si Si4 0.378761 0.341634 0.327304
Si Si5 0.752284 0.258880 0.198103
Si Si6 0.122433 0.000000 0.635074
Si Si7 0.877325 0.000000 0.011390
Si Si8 0.248707 0.248919 0.955188
O O1 0.500000 0.673792 0.073146
O O2 0.637988 0.500000 0.096514
O O3 0.664979 0.744105 0.140772
O O4 0.679365 0.698201 0.014780
O O5 0.861373 0.500000 0.053958
O O6 0.000000 0.500000 0.962120
O O7 0.826884 0.629215 0.941075
O O8 0.819426 0.872168 0.201102
O O9 0.868002 0.000000 0.092269
O O10 0.000000 0.000000 0.189049
O O11 0.500000 0.300213 0.323127
O O12 0.378381 0.500000 0.326751
O O13 0.308455 0.293706 0.265554
O O14 0.321824 0.292306 0.394172
O O15 0.827349 0.373804 0.170485
O O16 0.000000 0.000000 0.645045
O O17 0.820134 0.127362 0.981348
O O18 0.000000 0.000000 0.995687
#
# Coordination Sequence:
#
# PCOD9359388 Si02
#       8
#     8   4   4   8   8   4   4   8
#     4  11  21  37  64  94 123 160 215 266 307 361
#     4  11  22  39  66  97 129 163 207 261 314 363
#     4  11  24  41  64  95 133 165 197 259 328 367
#     4  11  25  44  66  90 125 168 207 257 318 372
#     4  12  21  42  63  95 122 165 208 256 313 366
#     4  11  20  37  68  97 121 161 217 259 300 361
#     4  11  22  39  66  95 129 167 207 257 312 367
#     4  12  21  42  62  96 125 168 209 254 311 369
#
# _framework density 18.266459000000001
#
# number of rings (size 3 to 8) (size 9 to 14) (size 15 to 20)
#    0.000    0.667    6.667    2.000    0.000    4.667 
#    0.000    8.333    0.000    0.000    0.000    0.000 
#    0.000    0.000    0.000    0.000    0.000    0.000 
#
# Total GULP energy -134079.718751 kJ/mol
# GULP energy per Si atom -5586.654948 kJ/mol
# Density = 1.822488 g / cm^3
# Si number density = 18.266459 Si / 1000 Ang^3
#
#
#
# Elastic Constant Matrix: (Units=GPa)
#
#
# Indices 1 2 3 4 5 6 
#
# 1 163.8223 68.8949 41.3951 0.0000 0.0000 0.0000
# 2 68.8949 128.3848 17.6495 0.0000 0.0000 0.0000
# 3 41.3951 17.6495 80.6830 0.0000 0.0000 0.0000
# 4 0.0000 0.0000 0.0000 11.2280 0.0000 0.0000
# 5 0.0000 0.0000 0.0000 0.0000 7.3544 0.0000
# 6 0.0000 0.0000 0.0000 0.0000 0.0000 23.1668
#
#
#
# Elastic Compliance Matrix: (Units=1/GPa)
#
#
# Indices 1 2 3 4 5 6 
#
# 1 0.008785 -0.004222 -0.003584 0.000000 0.000000 0.000000
# 2 -0.004222 0.010059 -0.000035 0.000000 0.000000 0.000000
# 3 -0.003584 -0.000035 0.014240 0.000000 0.000000 0.000000
# 4 0.000000 0.000000 0.000000 0.089063 0.000000 0.000000
# 5 0.000000 0.000000 0.000000 0.000000 0.135973 0.000000
# 6 0.000000 0.000000 0.000000 0.000000 0.000000 0.043165
#
#
# Mechanical properties :
#
#
# Convention : Reuss Voigt Hill
#
# Bulk Modulus (GPa) = 57.45511 69.86324 63.65918
# Shear Modulus (GPa) = 15.49103 24.67988 20.08545
#
# Velocity S-wave (km/s) = 2.91530 3.67972 3.31959
# Velocity P-wave (km/s) = 6.54631 7.50890 7.04407
#
# Compressibility (1/GPa) = 0.01740489
#
# Stress axis : x y z
#
# Youngs Moduli (GPa) = 113.82831 99.41039 70.22261
#
# Poissons Ratio (x) = 0.41968 0.25166
# Poissons Ratio (y) = 0.48055 0.00242
# Poissons Ratio (z) = 0.40794 0.00343
#
# Static dielectric constant tensor:
#      x y z
#    x 1.629210 0.000000 0.000000 
#    y 0.000000 1.614640 0.000000 
#    z 0.000000 0.000000 1.615320 
# 
# From -- ./inp_files/18298.got.cif
#   From: 2010.05.17/outbox.cif.g08.bks.cpg/sg38_10_cif.got.tgz:18298.got - 2010.06.03 18:07:57.
