data_PCOD9359696
_publ_section_title
;
Structure prediction by ZEFSAII (Michael W. Deem and Ramdas Pophale) SiO2 
 PCOD9359696
Probable space group: A B M 2
;
_chemical_formula_sum "Si O2"
_cell_formula_units_Z 56
_cell_length_a 22.086327
_cell_length_b 27.359354
_cell_length_c 5.398641
_cell_angle_alpha 90.000000
_cell_angle_beta 90.000000
_cell_angle_gamma 90.000000
_cell_volume 3262.224051
_symmetry_space_group_name_H-M "A B M 2"
_symmetry_group_IT_number 39
_symmetry_cell_setting 'orthorhombic'
loop_
_space_group_symop_operation_xyz
x,y,z
-x,-y,z
-x,1/2+y,z
x,1/2-y,z
x,1/2+y,1/2+z
-x,1/2-y,1/2+z
-x,y,1/2+z
x,-y,1/2+z
loop_
_atom_site_type_symbol
_atom_site_label
_atom_site_fract_x
_atom_site_fract_y
_atom_site_fract_z
Si Si1 0.021057 0.098602 0.910280
Si Si2 0.663450 0.191440 0.909796
Si Si3 0.569034 0.479659 0.870998
Si Si4 0.539229 0.133655 0.912471
Si Si5 0.873497 0.665890 0.910286
Si Si6 0.263996 0.809222 0.409838
Si Si7 0.063131 0.196391 0.410283
O O1 0.091002 0.114083 0.910288
O O2 0.000002 0.073356 0.660278
O O3 0.983548 0.150979 0.910275
O O4 0.341930 0.250000 0.409753
O O5 0.597227 0.168261 0.910421
O O6 0.699306 0.177855 0.658933
O O7 0.699468 0.177878 0.160326
O O8 0.500000 0.500000 0.853354
O O9 0.597800 0.505236 0.110153
O O10 0.563059 0.422125 0.907675
O O11 0.499411 0.140690 0.663816
O O12 0.801589 0.666018 0.910206
O O13 0.896758 0.691325 0.657775
O O14 0.896745 0.691322 0.162822
O O15 0.254957 0.750000 0.409954
O O16 0.033708 0.250000 0.410258
#
# Coordination Sequence:
#
# PCOD9359696 Si02
#       7
#     8   8   8   8   8   8   8
#     4   8  16  24  31  48  72  89 112 160 218 272
#     4  10  23  37  46  63  88 114 152 194 217 242
#     4  10  16  30  49  77 104 114 128 158 198 265
#     4  12  21  33  55  74  92 120 140 166 223 272
#     4  10  18  26  39  52  64  96 134 165 220 272
#     4  10  19  33  46  55  76 109 149 194 224 247
#     4  10  17  23  32  51  73  88 115 165 221 275
#
# _framework density 17.166201999999998
#
# number of rings (size 3 to 8) (size 9 to 14) (size 15 to 20)
#    0.000    2.000    2.857    3.000    0.000    7.429 
#    0.000    0.000    0.000    0.000    0.000    0.000 
#    0.000    0.000    0.000    0.000    0.000    0.000 
#
# Total GULP energy -156113.035761 kJ/mol
# GULP energy per Si atom -5575.465563 kJ/mol
# Density = 1.712713 g / cm^3
# Si number density = 17.166202 Si / 1000 Ang^3
#
#
#
# Elastic Constant Matrix: (Units=GPa)
#
#
# Indices 1 2 3 4 5 6 
#
# 1 108.6436 20.5207 56.4437 0.0000 0.0000 0.0000
# 2 20.5207 9.8968 11.5326 0.0000 0.0000 0.0000
# 3 56.4437 11.5326 174.3768 0.0000 0.0000 0.0000
# 4 0.0000 0.0000 0.0000 8.6384 0.0000 0.0000
# 5 0.0000 0.0000 0.0000 0.0000 20.6511 0.0000
# 6 0.0000 0.0000 0.0000 0.0000 0.0000 -2.1150
#
#
#
# Elastic Compliance Matrix: (Units=1/GPa)
#
#
# Indices 1 2 3 4 5 6 
#
# 1 0.016801 -0.030880 -0.003396 0.000000 0.000000 0.000000
# 2 -0.030880 0.166235 -0.000999 0.000000 0.000000 0.000000
# 3 -0.003396 -0.000999 0.006900 0.000000 0.000000 0.000000
# 4 0.000000 0.000000 0.000000 0.115763 0.000000 0.000000
# 5 0.000000 0.000000 0.000000 0.000000 0.048424 0.000000
# 6 0.000000 0.000000 0.000000 0.000000 0.000000 -0.472810
#
#
# Mechanical properties :
#
#
# Convention : Reuss Voigt Hill
#
# Bulk Modulus (GPa) = 8.37612 52.21236 30.29424
# Shear Modulus (GPa) = -599.32001 19.06290 -290.12855
#
# Velocity S-wave (km/s) = -18.70524 3.33602 -13.01455
# Velocity P-wave (km/s) = 21.48545 6.73205 14.42747
#
# Compressibility (1/GPa) = 0.11938703
#
# Stress axis : x y z
#
# Youngs Moduli (GPa) = 59.51892 6.01559 144.92640
#
# Poissons Ratio (x) = 0.18576 0.49219
# Poissons Ratio (y) = 1.83792 0.14475
# Poissons Ratio (z) = 0.20213 0.00601
#
# Static dielectric constant tensor:
#      x y z
#    x 1.557280 0.000000 0.000000 
#    y 0.000000 1.567930 0.000000 
#    z 0.000000 0.000000 1.680860 
# 
# From -- ./inp_files/1086.got.cif
#   From: 2010.05.17/outbox.cif.g08.bks.cpg/sg39_1_cif.got.tgz:1086.got - 2010.06.03 18:22:40.
