data_PCOD9359369
_publ_section_title
;
Structure prediction by ZEFSAII (Michael W. Deem and Ramdas Pophale) SiO2 
 PCOD9359369
Probable space group: A M M 2
;
_chemical_formula_sum "Si O2"
_cell_formula_units_Z 26
_cell_length_a 7.634625
_cell_length_b 10.349682
_cell_length_c 15.335461
_cell_angle_alpha 90.000000
_cell_angle_beta 90.000000
_cell_angle_gamma 90.000000
_cell_volume 1211.745881
_symmetry_space_group_name_H-M "A M M 2"
_symmetry_group_IT_number 38
_symmetry_cell_setting 'orthorhombic'
loop_
_space_group_symop_operation_xyz
x,y,z
-x,-y,z
-x,y,z
x,-y,z
x,1/2+y,1/2+z
-x,1/2-y,1/2+z
-x,1/2+y,1/2+z
x,1/2-y,1/2+z
loop_
_atom_site_type_symbol
_atom_site_label
_atom_site_fract_x
_atom_site_fract_y
_atom_site_fract_z
Si Si1 0.000000 0.000000 0.033490
Si Si2 0.710185 0.644562 0.227128
Si Si3 0.299575 0.722230 0.545795
Si Si4 0.205677 0.644215 0.871535
O O1 0.844896 0.111983 0.034802
O O2 0.500000 0.639205 0.234464
O O3 0.778586 0.500000 0.245007
O O4 0.750075 0.691497 0.129625
O O5 0.771200 0.751489 0.295450
O O6 0.500000 0.674172 0.559506
O O7 0.298552 0.807766 0.458578
O O8 0.263081 0.500000 0.844644
O O9 0.000000 0.638816 0.891603
#
# Coordination Sequence:
#
# PCOD9359369 Si02
#       4
#     2   8   8   8
#     4  12  26  44  70 110 136 178 232 296 336 422
#     4  10  24  44  68  99 136 183 234 284 343 409
#     4  11  25  46  72  99 140 186 229 284 348 412
#     4  11  25  43  68 101 140 184 232 286 345 408
#
# _framework density 21.456645000000002
#
# number of rings (size 3 to 8) (size 9 to 14) (size 15 to 20)
#    0.000    1.231    1.538    2.308    6.462    4.308 
#    0.000    0.000    0.000    0.000    0.000    0.000 
#    0.000    0.000    0.000    0.000    0.000    0.000 
#
# Total GULP energy -72422.610823 kJ/mol
# GULP energy per Si atom -5570.970063 kJ/mol
# Density = 2.140781 g / cm^3
# Si number density = 21.456645 Si / 1000 Ang^3
#
#
#
# Elastic Constant Matrix: (Units=GPa)
#
#
# Indices 1 2 3 4 5 6 
#
# 1 94.1039 56.8397 21.3756 0.0000 0.0000 0.0000
# 2 56.8397 213.6766 72.4283 0.0000 0.0000 0.0000
# 3 21.3756 72.4283 129.8281 0.0000 0.0000 0.0000
# 4 0.0000 0.0000 0.0000 -16.5961 0.0000 0.0000
# 5 0.0000 0.0000 0.0000 0.0000 21.7543 0.0000
# 6 0.0000 0.0000 0.0000 0.0000 0.0000 38.8519
#
#
#
# Elastic Compliance Matrix: (Units=1/GPa)
#
#
# Indices 1 2 3 4 5 6 
#
# 1 0.012668 -0.003284 -0.000254 0.000000 0.000000 0.000000
# 2 -0.003284 0.006623 -0.003154 0.000000 0.000000 0.000000
# 3 -0.000254 -0.003154 0.009504 0.000000 0.000000 0.000000
# 4 0.000000 0.000000 0.000000 -0.060255 0.000000 0.000000
# 5 0.000000 0.000000 0.000000 0.000000 0.045968 0.000000
# 6 0.000000 0.000000 0.000000 0.000000 0.000000 0.025739
#
#
# Mechanical properties :
#
#
# Convention : Reuss Voigt Hill
#
# Bulk Modulus (GPa) = 64.88807 82.09954 73.49381
# Shear Modulus (GPa) = 85.08481 27.93304 56.50892
#
# Velocity S-wave (km/s) = 6.30400 3.61201 5.13746
# Velocity P-wave (km/s) = 9.12657 7.46603 8.33774
#
# Compressibility (1/GPa) = 0.01541115
#
# Stress axis : x y z
#
# Youngs Moduli (GPa) = 78.94186 151.00029 105.22130
#
# Poissons Ratio (x) = 0.49583 0.02670
# Poissons Ratio (y) = 0.25922 0.33186
# Poissons Ratio (z) = 0.02003 0.47624
#
# Static dielectric constant tensor:
#      x y z
#    x 1.783610 0.000000 0.000000 
#    y 0.000000 1.811760 0.000000 
#    z 0.000000 0.000000 1.741460 
# 
# From -- ./inp_files/16074.got.cif
#   From: 2010.05.17/outbox.cif.g08.bks.cpg/sg38_9_cif.got.tgz:16074.got - 2010.06.03 18:07:57.
