data_PCOD9359921
_publ_section_title
;
Structure prediction by ZEFSAII (Michael W. Deem and Ramdas Pophale) SiO2 
 PCOD9359921
Probable space group: A B M 2
;
_chemical_formula_sum "Si O2"
_cell_formula_units_Z 64
_cell_length_a 9.365548
_cell_length_b 15.690517
_cell_length_c 22.515224
_cell_angle_alpha 90.000000
_cell_angle_beta 90.000000
_cell_angle_gamma 90.000000
_cell_volume 3308.618699
_symmetry_space_group_name_H-M "A B M 2"
_symmetry_group_IT_number 39
_symmetry_cell_setting 'orthorhombic'
loop_
_space_group_symop_operation_xyz
x,y,z
-x,-y,z
-x,1/2+y,z
x,1/2-y,z
x,1/2+y,1/2+z
-x,1/2-y,1/2+z
-x,y,1/2+z
x,-y,1/2+z
loop_
_atom_site_type_symbol
_atom_site_label
_atom_site_fract_x
_atom_site_fract_y
_atom_site_fract_z
Si Si1 0.312173 0.342292 0.476200
Si Si2 0.438502 0.152553 0.879814
Si Si3 0.667971 0.648511 0.164632
Si Si4 0.413811 0.575322 0.086794
Si Si5 0.846943 0.044993 0.579133
Si Si6 0.817465 0.848982 0.956797
Si Si7 0.089049 0.585831 0.900332
Si Si8 0.312830 0.146274 0.302103
O O1 0.241999 0.250000 0.468868
O O2 0.444929 0.345184 0.432057
O O3 0.374470 0.351744 0.541258
O O4 0.200372 0.413387 0.455604
O O5 0.399683 0.250000 0.862904
O O6 0.298940 0.114534 0.909989
O O7 0.532505 0.115254 0.826544
O O8 0.650366 0.750000 0.160722
O O9 0.522913 0.605842 0.137576
O O10 0.803335 0.618131 0.126054
O O11 0.695324 0.625008 0.233012
O O12 0.500000 0.500000 0.052974
O O13 0.264861 0.528907 0.098948
O O14 0.825412 0.092164 0.515429
O O15 0.000000 0.000000 0.580549
O O16 0.779256 0.750000 0.972206
O O17 0.966458 0.849879 0.921806
O O18 0.185424 0.611379 0.843737
O O19 0.000000 0.500000 0.891459
O O20 0.310831 0.250000 0.308607
#
# Coordination Sequence:
#
# PCOD9359921 Si02
#       8
#     8   8   8   8   8   8   8   8
#     4  10  18  32  54  79 110 148 188 226 277 343
#     4   8  16  30  52  80 105 133 175 229 276 320
#     4  10  21  40  63  83 109 154 209 251 289 342
#     4  10  20  34  56  83 113 146 188 244 295 341
#     4  11  23  38  56  83 123 158 189 237 300 357
#     4  11  20  34  58  87 118 151 192 234 281 347
#     4  11  22  35  53  83 120 155 187 229 289 347
#     4   9  19  39  61  80 108 149 195 240 287 343
#
# _framework density 19.343419999999998
#
# number of rings (size 3 to 8) (size 9 to 14) (size 15 to 20)
#    0.000    2.000    0.000    6.000    0.000    1.500 
#    0.000    8.750    0.000    3.000    0.000    0.000 
#    0.000    0.000    0.000    0.000    0.000    0.000 
#
# Total GULP energy -178203.415829 kJ/mol
# GULP energy per Si atom -5568.856745 kJ/mol
# Density = 1.929939 g / cm^3
# Si number density = 19.343420 Si / 1000 Ang^3
#
#
#
# Elastic Constant Matrix: (Units=GPa)
#
#
# Indices 1 2 3 4 5 6 
#
# 1 126.8109 32.9678 57.4197 0.0000 0.0000 0.0000
# 2 32.9678 66.7754 34.4714 0.0000 0.0000 0.0000
# 3 57.4197 34.4714 130.7640 0.0000 0.0000 0.0000
# 4 0.0000 0.0000 0.0000 19.6501 0.0000 0.0000
# 5 0.0000 0.0000 0.0000 0.0000 23.1096 0.0000
# 6 0.0000 0.0000 0.0000 0.0000 0.0000 31.5387
#
#
#
# Elastic Compliance Matrix: (Units=1/GPa)
#
#
# Indices 1 2 3 4 5 6 
#
# 1 0.010407 -0.003217 -0.003722 0.000000 0.000000 0.000000
# 2 -0.003217 0.018329 -0.003419 0.000000 0.000000 0.000000
# 3 -0.003722 -0.003419 0.010183 0.000000 0.000000 0.000000
# 4 0.000000 0.000000 0.000000 0.050890 0.000000 0.000000
# 5 0.000000 0.000000 0.000000 0.000000 0.043272 0.000000
# 6 0.000000 0.000000 0.000000 0.000000 0.000000 0.031707
#
#
# Mechanical properties :
#
#
# Convention : Reuss Voigt Hill
#
# Bulk Modulus (GPa) = 54.93527 63.78534 59.36030
# Shear Modulus (GPa) = 26.09977 28.15911 27.12944
#
# Velocity S-wave (km/s) = 3.67725 3.81956 3.74908
# Velocity P-wave (km/s) = 6.81844 7.24561 7.03527
#
# Compressibility (1/GPa) = 0.01820324
#
# Stress axis : x y z
#
# Youngs Moduli (GPa) = 96.08586 54.55875 98.20216
#
# Poissons Ratio (x) = 0.17551 0.36550
# Poissons Ratio (y) = 0.30909 0.33578
# Poissons Ratio (z) = 0.35763 0.18655
#
# Static dielectric constant tensor:
#      x y z
#    x 1.705620 0.000000 0.000000 
#    y 0.000000 1.750390 0.000000 
#    z 0.000000 0.000000 1.685130 
# 
# From -- ./inp_files/15696.got.cif
#   From: 2010.05.17/outbox.cif.g08.bks.cpg/sg39_8_cif.got.tgz:15696.got - 2010.06.03 18:22:40.
