data_PCOD9359375
_publ_section_title
;
Structure prediction by ZEFSAII (Michael W. Deem and Ramdas Pophale) SiO2 
 PCOD9359375
Probable space group: A M M 2
;
_chemical_formula_sum "Si O2"
_cell_formula_units_Z 56
_cell_length_a 7.723760
_cell_length_b 30.589682
_cell_length_c 14.101149
_cell_angle_alpha 90.000000
_cell_angle_beta 90.000000
_cell_angle_gamma 90.000000
_cell_volume 3331.641279
_symmetry_space_group_name_H-M "A M M 2"
_symmetry_group_IT_number 38
_symmetry_cell_setting 'orthorhombic'
loop_
_space_group_symop_operation_xyz
x,y,z
-x,-y,z
-x,y,z
x,-y,z
x,1/2+y,1/2+z
-x,1/2-y,1/2+z
-x,1/2+y,1/2+z
x,1/2-y,1/2+z
loop_
_atom_site_type_symbol
_atom_site_label
_atom_site_fract_x
_atom_site_fract_y
_atom_site_fract_z
Si Si1 0.799574 0.905760 0.712190
Si Si2 0.697988 0.406263 0.997437
Si Si3 0.790901 0.818599 0.390581
Si Si4 0.211379 0.274381 0.699509
Si Si5 0.787689 0.000000 0.702745
Si Si6 0.788724 0.771448 0.987533
Si Si7 0.794163 0.500000 0.981194
Si Si8 0.788150 0.184194 0.795929
O O1 0.798785 0.903173 0.597304
O O2 0.725768 0.953231 0.740738
O O3 0.722869 0.861860 0.756475
O O4 0.000000 0.906542 0.742286
O O5 0.500000 0.405964 0.026996
O O6 0.733830 0.452614 0.945948
O O7 0.733274 0.364671 0.932020
O O8 0.733141 0.806853 0.283686
O O9 0.736122 0.777611 0.456406
O O10 0.000000 0.818630 0.390779
O O11 0.270644 0.283180 0.592841
O O12 0.262916 0.225443 0.731115
O O13 0.000000 0.275223 0.699162
O O14 0.739044 0.000000 0.591715
O O15 0.000000 0.000000 0.705968
O O16 0.735742 0.803824 0.903028
O O17 0.000000 0.771376 0.988324
O O18 0.000000 0.500000 0.976793
O O19 0.000000 0.183683 0.793462
#
# Coordination Sequence:
#
# PCOD9359375 Si02
#       8
#     8   8   8   8   4   8   4   8
#     4   9  15  25  40  57  80 110 141 168 201 247
#     4  11  20  28  40  61  87 110 134 166 202 240
#     4   9  16  26  41  59  79 107 140 170 207 253
#     4   8  13  21  35  57  81 102 131 175 217 246
#     4   7  12  21  35  55  76  99 126 156 189 232
#     4   8  13  22  38  61  83 102 137 185 216 236
#     4   9  17  31  47  61  80 107 136 164 199 242
#     4   8  13  20  35  59  80 102 136 177 214 244
#
# _framework density 16.808532
#
# number of rings (size 3 to 8) (size 9 to 14) (size 15 to 20)
#    0.000    3.286    0.000    4.929    0.000    2.286 
#    0.000    0.000    0.000    7.714    0.000    1.000 
#    0.000    5.714    0.000    3.429    0.000    4.000 
#
# Total GULP energy -155870.253410 kJ/mol
# GULP energy per Si atom -5566.794765 kJ/mol
# Density = 1.677027 g / cm^3
# Si number density = 16.808532 Si / 1000 Ang^3
#
#
#
# Elastic Constant Matrix: (Units=GPa)
#
#
# Indices 1 2 3 4 5 6 
#
# 1 27.3977 1.1862 -4.8902 0.0000 0.0000 0.0000
# 2 1.1862 160.9753 54.4497 0.0000 0.0000 0.0000
# 3 -4.8902 54.4497 86.6045 0.0000 0.0000 0.0000
# 4 0.0000 0.0000 0.0000 23.2615 0.0000 0.0000
# 5 0.0000 0.0000 0.0000 0.0000 -6.4243 0.0000
# 6 0.0000 0.0000 0.0000 0.0000 0.0000 -24.2958
#
#
#
# Elastic Compliance Matrix: (Units=1/GPa)
#
#
# Indices 1 2 3 4 5 6 
#
# 1 0.037067 -0.001246 0.002876 0.000000 0.000000 0.000000
# 2 -0.001246 0.007932 -0.005057 0.000000 0.000000 0.000000
# 3 0.002876 -0.005057 0.014889 0.000000 0.000000 0.000000
# 4 0.000000 0.000000 0.000000 0.042989 0.000000 0.000000
# 5 0.000000 0.000000 0.000000 0.000000 -0.155660 0.000000
# 6 0.000000 0.000000 0.000000 0.000000 0.000000 -0.041159
#
#
# Mechanical properties :
#
#
# Convention : Reuss Voigt Hill
#
# Bulk Modulus (GPa) = 18.85593 41.82985 30.34289
# Shear Modulus (GPa) = -72.03495 13.45708 -29.28893
#
# Velocity S-wave (km/s) = -6.55357 2.83258 -4.17886
# Velocity P-wave (km/s) = 6.78404 5.96976 2.27872
#
# Compressibility (1/GPa) = 0.05303371
#
# Stress axis : x y z
#
# Youngs Moduli (GPa) = 26.97828 126.07255 67.16466
#
# Poissons Ratio (x) = 0.15710 -0.19320
# Poissons Ratio (y) = 0.03362 0.33967
# Poissons Ratio (z) = -0.07760 0.63759
#
# Static dielectric constant tensor:
#      x y z
#    x 1.609850 0.000000 0.000000 
#    y 0.000000 1.598070 0.000000 
#    z 0.000000 0.000000 1.551410 
# 
# From -- ./inp_files/13002.got.cif
#   From: 2010.05.17/outbox.cif.g08.bks.cpg/sg38_7_cif.got.tgz:13002.got - 2010.06.03 18:07:57.
