data_PCOD9359132
_publ_section_title
;
Structure prediction by ZEFSAII (Michael W. Deem and Ramdas Pophale) SiO2 
 PCOD9359132
Probable space group: A M M 2
;
_chemical_formula_sum "Si O2"
_cell_formula_units_Z 48
_cell_length_a 7.900982
_cell_length_b 27.396019
_cell_length_c 9.728337
_cell_angle_alpha 90.000000
_cell_angle_beta 90.000000
_cell_angle_gamma 90.000000
_cell_volume 2105.751592
_symmetry_space_group_name_H-M "A M M 2"
_symmetry_group_IT_number 38
_symmetry_cell_setting 'orthorhombic'
loop_
_space_group_symop_operation_xyz
x,y,z
-x,-y,z
-x,y,z
x,-y,z
x,1/2+y,1/2+z
-x,1/2-y,1/2+z
-x,1/2+y,1/2+z
x,1/2-y,1/2+z
loop_
_atom_site_type_symbol
_atom_site_label
_atom_site_fract_x
_atom_site_fract_y
_atom_site_fract_z
Si Si1 0.194608 0.580060 0.517520
Si Si2 0.796261 0.274167 0.837545
Si Si3 0.192787 0.366533 0.000095
Si Si4 0.207351 0.445613 0.210953
Si Si5 0.305296 0.946397 0.306731
Si Si6 0.697821 0.810477 0.036865
O O1 0.254185 0.563003 0.368634
O O2 0.297170 0.558549 0.643600
O O3 0.204402 0.638596 0.527587
O O4 0.000000 0.564274 0.533191
O O5 0.729912 0.317079 0.939734
O O6 0.736331 0.283875 0.682224
O O7 0.000000 0.277020 0.834604
O O8 0.743494 0.223899 0.908535
O O9 0.195518 0.403899 0.872512
O O10 0.000000 0.354557 0.041828
O O11 0.269683 0.399973 0.120244
O O12 0.262370 0.500000 0.167329
O O13 0.000000 0.444916 0.202040
O O14 0.500000 0.940391 0.351194
O O15 0.243820 0.000000 0.346962
O O16 0.500000 0.822153 0.034044
#
# Coordination Sequence:
#
# PCOD9359132 Si02
#       6
#     8   8   8   8   8   8
#     4  11  22  39  64  92 123 166 214 262 316 380
#     4  11  24  43  68  97 127 167 215 265 318 387
#     4  10  21  39  65  93 122 161 208 259 316 376
#     4   9  19  36  60  93 127 159 205 262 312 363
#     4  11  23  38  59  89 126 166 207 258 319 381
#     4  12  26  44  66  96 131 168 208 265 330 388
#
# _framework density 22.794713000000002
#
# number of rings (size 3 to 8) (size 9 to 14) (size 15 to 20)
#    0.000    1.333    1.667    4.000    2.333    3.333 
#    0.000    1.667    0.000    4.000    0.000    0.000 
#    0.000    0.000    0.000    0.000    0.000    0.000 
#
# Total GULP energy -134210.534228 kJ/mol
# GULP energy per Si atom -5592.105593 kJ/mol
# Density = 2.274283 g / cm^3
# Si number density = 22.794713 Si / 1000 Ang^3
#
#
#
# Elastic Constant Matrix: (Units=GPa)
#
#
# Indices 1 2 3 4 5 6 
#
# 1 52.0263 -10.6686 -7.5907 0.0000 0.0000 0.0000
# 2 -10.6686 78.7002 -0.7527 0.0000 0.0000 0.0000
# 3 -7.5907 -0.7527 90.8426 0.0000 0.0000 0.0000
# 4 0.0000 0.0000 0.0000 45.5252 0.0000 0.0000
# 5 0.0000 0.0000 0.0000 0.0000 12.0824 0.0000
# 6 0.0000 0.0000 0.0000 0.0000 0.0000 -5.2280
#
#
#
# Elastic Compliance Matrix: (Units=1/GPa)
#
#
# Indices 1 2 3 4 5 6 
#
# 1 0.020029 0.002731 0.001696 0.000000 0.000000 0.000000
# 2 0.002731 0.013080 0.000337 0.000000 0.000000 0.000000
# 3 0.001696 0.000337 0.011153 0.000000 0.000000 0.000000
# 4 0.000000 0.000000 0.000000 0.021966 0.000000 0.000000
# 5 0.000000 0.000000 0.000000 0.000000 0.082765 0.000000
# 6 0.000000 0.000000 0.000000 0.000000 0.000000 -0.191279
#
#
# Mechanical properties :
#
#
# Convention : Reuss Voigt Hill
#
# Bulk Modulus (GPa) = 18.59103 20.39388 19.49246
# Shear Modulus (GPa) = -147.55798 26.51466 -60.52166
#
# Velocity S-wave (km/s) = -8.05444 3.41426 -5.15833
# Velocity P-wave (km/s) = 8.85014 4.95067 5.18729
#
# Compressibility (1/GPa) = 0.05378937
#
# Stress axis : x y z
#
# Youngs Moduli (GPa) = 49.92852 76.45298 89.66545
#
# Poissons Ratio (x) = -0.20882 -0.15209
# Poissons Ratio (y) = -0.13637 -0.03018
# Poissons Ratio (z) = -0.08469 -0.02573
#
# Static dielectric constant tensor:
#      x y z
#    x 1.865890 0.000000 0.000000 
#    y 0.000000 1.828250 0.000000 
#    z 0.000000 0.000000 1.835840 
# 
# From -- ./inp_files/3780.got.cif
#   From: 2010.05.17/outbox.cif.g08.bks.cpg/sg38_2_cif.got.tgz:3780.got - 2010.06.03 18:07:57.
