data_PCOD9359249
_publ_section_title
;
Structure prediction by ZEFSAII (Michael W. Deem and Ramdas Pophale) SiO2 
 PCOD9359249
Probable space group: A M M 2
;
_chemical_formula_sum "Si O2"
_cell_formula_units_Z 40
_cell_length_a 11.592840
_cell_length_b 20.399462
_cell_length_c 8.689410
_cell_angle_alpha 90.000000
_cell_angle_beta 90.000000
_cell_angle_gamma 90.000000
_cell_volume 2054.938577
_symmetry_space_group_name_H-M "A M M 2"
_symmetry_group_IT_number 38
_symmetry_cell_setting 'orthorhombic'
loop_
_space_group_symop_operation_xyz
x,y,z
-x,-y,z
-x,y,z
x,-y,z
x,1/2+y,1/2+z
-x,1/2-y,1/2+z
-x,1/2+y,1/2+z
x,1/2-y,1/2+z
loop_
_atom_site_type_symbol
_atom_site_label
_atom_site_fract_x
_atom_site_fract_y
_atom_site_fract_z
Si Si1 0.863779 0.688473 0.132330
Si Si2 0.638730 0.425858 0.644188
Si Si3 0.500000 0.744403 0.327586
Si Si4 0.741711 0.192123 0.955828
Si Si5 0.500000 0.652497 0.053028
Si Si6 0.720518 0.924468 0.499466
O O1 0.822265 0.680293 0.308185
O O2 0.000000 0.698447 0.124062
O O3 0.797807 0.751104 0.060404
O O4 0.824875 0.624180 0.036962
O O5 0.500000 0.415577 0.631969
O O6 0.660153 0.500000 0.587337
O O7 0.710990 0.372366 0.551722
O O8 0.681950 0.423869 0.821014
O O9 0.618851 0.716936 0.393498
O O10 0.500000 0.718612 0.153583
O O11 0.500000 0.820004 0.378491
O O12 0.388544 0.608883 0.084799
O O13 0.739395 0.000000 0.544236
#
# Coordination Sequence:
#
# PCOD9359249 Si02
#       6
#     8   8   4   8   4   8
#     4  12  27  45  66  91 126 176 227 272 317 383
#     4  10  22  39  65 100 135 168 203 256 334 406
#     4  12  22  36  63 101 127 162 201 270 330 384
#     4  12  23  42  66  96 131 165 214 272 331 385
#     4  12  23  38  61 103 134 164 209 262 337 392
#     4  11  23  41  66  95 133 174 214 267 326 389
#
# _framework density 19.465302000000001
#
# number of rings (size 3 to 8) (size 9 to 14) (size 15 to 20)
#    0.000    0.600    6.000    2.100    2.800    1.200 
#    0.000    1.000    0.000    4.200    0.000    0.000 
#    0.000    0.000    0.000    0.000    0.000    0.000 
#
# Total GULP energy -111769.602927 kJ/mol
# GULP energy per Si atom -5588.480146 kJ/mol
# Density = 1.942100 g / cm^3
# Si number density = 19.465302 Si / 1000 Ang^3
#
#
#
# Elastic Constant Matrix: (Units=GPa)
#
#
# Indices 1 2 3 4 5 6 
#
# 1 119.1913 51.7707 36.3885 0.0000 0.0000 0.0000
# 2 51.7707 174.3675 61.3352 0.0000 0.0000 0.0000
# 3 36.3885 61.3352 73.5827 0.0000 0.0000 0.0000
# 4 0.0000 0.0000 0.0000 32.7653 0.0000 0.0000
# 5 0.0000 0.0000 0.0000 0.0000 24.7526 0.0000
# 6 0.0000 0.0000 0.0000 0.0000 0.0000 13.3954
#
#
#
# Elastic Compliance Matrix: (Units=1/GPa)
#
#
# Indices 1 2 3 4 5 6 
#
# 1 0.010260 -0.001785 -0.003586 0.000000 0.000000 0.000000
# 2 -0.001785 0.008425 -0.006140 0.000000 0.000000 0.000000
# 3 -0.003586 -0.006140 0.020481 0.000000 0.000000 0.000000
# 4 0.000000 0.000000 0.000000 0.030520 0.000000 0.000000
# 5 0.000000 0.000000 0.000000 0.000000 0.040400 0.000000
# 6 0.000000 0.000000 0.000000 0.000000 0.000000 0.074652
#
#
# Mechanical properties :
#
#
# Convention : Reuss Voigt Hill
#
# Bulk Modulus (GPa) = 61.93989 74.01446 67.97717
# Shear Modulus (GPa) = 23.45864 28.69247 26.07556
#
# Velocity S-wave (km/s) = 3.47530 3.84348 3.66401
# Velocity P-wave (km/s) = 6.92772 7.60281 7.27310
#
# Compressibility (1/GPa) = 0.01614468
#
# Stress axis : x y z
#
# Youngs Moduli (GPa) = 97.46683 118.69931 48.82480
#
# Poissons Ratio (x) = 0.21185 0.17509
# Poissons Ratio (y) = 0.17396 0.29977
# Poissons Ratio (z) = 0.34952 0.72879
#
# Static dielectric constant tensor:
#      x y z
#    x 1.654730 0.000000 0.000000 
#    y 0.000000 1.683270 0.000000 
#    z 0.000000 0.000000 1.731130 
# 
# From -- ./inp_files/4492.got.cif
#   From: 2010.05.17/outbox.cif.g08.bks.cpg/sg38_3_cif.got.tgz:4492.got - 2010.06.03 18:07:57.
