data_PCOD9359613
_publ_section_title
;
Structure prediction by ZEFSAII (Michael W. Deem and Ramdas Pophale) SiO2 
 PCOD9359613
Probable space group: A M M 2
;
_chemical_formula_sum "Si O2"
_cell_formula_units_Z 32
_cell_length_a 18.000000
_cell_length_b 9.000000
_cell_length_c 21.000000
_cell_angle_alpha 90.000000
_cell_angle_beta 90.000000
_cell_angle_gamma 90.000000
_cell_volume 3402.000000
_symmetry_space_group_name_H-M "A M M 2"
_symmetry_group_IT_number 38
_symmetry_cell_setting 'orthorhombic'
loop_
_space_group_symop_operation_xyz
x,y,z
-x,-y,z
-x,y,z
x,-y,z
x,1/2+y,1/2+z
-x,1/2-y,1/2+z
-x,1/2+y,1/2+z
x,1/2-y,1/2+z
loop_
_atom_site_type_symbol
_atom_site_label
_atom_site_fract_x
_atom_site_fract_y
_atom_site_fract_z
Si Si1 0.586851 0.831419 0.796190
Si Si2 0.910767 0.830458 0.624124
Si Si3 0.663883 0.675337 0.680373
Si Si4 0.412616 0.821930 0.558218
Si Si5 0.174182 0.323019 0.734146
Si Si6 0.911422 0.323762 0.493385
Si Si7 0.650593 0.322596 0.430591
Si Si8 0.813298 0.178653 0.873933
O O1 0.500000 0.837399 0.783287
O O2 0.623167 0.724907 0.744964
O O3 0.600054 0.786919 0.869218
O O4 0.618200 0.000000 0.789198
O O5 0.887648 0.743887 0.687588
O O6 0.884300 0.756058 0.557878
O O7 0.000000 0.831109 0.620624
O O8 0.883986 0.000000 0.627896
O O9 0.655544 0.500000 0.669648
O O10 0.629693 0.759880 0.620153
O O11 0.749673 0.708234 0.695616
O O12 0.500000 0.778067 0.560168
O O13 0.375117 0.760067 0.493913
O O14 0.409145 0.000000 0.558616
O O15 0.166254 0.500000 0.740483
O O16 0.177374 0.252824 0.804795
O O17 0.896906 0.500000 0.500713
O O18 0.872819 0.275151 0.427730
O O19 0.000000 0.302478 0.488197
O O20 0.646218 0.500000 0.442504
O O21 0.733418 0.288110 0.405668
O O22 0.818270 0.000000 0.865291
#
# Coordination Sequence:
#
# PCOD9359613 Si02
#       8
#     8   8   8   8   8   8   8   8
#     4  10  20  36  60  86 113 150 194 239 292 350
#     4  10  22  40  63  91 121 156 199 243 289 345
#     4  11  24  40  59  85 117 154 197 243 293 352
#     4  11  25  42  60  85 117 153 196 247 302 358
#     4  11  24  40  60  88 122 158 198 243 294 350
#     4   9  19  37  61  90 124 158 193 237 288 343
#     4  10  21  38  60  86 118 155 197 244 292 350
#     4  10  21  38  61  88 120 159 200 240 289 348
#
# _framework density 9.4062319999999993
#
# number of rings (size 3 to 8) (size 9 to 14) (size 15 to 20)
#    0.000    1.750    1.250    2.250    1.750    7.500 
#    0.000    1.250    0.000    0.000    0.000    0.000 
#    0.000    0.000    0.000    0.000    0.000    0.000 
#
# Total GULP energy -178681.815347 kJ/mol
# GULP energy per Si atom -5583.806730 kJ/mol
# Density = 0.938482 g / cm^3
# Si number density = 9.406232 Si / 1000 Ang^3
#
#
#
# Elastic Constant Matrix: (Units=GPa)
#
#
# Indices 1 2 3 4 5 6 
#
# 1 35.3548 38.0424 38.3590 0.0000 0.0000 0.0000
# 2 38.0424 45.6676 58.8323 0.0000 0.0000 0.0000
# 3 38.3590 58.8323 149.6882 0.0000 0.0000 0.0000
# 4 0.0000 0.0000 0.0000 45.5361 0.0000 0.0000
# 5 0.0000 0.0000 0.0000 0.0000 35.9000 0.0000
# 6 0.0000 0.0000 0.0000 0.0000 0.0000 22.4373
#
#
#
# Elastic Compliance Matrix: (Units=1/GPa)
#
#
# Indices 1 2 3 4 5 6 
#
# 1 0.469612 -0.478393 0.067682 0.000000 0.000000 0.000000
# 2 -0.478393 0.531694 -0.086381 0.000000 0.000000 0.000000
# 3 0.067682 -0.086381 0.023287 0.000000 0.000000 0.000000
# 4 0.000000 0.000000 0.000000 0.021961 0.000000 0.000000
# 5 0.000000 0.000000 0.000000 0.000000 0.027855 0.000000
# 6 0.000000 0.000000 0.000000 0.000000 0.000000 0.044569
#
#
# Mechanical properties :
#
#
# Convention : Reuss Voigt Hill
#
# Bulk Modulus (GPa) = 32.88444 55.68645 44.28544
# Shear Modulus (GPa) = 2.35483 27.13980 14.74731
#
# Velocity S-wave (km/s) = 1.12002 3.80234 2.80288
# Velocity P-wave (km/s) = 4.38072 6.99587 5.83665
#
# Compressibility (1/GPa) = 0.03040952
#
# Stress axis : x y z
#
# Youngs Moduli (GPa) = 2.12942 1.88078 42.94249
#
# Poissons Ratio (x) = 0.89975 -2.90641
# Poissons Ratio (y) = 1.01870 3.70940
# Poissons Ratio (z) = -0.14412 0.16246
#
# Static dielectric constant tensor:
#      x y z
#    x 1.655020 0.000000 0.000000 
#    y 0.000000 1.649470 0.000000 
#    z 0.000000 0.000000 1.608560 
# 
# From -- ./inp_files/21447.got.cif
#   From: 2010.05.17/outbox.ucp.g08.bks.cvg/sg38_11_cif.got.tgz:21447.got - 2010.06.11 10:39:43.
