data_PCOD9359607
_publ_section_title
;
Structure prediction by ZEFSAII (Michael W. Deem and Ramdas Pophale) SiO2 
 PCOD9359607
Probable space group: A M M 2
;
_chemical_formula_sum "Si O2"
_cell_formula_units_Z 32
_cell_length_a 9.000000
_cell_length_b 24.000000
_cell_length_c 15.000000
_cell_angle_alpha 90.000000
_cell_angle_beta 90.000000
_cell_angle_gamma 90.000000
_cell_volume 3240.000000
_symmetry_space_group_name_H-M "A M M 2"
_symmetry_group_IT_number 38
_symmetry_cell_setting 'orthorhombic'
loop_
_space_group_symop_operation_xyz
x,y,z
-x,-y,z
-x,y,z
x,-y,z
x,1/2+y,1/2+z
-x,1/2-y,1/2+z
-x,1/2+y,1/2+z
x,1/2-y,1/2+z
loop_
_atom_site_type_symbol
_atom_site_label
_atom_site_fract_x
_atom_site_fract_y
_atom_site_fract_z
Si Si1 0.822247 0.767445 0.913000
Si Si2 0.171000 0.358164 0.882870
Si Si3 0.322781 0.228004 0.724358
Si Si4 0.821889 0.368239 0.528147
Si Si5 0.334535 0.436256 0.002552
Si Si6 0.821805 0.062186 0.858515
Si Si7 0.323916 0.147434 0.201784
Si Si8 0.327695 0.888619 0.689861
O O1 0.788965 0.702374 0.922011
O O2 0.743577 0.784785 0.821466
O O3 0.000000 0.774434 0.901905
O O4 0.776605 0.806600 0.994127
O O5 0.271459 0.371653 0.798069
O O6 0.000000 0.356077 0.855029
O O7 0.204734 0.403472 0.955838
O O8 0.500000 0.233538 0.732289
O O9 0.266565 0.288350 0.695912
O O10 0.290258 0.175016 0.663039
O O11 0.772985 0.407709 0.448091
O O12 0.749272 0.384154 0.620510
O O13 0.000000 0.369738 0.536637
O O14 0.500000 0.412499 0.981839
O O15 0.333595 0.500000 0.975899
O O16 0.314684 0.429607 0.107705
O O17 0.772247 0.093639 0.770973
O O18 0.000000 0.061075 0.861114
O O19 0.762534 0.000000 0.854490
O O20 0.500000 0.146034 0.194489
O O21 0.500000 0.888592 0.718937
#
# Coordination Sequence:
#
# PCOD9359607 Si02
#       8
#     8   8   8   8   8   8   8   8
#     4   9  18  33  53  79 110 145 182 223 276 330
#     4  10  21  38  59  83 110 145 189 236 286 337
#     4   9  18  32  51  80 113 144 181 221 268 326
#     4  10  20  35  54  80 114 149 186 231 280 331
#     4  10  22  39  58  81 112 150 190 234 283 333
#     4  10  21  37  57  81 112 150 189 229 274 326
#     4  10  21  36  56  83 114 148 186 232 281 335
#     4  10  20  35  56  83 114 149 184 223 275 332
#
# _framework density 9.8765429999999999
#
# number of rings (size 3 to 8) (size 9 to 14) (size 15 to 20)
#    0.000    2.250    1.250    1.125    1.750    3.500 
#    0.000    0.625    0.000    2.250    0.000    0.000 
#    0.000    0.000    0.000    0.000    0.000    0.000 
#
# Total GULP energy -178298.203444 kJ/mol
# GULP energy per Si atom -5571.818858 kJ/mol
# Density = 0.985406 g / cm^3
# Si number density = 9.876543 Si / 1000 Ang^3
#
#
#
# Elastic Constant Matrix: (Units=GPa)
#
#
# Indices 1 2 3 4 5 6 
#
# 1 -4.4518 22.1374 3.6214 0.0000 0.0000 0.0000
# 2 22.1374 22.8851 32.0178 0.0000 0.0000 0.0000
# 3 3.6214 32.0178 8.9561 0.0000 0.0000 0.0000
# 4 0.0000 0.0000 0.0000 6.7694 0.0000 0.0000
# 5 0.0000 0.0000 0.0000 0.0000 29.8425 0.0000
# 6 0.0000 0.0000 0.0000 0.0000 0.0000 13.2805
#
#
#
# Elastic Compliance Matrix: (Units=1/GPa)
#
#
# Indices 1 2 3 4 5 6 
#
# 1 -0.200259 -0.020099 0.152827 0.000000 0.000000 0.000000
# 2 -0.020099 -0.012937 0.054376 0.000000 0.000000 0.000000
# 3 0.152827 0.054376 -0.144532 0.000000 0.000000 0.000000
# 4 0.000000 0.000000 0.000000 0.147723 0.000000 0.000000
# 5 0.000000 0.000000 0.000000 0.000000 0.033509 0.000000
# 6 0.000000 0.000000 0.000000 0.000000 0.000000 0.075299
#
#
# Mechanical properties :
#
#
# Convention : Reuss Voigt Hill
#
# Bulk Modulus (GPa) = 60.67865 15.88250 38.28058
# Shear Modulus (GPa) = -10.64030 7.95267 -1.34382
#
# Velocity S-wave (km/s) = -2.32343 2.00868 -0.82570
# Velocity P-wave (km/s) = 4.85669 3.66574 4.30262
#
# Compressibility (1/GPa) = 0.01648026
#
# Stress axis : x y z
#
# Youngs Moduli (GPa) = -4.99354 -77.29747 -6.91888
#
# Poissons Ratio (x) = -1.55361 1.05739
# Poissons Ratio (y) = -0.10037 0.37622
# Poissons Ratio (z) = 0.76315 4.20315
#
# Static dielectric constant tensor:
#      x y z
#    x 1.684980 0.000000 0.000000 
#    y 0.000000 1.775430 0.000000 
#    z 0.000000 0.000000 1.736110 
# 
# From -- ./inp_files/12773.got.cif
#   From: 2010.05.17/outbox.ucp.g08.bks.cvg/sg38_7_cif.got.tgz:12773.got - 2010.06.11 10:39:43.
