data_PCOD9359738
_publ_section_title
;
Structure prediction by ZEFSAII (Michael W. Deem and Ramdas Pophale) SiO2 
 PCOD9359738
Probable space group: A B M 2
;
_chemical_formula_sum "Si O2"
_cell_formula_units_Z 64
_cell_length_a 15.617350
_cell_length_b 8.731086
_cell_length_c 31.486123
_cell_angle_alpha 90.000000
_cell_angle_beta 90.000000
_cell_angle_gamma 90.000000
_cell_volume 4293.335199
_symmetry_space_group_name_H-M "A B M 2"
_symmetry_group_IT_number 39
_symmetry_cell_setting 'orthorhombic'
loop_
_space_group_symop_operation_xyz
x,y,z
-x,-y,z
-x,1/2+y,z
x,1/2-y,z
x,1/2+y,1/2+z
-x,1/2-y,1/2+z
-x,y,1/2+z
x,-y,1/2+z
loop_
_atom_site_type_symbol
_atom_site_label
_atom_site_fract_x
_atom_site_fract_y
_atom_site_fract_z
Si Si1 0.903848 0.066373 0.345060
Si Si2 0.097045 0.433297 0.256880
Si Si3 0.096306 0.933595 0.075715
Si Si4 0.410695 0.573194 0.012413
Si Si5 0.770686 0.432472 0.508638
Si Si6 0.096160 0.067116 0.670911
Si Si7 0.587660 0.574784 0.409134
Si Si8 0.224189 0.064239 0.414012
O O1 0.907200 0.250000 0.343834
O O2 0.866558 0.001587 0.300523
O O3 0.847390 0.005631 0.383820
O O4 0.000000 0.000000 0.349287
O O5 0.905442 0.750000 0.258445
O O6 0.137375 0.490599 0.212542
O O7 0.000000 0.500000 0.256235
O O8 0.092557 0.750000 0.070453
O O9 0.130673 0.964654 0.123681
O O10 0.000000 0.000000 0.072084
O O11 0.158385 0.007381 0.041222
O O12 0.500000 0.500000 0.027363
O O13 0.404002 0.750000 0.025549
O O14 0.324295 0.483403 0.023633
O O15 0.413994 0.571186 0.960745
O O16 0.774228 0.250000 0.504619
O O17 0.785623 0.508363 0.462444
O O18 0.092420 0.250000 0.677065
O O19 0.000000 0.000000 0.668936
O O20 0.500000 0.500000 0.393874
O O21 0.586374 0.750000 0.395469
O O22 0.681274 0.510486 0.398362
O O23 0.222169 0.250000 0.413378
#
# Coordination Sequence:
#
# PCOD9359738 Si02
#       8
#     8   8   8   8   8   8   8   8
#     4  11  21  33  47  64  87 117 152 187 222 262
#     4  10  17  27  44  64  86 111 140 177 221 265
#     4  10  20  33  47  64  88 119 153 189 225 262
#     4   9  16  28  45  65  87 112 143 182 226 268
#     4  11  21  32  46  65  89 120 155 188 223 264
#     4   9  16  27  44  64  85 109 140 179 223 266
#     4   8  15  26  43  63  84 108 136 174 217 260
#     4  10  20  34  47  63  88 118 152 188 223 259
#
# _framework density 14.906827
#
# number of rings (size 3 to 8) (size 9 to 14) (size 15 to 20)
#    0.000    2.250    0.000    7.125    0.000    5.500 
#    0.000    2.500    0.000    0.000    0.000    0.000 
#    0.000    1.000    0.000    7.000    0.000    5.625 
#
# Total GULP energy -178241.114070 kJ/mol
# GULP energy per Si atom -5570.034815 kJ/mol
# Density = 1.487290 g / cm^3
# Si number density = 14.906827 Si / 1000 Ang^3
#
#
#
# Elastic Constant Matrix: (Units=GPa)
#
#
# Indices 1 2 3 4 5 6 
#
# 1 82.6398 42.1723 52.4935 0.0000 0.0000 0.0000
# 2 42.1723 114.9100 47.9671 0.0000 0.0000 0.0000
# 3 52.4935 47.9671 89.7659 0.0000 0.0000 0.0000
# 4 0.0000 0.0000 0.0000 17.6010 0.0000 0.0000
# 5 0.0000 0.0000 0.0000 0.0000 -1.2316 0.0000
# 6 0.0000 0.0000 0.0000 0.0000 0.0000 22.3168
#
#
#
# Elastic Compliance Matrix: (Units=1/GPa)
#
#
# Indices 1 2 3 4 5 6 
#
# 1 0.020117 -0.003182 -0.010064 0.000000 0.000000 0.000000
# 2 -0.003182 0.011704 -0.004393 0.000000 0.000000 0.000000
# 3 -0.010064 -0.004393 0.019373 0.000000 0.000000 0.000000
# 4 0.000000 0.000000 0.000000 0.056815 0.000000 0.000000
# 5 0.000000 0.000000 0.000000 0.000000 -0.811961 0.000000
# 6 0.000000 0.000000 0.000000 0.000000 0.000000 0.044809
#
#
# Mechanical properties :
#
#
# Convention : Reuss Voigt Hill
#
# Bulk Modulus (GPa) = 62.83115 63.62018 63.22566
# Shear Modulus (GPa) = -8.08330 17.38276 4.64973
#
# Velocity S-wave (km/s) = -2.33116 3.41852 1.76804
# Velocity P-wave (km/s) = 5.91566 7.63891 6.83183
#
# Compressibility (1/GPa) = 0.01591567
#
# Stress axis : x y z
#
# Youngs Moduli (GPa) = 49.70872 85.43903 51.61859
#
# Poissons Ratio (x) = 0.27188 0.51948
# Poissons Ratio (y) = 0.15818 0.22678
# Poissons Ratio (z) = 0.50026 0.37537
#
# Static dielectric constant tensor:
#      x y z
#    x 1.488080 0.000000 0.000000 
#    y 0.000000 1.501570 0.000000 
#    z 0.000000 0.000000 1.514050 
# 
# From -- ./inp_files/17951.got.cif
#   From: 2010.05.17/outbox.cif.g08.bks.cpg/sg39_9_cif.got.tgz:17951.got - 2010.06.03 18:22:40.
