data_PCOD9359016
_publ_section_title
;
Structure prediction by ZEFSAII (Michael W. Deem and Ramdas Pophale) SiO2 
 PCOD9359016
Probable space group: A M M 2
;
_chemical_formula_sum "Si O2"
_cell_formula_units_Z 64
_cell_length_a 22.253310
_cell_length_b 15.950028
_cell_length_c 9.623060
_cell_angle_alpha 90.000000
_cell_angle_beta 90.000000
_cell_angle_gamma 90.000000
_cell_volume 3415.617746
_symmetry_space_group_name_H-M "A M M 2"
_symmetry_group_IT_number 38
_symmetry_cell_setting 'orthorhombic'
loop_
_space_group_symop_operation_xyz
x,y,z
-x,-y,z
-x,y,z
x,-y,z
x,1/2+y,1/2+z
-x,1/2-y,1/2+z
-x,1/2+y,1/2+z
x,1/2-y,1/2+z
loop_
_atom_site_type_symbol
_atom_site_label
_atom_site_fract_x
_atom_site_fract_y
_atom_site_fract_z
Si Si1 0.570711 0.404193 0.017000
Si Si2 0.933045 0.338280 0.921947
Si Si3 0.066550 0.834015 0.752150
Si Si4 0.730540 0.244729 0.882002
Si Si5 0.806780 0.906746 0.761819
Si Si6 0.195660 0.092977 0.426639
Si Si7 0.429226 0.594048 0.681839
Si Si8 0.351966 0.248522 0.631589
O O1 0.500000 0.390639 0.049262
O O2 0.586413 0.500000 0.057821
O O3 0.611952 0.334265 0.086746
O O4 0.576739 0.399629 0.849567
O O5 0.927363 0.253090 0.834301
O O6 0.874978 0.394827 0.893441
O O7 0.000000 0.374141 0.894774
O O8 0.930507 0.317850 0.086483
O O9 0.122371 0.892705 0.787621
O O10 0.000000 0.868939 0.782177
O O11 0.771031 0.166438 0.838214
O O12 0.766797 0.331202 0.861903
O O13 0.670941 0.243091 0.788593
O O14 0.707644 0.242271 0.039134
O O15 0.798061 0.900591 0.594634
O O16 0.788204 0.000000 0.804958
O O17 0.215922 0.000000 0.384742
O O18 0.500000 0.601816 0.650323
O O19 0.409576 0.500000 0.641421
O O20 0.392626 0.669272 0.614904
#
# Coordination Sequence:
#
# PCOD9359016 Si02
#       8
#     8   8   8   8   8   8   8   8
#     4   9  19  38  64  91 117 149 189 229 278 342
#     4   9  17  31  56  84 109 140 182 236 294 345
#     4   9  17  31  56  83 108 141 183 236 293 346
#     4  12  24  38  57  83 116 155 198 234 274 334
#     4  10  21  38  58  81 114 150 191 243 291 337
#     4  10  21  38  59  81 112 152 194 239 287 341
#     4   9  19  38  63  90 119 149 185 231 284 339
#     4  12  23  38  61  87 118 152 192 236 275 332
#
# _framework density 18.737459999999999
#
# number of rings (size 3 to 8) (size 9 to 14) (size 15 to 20)
#    0.000    2.000    3.750    1.125    0.000    2.500 
#    0.000    2.500    0.000    1.500    0.000    3.500 
#    0.000    0.000    0.000    0.000    0.000    0.000 
#
# Total GULP energy -178514.372918 kJ/mol
# GULP energy per Si atom -5578.574154 kJ/mol
# Density = 1.869481 g / cm^3
# Si number density = 18.737460 Si / 1000 Ang^3
#
#
#
# Elastic Constant Matrix: (Units=GPa)
#
#
# Indices 1 2 3 4 5 6 
#
# 1 69.4127 70.0782 6.2584 0.0000 0.0000 0.0000
# 2 70.0782 158.0845 15.6006 0.0000 0.0000 0.0000
# 3 6.2584 15.6006 8.9520 0.0000 0.0000 0.0000
# 4 0.0000 0.0000 0.0000 25.7829 0.0000 0.0000
# 5 0.0000 0.0000 0.0000 0.0000 25.8138 0.0000
# 6 0.0000 0.0000 0.0000 0.0000 0.0000 -10.1703
#
#
#
# Elastic Compliance Matrix: (Units=1/GPa)
#
#
# Indices 1 2 3 4 5 6 
#
# 1 0.026117 -0.011806 0.002316 0.000000 0.000000 0.000000
# 2 -0.011806 0.012977 -0.014360 0.000000 0.000000 0.000000
# 3 0.002316 -0.014360 0.135114 0.000000 0.000000 0.000000
# 4 0.000000 0.000000 0.000000 0.038785 0.000000 0.000000
# 5 0.000000 0.000000 0.000000 0.000000 0.038739 0.000000
# 6 0.000000 0.000000 0.000000 0.000000 0.000000 -0.098325
#
#
# Mechanical properties :
#
#
# Convention : Reuss Voigt Hill
#
# Bulk Modulus (GPa) = 7.90474 46.70261 27.30367
# Shear Modulus (GPa) = 20.55271 17.91939 19.23605
#
# Velocity S-wave (km/s) = 3.31551 3.09583 3.20755
# Velocity P-wave (km/s) = 4.34565 6.14473 5.32176
#
# Compressibility (1/GPa) = 0.12650643
#
# Stress axis : x y z
#
# Youngs Moduli (GPa) = 38.28901 77.06226 7.40116
#
# Poissons Ratio (x) = 0.90981 -0.01714
# Poissons Ratio (y) = 0.45205 0.10628
# Poissons Ratio (z) = -0.08868 1.10664
#
# Static dielectric constant tensor:
#      x y z
#    x 1.666600 0.000000 0.000000 
#    y 0.000000 1.632950 0.000000 
#    z 0.000000 0.000000 1.617890 
# 
# From -- ./inp_files/6979.got.cif
#   From: 2010.05.17/outbox.cif.g08.bks.cpg/sg38_4_cif.got.tgz:6979.got - 2010.06.03 18:07:57.
