data_PCOD9359740
_publ_section_title
;
Structure prediction by ZEFSAII (Michael W. Deem and Ramdas Pophale) SiO2 
 PCOD9359740
Probable space group: A B M 2
;
_chemical_formula_sum "Si O2"
_cell_formula_units_Z 56
_cell_length_a 15.687893
_cell_length_b 8.767815
_cell_length_c 25.838328
_cell_angle_alpha 90.000000
_cell_angle_beta 90.000000
_cell_angle_gamma 90.000000
_cell_volume 3554.024385
_symmetry_space_group_name_H-M "A B M 2"
_symmetry_group_IT_number 39
_symmetry_cell_setting 'orthorhombic'
loop_
_space_group_symop_operation_xyz
x,y,z
-x,-y,z
-x,1/2+y,z
x,1/2-y,z
x,1/2+y,1/2+z
-x,1/2-y,1/2+z
-x,y,1/2+z
x,-y,1/2+z
loop_
_atom_site_type_symbol
_atom_site_label
_atom_site_fract_x
_atom_site_fract_y
_atom_site_fract_z
Si Si1 0.595459 0.432944 0.347460
Si Si2 0.085005 0.067353 0.542487
Si Si3 0.087156 0.931935 0.426212
Si Si4 0.724530 0.932137 0.545893
Si Si5 0.404973 0.569063 0.626223
Si Si6 0.404651 0.567801 0.231947
Si Si7 0.265691 0.932692 0.923780
O O1 0.500000 0.500000 0.351761
O O2 0.591392 0.250000 0.352970
O O3 0.630053 0.466742 0.289239
O O4 0.656989 0.504984 0.389881
O O5 0.076876 0.250000 0.536719
O O6 0.178683 0.035616 0.565068
O O7 0.087759 0.991616 0.485592
O O8 0.000000 0.000000 0.568587
O O9 0.084498 0.750000 0.425056
O O10 0.176585 0.994189 0.404977
O O11 0.000000 0.000000 0.402721
O O12 0.710597 0.750000 0.550404
O O13 0.721037 0.970764 0.484712
O O14 0.654895 0.018842 0.579249
O O15 0.500000 0.500000 0.619885
O O16 0.412285 0.750000 0.629465
O O17 0.366420 0.504762 0.680198
O O18 0.500000 0.500000 0.233243
O O19 0.407943 0.750000 0.225914
O O20 0.259478 0.750000 0.920452
#
# Coordination Sequence:
#
# PCOD9359740 Si02
#       7
#     8   8   8   8   8   8   8
#     4  10  20  33  50  71  94 124 157 192 233 276
#     4   9  16  27  44  65  90 120 153 190 230 271
#     4  10  17  27  44  65  91 121 155 193 231 274
#     4   9  19  33  46  65  95 127 157 188 227 274
#     4  11  21  32  49  69  91 121 156 194 234 274
#     4   9  17  31  50  69  90 115 150 194 235 273
#     4  10  20  33  48  68  96 128 159 193 232 278
#
# _framework density 15.756786
#
# number of rings (size 3 to 8) (size 9 to 14) (size 15 to 20)
#    0.000    2.286    0.000    6.857    0.000    5.714 
#    0.000    0.000    0.000    0.000    0.000    1.000 
#    0.000    4.571    0.000    0.000    0.000    0.000 
#
# Total GULP energy -155974.576287 kJ/mol
# GULP energy per Si atom -5570.520582 kJ/mol
# Density = 1.572092 g / cm^3
# Si number density = 15.756786 Si / 1000 Ang^3
#
#
#
# Elastic Constant Matrix: (Units=GPa)
#
#
# Indices 1 2 3 4 5 6 
#
# 1 110.2882 56.7444 53.9187 0.0000 0.0000 0.0000
# 2 56.7444 98.0802 46.0280 0.0000 0.0000 0.0000
# 3 53.9187 46.0280 73.1405 0.0000 0.0000 0.0000
# 4 0.0000 0.0000 0.0000 18.8845 0.0000 0.0000
# 5 0.0000 0.0000 0.0000 0.0000 -1.7178 0.0000
# 6 0.0000 0.0000 0.0000 0.0000 0.0000 29.0232
#
#
#
# Elastic Compliance Matrix: (Units=1/GPa)
#
#
# Indices 1 2 3 4 5 6 
#
# 1 0.015871 -0.005238 -0.008403 0.000000 0.000000 0.000000
# 2 -0.005238 0.016198 -0.006332 0.000000 0.000000 0.000000
# 3 -0.008403 -0.006332 0.023852 0.000000 0.000000 0.000000
# 4 0.000000 0.000000 0.000000 0.052954 0.000000 0.000000
# 5 0.000000 0.000000 0.000000 0.000000 -0.582142 0.000000
# 6 0.000000 0.000000 0.000000 0.000000 0.000000 0.034455
#
#
# Mechanical properties :
#
#
# Convention : Reuss Voigt Hill
#
# Bulk Modulus (GPa) = 62.60344 66.09900 64.35122
# Shear Modulus (GPa) = -12.70512 17.55917 2.42703
#
# Velocity S-wave (km/s) = -2.84267 3.34187 1.24244
# Velocity P-wave (km/s) = 5.38915 7.54529 6.55646
#
# Compressibility (1/GPa) = 0.01597356
#
# Stress axis : x y z
#
# Youngs Moduli (GPa) = 63.00978 61.73665 41.92595
#
# Poissons Ratio (x) = 0.32340 0.35231
# Poissons Ratio (y) = 0.33007 0.26546
# Poissons Ratio (z) = 0.52947 0.39090
#
# Static dielectric constant tensor:
#      x y z
#    x 1.548310 0.000000 0.000000 
#    y 0.000000 1.522990 0.000000 
#    z 0.000000 0.000000 1.528690 
# 
# From -- ./inp_files/14934.got.cif
#   From: 2010.05.17/outbox.cif.g08.bks.cpg/sg39_8_cif.got.tgz:14934.got - 2010.06.03 18:22:40.
