data_PCOD9359346
_publ_section_title
;
Structure prediction by ZEFSAII (Michael W. Deem and Ramdas Pophale) SiO2 
 PCOD9359346
Probable space group: A M M 2
;
_chemical_formula_sum "Si O2"
_cell_formula_units_Z 58
_cell_length_a 8.014866
_cell_length_b 20.211072
_cell_length_c 16.879383
_cell_angle_alpha 90.000000
_cell_angle_beta 90.000000
_cell_angle_gamma 90.000000
_cell_volume 2734.274943
_symmetry_space_group_name_H-M "A M M 2"
_symmetry_group_IT_number 38
_symmetry_cell_setting 'orthorhombic'
loop_
_space_group_symop_operation_xyz
x,y,z
-x,-y,z
-x,y,z
x,-y,z
x,1/2+y,1/2+z
-x,1/2-y,1/2+z
-x,1/2+y,1/2+z
x,1/2-y,1/2+z
loop_
_atom_site_type_symbol
_atom_site_label
_atom_site_fract_x
_atom_site_fract_y
_atom_site_fract_z
Si Si1 0.692523 0.926370 0.995030
Si Si2 0.193879 0.101425 0.309752
Si Si3 0.500000 0.500000 0.840700
Si Si4 0.194496 0.159833 0.138112
Si Si5 0.304124 0.723252 0.907553
Si Si6 0.798798 0.925069 0.677864
Si Si7 0.301200 0.796007 0.587986
Si Si8 0.807695 0.138714 0.841655
O O1 0.500000 0.925656 0.969513
O O2 0.797433 0.908445 0.917946
O O3 0.734214 0.000000 0.024987
O O4 0.711999 0.873369 0.064606
O O5 0.347896 0.056338 0.337936
O O6 0.229657 0.120686 0.218476
O O7 0.204222 0.168797 0.359334
O O8 0.000000 0.076767 0.314774
O O9 0.234466 0.237602 0.144255
O O10 0.000000 0.152912 0.120590
O O11 0.500000 0.706232 0.907508
O O12 0.283645 0.794576 0.867636
O O13 0.245571 0.721966 0.998896
O O14 0.751464 0.869104 0.614484
O O15 0.740804 0.897781 0.763513
O O16 0.000000 0.928339 0.680382
O O17 0.737654 0.000000 0.662481
O O18 0.500000 0.792640 0.590442
O O19 0.000000 0.156266 0.825918
#
# Coordination Sequence:
#
# PCOD9359346 Si02
#       8
#     8   8   2   8   8   8   8   8
#     4  11  24  38  59  92 132 175 218 268 335 406
#     4  11  26  45  70 101 131 179 231 275 343 413
#     4  12  26  48  72  94 140 176 218 296 340 398
#     4  11  24  41  65  97 131 170 222 271 325 404
#     4  11  23  43  66  96 132 173 223 282 342 396
#     4  10  23  43  65  93 131 174 219 272 337 400
#     4  11  24  41  67  98 133 171 219 275 334 403
#     4  11  22  39  66  95 129 172 221 277 334 406
#
# _framework density 21.212205000000001
#
# number of rings (size 3 to 8) (size 9 to 14) (size 15 to 20)
#    0.000    1.103    2.069    3.517    2.897    8.000 
#    1.241    0.000    0.000    0.000    0.000    0.000 
#    0.000    0.000    0.000    0.000    0.000    0.000 
#
# Total GULP energy -161812.316062 kJ/mol
# GULP energy per Si atom -5579.735037 kJ/mol
# Density = 2.116392 g / cm^3
# Si number density = 21.212205 Si / 1000 Ang^3
#
#
#
# Elastic Constant Matrix: (Units=GPa)
#
#
# Indices 1 2 3 4 5 6 
#
# 1 54.8824 10.8930 1.8448 0.0000 0.0000 0.0000
# 2 10.8930 124.6723 5.3409 0.0000 0.0000 0.0000
# 3 1.8448 5.3409 17.9897 0.0000 0.0000 0.0000
# 4 0.0000 0.0000 0.0000 -8.0450 0.0000 0.0000
# 5 0.0000 0.0000 0.0000 0.0000 34.3401 0.0000
# 6 0.0000 0.0000 0.0000 0.0000 0.0000 26.0808
#
#
#
# Elastic Compliance Matrix: (Units=1/GPa)
#
#
# Indices 1 2 3 4 5 6 
#
# 1 0.018579 -0.001562 -0.001442 0.000000 0.000000 0.000000
# 2 -0.001562 0.008256 -0.002291 0.000000 0.000000 0.000000
# 3 -0.001442 -0.002291 0.056415 0.000000 0.000000 0.000000
# 4 0.000000 0.000000 0.000000 -0.124300 0.000000 0.000000
# 5 0.000000 0.000000 0.000000 0.000000 0.029120 0.000000
# 6 0.000000 0.000000 0.000000 0.000000 0.000000 0.038342
#
#
# Mechanical properties :
#
#
# Convention : Reuss Voigt Hill
#
# Bulk Modulus (GPa) = 13.76231 25.96686 19.86459
# Shear Modulus (GPa) = 81.67033 22.43955 52.05494
#
# Velocity S-wave (km/s) = 6.21170 3.25600 4.95917
# Velocity P-wave (km/s) = 7.61242 5.13843 6.49432
#
# Compressibility (1/GPa) = 0.07266220
#
# Stress axis : x y z
#
# Youngs Moduli (GPa) = 53.82369 121.12975 17.72563
#
# Poissons Ratio (x) = 0.18915 0.02555
# Poissons Ratio (y) = 0.08405 0.04061
# Poissons Ratio (z) = 0.07759 0.27749
#
# Static dielectric constant tensor:
#      x y z
#    x 1.707400 0.000000 0.000000 
#    y 0.000000 1.827780 0.000000 
#    z 0.000000 0.000000 1.755430 
# 
# From -- ./inp_files/16999.got.cif
#   From: 2010.05.17/outbox.cif.g08.bks.cpg/sg38_9_cif.got.tgz:16999.got - 2010.06.03 18:07:57.
