data_PCOD9359998
_publ_section_title
;
Structure prediction by ZEFSAII (Michael W. Deem and Ramdas Pophale) SiO2 
 PCOD9359998
Probable space group: A B M 2
;
_chemical_formula_sum "Si O2"
_cell_formula_units_Z 48
_cell_length_a 8.722571
_cell_length_b 9.797850
_cell_length_c 28.915434
_cell_angle_alpha 90.000000
_cell_angle_beta 90.000000
_cell_angle_gamma 90.000000
_cell_volume 2471.183609
_symmetry_space_group_name_H-M "A B M 2"
_symmetry_group_IT_number 39
_symmetry_cell_setting 'orthorhombic'
loop_
_space_group_symop_operation_xyz
x,y,z
-x,-y,z
-x,1/2+y,z
x,1/2-y,z
x,1/2+y,1/2+z
-x,1/2-y,1/2+z
-x,y,1/2+z
x,-y,1/2+z
loop_
_atom_site_type_symbol
_atom_site_label
_atom_site_fract_x
_atom_site_fract_y
_atom_site_fract_z
Si Si1 0.835374 0.579038 0.850880
Si Si2 0.814598 0.001169 0.248881
Si Si3 0.315602 0.250000 0.077566
Si Si4 0.181929 0.512747 0.027363
Si Si5 0.342650 0.083128 0.431477
Si Si6 0.185633 0.750000 0.683155
Si Si7 0.320451 0.750000 0.086655
Si Si8 0.185584 0.250000 0.685544
O O1 0.845531 0.750000 0.853638
O O2 0.765059 0.532817 0.801250
O O3 0.737256 0.503733 0.890422
O O4 0.000000 0.500000 0.853893
O O5 0.771719 0.124104 0.216645
O O6 0.771199 0.873569 0.217313
O O7 0.000000 0.000000 0.252334
O O8 0.254495 0.376245 0.047843
O O9 0.256485 0.250000 0.131343
O O10 0.499179 0.250000 0.077893
O O11 0.237869 0.622903 0.063814
O O12 0.000000 0.500000 0.025728
O O13 0.243210 0.560036 0.977616
O O14 0.358478 0.250000 0.423404
O O15 0.500000 0.000000 0.439574
O O16 0.999112 0.750000 0.676495
O O17 0.282189 0.750000 0.139870
#
# Coordination Sequence:
#
# PCOD9359998 Si02
#       8
#     8   8   4   8   8   4   4   4
#     4  11  23  41  69 103 139 182 234 289 347 414
#     4   9  19  34  61  93 128 170 231 288 339 391
#     4  12  26  42  67 100 141 184 225 286 354 414
#     4  12  26  45  71 100 133 176 235 284 340 414
#     4  12  27  47  71 100 138 180 226 287 362 428
#     4  10  20  36  59  94 127 178 233 286 342 402
#     4  12  24  44  65  98 139 180 223 284 352 414
#     4  10  18  36  61  88 129 172 227 286 334 404
#
# _framework density 19.423891000000001
#
# number of rings (size 3 to 8) (size 9 to 14) (size 15 to 20)
#    0.000    1.000    1.667    5.500    7.000    1.333 
#    0.000    1.667    0.000    0.000    0.000    0.000 
#    0.000    0.000    0.000    0.000    0.000    0.000 
#
# Total GULP energy -133771.602232 kJ/mol
# GULP energy per Si atom -5573.816760 kJ/mol
# Density = 1.937968 g / cm^3
# Si number density = 19.423891 Si / 1000 Ang^3
#
#
#
# Elastic Constant Matrix: (Units=GPa)
#
#
# Indices 1 2 3 4 5 6 
#
# 1 103.2408 24.1315 24.3447 0.0000 0.0000 0.0000
# 2 24.1315 178.7983 31.9325 0.0000 0.0000 0.0000
# 3 24.3447 31.9325 111.0782 0.0000 0.0000 0.0000
# 4 0.0000 0.0000 0.0000 32.9048 0.0000 0.0000
# 5 0.0000 0.0000 0.0000 0.0000 148.0459 0.0000
# 6 0.0000 0.0000 0.0000 0.0000 0.0000 40.9793
#
#
#
# Elastic Compliance Matrix: (Units=1/GPa)
#
#
# Indices 1 2 3 4 5 6 
#
# 1 0.010398 -0.001050 -0.001977 0.000000 0.000000 0.000000
# 2 -0.001050 0.006002 -0.001495 0.000000 0.000000 0.000000
# 3 -0.001977 -0.001495 0.009866 0.000000 0.000000 0.000000
# 4 0.000000 0.000000 0.000000 0.030391 0.000000 0.000000
# 5 0.000000 0.000000 0.000000 0.000000 0.006755 0.000000
# 6 0.000000 0.000000 0.000000 0.000000 0.000000 0.024403
#
#
# Mechanical properties :
#
#
# Convention : Reuss Voigt Hill
#
# Bulk Modulus (GPa) = 58.07033 61.54831 59.80932
# Shear Modulus (GPa) = 48.73392 65.23324 56.98358
#
# Velocity S-wave (km/s) = 5.01439 5.80146 5.42223
# Velocity P-wave (km/s) = 7.96786 8.75395 8.37014
#
# Compressibility (1/GPa) = 0.01722050
#
# Stress axis : x y z
#
# Youngs Moduli (GPa) = 96.17465 166.62023 101.36056
#
# Poissons Ratio (x) = 0.17500 0.20038
# Poissons Ratio (y) = 0.10101 0.15155
# Poissons Ratio (z) = 0.19013 0.24912
#
# Static dielectric constant tensor:
#      x y z
#    x 1.685000 0.000000 0.000000 
#    y 0.000000 2.813290 0.000000 
#    z 0.000000 0.000000 1.669110 
# 
# From -- ./inp_files/17719.got.cif
#   From: 2010.05.17/outbox.cif.g08.bks.cpg/sg39_9_cif.got.tgz:17719.got - 2010.06.03 18:22:40.
