data_PCOD9359784
_publ_section_title
;
Structure prediction by ZEFSAII (Michael W. Deem and Ramdas Pophale) SiO2 
 PCOD9359784
Probable space group: A B M 2
;
_chemical_formula_sum "Si O2"
_cell_formula_units_Z 28
_cell_length_a 6.872825
_cell_length_b 10.632550
_cell_length_c 14.892356
_cell_angle_alpha 90.000000
_cell_angle_beta 90.000000
_cell_angle_gamma 90.000000
_cell_volume 1088.268676
_symmetry_space_group_name_H-M "A B M 2"
_symmetry_group_IT_number 39
_symmetry_cell_setting 'orthorhombic'
loop_
_space_group_symop_operation_xyz
x,y,z
-x,-y,z
-x,1/2+y,z
x,1/2-y,z
x,1/2+y,1/2+z
-x,1/2-y,1/2+z
-x,y,1/2+z
x,-y,1/2+z
loop_
_atom_site_type_symbol
_atom_site_label
_atom_site_fract_x
_atom_site_fract_y
_atom_site_fract_z
Si Si1 0.494371 0.750000 0.621351
Si Si2 0.142210 0.891553 0.104774
Si Si3 0.704210 0.750000 0.296886
Si Si4 0.735573 0.019473 0.908601
Si Si5 0.317898 0.750000 0.418228
O O1 0.638941 0.631912 0.641854
O O2 0.325584 0.750000 0.692087
O O3 0.413685 0.750000 0.519190
O O4 0.058101 0.750000 0.108784
O O5 0.191167 0.924883 0.001981
O O6 0.000000 0.000000 0.139499
O O7 0.787603 0.618331 0.331933
O O8 0.492605 0.750000 0.346441
O O9 0.500000 0.000000 0.913244
O O10 0.803039 0.876027 0.902761
#
# Coordination Sequence:
#
# PCOD9359784 Si02
#       5
#     4   8   4   8   4
#     4  10  20  39  63 100 129 174 214 275 343 403
#     4  10  20  37  60  96 131 173 221 268 338 416
#     4  10  18  36  61  86 134 165 212 284 322 386
#     4  10  17  38  61  92 126 163 222 273 326 400
#     4  10  20  37  60  96 133 153 224 273 339 399
#
# _framework density 25.728940000000001
#
# number of rings (size 3 to 8) (size 9 to 14) (size 15 to 20)
#    0.857    1.143    7.143    0.000    2.000    0.000 
#   15.429    0.000    3.143    6.857   22.286    0.000 
#    0.000    0.000    0.000    0.000    0.000    0.000 
#
# Total GULP energy -78211.305455 kJ/mol
# GULP energy per Si atom -5586.521818 kJ/mol
# Density = 2.567038 g / cm^3
# Si number density = 25.728940 Si / 1000 Ang^3
#
#
#
# Elastic Constant Matrix: (Units=GPa)
#
#
# Indices 1 2 3 4 5 6 
#
# 1 129.0241 49.8433 40.5330 0.0000 0.0000 0.0000
# 2 49.8433 252.8943 34.0458 0.0000 0.0000 0.0000
# 3 40.5330 34.0458 79.7015 0.0000 0.0000 0.0000
# 4 0.0000 0.0000 0.0000 7.6249 0.0000 0.0000
# 5 0.0000 0.0000 0.0000 0.0000 16.3567 0.0000
# 6 0.0000 0.0000 0.0000 0.0000 0.0000 -28.0680
#
#
#
# Elastic Compliance Matrix: (Units=1/GPa)
#
#
# Indices 1 2 3 4 5 6 
#
# 1 0.009618 -0.001313 -0.004331 0.000000 0.000000 0.000000
# 2 -0.001313 0.004375 -0.001201 0.000000 0.000000 0.000000
# 3 -0.004331 -0.001201 0.015262 0.000000 0.000000 0.000000
# 4 0.000000 0.000000 0.000000 0.131149 0.000000 0.000000
# 5 0.000000 0.000000 0.000000 0.000000 0.061137 0.000000
# 6 0.000000 0.000000 0.000000 0.000000 0.000000 -0.035628
#
#
# Mechanical properties :
#
#
# Convention : Reuss Voigt Hill
#
# Bulk Modulus (GPa) = 64.24200 78.94045 71.59122
# Shear Modulus (GPa) = 24.41517 21.66258 23.03888
#
# Velocity S-wave (km/s) = 3.08383 2.90479 2.99565
# Velocity P-wave (km/s) = 6.14027 6.48063 6.31275
#
# Compressibility (1/GPa) = 0.01556614
#
# Stress axis : x y z
#
# Youngs Moduli (GPa) = 103.97122 228.59069 65.52096
#
# Poissons Ratio (x) = 0.30005 0.28375
# Poissons Ratio (y) = 0.13647 0.07870
# Poissons Ratio (z) = 0.45026 0.27457
#
# Static dielectric constant tensor:
#      x y z
#    x 2.083560 0.000000 0.000000 
#    y 0.000000 2.148040 0.000000 
#    z 0.000000 0.000000 1.950600 
# 
# From -- ./inp_files/7808.got.cif
#   From: 2010.05.17/outbox.cif.g08.bks.cpg/sg39_4_cif.got.tgz:7808.got - 2010.06.03 18:22:40.
