data_PCOD9359060
_publ_section_title
;
Structure prediction by ZEFSAII (Michael W. Deem and Ramdas Pophale) SiO2 
 PCOD9359060
Probable space group: A M M 2
;
_chemical_formula_sum "Si O2"
_cell_formula_units_Z 56
_cell_length_a 21.596388
_cell_length_b 8.817778
_cell_length_c 15.785128
_cell_angle_alpha 90.000000
_cell_angle_beta 90.000000
_cell_angle_gamma 90.000000
_cell_volume 3005.995942
_symmetry_space_group_name_H-M "A M M 2"
_symmetry_group_IT_number 38
_symmetry_cell_setting 'orthorhombic'
loop_
_space_group_symop_operation_xyz
x,y,z
-x,-y,z
-x,y,z
x,-y,z
x,1/2+y,1/2+z
-x,1/2-y,1/2+z
-x,1/2+y,1/2+z
x,1/2-y,1/2+z
loop_
_atom_site_type_symbol
_atom_site_label
_atom_site_fract_x
_atom_site_fract_y
_atom_site_fract_z
Si Si1 0.145542 0.817912 0.582060
Si Si2 0.500000 0.318736 0.180503
Si Si3 0.926725 0.680978 0.740825
Si Si4 0.710222 0.182502 0.588476
Si Si5 0.373956 0.181704 0.428719
Si Si6 0.370941 0.680737 0.737918
Si Si7 0.073067 0.318779 0.423395
Si Si8 0.500000 0.319683 0.492330
O O1 0.111880 0.754623 0.665364
O O2 0.217916 0.775129 0.583646
O O3 0.112444 0.750887 0.499303
O O4 0.141036 0.000000 0.580442
O O5 0.500000 0.500000 0.182454
O O6 0.438041 0.254925 0.223191
O O7 0.500000 0.260969 0.083739
O O8 0.918105 0.500000 0.741218
O O9 0.909734 0.748796 0.832396
O O10 0.000000 0.711798 0.727474
O O11 0.673728 0.224579 0.502661
O O12 0.675707 0.255897 0.668007
O O13 0.706361 0.000000 0.596725
O O14 0.350375 0.213159 0.334112
O O15 0.438484 0.266026 0.444416
O O16 0.384985 0.000000 0.434961
O O17 0.376846 0.500000 0.727833
O O18 0.080380 0.500000 0.421161
O O19 0.000000 0.285532 0.437539
O O20 0.500000 0.500000 0.503330
#
# Coordination Sequence:
#
# PCOD9359060 Si02
#       8
#     8   4   8   8   8   8   8   4
#     4  11  23  38  59  88 122 161 204 245 293 359
#     4  12  23  38  61  86 120 158 187 237 304 353
#     4  10  21  38  61  89 120 156 199 248 303 359
#     4  10  23  42  60  82 117 162 200 239 293 351
#     4  10  22  41  62  84 117 156 189 234 300 354
#     4  11  23  39  62  91 117 150 198 246 291 350
#     4  10  21  38  61  90 122 156 197 248 303 356
#     4  12  23  36  61  94 118 144 195 247 290 349
#
# _framework density 18.629434
#
# number of rings (size 3 to 8) (size 9 to 14) (size 15 to 20)
#    0.000    1.429    1.429    3.857    0.000    8.571 
#    0.000    1.429    0.000    0.000    0.000    0.000 
#    0.000    0.000    0.000    0.000    0.000    0.000 
#
# Total GULP energy -156553.684186 kJ/mol
# GULP energy per Si atom -5591.203007 kJ/mol
# Density = 1.858703 g / cm^3
# Si number density = 18.629434 Si / 1000 Ang^3
#
#
#
# Elastic Constant Matrix: (Units=GPa)
#
#
# Indices 1 2 3 4 5 6 
#
# 1 136.0241 68.8906 111.9253 0.0000 0.0000 0.0000
# 2 68.8906 65.2635 75.3848 0.0000 0.0000 0.0000
# 3 111.9253 75.3848 195.5827 0.0000 0.0000 0.0000
# 4 0.0000 0.0000 0.0000 36.5724 0.0000 0.0000
# 5 0.0000 0.0000 0.0000 0.0000 -11.4961 0.0000
# 6 0.0000 0.0000 0.0000 0.0000 0.0000 25.6183
#
#
#
# Elastic Compliance Matrix: (Units=1/GPa)
#
#
# Indices 1 2 3 4 5 6 
#
# 1 0.018636 -0.013254 -0.005556 0.000000 0.000000 0.000000
# 2 -0.013254 0.037045 -0.006694 0.000000 0.000000 0.000000
# 3 -0.005556 -0.006694 0.010873 0.000000 0.000000 0.000000
# 4 0.000000 0.000000 0.000000 0.027343 0.000000 0.000000
# 5 0.000000 0.000000 0.000000 0.000000 -0.086986 0.000000
# 6 0.000000 0.000000 0.000000 0.000000 0.000000 0.039035
#
#
# Mechanical properties :
#
#
# Convention : Reuss Voigt Hill
#
# Bulk Modulus (GPa) = 64.32610 101.03020 82.67815
# Shear Modulus (GPa) = 48.95511 19.51689 34.23600
#
# Velocity S-wave (km/s) = 5.13180 3.24023 4.29153
# Velocity P-wave (km/s) = 8.34974 8.26729 8.30862
#
# Compressibility (1/GPa) = 0.01554579
#
# Stress axis : x y z
#
# Youngs Moduli (GPa) = 53.65950 26.99440 91.97453
#
# Poissons Ratio (x) = 0.35778 0.51103
# Poissons Ratio (y) = 0.71119 0.61565
# Poissons Ratio (z) = 0.29815 0.18069
#
# Static dielectric constant tensor:
#      x y z
#    x 1.615950 0.000000 0.000000 
#    y 0.000000 1.623930 0.000000 
#    z 0.000000 0.000000 1.626610 
# 
# From -- ./inp_files/15516.got.cif
#   From: 2010.05.17/outbox.cif.g08.bks.cpg/sg38_8_cif.got.tgz:15516.got - 2010.06.03 18:07:57.
