data_PCOD9359833
_publ_section_title
;
Structure prediction by ZEFSAII (Michael W. Deem and Ramdas Pophale) SiO2 
 PCOD9359833
Probable space group: A B M 2
;
_chemical_formula_sum "Si O2"
_cell_formula_units_Z 56
_cell_length_a 14.576631
_cell_length_b 8.409767
_cell_length_c 22.046326
_cell_angle_alpha 90.000000
_cell_angle_beta 90.000000
_cell_angle_gamma 90.000000
_cell_volume 2702.572470
_symmetry_space_group_name_H-M "A B M 2"
_symmetry_group_IT_number 39
_symmetry_cell_setting 'orthorhombic'
loop_
_space_group_symop_operation_xyz
x,y,z
-x,-y,z
-x,1/2+y,z
x,1/2-y,z
x,1/2+y,1/2+z
-x,1/2-y,1/2+z
-x,y,1/2+z
x,-y,1/2+z
loop_
_atom_site_type_symbol
_atom_site_label
_atom_site_fract_x
_atom_site_fract_y
_atom_site_fract_z
Si Si1 0.395241 0.942469 0.047530
Si Si2 0.714158 0.441778 0.928687
Si Si3 0.604759 0.057531 0.181189
Si Si4 0.105338 0.060267 0.114359
Si Si5 0.103434 0.439611 0.743806
Si Si6 0.714158 0.441778 0.300032
Si Si7 0.896566 0.060390 0.984912
O O1 0.393206 0.750000 0.047073
O O2 0.359527 0.994353 0.114359
O O3 0.500000 0.000000 0.043523
O O4 0.341064 0.998023 0.988022
O O5 0.712504 0.250000 0.928944
O O6 0.677501 0.500000 0.864359
O O7 0.820080 0.494113 0.937410
O O8 0.606794 0.250000 0.181645
O O9 0.658936 0.001976 0.240696
O O10 0.500000 0.000000 0.185196
O O11 0.108029 0.250000 0.114358
O O12 0.140746 0.993341 0.177783
O O13 0.140746 0.993335 0.050935
O O14 0.000000 0.000000 0.114359
O O15 0.098970 0.250000 0.743609
O O16 0.179919 0.494111 0.791309
O O17 0.000000 0.500000 0.753310
O O18 0.712503 0.250000 0.299775
O O19 0.901030 0.250000 0.985107
O O20 0.000000 0.000000 0.975409
#
# Coordination Sequence:
#
# PCOD9359833 Si02
#       7
#     8   8   8   8   8   8   8
#     4   9  19  38  63  88 113 145 186 231 285 342
#     4  10  23  39  58  83 115 156 192 234 285 340
#     4   9  19  38  63  88 113 145 186 231 285 342
#     4  10  18  30  50  78 107 140 183 236 285 330
#     4  10  20  35  55  79 111 153 194 236 285 334
#     4  10  23  39  58  83 115 156 192 234 285 340
#     4  10  20  35  55  79 111 153 194 236 285 334
#
# _framework density 20.720998000000002
#
# number of rings (size 3 to 8) (size 9 to 14) (size 15 to 20)
#    0.000    2.286    0.000    3.857    2.000    4.571 
#    0.000    5.714    0.000    0.000    0.000    0.000 
#    0.000    0.000    0.000    0.000    0.000    0.000 
#
# Total GULP energy -156239.575241 kJ/mol
# GULP energy per Si atom -5579.984830 kJ/mol
# Density = 2.067384 g / cm^3
# Si number density = 20.720998 Si / 1000 Ang^3
#
#
#
# Elastic Constant Matrix: (Units=GPa)
#
#
# Indices 1 2 3 4 5 6 
#
# 1 78.0901 9.5148 73.6047 0.0000 0.0000 0.0000
# 2 9.5148 28.7426 13.3540 0.0000 0.0000 0.0000
# 3 73.6047 13.3540 184.1839 0.0000 0.0000 0.0000
# 4 0.0000 0.0000 0.0000 26.5160 0.0000 0.0000
# 5 0.0000 0.0000 0.0000 0.0000 26.5945 0.0000
# 6 0.0000 0.0000 0.0000 0.0000 0.0000 19.4094
#
#
#
# Elastic Compliance Matrix: (Units=1/GPa)
#
#
# Indices 1 2 3 4 5 6 
#
# 1 0.020813 -0.003131 -0.008090 0.000000 0.000000 0.000000
# 2 -0.003131 0.036475 -0.001393 0.000000 0.000000 0.000000
# 3 -0.008090 -0.001393 0.008764 0.000000 0.000000 0.000000
# 4 0.000000 0.000000 0.000000 0.037713 0.000000 0.000000
# 5 0.000000 0.000000 0.000000 0.000000 0.037602 0.000000
# 6 0.000000 0.000000 0.000000 0.000000 0.000000 0.051521
#
#
# Mechanical properties :
#
#
# Convention : Reuss Voigt Hill
#
# Bulk Modulus (GPa) = 24.49636 53.77372 39.13504
# Shear Modulus (GPa) = 21.57730 27.47352 24.52541
#
# Velocity S-wave (km/s) = 3.23046 3.64521 3.44408
# Velocity P-wave (km/s) = 5.07564 6.61244 5.89434
#
# Compressibility (1/GPa) = 0.04082239
#
# Stress axis : x y z
#
# Youngs Moduli (GPa) = 48.04714 27.41573 114.10954
#
# Poissons Ratio (x) = 0.08584 0.92319
# Poissons Ratio (y) = 0.15043 0.15900
# Poissons Ratio (z) = 0.38872 0.03820
#
# Static dielectric constant tensor:
#      x y z
#    x 1.734590 0.000000 0.000000 
#    y 0.000000 1.709380 0.000000 
#    z 0.000000 0.000000 1.781090 
# 
# From -- ./inp_files/14787.got.cif
#   From: 2010.05.17/outbox.cif.g08.bks.cpg/sg39_8_cif.got.tgz:14787.got - 2010.06.03 18:22:40.
