data_PCOD9359708
_publ_section_title
;
Structure prediction by ZEFSAII (Michael W. Deem and Ramdas Pophale) SiO2 
 PCOD9359708
Probable space group: A B M 2
;
_chemical_formula_sum "Si O2"
_cell_formula_units_Z 64
_cell_length_a 21.709636
_cell_length_b 9.343501
_cell_length_c 14.404509
_cell_angle_alpha 90.000000
_cell_angle_beta 90.000000
_cell_angle_gamma 90.000000
_cell_volume 2921.868305
_symmetry_space_group_name_H-M "A B M 2"
_symmetry_group_IT_number 39
_symmetry_cell_setting 'orthorhombic'
loop_
_space_group_symop_operation_xyz
x,y,z
-x,-y,z
-x,1/2+y,z
x,1/2-y,z
x,1/2+y,1/2+z
-x,1/2-y,1/2+z
-x,y,1/2+z
x,-y,1/2+z
loop_
_atom_site_type_symbol
_atom_site_label
_atom_site_fract_x
_atom_site_fract_y
_atom_site_fract_z
Si Si1 0.059249 0.088216 0.020210
Si Si2 0.557752 0.410118 0.233126
Si Si3 0.190753 0.923758 0.490305
Si Si4 0.443449 0.907225 0.012475
Si Si5 0.305651 0.086388 0.769400
Si Si6 0.061439 0.416002 0.792730
Si Si7 0.323598 0.091970 0.990569
Si Si8 0.185058 0.578331 0.792707
O O1 0.050372 0.250000 0.051226
O O2 0.128632 0.043365 0.046458
O O3 0.061024 0.085554 0.906553
O O4 0.000000 0.000000 0.049345
O O5 0.500000 0.500000 0.268931
O O6 0.559515 0.250000 0.275024
O O7 0.547592 0.395392 0.123151
O O8 0.626707 0.472207 0.243253
O O9 0.187337 0.750000 0.466604
O O10 0.257649 0.944026 0.535422
O O11 0.189028 0.026287 0.400565
O O12 0.443347 0.750000 0.970466
O O13 0.500000 0.000000 0.976303
O O14 0.378068 0.981892 0.001275
O O15 0.299435 0.250000 0.732232
O O16 0.246691 0.989255 0.748271
O O17 0.308668 0.098710 0.881104
O O18 0.062367 0.250000 0.763382
O O19 0.121901 0.502149 0.761639
O O20 0.000000 0.500000 0.764776
O O21 0.343815 0.250000 0.021931
O O22 0.182806 0.750000 0.784032
#
# Coordination Sequence:
#
# PCOD9359708 Si02
#       8
#     8   8   8   8   8   8   8   8
#     4   8  13  20  31  48  72 105 143 178 212 253
#     4   9  19  35  53  70  90 118 150 185 225 269
#     4   8  15  27  39  53  80 117 150 181 221 266
#     4  10  20  34  51  70  92 118 148 183 224 271
#     4   9  18  33  49  66  91 122 153 185 226 272
#     4   9  15  23  34  50  76 112 151 188 225 267
#     4   9  17  30  48  68  91 120 151 185 226 270
#     4  10  17  24  37  59  85 114 148 185 226 270
#
# _framework density 21.903794000000001
#
# number of rings (size 3 to 8) (size 9 to 14) (size 15 to 20)
#    0.000    3.000    0.000    3.375    0.000    6.500 
#    0.000    1.250    0.000    0.000    0.000    0.000 
#    0.000    1.000    0.000    6.750    0.000   12.000 
#
# Total GULP energy -178456.199929 kJ/mol
# GULP energy per Si atom -5576.756248 kJ/mol
# Density = 2.185394 g / cm^3
# Si number density = 21.903794 Si / 1000 Ang^3
#
#
#
# Elastic Constant Matrix: (Units=GPa)
#
#
# Indices 1 2 3 4 5 6 
#
# 1 248.1723 136.3333 -2.2644 0.0000 0.0000 0.0000
# 2 136.3333 155.3643 8.6252 0.0000 0.0000 0.0000
# 3 -2.2644 8.6252 49.5683 0.0000 0.0000 0.0000
# 4 0.0000 0.0000 0.0000 1.1643 0.0000 0.0000
# 5 0.0000 0.0000 0.0000 0.0000 32.1472 0.0000
# 6 0.0000 0.0000 0.0000 0.0000 0.0000 39.8842
#
#
#
# Elastic Compliance Matrix: (Units=1/GPa)
#
#
# Indices 1 2 3 4 5 6 
#
# 1 0.007901 -0.007021 0.001583 0.000000 0.000000 0.000000
# 2 -0.007021 0.012738 -0.002537 0.000000 0.000000 0.000000
# 3 0.001583 -0.002537 0.020688 0.000000 0.000000 0.000000
# 4 0.000000 0.000000 0.000000 0.858871 0.000000 0.000000
# 5 0.000000 0.000000 0.000000 0.000000 0.031107 0.000000
# 6 0.000000 0.000000 0.000000 0.000000 0.000000 0.025073
#
#
# Mechanical properties :
#
#
# Convention : Reuss Voigt Hill
#
# Bulk Modulus (GPa) = 39.40742 82.05478 60.73110
# Shear Modulus (GPa) = 5.09795 35.33321 20.21558
#
# Velocity S-wave (km/s) = 1.52725 4.02071 3.04127
# Velocity P-wave (km/s) = 4.59784 7.68750 6.33395
#
# Compressibility (1/GPa) = 0.02537593
#
# Stress axis : x y z
#
# Youngs Moduli (GPa) = 126.56922 78.50395 48.33728
#
# Poissons Ratio (x) = 0.55117 -0.07650
# Poissons Ratio (y) = 0.88863 0.12264
# Poissons Ratio (z) = -0.20031 0.19918
#
# Static dielectric constant tensor:
#      x y z
#    x 1.820150 0.000000 0.000000 
#    y 0.000000 1.778720 0.000000 
#    z 0.000000 0.000000 1.855030 
# 
# From -- ./inp_files/15051.got.cif
#   From: 2010.05.17/outbox.cif.g08.bks.cpg/sg39_8_cif.got.tgz:15051.got - 2010.06.03 18:22:40.
