data_PCOD9359622
_publ_section_title
;
Structure prediction by ZEFSAII (Michael W. Deem and Ramdas Pophale) SiO2 
 PCOD9359622
Probable space group: A M M 2
;
_chemical_formula_sum "Si O2"
_cell_formula_units_Z 20
_cell_length_a 9.000000
_cell_length_b 24.000000
_cell_length_c 9.000000
_cell_angle_alpha 90.000000
_cell_angle_beta 90.000000
_cell_angle_gamma 90.000000
_cell_volume 1944.000000
_symmetry_space_group_name_H-M "A M M 2"
_symmetry_group_IT_number 38
_symmetry_cell_setting 'orthorhombic'
loop_
_space_group_symop_operation_xyz
x,y,z
-x,-y,z
-x,y,z
x,-y,z
x,1/2+y,1/2+z
-x,1/2-y,1/2+z
-x,1/2+y,1/2+z
x,1/2-y,1/2+z
loop_
_atom_site_type_symbol
_atom_site_label
_atom_site_fract_x
_atom_site_fract_y
_atom_site_fract_z
Si Si1 0.828540 0.198772 0.052530
Si Si2 0.322035 0.000000 0.334680
Si Si3 0.822711 0.500000 0.161733
Si Si4 0.326461 0.815273 0.537476
Si Si5 0.178021 0.615205 0.797936
Si Si6 0.171178 0.123232 0.775597
O O1 0.735607 0.253256 0.010741
O O2 0.775490 0.169007 0.201841
O O3 0.000000 0.217955 0.069372
O O4 0.830639 0.145979 0.942600
O O5 0.265955 0.000000 0.506585
O O6 0.254996 0.056429 0.263863
O O7 0.500000 0.000000 0.328590
O O8 0.792689 0.442031 0.249693
O O9 0.000000 0.500000 0.127366
O O10 0.500000 0.818662 0.502897
O O11 0.234076 0.864170 0.456772
O O12 0.288339 0.834023 0.703968
O O13 0.000000 0.609250 0.790428
O O14 0.000000 0.131811 0.720456
#
# Coordination Sequence:
#
# PCOD9359622 Si02
#       6
#     8   4   4   8   8   8
#     4  10  23  41  62  90 122 159 205 252 300 359
#     4  12  24  39  62  92 124 156 200 251 304 364
#     4  10  20  37  64  90 116 154 198 247 300 358
#     4  12  24  38  60  90 125 163 204 249 301 361
#     4  11  23  41  65  90 121 162 207 251 297 357
#     4  10  21  39  64  91 119 154 201 252 302 357
#
# _framework density 10.288066000000001
#
# number of rings (size 3 to 8) (size 9 to 14) (size 15 to 20)
#    0.000    1.200    2.000    4.500    0.000    8.000 
#    0.000    3.000    0.000    1.200    0.000    0.000 
#    0.000    0.000    0.000    0.000    0.000    0.000 
#
# Total GULP energy -111543.507733 kJ/mol
# GULP energy per Si atom -5577.175387 kJ/mol
# Density = 1.026465 g / cm^3
# Si number density = 10.288066 Si / 1000 Ang^3
#
#
#
# Elastic Constant Matrix: (Units=GPa)
#
#
# Indices 1 2 3 4 5 6 
#
# 1 72.6797 50.8396 -4.9537 0.0000 0.0000 0.0000
# 2 50.8396 147.0831 -0.6533 0.0000 0.0000 0.0000
# 3 -4.9537 -0.6533 10.6358 0.0000 0.0000 0.0000
# 4 0.0000 0.0000 0.0000 0.2764 0.0000 0.0000
# 5 0.0000 0.0000 0.0000 0.0000 -3.4059 0.0000
# 6 0.0000 0.0000 0.0000 0.0000 0.0000 22.8925
#
#
#
# Elastic Compliance Matrix: (Units=1/GPa)
#
#
# Indices 1 2 3 4 5 6 
#
# 1 0.018866 -0.006484 0.008389 0.000000 0.000000 0.000000
# 2 -0.006484 0.009029 -0.002465 0.000000 0.000000 0.000000
# 3 0.008389 -0.002465 0.097777 0.000000 0.000000 0.000000
# 4 0.000000 0.000000 0.000000 3.618374 0.000000 0.000000
# 5 0.000000 0.000000 0.000000 0.000000 -0.293612 0.000000
# 6 0.000000 0.000000 0.000000 0.000000 0.000000 0.043682
#
#
# Mechanical properties :
#
#
# Convention : Reuss Voigt Hill
#
# Bulk Modulus (GPa) = 8.02877 35.65154 21.84016
# Shear Modulus (GPa) = 1.41373 16.29701 8.85537
#
# Velocity S-wave (km/s) = 0.82980 2.81736 2.07679
# Velocity P-wave (km/s) = 2.19739 5.28655 4.04822
#
# Compressibility (1/GPa) = 0.12455204
#
# Stress axis : x y z
#
# Youngs Moduli (GPa) = 53.00460 110.75288 10.22731
#
# Poissons Ratio (x) = 0.71811 -0.08580
# Poissons Ratio (y) = 0.34368 0.02521
# Poissons Ratio (z) = -0.44465 0.27305
#
# Static dielectric constant tensor:
#      x y z
#    x 1.711660 0.000000 0.000000 
#    y 0.000000 1.684040 0.000000 
#    z 0.000000 0.000000 1.790480 
# 
# From -- ./inp_files/3330.got.cif
#   From: 2010.05.17/outbox.ucp.g08.bks.cvg/sg38_2_cif.got.tgz:3330.got - 2010.06.11 10:39:43.
