data_PCOD9359647
_publ_section_title
;
Structure prediction by ZEFSAII (Michael W. Deem and Ramdas Pophale) SiO2 
 PCOD9359647
Probable space group: A M M 2
;
_chemical_formula_sum "Si O2"
_cell_formula_units_Z 28
_cell_length_a 21.000000
_cell_length_b 9.000000
_cell_length_c 15.000000
_cell_angle_alpha 90.000000
_cell_angle_beta 90.000000
_cell_angle_gamma 90.000000
_cell_volume 2835.000000
_symmetry_space_group_name_H-M "A M M 2"
_symmetry_group_IT_number 38
_symmetry_cell_setting 'orthorhombic'
loop_
_space_group_symop_operation_xyz
x,y,z
-x,-y,z
-x,y,z
x,-y,z
x,1/2+y,1/2+z
-x,1/2-y,1/2+z
-x,1/2+y,1/2+z
x,1/2-y,1/2+z
loop_
_atom_site_type_symbol
_atom_site_label
_atom_site_fract_x
_atom_site_fract_y
_atom_site_fract_z
Si Si1 0.574511 0.320908 0.507960
Si Si2 0.929188 0.178678 0.114150
Si Si3 0.929100 0.178853 0.415519
Si Si4 0.327708 0.327658 0.664165
Si Si5 0.800263 0.178995 0.915461
Si Si6 0.801757 0.821733 0.613191
Si Si7 0.667726 0.672862 0.867209
O O1 0.500000 0.276847 0.513421
O O2 0.576075 0.500000 0.497014
O O3 0.616753 0.285470 0.595457
O O4 0.613689 0.244421 0.428605
O O5 0.866433 0.253895 0.155900
O O6 0.000000 0.204776 0.153923
O O7 0.920408 0.000000 0.108412
O O8 0.931920 0.251018 0.015127
O O9 0.865855 0.253965 0.374859
O O10 0.000000 0.206432 0.376073
O O11 0.920542 0.000000 0.419878
O O12 0.309004 0.500000 0.644494
O O13 0.264544 0.227823 0.656978
O O14 0.352497 0.322338 0.764525
O O15 0.734585 0.239318 0.874597
O O16 0.802312 0.000000 0.915317
O O17 0.798310 0.245255 0.015716
O O18 0.806600 0.000000 0.607452
O O19 0.678689 0.500000 0.892700
#
# Coordination Sequence:
#
# PCOD9359647 Si02
#       7
#     8   8   8   8   8   8   8
#     4  10  22  42  67  93 123 160 196 235 289 351
#     4   9  16  26  43  70 106 149 196 243 295 354
#     4   9  16  26  43  71 107 146 193 248 300 350
#     4  10  22  40  62  88 122 161 199 241 293 353
#     4  11  20  32  53  79 114 157 199 245 301 356
#     4  11  20  31  53  82 114 152 198 249 299 351
#     4  11  23  39  62  92 122 157 203 248 292 346
#
# _framework density 9.8765429999999999
#
# number of rings (size 3 to 8) (size 9 to 14) (size 15 to 20)
#    0.000    1.857    1.429    5.571    0.000    3.714 
#    0.000    1.429    0.000    0.857    0.000    6.000 
#    0.000    0.000    0.000    0.000    0.000    0.000 
#
# Total GULP energy -156262.746781 kJ/mol
# GULP energy per Si atom -5580.812385 kJ/mol
# Density = 0.985406 g / cm^3
# Si number density = 9.876543 Si / 1000 Ang^3
#
#
#
# Elastic Constant Matrix: (Units=GPa)
#
#
# Indices 1 2 3 4 5 6 
#
# 1 203.1739 80.9363 55.1169 0.0000 0.0000 0.0000
# 2 80.9363 136.4961 32.1949 0.0000 0.0000 0.0000
# 3 55.1169 32.1949 79.8282 0.0000 0.0000 0.0000
# 4 0.0000 0.0000 0.0000 15.2489 0.0000 0.0000
# 5 0.0000 0.0000 0.0000 0.0000 -12.4367 0.0000
# 6 0.0000 0.0000 0.0000 0.0000 0.0000 37.4653
#
#
#
# Elastic Compliance Matrix: (Units=1/GPa)
#
#
# Indices 1 2 3 4 5 6 
#
# 1 0.007288 -0.003464 -0.003635 0.000000 0.000000 0.000000
# 2 -0.003464 0.009743 -0.001538 0.000000 0.000000 0.000000
# 3 -0.003635 -0.001538 0.015657 0.000000 0.000000 0.000000
# 4 0.000000 0.000000 0.000000 0.065578 0.000000 0.000000
# 5 0.000000 0.000000 0.000000 0.000000 -0.080407 0.000000
# 6 0.000000 0.000000 0.000000 0.000000 0.000000 0.026691
#
#
# Mechanical properties :
#
#
# Convention : Reuss Voigt Hill
#
# Bulk Modulus (GPa) = 64.87393 83.99938 74.43665
# Shear Modulus (GPa) = 74.66992 24.80551 49.73771
#
# Velocity S-wave (km/s) = 6.15497 3.54754 5.02338
# Velocity P-wave (km/s) = 9.13375 7.70695 8.45051
#
# Compressibility (1/GPa) = 0.01541451
#
# Stress axis : x y z
#
# Youngs Moduli (GPa) = 137.21390 102.63846 63.87058
#
# Poissons Ratio (x) = 0.35555 0.23216
# Poissons Ratio (y) = 0.47532 0.09821
# Poissons Ratio (z) = 0.49875 0.15782
#
# Static dielectric constant tensor:
#      x y z
#    x 1.716960 0.000000 0.000000 
#    y 0.000000 1.665490 0.000000 
#    z 0.000000 0.000000 1.730370 
# 
# From -- ./inp_files/15430.got.cif
#   From: 2010.05.17/outbox.ucp.g08.bks.cvg/sg38_8_cif.got.tgz:15430.got - 2010.06.11 10:39:43.
