data_PCOD9359407
_publ_section_title
;
Structure prediction by ZEFSAII (Michael W. Deem and Ramdas Pophale) SiO2 
 PCOD9359407
Probable space group: A M M 2
;
_chemical_formula_sum "Si O2"
_cell_formula_units_Z 56
_cell_length_a 14.442266
_cell_length_b 22.958358
_cell_length_c 9.814257
_cell_angle_alpha 90.000000
_cell_angle_beta 90.000000
_cell_angle_gamma 90.000000
_cell_volume 3254.120193
_symmetry_space_group_name_H-M "A M M 2"
_symmetry_group_IT_number 38
_symmetry_cell_setting 'orthorhombic'
loop_
_space_group_symop_operation_xyz
x,y,z
-x,-y,z
-x,y,z
x,-y,z
x,1/2+y,1/2+z
-x,1/2-y,1/2+z
-x,1/2+y,1/2+z
x,1/2-y,1/2+z
loop_
_atom_site_type_symbol
_atom_site_label
_atom_site_fract_x
_atom_site_fract_y
_atom_site_fract_z
Si Si1 0.887200 0.000000 0.363971
Si Si2 0.601739 0.690990 0.611507
Si Si3 0.204971 0.822334 0.001022
Si Si4 0.109272 0.624016 0.745487
Si Si5 0.197022 0.183920 0.490992
Si Si6 0.601729 0.189944 0.437250
Si Si7 0.890134 0.128144 0.747783
Si Si8 0.888374 0.500000 0.177774
O O1 0.858556 0.940541 0.289294
O O2 0.854987 0.000000 0.520992
O O3 0.000000 0.000000 0.364679
O O4 0.500000 0.662658 0.595290
O O5 0.691914 0.660123 0.549659
O O6 0.597704 0.750676 0.524767
O O7 0.613917 0.701605 0.774385
O O8 0.196274 0.752761 0.022229
O O9 0.176266 0.836243 0.847642
O O10 0.134528 0.858713 0.093238
O O11 0.158058 0.671094 0.841794
O O12 0.000000 0.626780 0.766991
O O13 0.303400 0.161395 0.490173
O O14 0.132240 0.150222 0.596215
O O15 0.500000 0.161385 0.453656
O O16 0.000000 0.135633 0.776755
O O17 0.864658 0.059887 0.752143
O O18 0.000000 0.500000 0.168108
#
# Coordination Sequence:
#
# PCOD9359407 Si02
#       8
#     4   8   8   8   8   8   8   4
#     4   9  18  35  57  75  94 133 191 236 258 295
#     4   9  18  33  52  75 106 141 177 219 263 313
#     4  11  23  34  49  83 115 141 172 213 271 329
#     4  11  21  35  54  76 105 141 183 222 260 310
#     4  11  21  34  53  79 110 147 174 211 265 331
#     4   9  18  32  51  76 106 140 178 220 262 311
#     4  11  23  37  55  76 108 147 183 223 261 309
#     4   9  18  37  57  73  94 135 193 232 258 297
#
# _framework density 17.208953000000001
#
# number of rings (size 3 to 8) (size 9 to 14) (size 15 to 20)
#    0.000    1.857    2.857    1.714    6.000    4.000 
#    0.000    2.143    0.000    0.000    0.000    6.000 
#    0.000    0.000    0.000    0.000    0.000    0.000 
#
# Total GULP energy -155935.378580 kJ/mol
# GULP energy per Si atom -5569.120664 kJ/mol
# Density = 1.716979 g / cm^3
# Si number density = 17.208953 Si / 1000 Ang^3
#
#
#
# Elastic Constant Matrix: (Units=GPa)
#
#
# Indices 1 2 3 4 5 6 
#
# 1 74.6162 20.1545 -5.6755 0.0000 0.0000 0.0000
# 2 20.1545 49.6378 -6.0221 0.0000 0.0000 0.0000
# 3 -5.6755 -6.0221 28.9721 0.0000 0.0000 0.0000
# 4 0.0000 0.0000 0.0000 1.2859 0.0000 0.0000
# 5 0.0000 0.0000 0.0000 0.0000 28.9364 0.0000
# 6 0.0000 0.0000 0.0000 0.0000 0.0000 -4.4134
#
#
#
# Elastic Compliance Matrix: (Units=1/GPa)
#
#
# Indices 1 2 3 4 5 6 
#
# 1 0.015137 -0.005936 0.001731 0.000000 0.000000 0.000000
# 2 -0.005936 0.022995 0.003617 0.000000 0.000000 0.000000
# 3 0.001731 0.003617 0.035607 0.000000 0.000000 0.000000
# 4 0.000000 0.000000 0.000000 0.777646 0.000000 0.000000
# 5 0.000000 0.000000 0.000000 0.000000 0.034559 0.000000
# 6 0.000000 0.000000 0.000000 0.000000 0.000000 -0.226584
#
#
# Mechanical properties :
#
#
# Convention : Reuss Voigt Hill
#
# Bulk Modulus (GPa) = 13.78108 18.90444 16.34276
# Shear Modulus (GPa) = 7.30223 14.81308 11.05765
#
# Velocity S-wave (km/s) = 2.06216 2.93708 2.53761
# Velocity P-wave (km/s) = 3.70074 4.74458 4.25479
#
# Compressibility (1/GPa) = 0.07256325
#
# Stress axis : x y z
#
# Youngs Moduli (GPa) = 66.06338 43.48785 28.08443
#
# Poissons Ratio (x) = 0.25814 -0.04863
# Poissons Ratio (y) = 0.39215 -0.10158
# Poissons Ratio (z) = -0.11438 -0.15729
#
# Static dielectric constant tensor:
#      x y z
#    x 1.623000 0.000000 0.000000 
#    y 0.000000 1.575350 0.000000 
#    z 0.000000 0.000000 1.566130 
# 
# From -- ./inp_files/5762.got.cif
#   From: 2010.05.17/outbox.cif.g08.bks.cpg/sg38_3_cif.got.tgz:5762.got - 2010.06.03 18:07:57.
