data_PCOD9359916
_publ_section_title
;
Structure prediction by ZEFSAII (Michael W. Deem and Ramdas Pophale) SiO2 
 PCOD9359916
Probable space group: A B M 2
;
_chemical_formula_sum "Si O2"
_cell_formula_units_Z 64
_cell_length_a 15.000206
_cell_length_b 8.630669
_cell_length_c 25.226378
_cell_angle_alpha 90.000000
_cell_angle_beta 90.000000
_cell_angle_gamma 90.000000
_cell_volume 3265.852629
_symmetry_space_group_name_H-M "A B M 2"
_symmetry_group_IT_number 39
_symmetry_cell_setting 'orthorhombic'
loop_
_space_group_symop_operation_xyz
x,y,z
-x,-y,z
-x,1/2+y,z
x,1/2-y,z
x,1/2+y,1/2+z
-x,1/2-y,1/2+z
-x,y,1/2+z
x,-y,1/2+z
loop_
_atom_site_type_symbol
_atom_site_label
_atom_site_fract_x
_atom_site_fract_y
_atom_site_fract_z
Si Si1 0.787839 0.436203 0.822310
Si Si2 0.593592 0.433568 0.347900
Si Si3 0.899394 0.435104 0.717956
Si Si4 0.820429 0.931794 0.932884
Si Si5 0.092993 0.931156 0.539408
Si Si6 0.780892 0.434012 0.122898
Si Si7 0.365565 0.566751 0.961117
Si Si8 0.406307 0.063093 0.581415
O O1 0.785991 0.250000 0.826655
O O2 0.685017 0.495217 0.823944
O O3 0.843665 0.481031 0.770447
O O4 0.835575 0.508424 0.873876
O O5 0.500000 0.500000 0.326402
O O6 0.595816 0.250000 0.341411
O O7 0.595843 0.476436 0.410600
O O8 0.905841 0.250000 0.717122
O O9 0.840089 0.489604 0.668407
O O10 0.000000 0.500000 0.716906
O O11 0.793887 0.750000 0.930916
O O12 0.739131 0.033195 0.955272
O O13 0.897536 0.945487 0.976098
O O14 0.100352 0.750000 0.553013
O O15 0.170887 0.023855 0.568044
O O16 0.000000 0.000000 0.558006
O O17 0.780808 0.250000 0.130941
O O18 0.678835 0.488038 0.115823
O O19 0.384075 0.750000 0.955306
O O20 0.394944 0.514071 0.019584
O O21 0.406563 0.250000 0.581112
O O22 0.500000 0.000000 0.601349
#
# Coordination Sequence:
#
# PCOD9359916 Si02
#       8
#     8   8   8   8   8   8   8   8
#     4  10  22  40  62  88 120 156 199 249 303 358
#     4  11  21  34  55  86 123 163 206 247 296 353
#     4  11  25  45  69  94 117 152 199 251 307 363
#     4  10  20  34  55  85 120 159 198 241 298 354
#     4  11  23  37  57  86 120 159 198 243 299 362
#     4  11  23  42  64  88 120 157 200 251 303 355
#     4  10  18  32  53  81 119 161 203 244 291 348
#     4  10  22  36  56  86 119 159 200 242 293 351
#
# _framework density 19.596720000000001
#
# number of rings (size 3 to 8) (size 9 to 14) (size 15 to 20)
#    0.000    1.500    1.250    5.625    0.000    7.000 
#    0.000    3.125    0.000    1.500    0.000    0.000 
#    0.000    0.000    0.000    0.000    0.000    0.000 
#
# Total GULP energy -178697.507968 kJ/mol
# GULP energy per Si atom -5584.297124 kJ/mol
# Density = 1.955212 g / cm^3
# Si number density = 19.596720 Si / 1000 Ang^3
#
#
#
# Elastic Constant Matrix: (Units=GPa)
#
#
# Indices 1 2 3 4 5 6 
#
# 1 140.6024 29.9106 59.4771 0.0000 0.0000 0.0000
# 2 29.9106 48.6286 27.5922 0.0000 0.0000 0.0000
# 3 59.4771 27.5922 107.3279 0.0000 0.0000 0.0000
# 4 0.0000 0.0000 0.0000 19.1782 0.0000 0.0000
# 5 0.0000 0.0000 0.0000 0.0000 15.0955 0.0000
# 6 0.0000 0.0000 0.0000 0.0000 0.0000 28.3718
#
#
#
# Elastic Compliance Matrix: (Units=1/GPa)
#
#
# Indices 1 2 3 4 5 6 
#
# 1 0.009756 -0.003434 -0.004524 0.000000 0.000000 0.000000
# 2 -0.003434 0.025285 -0.004597 0.000000 0.000000 0.000000
# 3 -0.004524 -0.004597 0.013006 0.000000 0.000000 0.000000
# 4 0.000000 0.000000 0.000000 0.052143 0.000000 0.000000
# 5 0.000000 0.000000 0.000000 0.000000 0.066245 0.000000
# 6 0.000000 0.000000 0.000000 0.000000 0.000000 0.035246
#
#
# Mechanical properties :
#
#
# Convention : Reuss Voigt Hill
#
# Bulk Modulus (GPa) = 43.59782 58.94651 51.27217
# Shear Modulus (GPa) = 21.32767 24.50102 22.91435
#
# Velocity S-wave (km/s) = 3.30256 3.53974 3.42321
# Velocity P-wave (km/s) = 6.06946 6.84481 6.46876
#
# Compressibility (1/GPa) = 0.02293693
#
# Stress axis : x y z
#
# Youngs Moduli (GPa) = 102.49630 39.54945 76.88744
#
# Poissons Ratio (x) = 0.13582 0.34782
# Poissons Ratio (y) = 0.35199 0.35347
# Poissons Ratio (z) = 0.46367 0.18182
#
# Static dielectric constant tensor:
#      x y z
#    x 1.700430 0.000000 0.000000 
#    y 0.000000 1.664950 0.000000 
#    z 0.000000 0.000000 1.691350 
# 
# From -- ./inp_files/16144.got.cif
#   From: 2010.05.17/outbox.cif.g08.bks.cpg/sg39_9_cif.got.tgz:16144.got - 2010.06.03 18:22:40.
