data_PCOD9359890
_publ_section_title
;
Structure prediction by ZEFSAII (Michael W. Deem and Ramdas Pophale) SiO2 
 PCOD9359890
Probable space group: A B M 2
;
_chemical_formula_sum "Si O2"
_cell_formula_units_Z 64
_cell_length_a 20.974944
_cell_length_b 16.029863
_cell_length_c 9.455142
_cell_angle_alpha 90.000000
_cell_angle_beta 90.000000
_cell_angle_gamma 90.000000
_cell_volume 3179.059646
_symmetry_space_group_name_H-M "A B M 2"
_symmetry_group_IT_number 39
_symmetry_cell_setting 'orthorhombic'
loop_
_space_group_symop_operation_xyz
x,y,z
-x,-y,z
-x,1/2+y,z
x,1/2-y,z
x,1/2+y,1/2+z
-x,1/2-y,1/2+z
-x,y,1/2+z
x,-y,1/2+z
loop_
_atom_site_type_symbol
_atom_site_label
_atom_site_fract_x
_atom_site_fract_y
_atom_site_fract_z
Si Si1 0.535617 0.411031 0.123760
Si Si2 0.639852 0.049313 0.344101
Si Si3 0.972544 0.591007 0.642528
Si Si4 0.918707 0.154655 0.438684
Si Si5 0.146766 0.479262 0.480134
Si Si6 0.572962 0.625927 0.340407
Si Si7 0.231819 0.476616 0.223549
Si Si8 0.325598 0.657678 0.606423
O O1 0.500000 0.500000 0.086420
O O2 0.602809 0.421842 0.204105
O O3 0.487393 0.375555 0.239180
O O4 0.546981 0.349712 0.993005
O O5 0.639343 0.110578 0.477440
O O6 0.601173 0.965476 0.379790
O O7 0.712429 0.025934 0.305728
O O8 0.947579 0.637153 0.782206
O O9 0.915464 0.569012 0.533645
O O10 0.000000 0.500000 0.687520
O O11 0.026302 0.640375 0.556163
O O12 0.894769 0.250000 0.446437
O O13 0.870055 0.077923 0.465273
O O14 0.176165 0.451698 0.331728
O O15 0.199986 0.469513 0.600522
O O16 0.628997 0.662062 0.244288
O O17 0.266191 0.398231 0.152513
O O18 0.307484 0.750000 0.561742
#
# Coordination Sequence:
#
# PCOD9359890 Si02
#       8
#     8   8   8   8   8   8   8   8
#     4  10  18  31  59  92 116 148 205 254 292 349
#     4  10  20  36  60  87 114 157 199 250 296 360
#     4  10  21  39  63  90 123 167 206 246 295 363
#     4  11  23  39  62  95 130 159 198 254 309 351
#     4  11  22  40  66  91 118 163 212 247 290 364
#     4  10  19  34  59  87 118 154 202 250 298 361
#     4  11  22  40  65  89 117 160 209 248 293 359
#     4  11  24  41  60  87 123 158 198 254 317 364
#
# _framework density 20.131737999999999
#
# number of rings (size 3 to 8) (size 9 to 14) (size 15 to 20)
#    0.000    1.500    2.500    5.625    3.500    0.500 
#    0.000    4.375    0.000    0.000    0.000    0.000 
#    0.000    0.000    0.000    0.000    0.000    0.000 
#
# Total GULP energy -178584.874753 kJ/mol
# GULP energy per Si atom -5580.777336 kJ/mol
# Density = 2.008592 g / cm^3
# Si number density = 20.131738 Si / 1000 Ang^3
#
#
#
# Elastic Constant Matrix: (Units=GPa)
#
#
# Indices 1 2 3 4 5 6 
#
# 1 58.5106 4.3604 15.3007 0.0000 0.0000 0.0000
# 2 4.3604 53.1949 22.6194 0.0000 0.0000 0.0000
# 3 15.3007 22.6194 95.9100 0.0000 0.0000 0.0000
# 4 0.0000 0.0000 0.0000 5.3566 0.0000 0.0000
# 5 0.0000 0.0000 0.0000 0.0000 41.0946 0.0000
# 6 0.0000 0.0000 0.0000 0.0000 0.0000 -21.7563
#
#
#
# Elastic Compliance Matrix: (Units=1/GPa)
#
#
# Indices 1 2 3 4 5 6 
#
# 1 0.017839 -0.000280 -0.002780 0.000000 0.000000 0.000000
# 2 -0.000280 0.020899 -0.004884 0.000000 0.000000 0.000000
# 3 -0.002780 -0.004884 0.012022 0.000000 0.000000 0.000000
# 4 0.000000 0.000000 0.000000 0.186687 0.000000 0.000000
# 5 0.000000 0.000000 0.000000 0.000000 0.024334 0.000000
# 6 0.000000 0.000000 0.000000 0.000000 0.000000 -0.045964
#
#
# Mechanical properties :
#
#
# Convention : Reuss Voigt Hill
#
# Bulk Modulus (GPa) = 28.67713 32.46406 30.57060
# Shear Modulus (GPa) = 20.54836 15.96130 18.25483
#
# Velocity S-wave (km/s) = 3.19830 2.81880 3.01453
# Velocity P-wave (km/s) = 5.28341 5.17252 5.22826
#
# Compressibility (1/GPa) = 0.03487099
#
# Stress axis : x y z
#
# Youngs Moduli (GPa) = 56.05787 47.85028 83.18263
#
# Poissons Ratio (x) = 0.01341 0.23123
# Poissons Ratio (y) = 0.01571 0.40626
# Poissons Ratio (z) = 0.15583 0.23370
#
# Static dielectric constant tensor:
#      x y z
#    x 1.715420 0.000000 0.000000 
#    y 0.000000 1.715620 0.000000 
#    z 0.000000 0.000000 1.782100 
# 
# From -- ./inp_files/4007.got.cif
#   From: 2010.05.17/outbox.cif.g08.bks.cpg/sg39_3_cif.got.tgz:4007.got - 2010.06.03 18:22:40.
