data_PCOD9359880
_publ_section_title
;
Structure prediction by ZEFSAII (Michael W. Deem and Ramdas Pophale) SiO2 
 PCOD9359880
Probable space group: A B M 2
;
_chemical_formula_sum "Si O2"
_cell_formula_units_Z 32
_cell_length_a 9.257188
_cell_length_b 8.659179
_cell_length_c 21.441793
_cell_angle_alpha 90.000000
_cell_angle_beta 90.000000
_cell_angle_gamma 90.000000
_cell_volume 1718.766578
_symmetry_space_group_name_H-M "A B M 2"
_symmetry_group_IT_number 39
_symmetry_cell_setting 'orthorhombic'
loop_
_space_group_symop_operation_xyz
x,y,z
-x,-y,z
-x,1/2+y,z
x,1/2-y,z
x,1/2+y,1/2+z
-x,1/2-y,1/2+z
-x,y,1/2+z
x,-y,1/2+z
loop_
_atom_site_type_symbol
_atom_site_label
_atom_site_fract_x
_atom_site_fract_y
_atom_site_fract_z
Si Si1 0.337060 0.434438 0.912420
Si Si2 0.337871 0.565229 0.670956
Si Si3 0.336051 0.065561 0.541924
Si Si4 0.161041 0.564800 0.795903
O O1 0.500000 0.500000 0.906024
O O2 0.343743 0.250000 0.915152
O O3 0.245101 0.491065 0.853962
O O4 0.273576 0.499131 0.977645
O O5 0.500000 0.500000 0.679386
O O6 0.346757 0.750000 0.663774
O O7 0.273376 0.493621 0.607372
O O8 0.244600 0.527947 0.731743
O O9 0.338678 0.250000 0.540090
O O10 0.500000 0.000000 0.542834
O O11 0.159457 0.750000 0.802957
O O12 0.000000 0.500000 0.793406
#
# Coordination Sequence:
#
# PCOD9359880 Si02
#       4
#     8   8   8   8
#     4  11  21  36  59  85 114 146 185 230 277 329
#     4  10  20  35  57  84 112 143 182 226 275 329
#     4  10  18  31  54  83 113 142 179 226 277 328
#     4  11  24  40  57  80 112 149 188 230 278 330
#
# _framework density 18.618003000000002
#
# number of rings (size 3 to 8) (size 9 to 14) (size 15 to 20)
#    0.000    1.500    0.000    9.750    0.000    6.000 
#    0.000    1.250    0.000    3.000    0.000    0.000 
#    0.000    0.000    0.000    0.000    0.000    0.000 
#
# Total GULP energy -89384.674330 kJ/mol
# GULP energy per Si atom -5586.542146 kJ/mol
# Density = 1.857563 g / cm^3
# Si number density = 18.618003 Si / 1000 Ang^3
#
#
#
# Elastic Constant Matrix: (Units=GPa)
#
#
# Indices 1 2 3 4 5 6 
#
# 1 75.6263 47.6583 77.1847 0.0000 0.0000 0.0000
# 2 47.6583 153.2555 110.8909 0.0000 0.0000 0.0000
# 3 77.1847 110.8909 225.9940 0.0000 0.0000 0.0000
# 4 0.0000 0.0000 0.0000 34.1215 0.0000 0.0000
# 5 0.0000 0.0000 0.0000 0.0000 -9.2643 0.0000
# 6 0.0000 0.0000 0.0000 0.0000 0.0000 25.3958
#
#
#
# Elastic Compliance Matrix: (Units=1/GPa)
#
#
# Indices 1 2 3 4 5 6 
#
# 1 0.020705 -0.002050 -0.006066 0.000000 0.000000 0.000000
# 2 -0.002050 0.010320 -0.004364 0.000000 0.000000 0.000000
# 3 -0.006066 -0.004364 0.008638 0.000000 0.000000 0.000000
# 4 0.000000 0.000000 0.000000 0.029307 0.000000 0.000000
# 5 0.000000 0.000000 0.000000 0.000000 -0.107941 0.000000
# 6 0.000000 0.000000 0.000000 0.000000 0.000000 0.039377
#
#
# Mechanical properties :
#
#
# Convention : Reuss Voigt Hill
#
# Bulk Modulus (GPa) = 68.00639 102.92705 85.46672
# Shear Modulus (GPa) = 165.20027 24.66005 94.93016
#
# Velocity S-wave (km/s) = 9.42996 3.64335 7.14836
# Velocity P-wave (km/s) = 12.45680 8.54999 10.68350
#
# Compressibility (1/GPa) = 0.01470450
#
# Stress axis : x y z
#
# Youngs Moduli (GPa) = 48.29637 96.89983 115.77057
#
# Poissons Ratio (x) = 0.19863 0.70224
# Poissons Ratio (y) = 0.09900 0.50519
# Poissons Ratio (z) = 0.29296 0.42284
#
# Static dielectric constant tensor:
#      x y z
#    x 1.620390 0.000000 0.000000 
#    y 0.000000 1.621840 0.000000 
#    z 0.000000 0.000000 1.682630 
# 
# From -- ./inp_files/13731.got.cif
#   From: 2010.05.17/outbox.cif.g08.bks.cpg/sg39_7_cif.got.tgz:13731.got - 2010.06.03 18:22:40.
