data_PCOD9359352
_publ_section_title
;
Structure prediction by ZEFSAII (Michael W. Deem and Ramdas Pophale) SiO2 
 PCOD9359352
Probable space group: A M M 2
;
_chemical_formula_sum "Si O2"
_cell_formula_units_Z 40
_cell_length_a 11.602195
_cell_length_b 8.813134
_cell_length_c 20.807607
_cell_angle_alpha 90.000000
_cell_angle_beta 90.000000
_cell_angle_gamma 90.000000
_cell_volume 2127.613173
_symmetry_space_group_name_H-M "A M M 2"
_symmetry_group_IT_number 38
_symmetry_cell_setting 'orthorhombic'
loop_
_space_group_symop_operation_xyz
x,y,z
-x,-y,z
-x,y,z
x,-y,z
x,1/2+y,1/2+z
-x,1/2-y,1/2+z
-x,1/2+y,1/2+z
x,1/2-y,1/2+z
loop_
_atom_site_type_symbol
_atom_site_label
_atom_site_fract_x
_atom_site_fract_y
_atom_site_fract_z
Si Si1 0.362489 0.825131 0.451260
Si Si2 0.238050 0.180582 0.830791
Si Si3 0.000000 0.681938 0.878496
Si Si4 0.635160 0.817107 0.207619
Si Si5 0.000000 0.182182 0.531158
Si Si6 0.240448 0.182097 0.073564
O O1 0.500000 0.825246 0.451243
O O2 0.315751 0.734236 0.390488
O O3 0.315303 0.749413 0.515604
O O4 0.320996 0.000000 0.447389
O O5 0.113164 0.252369 0.844515
O O6 0.297480 0.241799 0.766359
O O7 0.229058 0.000000 0.828991
O O8 0.000000 0.500000 0.874615
O O9 0.000000 0.723096 0.954792
O O10 0.500000 0.772928 0.206324
O O11 0.698654 0.779114 0.140880
O O12 0.639108 0.000000 0.215303
O O13 0.886449 0.249122 0.564476
O O14 0.000000 0.000000 0.535216
O O15 0.234882 0.000000 0.068481
#
# Coordination Sequence:
#
# PCOD9359352 Si02
#       6
#     8   8   4   8   4   8
#     4  11  23  39  61  90 125 166 210 257 313 376
#     4  12  25  40  64  95 126 163 211 265 316 367
#     4  11  23  42  67  92 126 168 210 257 317 380
#     4  10  23  44  66  91 129 173 212 254 312 379
#     4  11  23  40  65  94 128 168 210 257 315 378
#     4  11  23  40  66  95 125 164 211 262 314 369
#
# _framework density 18.800411
#
# number of rings (size 3 to 8) (size 9 to 14) (size 15 to 20)
#    0.000    1.000    2.000    4.800    0.000    8.400 
#    0.000    1.000    0.000    0.000    0.000    0.000 
#    0.000    0.000    0.000    0.000    0.000    0.000 
#
# Total GULP energy -111890.392225 kJ/mol
# GULP energy per Si atom -5594.519611 kJ/mol
# Density = 1.875762 g / cm^3
# Si number density = 18.800411 Si / 1000 Ang^3
#
#
#
# Elastic Constant Matrix: (Units=GPa)
#
#
# Indices 1 2 3 4 5 6 
#
# 1 168.3799 71.1284 97.1332 0.0000 0.0000 0.0000
# 2 71.1284 91.7584 81.8113 0.0000 0.0000 0.0000
# 3 97.1332 81.8113 177.6491 0.0000 0.0000 0.0000
# 4 0.0000 0.0000 0.0000 34.6284 0.0000 0.0000
# 5 0.0000 0.0000 0.0000 0.0000 32.8677 0.0000
# 6 0.0000 0.0000 0.0000 0.0000 0.0000 -154.5198
#
#
#
# Elastic Compliance Matrix: (Units=1/GPa)
#
#
# Indices 1 2 3 4 5 6 
#
# 1 0.009767 -0.004767 -0.003145 0.000000 0.000000 0.000000
# 2 -0.004767 0.020817 -0.006980 0.000000 0.000000 0.000000
# 3 -0.003145 -0.006980 0.010563 0.000000 0.000000 0.000000
# 4 0.000000 0.000000 0.000000 0.028878 0.000000 0.000000
# 5 0.000000 0.000000 0.000000 0.000000 0.030425 0.000000
# 6 0.000000 0.000000 0.000000 0.000000 0.000000 -0.006472
#
#
# Mechanical properties :
#
#
# Convention : Reuss Voigt Hill
#
# Bulk Modulus (GPa) = 88.00711 104.21481 96.11096
# Shear Modulus (GPa) = 39.20026 -4.89045 17.15491
#
# Velocity S-wave (km/s) = 4.57122 -1.61459 3.02400
# Velocity P-wave (km/s) = 8.64721 7.21642 7.96401
#
# Compressibility (1/GPa) = 0.01136272
#
# Stress axis : x y z
#
# Youngs Moduli (GPa) = 102.38690 48.03782 94.66851
#
# Poissons Ratio (x) = 0.22900 0.29773
# Poissons Ratio (y) = 0.48808 0.66081
# Poissons Ratio (z) = 0.32200 0.33531
#
# Static dielectric constant tensor:
#      x y z
#    x 1.643970 0.000000 0.000000 
#    y 0.000000 1.632290 0.000000 
#    z 0.000000 0.000000 1.614250 
# 
# From -- ./inp_files/20461.got.cif
#   From: 2010.05.17/outbox.cif.g08.bks.cpg/sg38_11_cif.got.tgz:20461.got - 2010.06.03 18:07:57.
