data_PCOD9359944
_publ_section_title
;
Structure prediction by ZEFSAII (Michael W. Deem and Ramdas Pophale) SiO2 
 PCOD9359944
Probable space group: A B M 2
;
_chemical_formula_sum "Si O2"
_cell_formula_units_Z 56
_cell_length_a 13.480595
_cell_length_b 22.960606
_cell_length_c 8.304518
_cell_angle_alpha 90.000000
_cell_angle_beta 90.000000
_cell_angle_gamma 90.000000
_cell_volume 2570.436256
_symmetry_space_group_name_H-M "A B M 2"
_symmetry_group_IT_number 39
_symmetry_cell_setting 'orthorhombic'
loop_
_space_group_symop_operation_xyz
x,y,z
-x,-y,z
-x,1/2+y,z
x,1/2-y,z
x,1/2+y,1/2+z
-x,1/2-y,1/2+z
-x,y,1/2+z
x,-y,1/2+z
loop_
_atom_site_type_symbol
_atom_site_label
_atom_site_fract_x
_atom_site_fract_y
_atom_site_fract_z
Si Si1 0.085894 0.049381 0.396740
Si Si2 0.469140 0.432185 0.071585
Si Si3 0.162429 0.750000 0.586733
Si Si4 0.650417 0.905736 0.744878
Si Si5 0.278584 0.465822 0.207516
Si Si6 0.994592 0.127007 0.128053
Si Si7 0.965776 0.250000 0.253394
Si Si8 0.198651 0.631014 0.475866
O O1 0.196765 0.033773 0.347060
O O2 0.057669 0.101323 0.274533
O O3 0.079936 0.076938 0.573139
O O4 0.000000 0.000000 0.385660
O O5 0.500000 0.500000 0.053241
O O6 0.563989 0.393035 0.116109
O O7 0.386020 0.434230 0.214979
O O8 0.413053 0.414608 0.909380
O O9 0.092826 0.750000 0.422355
O O10 0.223003 0.690140 0.574368
O O11 0.087343 0.750000 0.739248
O O12 0.694905 0.967006 0.686037
O O13 0.742920 0.867426 0.807196
O O14 0.228339 0.429043 0.063588
O O15 0.079433 0.130948 0.988663
O O16 0.946053 0.189255 0.161152
#
# Coordination Sequence:
#
# PCOD9359944 Si02
#       8
#     8   8   4   8   8   8   4   8
#     4  11  21  33  49  75 112 147 175 212 274 341
#     4   9  17  30  50  76 104 135 175 221 268 320
#     4  10  20  38  60  82 108 148 196 236 274 322
#     4  10  18  33  54  78 106 135 175 225 275 326
#     4   9  19  32  50  78 108 142 181 221 275 336
#     4  10  20  34  52  76 105 144 186 223 265 318
#     4  10  20  36  58  78 102 140 194 242 262 298
#     4   9  19  34  54  80 110 145 184 225 275 334
#
# _framework density 21.786185
#
# number of rings (size 3 to 8) (size 9 to 14) (size 15 to 20)
#    0.000    2.286    0.000    4.286    0.000    2.286 
#    0.000    4.286    0.000    3.429    0.000    0.000 
#    0.000    0.000    0.000    0.000    0.000    0.000 
#
# Total GULP energy -155889.731323 kJ/mol
# GULP energy per Si atom -5567.490404 kJ/mol
# Density = 2.173660 g / cm^3
# Si number density = 21.786185 Si / 1000 Ang^3
#
#
#
# Elastic Constant Matrix: (Units=GPa)
#
#
# Indices 1 2 3 4 5 6 
#
# 1 74.1441 17.9469 36.9297 0.0000 0.0000 0.0000
# 2 17.9469 83.9143 16.6348 0.0000 0.0000 0.0000
# 3 36.9297 16.6348 52.0752 0.0000 0.0000 0.0000
# 4 0.0000 0.0000 0.0000 30.2102 0.0000 0.0000
# 5 0.0000 0.0000 0.0000 0.0000 42.0155 0.0000
# 6 0.0000 0.0000 0.0000 0.0000 0.0000 17.5391
#
#
#
# Elastic Compliance Matrix: (Units=1/GPa)
#
#
# Indices 1 2 3 4 5 6 
#
# 1 0.021064 -0.001648 -0.014411 0.000000 0.000000 0.000000
# 2 -0.001648 0.012852 -0.002936 0.000000 0.000000 0.000000
# 3 -0.014411 -0.002936 0.030361 0.000000 0.000000 0.000000
# 4 0.000000 0.000000 0.000000 0.033101 0.000000 0.000000
# 5 0.000000 0.000000 0.000000 0.000000 0.023801 0.000000
# 6 0.000000 0.000000 0.000000 0.000000 0.000000 0.057015
#
#
# Mechanical properties :
#
#
# Convention : Reuss Voigt Hill
#
# Bulk Modulus (GPa) = 38.04498 39.23960 38.64229
# Shear Modulus (GPa) = 22.22733 27.19442 24.71087
#
# Velocity S-wave (km/s) = 3.19760 3.53688 3.37151
# Velocity P-wave (km/s) = 5.57975 5.89319 5.73861
#
# Compressibility (1/GPa) = 0.02628468
#
# Stress axis : x y z
#
# Youngs Moduli (GPa) = 47.47376 77.81172 32.93691
#
# Poissons Ratio (x) = 0.12825 0.47467
# Poissons Ratio (y) = 0.07825 0.09672
# Poissons Ratio (z) = 0.68417 0.22849
#
# Static dielectric constant tensor:
#      x y z
#    x 1.883610 0.000000 0.000000 
#    y 0.000000 1.816160 0.000000 
#    z 0.000000 0.000000 1.896330 
# 
# From -- ./inp_files/3485.got.cif
#   From: 2010.05.17/outbox.cif.g08.bks.cpg/sg39_2_cif.got.tgz:3485.got - 2010.06.03 18:22:40.
