data_PCOD9359656
_publ_section_title
;
Structure prediction by ZEFSAII (Michael W. Deem and Ramdas Pophale) SiO2 
 PCOD9359656
Probable space group: A B M 2
;
_chemical_formula_sum "Si O2"
_cell_formula_units_Z 56
_cell_length_a 33.688325
_cell_length_b 14.483588
_cell_length_c 5.309831
_cell_angle_alpha 90.000000
_cell_angle_beta 90.000000
_cell_angle_gamma 90.000000
_cell_volume 2590.814263
_symmetry_space_group_name_H-M "A B M 2"
_symmetry_group_IT_number 39
_symmetry_cell_setting 'orthorhombic'
loop_
_space_group_symop_operation_xyz
x,y,z
-x,-y,z
-x,1/2+y,z
x,1/2-y,z
x,1/2+y,1/2+z
-x,1/2-y,1/2+z
-x,y,1/2+z
x,-y,1/2+z
loop_
_atom_site_type_symbol
_atom_site_label
_atom_site_fract_x
_atom_site_fract_y
_atom_site_fract_z
Si Si1 0.639291 0.890193 0.428590
Si Si2 0.274768 0.938618 0.057989
Si Si3 0.893946 0.059548 0.064014
Si Si4 0.607197 0.101762 0.428550
Si Si5 0.190283 0.561232 0.959221
Si Si6 0.516208 0.395681 0.594403
Si Si7 0.978882 0.860492 0.448632
O O1 0.684846 0.883990 0.510906
O O2 0.612551 0.854582 0.655789
O O3 0.625425 0.998145 0.398835
O O4 0.631546 0.852199 0.153053
O O5 0.275718 0.017632 0.837912
O O6 0.232345 0.890063 0.011009
O O7 0.933841 0.115086 0.013397
O O8 0.894191 0.979277 0.848850
O O9 0.851808 0.109671 0.011267
O O10 0.561815 0.099414 0.514216
O O11 0.190350 0.519980 0.675376
O O12 0.500000 0.500000 0.629447
O O13 0.491281 0.353125 0.366627
O O14 0.982525 0.750000 0.440981
O O15 0.007087 0.894866 0.675259
#
# Coordination Sequence:
#
# PCOD9359656 Si02
#       7
#     8   8   8   8   8   8   8
#     4  10  14  20  26  37  48  64  84 116 151 197
#     4  10  14  22  31  44  60  80 103 127 169 213
#     4  10  19  32  48  70  93 119 152 185 221 260
#     4  10  16  20  26  35  46  59  88 118 152 203
#     4   8  16  25  38  54  76  99 123 156 189 234
#     4  10  16  22  26  30  39  57  79 112 155 197
#     4  10  21  35  50  70  96 124 153 187 225 263
#
# _framework density 21.614827999999999
#
# number of rings (size 3 to 8) (size 9 to 14) (size 15 to 20)
#    0.000    2.286    2.857    5.143    0.000    1.714 
#    0.000    0.000    0.000    0.000    0.000    0.000 
#    0.000    0.000    0.000    0.000    0.000    0.000 
#
# Total GULP energy -156066.779696 kJ/mol
# GULP energy per Si atom -5573.813561 kJ/mol
# Density = 2.156563 g / cm^3
# Si number density = 21.614828 Si / 1000 Ang^3
#
#
#
# Elastic Constant Matrix: (Units=GPa)
#
#
# Indices 1 2 3 4 5 6 
#
# 1 109.6343 -8.8448 -22.9965 0.0000 0.0000 0.0000
# 2 -8.8448 50.3829 -0.2856 0.0000 0.0000 0.0000
# 3 -22.9965 -0.2856 127.3356 0.0000 0.0000 0.0000
# 4 0.0000 0.0000 0.0000 -12.7677 0.0000 0.0000
# 5 0.0000 0.0000 0.0000 0.0000 38.4954 0.0000
# 6 0.0000 0.0000 0.0000 0.0000 0.0000 -31.3045
#
#
#
# Elastic Compliance Matrix: (Units=1/GPa)
#
#
# Indices 1 2 3 4 5 6 
#
# 1 0.009624 0.001699 0.001742 0.000000 0.000000 0.000000
# 2 0.001699 0.020148 0.000352 0.000000 0.000000 0.000000
# 3 0.001742 0.000352 0.008169 0.000000 0.000000 0.000000
# 4 0.000000 0.000000 0.000000 -0.078322 0.000000 0.000000
# 5 0.000000 0.000000 0.000000 0.000000 0.025977 0.000000
# 6 0.000000 0.000000 0.000000 0.000000 0.000000 -0.031944
#
#
# Mechanical properties :
#
#
# Convention : Reuss Voigt Hill
#
# Bulk Modulus (GPa) = 21.96494 24.78878 23.37686
# Shear Modulus (GPa) = -129.00016 20.18327 -54.40844
#
# Velocity S-wave (km/s) = -7.73375 3.05908 -5.02259
# Velocity P-wave (km/s) = 8.34049 4.89598 4.77458
#
# Compressibility (1/GPa) = 0.04552710
#
# Stress axis : x y z
#
# Youngs Moduli (GPa) = 103.91027 49.63191 122.41970
#
# Poissons Ratio (x) = -0.08434 -0.21323
# Poissons Ratio (y) = -0.17658 -0.04310
# Poissons Ratio (z) = -0.18099 -0.01747
#
# Static dielectric constant tensor:
#      x y z
#    x 1.813510 0.000000 0.000000 
#    y 0.000000 1.785110 0.000000 
#    z 0.000000 0.000000 1.846980 
# 
# From -- ./inp_files/1499.got.cif
#   From: 2010.05.17/outbox.cif.g08.bks.cpg/sg39_1_cif.got.tgz:1499.got - 2010.06.03 18:22:40.
