data_PCOD9359462
_publ_section_title
;
Structure prediction by ZEFSAII (Michael W. Deem and Ramdas Pophale) SiO2 
 PCOD9359462
Probable space group: A M M 2
;
_chemical_formula_sum "Si O2"
_cell_formula_units_Z 48
_cell_length_a 7.798941
_cell_length_b 9.395002
_cell_length_c 35.641749
_cell_angle_alpha 90.000000
_cell_angle_beta 90.000000
_cell_angle_gamma 90.000000
_cell_volume 2611.508954
_symmetry_space_group_name_H-M "A M M 2"
_symmetry_group_IT_number 38
_symmetry_cell_setting 'orthorhombic'
loop_
_space_group_symop_operation_xyz
x,y,z
-x,-y,z
-x,y,z
x,-y,z
x,1/2+y,1/2+z
-x,1/2-y,1/2+z
-x,1/2+y,1/2+z
x,1/2-y,1/2+z
loop_
_atom_site_type_symbol
_atom_site_label
_atom_site_fract_x
_atom_site_fract_y
_atom_site_fract_z
Si Si1 0.197644 0.826199 0.939020
Si Si2 0.204039 0.671376 0.126370
Si Si3 0.204997 0.660218 0.356588
Si Si4 0.296575 0.658496 0.784180
Si Si5 0.500000 0.827675 0.080907
Si Si6 0.205943 0.160050 0.711956
Si Si7 0.500000 0.327227 0.493232
O O1 0.261708 0.783550 0.897357
O O2 0.330291 0.779677 0.970816
O O3 0.000000 0.780683 0.945121
O O4 0.195842 0.000000 0.938313
O O5 0.224360 0.500000 0.121412
O O6 0.331405 0.759109 0.100039
O O7 0.254197 0.703468 0.169731
O O8 0.000000 0.702708 0.121212
O O9 0.273689 0.500000 0.350824
O O10 0.240016 0.754443 0.320579
O O11 0.000000 0.649512 0.360407
O O12 0.500000 0.648841 0.786471
O O13 0.221637 0.500000 0.784320
O O14 0.255251 0.737635 0.745528
O O15 0.500000 0.000000 0.084779
O O16 0.500000 0.789649 0.036814
O O17 0.000000 0.152260 0.711465
O O18 0.272248 0.000000 0.719079
O O19 0.500000 0.500000 0.491662
#
# Coordination Sequence:
#
# PCOD9359462 Si02
#       7
#     8   8   8   8   4   8   4
#     4   8  15  29  50  76 105 137 178 226 268 313
#     4   9  20  40  63  84 110 149 195 238 280 331
#     4   9  18  33  54  78 100 130 179 230 267 306
#     4  11  24  35  45  72 112 146 175 211 262 324
#     4  11  23  35  55  90 125 150 179 226 287 351
#     4   9  19  37  59  79  98 130 182 233 269 309
#     4   9  18  31  49  78 113 146 173 210 275 337
#
# _framework density 18.380178000000001
#
# number of rings (size 3 to 8) (size 9 to 14) (size 15 to 20)
#    0.000    2.667    0.000    3.250    2.333    5.667 
#    0.000    3.333    0.000    2.000    0.000    0.000 
#    0.000    0.000    0.000    0.000    0.000    0.000 
#
# Total GULP energy -133796.266158 kJ/mol
# GULP energy per Si atom -5574.844423 kJ/mol
# Density = 1.833834 g / cm^3
# Si number density = 18.380178 Si / 1000 Ang^3
#
#
#
# Elastic Constant Matrix: (Units=GPa)
#
#
# Indices 1 2 3 4 5 6 
#
# 1 78.9535 34.8352 72.6766 0.0000 0.0000 0.0000
# 2 34.8352 65.1793 82.9110 0.0000 0.0000 0.0000
# 3 72.6766 82.9110 189.8048 0.0000 0.0000 0.0000
# 4 0.0000 0.0000 0.0000 22.9834 0.0000 0.0000
# 5 0.0000 0.0000 0.0000 0.0000 37.6715 0.0000
# 6 0.0000 0.0000 0.0000 0.0000 0.0000 23.7536
#
#
#
# Elastic Compliance Matrix: (Units=1/GPa)
#
#
# Indices 1 2 3 4 5 6 
#
# 1 0.019687 -0.002099 -0.006621 0.000000 0.000000 0.000000
# 2 -0.002099 0.034752 -0.014377 0.000000 0.000000 0.000000
# 3 -0.006621 -0.014377 0.014084 0.000000 0.000000 0.000000
# 4 0.000000 0.000000 0.000000 0.043510 0.000000 0.000000
# 5 0.000000 0.000000 0.000000 0.000000 0.026545 0.000000
# 6 0.000000 0.000000 0.000000 0.000000 0.000000 0.042099
#
#
# Mechanical properties :
#
#
# Convention : Reuss Voigt Hill
#
# Bulk Modulus (GPa) = 44.78588 79.42036 62.10312
# Shear Modulus (GPa) = 21.33902 26.44937 23.89419
#
# Velocity S-wave (km/s) = 3.41101 3.79755 3.60946
# Velocity P-wave (km/s) = 6.31923 7.90773 7.15768
#
# Compressibility (1/GPa) = 0.02232846
#
# Stress axis : x y z
#
# Youngs Moduli (GPa) = 50.79614 28.77536 71.00370
#
# Poissons Ratio (x) = 0.06041 0.47011
# Poissons Ratio (y) = 0.10664 1.02079
# Poissons Ratio (z) = 0.33632 0.41369
#
# Static dielectric constant tensor:
#      x y z
#    x 1.648540 0.000000 0.000000 
#    y 0.000000 1.643340 0.000000 
#    z 0.000000 0.000000 1.648020 
# 
# From -- ./inp_files/24411.got.cif
#   From: 2010.05.17/outbox.cif.g08.bks.cpg/sg38_13_cif.got.tgz:24411.got - 2010.06.03 18:07:57.
