data_PCOD9359972
_publ_section_title
;
Structure prediction by ZEFSAII (Michael W. Deem and Ramdas Pophale) SiO2 
 PCOD9359972
Probable space group: A B M 2
;
_chemical_formula_sum "Si O2"
_cell_formula_units_Z 48
_cell_length_a 14.491460
_cell_length_b 8.520504
_cell_length_c 21.126287
_cell_angle_alpha 90.000000
_cell_angle_beta 90.000000
_cell_angle_gamma 90.000000
_cell_volume 2608.558630
_symmetry_space_group_name_H-M "A B M 2"
_symmetry_group_IT_number 39
_symmetry_cell_setting 'orthorhombic'
loop_
_space_group_symop_operation_xyz
x,y,z
-x,-y,z
-x,1/2+y,z
x,1/2-y,z
x,1/2+y,1/2+z
-x,1/2-y,1/2+z
-x,y,1/2+z
x,-y,1/2+z
loop_
_atom_site_type_symbol
_atom_site_label
_atom_site_fract_x
_atom_site_fract_y
_atom_site_fract_z
Si Si1 0.396526 0.939362 0.900090
Si Si2 0.899290 0.437108 0.328106
Si Si3 0.604821 0.561103 0.653840
Si Si4 0.100483 0.061503 0.470814
Si Si5 0.708896 0.941153 0.526614
Si Si6 0.284712 0.938599 0.775019
O O1 0.397259 0.750000 0.900721
O O2 0.339150 0.988942 0.838542
O O3 0.500000 0.000000 0.896471
O O4 0.347921 0.992862 0.964770
O O5 0.900874 0.250000 0.330580
O O6 0.881505 0.501981 0.399241
O O7 0.818414 0.496336 0.282611
O O8 0.000000 0.500000 0.309270
O O9 0.500000 0.500000 0.654110
O O10 0.602671 0.750000 0.654513
O O11 0.658796 0.507342 0.590561
O O12 0.660501 0.501244 0.714651
O O13 0.098283 0.250000 0.468452
O O14 0.184956 0.011058 0.515572
O O15 0.000000 0.000000 0.490218
O O16 0.708260 0.750000 0.527055
O O17 0.282051 0.750000 0.773377
#
# Coordination Sequence:
#
# PCOD9359972 Si02
#       6
#     8   8   8   8   8   8
#     4  10  20  35  55  80 109 144 187 239 290 338
#     4  11  21  35  58  89 120 152 191 237 292 349
#     4  11  23  40  60  83 115 157 199 240 295 352
#     4  10  18  34  57  85 118 152 190 235 292 347
#     4   9  19  37  58  80 113 154 191 237 291 345
#     4  11  22  39  60  83 116 154 195 241 291 346
#
# _framework density 18.400967999999999
#
# number of rings (size 3 to 8) (size 9 to 14) (size 15 to 20)
#    0.000    1.667    1.667    5.000    0.000    2.667 
#    0.000    5.000    0.000    2.000    0.000    0.000 
#    0.000    0.000    0.000    0.000    0.000    0.000 
#
# Total GULP energy -134070.189228 kJ/mol
# GULP energy per Si atom -5586.257885 kJ/mol
# Density = 1.835909 g / cm^3
# Si number density = 18.400968 Si / 1000 Ang^3
#
#
#
# Elastic Constant Matrix: (Units=GPa)
#
#
# Indices 1 2 3 4 5 6 
#
# 1 199.7777 45.4305 101.4424 0.0000 0.0000 0.0000
# 2 45.4305 67.3462 37.5968 0.0000 0.0000 0.0000
# 3 101.4424 37.5968 149.5058 0.0000 0.0000 0.0000
# 4 0.0000 0.0000 0.0000 19.4950 0.0000 0.0000
# 5 0.0000 0.0000 0.0000 0.0000 35.3925 0.0000
# 6 0.0000 0.0000 0.0000 0.0000 0.0000 35.4296
#
#
#
# Elastic Compliance Matrix: (Units=1/GPa)
#
#
# Indices 1 2 3 4 5 6 
#
# 1 0.008058 -0.002773 -0.004771 0.000000 0.000000 0.000000
# 2 -0.002773 0.018228 -0.002702 0.000000 0.000000 0.000000
# 3 -0.004771 -0.002702 0.010605 0.000000 0.000000 0.000000
# 4 0.000000 0.000000 0.000000 0.051295 0.000000 0.000000
# 5 0.000000 0.000000 0.000000 0.000000 0.028255 0.000000
# 6 0.000000 0.000000 0.000000 0.000000 0.000000 0.028225
#
#
# Mechanical properties :
#
#
# Convention : Reuss Voigt Hill
#
# Bulk Modulus (GPa) = 60.97595 87.28547 74.13071
# Shear Modulus (GPa) = 29.30412 33.54075 31.42243
#
# Velocity S-wave (km/s) = 3.99498 4.27402 4.13686
# Velocity P-wave (km/s) = 7.38168 8.47907 7.94933
#
# Compressibility (1/GPa) = 0.01639991
#
# Stress axis : x y z
#
# Youngs Moduli (GPa) = 124.09264 54.86119 94.29369
#
# Poissons Ratio (x) = 0.15213 0.44983
# Poissons Ratio (y) = 0.34410 0.25481
# Poissons Ratio (z) = 0.59199 0.14825
#
# Static dielectric constant tensor:
#      x y z
#    x 1.627330 0.000000 0.000000 
#    y 0.000000 1.629400 0.000000 
#    z 0.000000 0.000000 1.614120 
# 
# From -- ./inp_files/12663.got.cif
#   From: 2010.05.17/outbox.cif.g08.bks.cpg/sg39_7_cif.got.tgz:12663.got - 2010.06.03 18:22:40.
