data_PCOD9359688
_publ_section_title
;
Structure prediction by ZEFSAII (Michael W. Deem and Ramdas Pophale) SiO2 
 PCOD9359688
Probable space group: A B M 2
;
_chemical_formula_sum "Si O2"
_cell_formula_units_Z 48
_cell_length_a 21.631923
_cell_length_b 18.853490
_cell_length_c 5.498674
_cell_angle_alpha 90.000000
_cell_angle_beta 90.000000
_cell_angle_gamma 90.000000
_cell_volume 2242.564050
_symmetry_space_group_name_H-M "A B M 2"
_symmetry_group_IT_number 39
_symmetry_cell_setting 'orthorhombic'
loop_
_space_group_symop_operation_xyz
x,y,z
-x,-y,z
-x,1/2+y,z
x,1/2-y,z
x,1/2+y,1/2+z
-x,1/2-y,1/2+z
-x,y,1/2+z
x,-y,1/2+z
loop_
_atom_site_type_symbol
_atom_site_label
_atom_site_fract_x
_atom_site_fract_y
_atom_site_fract_z
Si Si1 0.876355 0.750000 0.677120
Si Si2 0.838365 0.094271 0.209080
Si Si3 0.525478 0.918438 0.313655
Si Si4 0.667897 0.545291 0.334585
Si Si5 0.792133 0.107926 0.710241
Si Si6 0.022607 0.419056 0.889761
Si Si7 0.874331 0.750000 0.179237
O O1 0.835251 0.679645 0.677816
O O2 0.912397 0.750000 0.426563
O O3 0.911730 0.750000 0.930000
O O4 0.794963 0.076395 0.437085
O O5 0.907208 0.079592 0.301160
O O6 0.827644 0.068451 0.933458
O O7 0.498643 0.885937 0.561580
O O8 0.599226 0.922805 0.321594
O O9 0.500000 0.000000 0.310836
O O10 0.673651 0.507100 0.598809
O O11 0.721818 0.603455 0.299693
O O12 0.828895 0.181855 0.681989
O O13 0.000000 0.500000 0.922862
O O14 0.985314 0.387148 0.659819
#
# Coordination Sequence:
#
# PCOD9359688 Si02
#       7
#     4   8   8   8   8   8   4
#     4   8  16  30  58  77  92 123 164 218 242 298
#     4  10  19  38  55  75 101 130 170 204 263 300
#     4  10  16  30  49  64  96 143 177 201 243 295
#     4  12  21  33  47  79 115 129 170 215 254 309
#     4  10  21  35  54  81 102 137 163 215 259 303
#     4  10  21  38  53  69  96 136 174 200 234 311
#     4   8  16  34  54  71 102 131 174 196 252 312
#
# _framework density 21.404071999999999
#
# number of rings (size 3 to 8) (size 9 to 14) (size 15 to 20)
#    0.000    2.000    3.333    2.000    0.000    0.000 
#   18.000    0.833    0.000    0.000    0.000    1.167 
#    0.000    0.000    0.000    0.000    0.000    0.000 
#
# Total GULP energy -133724.989762 kJ/mol
# GULP energy per Si atom -5571.874573 kJ/mol
# Density = 2.135536 g / cm^3
# Si number density = 21.404072 Si / 1000 Ang^3
#
#
#
# Elastic Constant Matrix: (Units=GPa)
#
#
# Indices 1 2 3 4 5 6 
#
# 1 91.8656 -6.0215 3.2348 0.0000 0.0000 0.0000
# 2 -6.0215 64.7220 -3.9342 0.0000 0.0000 0.0000
# 3 3.2348 -3.9342 230.7362 0.0000 0.0000 0.0000
# 4 0.0000 0.0000 0.0000 8.6790 0.0000 0.0000
# 5 0.0000 0.0000 0.0000 0.0000 36.4632 0.0000
# 6 0.0000 0.0000 0.0000 0.0000 0.0000 9.7012
#
#
#
# Elastic Compliance Matrix: (Units=1/GPa)
#
#
# Indices 1 2 3 4 5 6 
#
# 1 0.010957 0.001011 -0.000136 0.000000 0.000000 0.000000
# 2 0.001011 0.015560 0.000251 0.000000 0.000000 0.000000
# 3 -0.000136 0.000251 0.004340 0.000000 0.000000 0.000000
# 4 0.000000 0.000000 0.000000 0.115221 0.000000 0.000000
# 5 0.000000 0.000000 0.000000 0.000000 0.027425 0.000000
# 6 0.000000 0.000000 0.000000 0.000000 0.000000 0.103080
#
#
# Mechanical properties :
#
#
# Convention : Reuss Voigt Hill
#
# Bulk Modulus (GPa) = 30.20382 41.54244 35.87313
# Shear Modulus (GPa) = 17.52130 37.23832 27.37981
#
# Velocity S-wave (km/s) = 2.86422 4.17559 3.58045
# Velocity P-wave (km/s) = 5.00801 6.53438 5.82144
#
# Compressibility (1/GPa) = 0.03310840
#
# Stress axis : x y z
#
# Youngs Moduli (GPa) = 91.26963 64.26727 230.40693
#
# Poissons Ratio (x) = -0.06498 0.03142
# Poissons Ratio (y) = -0.09228 -0.05786
# Poissons Ratio (z) = 0.01245 -0.01614
#
# Static dielectric constant tensor:
#      x y z
#    x 1.737720 0.000000 0.000000 
#    y 0.000000 1.806530 0.000000 
#    z 0.000000 0.000000 1.943210 
# 
# From -- ./inp_files/812.got.cif
#   From: 2010.05.17/outbox.cif.g08.bks.cpg/sg39_1_cif.got.tgz:812.got - 2010.06.03 18:22:40.
