data_PCOD9359390
_publ_section_title
;
Structure prediction by ZEFSAII (Michael W. Deem and Ramdas Pophale) SiO2 
 PCOD9359390
Probable space group: A M M 2
;
_chemical_formula_sum "Si O2"
_cell_formula_units_Z 56
_cell_length_a 7.747799
_cell_length_b 14.270089
_cell_length_c 30.461607
_cell_angle_alpha 90.000000
_cell_angle_beta 90.000000
_cell_angle_gamma 90.000000
_cell_volume 3367.889531
_symmetry_space_group_name_H-M "A M M 2"
_symmetry_group_IT_number 38
_symmetry_cell_setting 'orthorhombic'
loop_
_space_group_symop_operation_xyz
x,y,z
-x,-y,z
-x,y,z
x,-y,z
x,1/2+y,1/2+z
-x,1/2-y,1/2+z
-x,1/2+y,1/2+z
x,1/2-y,1/2+z
loop_
_atom_site_type_symbol
_atom_site_label
_atom_site_fract_x
_atom_site_fract_y
_atom_site_fract_z
Si Si1 0.291550 0.392529 0.245240
Si Si2 0.291675 0.604920 0.612512
Si Si3 0.298392 0.604080 0.068550
Si Si4 0.711509 0.790657 0.024376
Si Si5 0.200274 0.795045 0.655732
Si Si6 0.288382 0.108864 0.936331
Si Si7 0.299468 0.113944 0.840593
O O1 0.500000 0.395803 0.248320
O O2 0.232572 0.500000 0.237504
O O3 0.245811 0.328432 0.204285
O O4 0.225062 0.359423 0.293102
O O5 0.500000 0.602814 0.612288
O O6 0.228914 0.500000 0.621752
O O7 0.237113 0.640177 0.564086
O O8 0.239165 0.686409 0.646033
O O9 0.500000 0.596915 0.056924
O O10 0.221904 0.500000 0.065433
O O11 0.226017 0.687259 0.038151
O O12 0.292011 0.643058 0.118307
O O13 0.500000 0.789615 0.024299
O O14 0.767571 0.828845 0.977334
O O15 0.000000 0.811389 0.648316
O O16 0.500000 0.110016 0.935183
O O17 0.225867 0.140889 0.888079
O O18 0.239426 0.000000 0.943039
O O19 0.500000 0.144142 0.840782
O O20 0.298873 0.000000 0.840521
#
# Coordination Sequence:
#
# PCOD9359390 Si02
#       7
#     8   8   8   8   8   8   8
#     4   9  16  27  42  58  79 108 140 171 202 241
#     4   9  17  30  46  62  82 109 138 164 192 233
#     4   9  17  29  42  56  79 111 143 172 201 237
#     4   8  13  21  36  59  82 104 132 162 195 235
#     4  11  21  29  40  60  83 106 135 170 207 244
#     4   8  11  16  30  55  84 105 123 156 200 241
#     4   7  11  19  32  53  79 104 129 159 198 241
#
# _framework density 16.627623
#
# number of rings (size 3 to 8) (size 9 to 14) (size 15 to 20)
#    0.000    3.286    0.000    4.714    0.000    4.286 
#    0.000    0.000    0.000    0.000    0.000    5.000 
#    0.000   14.857    0.000    0.000    0.000    0.429 
#
# Total GULP energy -155876.031867 kJ/mol
# GULP energy per Si atom -5567.001138 kJ/mol
# Density = 1.658978 g / cm^3
# Si number density = 16.627623 Si / 1000 Ang^3
#
#
#
# Elastic Constant Matrix: (Units=GPa)
#
#
# Indices 1 2 3 4 5 6 
#
# 1 25.7575 2.6498 0.2479 0.0000 0.0000 0.0000
# 2 2.6498 108.3483 78.5108 0.0000 0.0000 0.0000
# 3 0.2479 78.5108 165.9364 0.0000 0.0000 0.0000
# 4 0.0000 0.0000 0.0000 24.5830 0.0000 0.0000
# 5 0.0000 0.0000 0.0000 0.0000 -20.1909 0.0000
# 6 0.0000 0.0000 0.0000 0.0000 0.0000 -11.3094
#
#
#
# Elastic Compliance Matrix: (Units=1/GPa)
#
#
# Indices 1 2 3 4 5 6 
#
# 1 0.038960 -0.001386 0.000597 0.000000 0.000000 0.000000
# 2 -0.001386 0.014094 -0.006666 0.000000 0.000000 0.000000
# 3 0.000597 -0.006666 0.009180 0.000000 0.000000 0.000000
# 4 0.000000 0.000000 0.000000 0.040678 0.000000 0.000000
# 5 0.000000 0.000000 0.000000 0.000000 -0.049527 0.000000
# 6 0.000000 0.000000 0.000000 0.000000 0.000000 -0.088422
#
#
# Mechanical properties :
#
#
# Convention : Reuss Voigt Hill
#
# Bulk Modulus (GPa) = 21.13060 51.42880 36.27970
# Shear Modulus (GPa) = -1148.71666 13.19212 -567.76227
#
# Velocity S-wave (km/s) = -26.31251 2.81977 -18.49861
# Velocity P-wave (km/s) = 30.17276 6.44968 20.84223
#
# Compressibility (1/GPa) = 0.04732473
#
# Stress axis : x y z
#
# Youngs Moduli (GPa) = 25.66708 70.95291 108.93745
#
# Poissons Ratio (x) = 0.09832 -0.06508
# Poissons Ratio (y) = 0.03557 0.72621
# Poissons Ratio (z) = -0.01533 0.47299
#
# Static dielectric constant tensor:
#      x y z
#    x 1.599200 0.000000 0.000000 
#    y 0.000000 1.555100 0.000000 
#    z 0.000000 0.000000 1.583600 
# 
# From -- ./inp_files/24637.got.cif
#   From: 2010.05.17/outbox.cif.g08.bks.cpg/sg38_13_cif.got.tgz:24637.got - 2010.06.03 18:07:57.
