data_PCOD9359438
_publ_section_title
;
Structure prediction by ZEFSAII (Michael W. Deem and Ramdas Pophale) SiO2 
 PCOD9359438
Probable space group: A M M 2
;
_chemical_formula_sum "Si O2"
_cell_formula_units_Z 40
_cell_length_a 8.334663
_cell_length_b 26.505343
_cell_length_c 9.796089
_cell_angle_alpha 90.000000
_cell_angle_beta 90.000000
_cell_angle_gamma 90.000000
_cell_volume 2164.084405
_symmetry_space_group_name_H-M "A M M 2"
_symmetry_group_IT_number 38
_symmetry_cell_setting 'orthorhombic'
loop_
_space_group_symop_operation_xyz
x,y,z
-x,-y,z
-x,y,z
x,-y,z
x,1/2+y,1/2+z
-x,1/2-y,1/2+z
-x,1/2+y,1/2+z
x,1/2-y,1/2+z
loop_
_atom_site_type_symbol
_atom_site_label
_atom_site_fract_x
_atom_site_fract_y
_atom_site_fract_z
Si Si1 0.808056 0.500000 0.582530
Si Si2 0.805807 0.797659 0.262341
Si Si3 0.803434 0.000000 0.768380
Si Si4 0.690195 0.090882 0.269926
Si Si5 0.195297 0.294557 0.077373
Si Si6 0.806220 0.592341 0.079865
O O1 0.750186 0.500000 0.425518
O O2 0.752440 0.548974 0.665873
O O3 0.000000 0.500000 0.579234
O O4 0.743008 0.853010 0.225521
O O5 0.748096 0.751825 0.168623
O O6 0.760308 0.787759 0.419399
O O7 0.000000 0.799643 0.256039
O O8 0.750956 0.049353 0.683885
O O9 0.000000 0.000000 0.768731
O O10 0.500000 0.088262 0.276639
O O11 0.756494 0.082187 0.423433
O O12 0.248316 0.350968 0.118100
O O13 0.000000 0.294416 0.084458
O O14 0.000000 0.592412 0.081975
#
# Coordination Sequence:
#
# PCOD9359438 Si02
#       6
#     4   8   4   8   8   8
#     4  11  22  37  56  80 106 135 170 217 268 314
#     4   9  17  32  52  75 101 135 176 222 265 304
#     4   9  19  33  56  84 104 125 166 219 270 314
#     4  11  22  36  53  77 107 143 179 212 254 316
#     4   8  15  27  49  76 101 129 168 212 256 301
#     4   9  17  34  57  81 105 135 175 220 264 314
#
# _framework density 18.483568999999999
#
# number of rings (size 3 to 8) (size 9 to 14) (size 15 to 20)
#    0.000    2.600    0.000    3.900    0.000    2.400 
#    0.000   12.000    0.000    0.000    0.000    0.000 
#    0.000    0.000    0.000    0.000    0.000    0.000 
#
# Total GULP energy -111566.686864 kJ/mol
# GULP energy per Si atom -5578.334343 kJ/mol
# Density = 1.844150 g / cm^3
# Si number density = 18.483569 Si / 1000 Ang^3
#
#
#
# Elastic Constant Matrix: (Units=GPa)
#
#
# Indices 1 2 3 4 5 6 
#
# 1 23.2191 25.1838 16.8763 0.0000 0.0000 0.0000
# 2 25.1838 212.1376 139.6178 0.0000 0.0000 0.0000
# 3 16.8763 139.6178 125.7154 0.0000 0.0000 0.0000
# 4 0.0000 0.0000 0.0000 41.1908 0.0000 0.0000
# 5 0.0000 0.0000 0.0000 0.0000 -4.2834 0.0000
# 6 0.0000 0.0000 0.0000 0.0000 0.0000 -4.6781
#
#
#
# Elastic Compliance Matrix: (Units=1/GPa)
#
#
# Indices 1 2 3 4 5 6 
#
# 1 0.049440 -0.005579 -0.000441 0.000000 0.000000 0.000000
# 2 -0.005579 0.018149 -0.019407 0.000000 0.000000 0.000000
# 3 -0.000441 -0.019407 0.029567 0.000000 0.000000 0.000000
# 4 0.000000 0.000000 0.000000 0.024277 0.000000 0.000000
# 5 0.000000 0.000000 0.000000 0.000000 -0.233458 0.000000
# 6 0.000000 0.000000 0.000000 0.000000 0.000000 -0.213763
#
#
# Mechanical properties :
#
#
# Convention : Reuss Voigt Hill
#
# Bulk Modulus (GPa) = 21.59756 80.49200 51.04478
# Shear Modulus (GPa) = -19.26777 18.40546 -0.43116
#
# Velocity S-wave (km/s) = -3.23217 3.15901 -0.48350
# Velocity P-wave (km/s) = 1.48966 7.54640 5.23111
#
# Compressibility (1/GPa) = 0.04630152
#
# Stress axis : x y z
#
# Youngs Moduli (GPa) = 20.22668 55.09986 33.82177
#
# Poissons Ratio (x) = 0.30740 0.01491
# Poissons Ratio (y) = 0.11285 0.65638
# Poissons Ratio (z) = 0.00892 1.06932
#
# Static dielectric constant tensor:
#      x y z
#    x 1.625940 0.000000 0.000000 
#    y 0.000000 1.631910 0.000000 
#    z 0.000000 0.000000 1.614070 
# 
# From -- ./inp_files/3510.got.cif
#   From: 2010.05.17/outbox.cif.g08.bks.cpg/sg38_2_cif.got.tgz:3510.got - 2010.06.03 18:07:57.
