data_PCOD9359310
_publ_section_title
;
Structure prediction by ZEFSAII (Michael W. Deem and Ramdas Pophale) SiO2 
 PCOD9359310
Probable space group: A M M 2
;
_chemical_formula_sum "Si O2"
_cell_formula_units_Z 44
_cell_length_a 17.920213
_cell_length_b 14.519767
_cell_length_c 7.052967
_cell_angle_alpha 90.000000
_cell_angle_beta 90.000000
_cell_angle_gamma 90.000000
_cell_volume 1835.163093
_symmetry_space_group_name_H-M "A M M 2"
_symmetry_group_IT_number 38
_symmetry_cell_setting 'orthorhombic'
loop_
_space_group_symop_operation_xyz
x,y,z
-x,-y,z
-x,y,z
x,-y,z
x,1/2+y,1/2+z
-x,1/2-y,1/2+z
-x,1/2+y,1/2+z
x,1/2-y,1/2+z
loop_
_atom_site_type_symbol
_atom_site_label
_atom_site_fract_x
_atom_site_fract_y
_atom_site_fract_z
Si Si1 0.240748 0.758249 0.974950
Si Si2 0.000000 0.603565 0.700968
Si Si3 0.125661 0.250747 0.725242
Si Si4 0.000000 0.603975 0.248021
Si Si5 0.372773 0.392144 0.504600
Si Si6 0.366613 0.892973 0.448300
Si Si7 0.500000 0.337835 0.231033
O O1 0.219321 0.745735 0.726057
O O2 0.294888 0.669748 0.982961
O O3 0.147057 0.765833 0.974812
O O4 0.291124 0.850449 0.968477
O O5 0.073291 0.660546 0.754602
O O6 0.000000 0.600452 0.474548
O O7 0.000000 0.500000 0.771445
O O8 0.073340 0.161624 0.695584
O O9 0.000000 0.500000 0.178160
O O10 0.379558 0.500000 0.449519
O O11 0.387823 0.385113 0.727737
O O12 0.434521 0.165819 0.895634
O O13 0.434570 0.861412 0.576217
O O14 0.349713 0.000000 0.486537
#
# Coordination Sequence:
#
# PCOD9359310 Si02
#       7
#     8   4   8   4   8   8   4
#     4  12  24  44  65  99 137 171 225 274 340 404
#     4  10  22  41  68  97 128 179 225 258 330 412
#     4  11  23  41  66  96 137 172 212 286 325 390
#     4  10  22  41  68 101 130 175 225 264 332 406
#     4  11  25  45  69  98 134 181 231 282 346 410
#     4  11  25  45  68  98 135 179 231 284 344 410
#     4  12  25  46  72  98 135 178 231 296 344 400
#
# _framework density 23.976071000000001
#
# number of rings (size 3 to 8) (size 9 to 14) (size 15 to 20)
#    0.000    0.909    3.636    3.273    0.000    5.091 
#    0.000    0.909    0.000    0.000    0.000    0.000 
#    0.000    0.000    0.000    0.000    0.000    0.000 
#
# Total GULP energy -122511.926892 kJ/mol
# GULP energy per Si atom -5568.723950 kJ/mol
# Density = 2.392150 g / cm^3
# Si number density = 23.976071 Si / 1000 Ang^3
#
#
#
# Elastic Constant Matrix: (Units=GPa)
#
#
# Indices 1 2 3 4 5 6 
#
# 1 189.3473 73.3708 53.6335 0.0000 0.0000 0.0000
# 2 73.3708 142.9546 16.7609 0.0000 0.0000 0.0000
# 3 53.6335 16.7609 154.9614 0.0000 0.0000 0.0000
# 4 0.0000 0.0000 0.0000 22.0594 0.0000 0.0000
# 5 0.0000 0.0000 0.0000 0.0000 120.2001 0.0000
# 6 0.0000 0.0000 0.0000 0.0000 0.0000 -3.2523
#
#
#
# Elastic Compliance Matrix: (Units=1/GPa)
#
#
# Indices 1 2 3 4 5 6 
#
# 1 0.007224 -0.003458 -0.002126 0.000000 0.000000 0.000000
# 2 -0.003458 0.008741 0.000252 0.000000 0.000000 0.000000
# 3 -0.002126 0.000252 0.007162 0.000000 0.000000 0.000000
# 4 0.000000 0.000000 0.000000 0.045332 0.000000 0.000000
# 5 0.000000 0.000000 0.000000 0.000000 0.008319 0.000000
# 6 0.000000 0.000000 0.000000 0.000000 0.000000 -0.307473
#
#
# Mechanical properties :
#
#
# Convention : Reuss Voigt Hill
#
# Bulk Modulus (GPa) = 80.25341 86.08817 83.17079
# Shear Modulus (GPa) = -23.16139 50.70130 13.76996
#
# Velocity S-wave (km/s) = -3.11146 4.60353 2.39910
# Velocity P-wave (km/s) = 4.54277 8.01502 6.51449
#
# Compressibility (1/GPa) = 0.01246053
#
# Stress axis : x y z
#
# Youngs Moduli (GPa) = 138.43613 114.40814 139.62823
#
# Poissons Ratio (x) = 0.39564 0.29686
# Poissons Ratio (y) = 0.47874 -0.03512
# Poissons Ratio (z) = 0.29433 -0.02877
#
# Static dielectric constant tensor:
#      x y z
#    x 1.769360 0.000000 0.000000 
#    y 0.000000 1.854220 0.000000 
#    z 0.000000 0.000000 2.605050 
# 
# From -- ./inp_files/6174.got.cif
#   From: 2010.05.17/outbox.cif.g08.bks.cpg/sg38_4_cif.got.tgz:6174.got - 2010.06.03 18:07:57.
