data_PCOD9359079
_publ_section_title
;
Structure prediction by ZEFSAII (Michael W. Deem and Ramdas Pophale) SiO2 
 PCOD9359079
Probable space group: A M M 2
;
_chemical_formula_sum "Si O2"
_cell_formula_units_Z 56
_cell_length_a 21.888825
_cell_length_b 8.511213
_cell_length_c 15.765556
_cell_angle_alpha 90.000000
_cell_angle_beta 90.000000
_cell_angle_gamma 90.000000
_cell_volume 2937.130207
_symmetry_space_group_name_H-M "A M M 2"
_symmetry_group_IT_number 38
_symmetry_cell_setting 'orthorhombic'
loop_
_space_group_symop_operation_xyz
x,y,z
-x,-y,z
-x,y,z
x,-y,z
x,1/2+y,1/2+z
-x,1/2-y,1/2+z
-x,1/2+y,1/2+z
x,1/2-y,1/2+z
loop_
_atom_site_type_symbol
_atom_site_label
_atom_site_fract_x
_atom_site_fract_y
_atom_site_fract_z
Si Si1 0.929736 0.310363 0.316930
Si Si2 0.847455 0.691903 0.474014
Si Si3 0.929719 0.189670 0.130820
Si Si4 0.500000 0.689522 0.881842
Si Si5 0.500000 0.686564 0.573170
Si Si6 0.368518 0.312694 0.808191
Si Si7 0.293386 0.688121 0.467891
Si Si8 0.630687 0.314304 0.126010
O O1 0.928939 0.500000 0.315724
O O2 0.884357 0.256694 0.390611
O O3 0.912722 0.249637 0.223956
O O4 0.000000 0.261454 0.334291
O O5 0.848180 0.500000 0.474467
O O6 0.884101 0.744002 0.557498
O O7 0.777061 0.740353 0.472863
O O8 0.000000 0.238812 0.113485
O O9 0.929040 0.000000 0.131645
O O10 0.500000 0.500000 0.894871
O O11 0.561615 0.731217 0.831980
O O12 0.500000 0.770304 0.973535
O O13 0.500000 0.500000 0.584716
O O14 0.561212 0.756716 0.613313
O O15 0.366485 0.500000 0.796802
O O16 0.327125 0.263691 0.887502
O O17 0.349540 0.231922 0.720655
O O18 0.295212 0.500000 0.458232
O O19 0.328696 0.734075 0.553483
O O20 0.633416 0.500000 0.113847
#
# Coordination Sequence:
#
# PCOD9359079 Si02
#       8
#     8   8   8   4   4   8   8   8
#     4   9  17  32  55  82 111 144 184 232 286 341
#     4   9  19  35  56  80 110 150 192 232 280 343
#     4   9  17  32  55  82 111 145 187 234 283 336
#     4  10  21  38  63  90 120 150 185 238 293 348
#     4  12  23  38  65  94 122 152 189 238 295 348
#     4  11  23  41  64  89 118 152 195 242 294 348
#     4  11  23  40  59  84 118 156 199 244 292 346
#     4  12  25  42  63  88 120 156 197 241 291 347
#
# _framework density 19.066227999999999
#
# number of rings (size 3 to 8) (size 9 to 14) (size 15 to 20)
#    0.000    1.714    1.429    3.643    0.000    4.000 
#    0.000    6.429    0.000    3.429    0.000    0.000 
#    0.000    0.000    0.000    0.000    0.000    0.000 
#
# Total GULP energy -156478.628240 kJ/mol
# GULP energy per Si atom -5588.522437 kJ/mol
# Density = 1.902283 g / cm^3
# Si number density = 19.066228 Si / 1000 Ang^3
#
#
#
# Elastic Constant Matrix: (Units=GPa)
#
#
# Indices 1 2 3 4 5 6 
#
# 1 135.5079 4.6650 77.3258 0.0000 0.0000 0.0000
# 2 4.6650 16.6110 -6.4832 0.0000 0.0000 0.0000
# 3 77.3258 -6.4832 115.4565 0.0000 0.0000 0.0000
# 4 0.0000 0.0000 0.0000 35.4575 0.0000 0.0000
# 5 0.0000 0.0000 0.0000 0.0000 -3.2122 0.0000
# 6 0.0000 0.0000 0.0000 0.0000 0.0000 12.4245
#
#
#
# Elastic Compliance Matrix: (Units=1/GPa)
#
#
# Indices 1 2 3 4 5 6 
#
# 1 0.012702 -0.007042 -0.008903 0.000000 0.000000 0.000000
# 2 -0.007042 0.065454 0.008392 0.000000 0.000000 0.000000
# 3 -0.008903 0.008392 0.015095 0.000000 0.000000 0.000000
# 4 0.000000 0.000000 0.000000 0.028203 0.000000 0.000000
# 5 0.000000 0.000000 0.000000 0.000000 -0.311318 0.000000
# 6 0.000000 0.000000 0.000000 0.000000 0.000000 0.080486
#
#
# Mechanical properties :
#
#
# Convention : Reuss Voigt Hill
#
# Bulk Modulus (GPa) = 12.79667 46.51008 29.65337
# Shear Modulus (GPa) = -73.28832 21.73848 -25.77492
#
# Velocity S-wave (km/s) = -6.20663 3.38028 -3.68076
# Velocity P-wave (km/s) = 6.68107 6.29937 1.57397
#
# Compressibility (1/GPa) = 0.07814536
#
# Stress axis : x y z
#
# Youngs Moduli (GPa) = 78.72638 15.27791 66.24754
#
# Poissons Ratio (x) = 0.10759 0.58978
# Poissons Ratio (y) = 0.55438 -0.55592
# Poissons Ratio (z) = 0.70087 -0.12821
#
# Static dielectric constant tensor:
#      x y z
#    x 1.649080 0.000000 0.000000 
#    y 0.000000 1.648990 0.000000 
#    z 0.000000 0.000000 1.637120 
# 
# From -- ./inp_files/15593.got.cif
#   From: 2010.05.17/outbox.cif.g08.bks.cpg/sg38_8_cif.got.tgz:15593.got - 2010.06.03 18:07:57.
