data_PCOD9359112
_publ_section_title
;
Structure prediction by ZEFSAII (Michael W. Deem and Ramdas Pophale) SiO2 
 PCOD9359112
Probable space group: A M M 2
;
_chemical_formula_sum "Si O2"
_cell_formula_units_Z 56
_cell_length_a 20.760649
_cell_length_b 9.029912
_cell_length_c 14.464353
_cell_angle_alpha 90.000000
_cell_angle_beta 90.000000
_cell_angle_gamma 90.000000
_cell_volume 2711.586456
_symmetry_space_group_name_H-M "A M M 2"
_symmetry_group_IT_number 38
_symmetry_cell_setting 'orthorhombic'
loop_
_space_group_symop_operation_xyz
x,y,z
-x,-y,z
-x,y,z
x,-y,z
x,1/2+y,1/2+z
-x,1/2-y,1/2+z
-x,1/2+y,1/2+z
x,1/2-y,1/2+z
loop_
_atom_site_type_symbol
_atom_site_label
_atom_site_fract_x
_atom_site_fract_y
_atom_site_fract_z
Si Si1 0.423917 0.323780 0.437320
Si Si2 0.659612 0.679611 0.786209
Si Si3 0.669708 0.322958 0.084859
Si Si4 0.199531 0.331648 0.585561
Si Si5 0.800312 0.168329 0.311466
Si Si6 0.929848 0.171233 0.813103
Si Si7 0.071103 0.671769 0.087806
O O1 0.500000 0.302448 0.450216
O O2 0.411249 0.500000 0.433141
O O3 0.398506 0.243545 0.345403
O O4 0.382760 0.248664 0.518063
O O5 0.658857 0.500000 0.780326
O O6 0.658764 0.752510 0.685692
O O7 0.728361 0.724150 0.832762
O O8 0.665281 0.500000 0.085949
O O9 0.741760 0.272686 0.056713
O O10 0.210494 0.500000 0.555169
O O11 0.198789 0.332076 0.698473
O O12 0.130370 0.270364 0.556222
O O13 0.863780 0.252996 0.343146
O O14 0.805144 0.000000 0.343718
O O15 0.928662 0.174030 0.700396
O O16 0.000000 0.236314 0.839810
O O17 0.928739 0.000000 0.841147
O O18 0.079420 0.500000 0.060706
O O19 0.000000 0.723075 0.058801
#
# Coordination Sequence:
#
# PCOD9359112 Si02
#       7
#     8   8   8   8   8   8   8
#     4  11  25  44  65  91 121 152 190 235 285 347
#     4  10  21  39  62  89 121 155 194 240 289 344
#     4  11  22  38  62  89 119 157 198 240 290 346
#     4   9  16  27  44  69 103 142 187 237 286 338
#     4   8  15  26  42  67  99 137 180 226 275 327
#     4   8  13  20  32  55  90 132 177 225 274 322
#     4   8  13  21  34  57  93 136 182 232 284 337
#
# _framework density 20.652114999999998
#
# number of rings (size 3 to 8) (size 9 to 14) (size 15 to 20)
#    0.000    2.714    0.000    4.286    0.000    6.286 
#    0.000    2.857    0.000    0.000    0.000    1.000 
#    0.000    3.429    0.000    0.000    0.000    0.429 
#
# Total GULP energy -156335.138617 kJ/mol
# GULP energy per Si atom -5583.397808 kJ/mol
# Density = 2.060511 g / cm^3
# Si number density = 20.652115 Si / 1000 Ang^3
#
#
#
# Elastic Constant Matrix: (Units=GPa)
#
#
# Indices 1 2 3 4 5 6 
#
# 1 145.2437 80.1944 24.4078 0.0000 0.0000 0.0000
# 2 80.1944 111.1546 24.3048 0.0000 0.0000 0.0000
# 3 24.4078 24.3048 61.3557 0.0000 0.0000 0.0000
# 4 0.0000 0.0000 0.0000 12.9547 0.0000 0.0000
# 5 0.0000 0.0000 0.0000 0.0000 78.3281 0.0000
# 6 0.0000 0.0000 0.0000 0.0000 0.0000 39.2757
#
#
#
# Elastic Compliance Matrix: (Units=1/GPa)
#
#
# Indices 1 2 3 4 5 6 
#
# 1 0.011555 -0.008027 -0.001417 0.000000 0.000000 0.000000
# 2 -0.008027 0.015425 -0.002917 0.000000 0.000000 0.000000
# 3 -0.001417 -0.002917 0.018018 0.000000 0.000000 0.000000
# 4 0.000000 0.000000 0.000000 0.077192 0.000000 0.000000
# 5 0.000000 0.000000 0.000000 0.000000 0.012767 0.000000
# 6 0.000000 0.000000 0.000000 0.000000 0.000000 0.025461
#
#
# Mechanical properties :
#
#
# Convention : Reuss Voigt Hill
#
# Bulk Modulus (GPa) = 49.31960 63.95199 56.63580
# Shear Modulus (GPa) = 26.05544 38.70150 32.37847
#
# Velocity S-wave (km/s) = 3.55580 4.33364 3.96385
# Velocity P-wave (km/s) = 6.38681 7.48826 6.95936
#
# Compressibility (1/GPa) = 0.02027591
#
# Stress axis : x y z
#
# Youngs Moduli (GPa) = 86.54325 64.82841 55.50074
#
# Poissons Ratio (x) = 0.52035 0.07865
# Poissons Ratio (y) = 0.69465 0.16192
# Poissons Ratio (z) = 0.12264 0.18913
#
# Static dielectric constant tensor:
#      x y z
#    x 1.729960 0.000000 0.000000 
#    y 0.000000 1.692580 0.000000 
#    z 0.000000 0.000000 1.858290 
# 
# From -- ./inp_files/15495.got.cif
#   From: 2010.05.17/outbox.cif.g08.bks.cpg/sg38_8_cif.got.tgz:15495.got - 2010.06.03 18:07:57.
