data_PCOD9359073
_publ_section_title
;
Structure prediction by ZEFSAII (Michael W. Deem and Ramdas Pophale) SiO2 
 PCOD9359073
Probable space group: A M M 2
;
_chemical_formula_sum "Si O2"
_cell_formula_units_Z 48
_cell_length_a 15.321310
_cell_length_b 9.013831
_cell_length_c 19.285801
_cell_angle_alpha 90.000000
_cell_angle_beta 90.000000
_cell_angle_gamma 90.000000
_cell_volume 2663.440457
_symmetry_space_group_name_H-M "A M M 2"
_symmetry_group_IT_number 38
_symmetry_cell_setting 'orthorhombic'
loop_
_space_group_symop_operation_xyz
x,y,z
-x,-y,z
-x,y,z
x,-y,z
x,1/2+y,1/2+z
-x,1/2-y,1/2+z
-x,1/2+y,1/2+z
x,1/2-y,1/2+z
loop_
_atom_site_type_symbol
_atom_site_label
_atom_site_fract_x
_atom_site_fract_y
_atom_site_fract_z
Si Si1 0.810012 0.179248 0.354520
Si Si2 0.274681 0.825397 0.724392
Si Si3 0.603412 0.174626 0.108765
Si Si4 0.000000 0.670271 0.533699
Si Si5 0.142983 0.839543 0.607057
Si Si6 0.000000 0.818343 0.876789
Si Si7 0.294550 0.167087 0.493613
O O1 0.745873 0.234955 0.293632
O O2 0.758947 0.219880 0.426095
O O3 0.906451 0.255476 0.349214
O O4 0.820657 0.000000 0.353503
O O5 0.346518 0.757785 0.671769
O O6 0.184213 0.817075 0.681550
O O7 0.293196 0.000000 0.737229
O O8 0.500000 0.195057 0.116243
O O9 0.633744 0.234342 0.033036
O O10 0.624605 0.000000 0.113080
O O11 0.081469 0.714171 0.579497
O O12 0.000000 0.500000 0.518971
O O13 0.000000 0.739299 0.457164
O O14 0.222305 0.845113 0.553540
O O15 0.098499 0.000000 0.604430
O O16 0.000000 0.000000 0.870511
O O17 0.328234 0.000000 0.479045
#
# Coordination Sequence:
#
# PCOD9359073 Si02
#       7
#     8   8   8   4   8   4   8
#     4  11  22  38  59  84 116 157 198 238 287 340
#     4  10  22  39  58  83 114 151 190 235 291 346
#     4  10  21  38  62  90 116 145 186 235 287 348
#     4  11  21  30  49  80 107 139 189 240 280 323
#     4   9  18  34  53  73 103 142 183 226 278 333
#     4  11  23  36  53  82 117 155 197 240 286 337
#     4   9  19  35  57  83 110 144 186 230 282 339
#
# _framework density 18.021802999999998
#
# number of rings (size 3 to 8) (size 9 to 14) (size 15 to 20)
#    0.000    2.000    1.667    3.000    0.000    7.333 
#    0.000    1.667    0.000    1.000    0.000    0.000 
#    0.000    0.000    0.000    0.000    0.000    0.000 
#
# Total GULP energy -133616.879504 kJ/mol
# GULP energy per Si atom -5567.369979 kJ/mol
# Density = 1.798078 g / cm^3
# Si number density = 18.021803 Si / 1000 Ang^3
#
#
#
# Elastic Constant Matrix: (Units=GPa)
#
#
# Indices 1 2 3 4 5 6 
#
# 1 74.1409 45.3790 25.6781 0.0000 0.0000 0.0000
# 2 45.3790 79.7341 30.7428 0.0000 0.0000 0.0000
# 3 25.6781 30.7428 97.6357 0.0000 0.0000 0.0000
# 4 0.0000 0.0000 0.0000 23.6903 0.0000 0.0000
# 5 0.0000 0.0000 0.0000 0.0000 9.0678 0.0000
# 6 0.0000 0.0000 0.0000 0.0000 0.0000 29.5897
#
#
#
# Elastic Compliance Matrix: (Units=1/GPa)
#
#
# Indices 1 2 3 4 5 6 
#
# 1 0.021038 -0.011199 -0.002006 0.000000 0.000000 0.000000
# 2 -0.011199 0.020237 -0.003427 0.000000 0.000000 0.000000
# 3 -0.002006 -0.003427 0.011849 0.000000 0.000000 0.000000
# 4 0.000000 0.000000 0.000000 0.042211 0.000000 0.000000
# 5 0.000000 0.000000 0.000000 0.000000 0.110280 0.000000
# 6 0.000000 0.000000 0.000000 0.000000 0.000000 0.033796
#
#
# Mechanical properties :
#
#
# Convention : Reuss Voigt Hill
#
# Bulk Modulus (GPa) = 50.35711 50.56783 50.46247
# Shear Modulus (GPa) = 17.90226 22.45028 20.17627
#
# Velocity S-wave (km/s) = 3.15519 3.53332 3.34959
# Velocity P-wave (km/s) = 6.42469 6.69074 6.55906
#
# Compressibility (1/GPa) = 0.01985817
#
# Stress axis : x y z
#
# Youngs Moduli (GPa) = 47.53407 49.41500 84.39681
#
# Poissons Ratio (x) = 0.55342 0.16934
# Poissons Ratio (y) = 0.53236 0.28919
# Poissons Ratio (z) = 0.09538 0.16932
#
# Static dielectric constant tensor:
#      x y z
#    x 1.602090 0.000000 0.000000 
#    y 0.000000 1.653160 0.000000 
#    z 0.000000 0.000000 1.616750 
# 
# From -- ./inp_files/18174.got.cif
#   From: 2010.05.17/outbox.cif.g08.bks.cpg/sg38_10_cif.got.tgz:18174.got - 2010.06.03 18:07:57.
