data_PCOD9359650
_publ_section_title
;
Structure prediction by ZEFSAII (Michael W. Deem and Ramdas Pophale) SiO2 
 PCOD9359650
Probable space group: A M M 2
;
_chemical_formula_sum "Si O2"
_cell_formula_units_Z 32
_cell_length_a 9.000000
_cell_length_b 15.000000
_cell_length_c 30.000000
_cell_angle_alpha 90.000000
_cell_angle_beta 90.000000
_cell_angle_gamma 90.000000
_cell_volume 4050.000000
_symmetry_space_group_name_H-M "A M M 2"
_symmetry_group_IT_number 38
_symmetry_cell_setting 'orthorhombic'
loop_
_space_group_symop_operation_xyz
x,y,z
-x,-y,z
-x,y,z
x,-y,z
x,1/2+y,1/2+z
-x,1/2-y,1/2+z
-x,1/2+y,1/2+z
x,1/2-y,1/2+z
loop_
_atom_site_type_symbol
_atom_site_label
_atom_site_fract_x
_atom_site_fract_y
_atom_site_fract_z
Si Si1 0.179394 0.103145 0.277410
Si Si2 0.819341 0.603404 0.144102
Si Si3 0.320366 0.278078 0.960139
Si Si4 0.180347 0.602871 0.315524
Si Si5 0.820325 0.605597 0.040260
Si Si6 0.322355 0.604541 0.873028
Si Si7 0.820169 0.605875 0.417988
Si Si8 0.181121 0.719073 0.230046
O O1 0.242421 0.127649 0.326412
O O2 0.224098 0.178334 0.241167
O O3 0.000000 0.104744 0.280049
O O4 0.224341 0.000000 0.267801
O O5 0.774722 0.500000 0.153314
O O6 0.777705 0.624811 0.092402
O O7 0.770199 0.670702 0.183843
O O8 0.000000 0.604178 0.144658
O O9 0.500000 0.274607 0.963587
O O10 0.280806 0.336226 0.915813
O O11 0.255034 0.178980 0.950261
O O12 0.254660 0.329577 0.003580
O O13 0.223361 0.500000 0.307766
O O14 0.225407 0.626649 0.366300
O O15 0.229346 0.663078 0.273979
O O16 0.000000 0.606128 0.315786
O O17 0.785114 0.500000 0.032052
O O18 0.000000 0.614425 0.037079
O O19 0.500000 0.613010 0.866642
O O20 0.289546 0.500000 0.882222
O O21 0.785661 0.500000 0.426022
O O22 0.000000 0.614122 0.420873
O O23 0.000000 0.716936 0.228995
#
# Coordination Sequence:
#
# PCOD9359650 Si02
#       8
#     8   8   8   8   8   8   8   8
#     4   9  17  27  40  62  90 118 149 183 218 258
#     4   8  14  25  42  65  90 114 142 178 222 270
#     4  11  21  31  47  69  92 121 156 192 231 277
#     4   8  13  21  36  61  89 114 142 177 218 263
#     4   9  18  32  49  69  92 117 148 189 235 281
#     4   9  18  31  44  61  89 123 156 188 224 269
#     4   9  18  32  48  67  94 126 158 191 224 262
#     4   9  14  21  38  62  88 116 143 177 220 262
#
# _framework density 7.9012349999999998
#
# number of rings (size 3 to 8) (size 9 to 14) (size 15 to 20)
#    0.000    3.000    0.000    3.375    0.000    4.500 
#    0.000    1.250    0.000    1.500    0.000    3.500 
#    0.000    4.000    0.000    0.000    0.000    0.000 
#
# Total GULP energy -178194.927950 kJ/mol
# GULP energy per Si atom -5568.591498 kJ/mol
# Density = 0.788325 g / cm^3
# Si number density = 7.901235 Si / 1000 Ang^3
#
#
#
# Elastic Constant Matrix: (Units=GPa)
#
#
# Indices 1 2 3 4 5 6 
#
# 1 18.5696 24.3688 23.9742 0.0000 0.0000 0.0000
# 2 24.3688 121.3815 88.5694 0.0000 0.0000 0.0000
# 3 23.9742 88.5694 131.3760 0.0000 0.0000 0.0000
# 4 0.0000 0.0000 0.0000 37.0409 0.0000 0.0000
# 5 0.0000 0.0000 0.0000 0.0000 14.0581 0.0000
# 6 0.0000 0.0000 0.0000 0.0000 0.0000 15.4659
#
#
#
# Elastic Compliance Matrix: (Units=1/GPa)
#
#
# Indices 1 2 3 4 5 6 
#
# 1 0.076320 -0.010155 -0.007081 0.000000 0.000000 0.000000
# 2 -0.010155 0.017566 -0.009989 0.000000 0.000000 0.000000
# 3 -0.007081 -0.009989 0.015638 0.000000 0.000000 0.000000
# 4 0.000000 0.000000 0.000000 0.026997 0.000000 0.000000
# 5 0.000000 0.000000 0.000000 0.000000 0.071134 0.000000
# 6 0.000000 0.000000 0.000000 0.000000 0.000000 0.064658
#
#
# Mechanical properties :
#
#
# Convention : Reuss Voigt Hill
#
# Bulk Modulus (GPa) = 18.15761 60.57244 39.36503
# Shear Modulus (GPa) = 14.48759 22.27395 18.38077
#
# Velocity S-wave (km/s) = 3.03114 3.75844 3.41421
# Velocity P-wave (km/s) = 4.87501 7.56628 6.36453
#
# Compressibility (1/GPa) = 0.05507332
#
# Stress axis : x y z
#
# Youngs Moduli (GPa) = 13.10275 56.92676 63.94484
#
# Poissons Ratio (x) = 0.57811 0.45278
# Poissons Ratio (y) = 0.13306 0.63878
# Poissons Ratio (z) = 0.09278 0.56867
#
# Static dielectric constant tensor:
#      x y z
#    x 1.522000 0.000000 0.000000 
#    y 0.000000 1.550360 0.000000 
#    z 0.000000 0.000000 1.523550 
# 
# From -- ./inp_files/24763.got.cif
#   From: 2010.05.17/outbox.ucp.g08.bks.cvg/sg38_13_cif.got.tgz:24763.got - 2010.06.11 10:39:43.
