data_PCOD9359787
_publ_section_title
;
Structure prediction by ZEFSAII (Michael W. Deem and Ramdas Pophale) SiO2 
 PCOD9359787
Probable space group: A B M 2
;
_chemical_formula_sum "Si O2"
_cell_formula_units_Z 64
_cell_length_a 9.971241
_cell_length_b 30.320490
_cell_length_c 9.573238
_cell_angle_alpha 90.000000
_cell_angle_beta 90.000000
_cell_angle_gamma 90.000000
_cell_volume 2894.304932
_symmetry_space_group_name_H-M "A B M 2"
_symmetry_group_IT_number 39
_symmetry_cell_setting 'orthorhombic'
loop_
_space_group_symop_operation_xyz
x,y,z
-x,-y,z
-x,1/2+y,z
x,1/2-y,z
x,1/2+y,1/2+z
-x,1/2-y,1/2+z
-x,y,1/2+z
x,-y,1/2+z
loop_
_atom_site_type_symbol
_atom_site_label
_atom_site_fract_x
_atom_site_fract_y
_atom_site_fract_z
Si Si1 0.330949 0.303291 0.838190
Si Si2 0.487801 0.197209 0.588779
Si Si3 0.713562 0.649995 0.256043
Si Si4 0.056462 0.406374 0.788723
Si Si5 0.873342 0.144912 0.017984
Si Si6 0.222901 0.554159 0.717169
Si Si7 0.104187 0.699365 0.553421
Si Si8 0.841464 0.011915 0.445472
O O1 0.338698 0.250000 0.836014
O O2 0.359037 0.317497 0.679659
O O3 0.191578 0.313018 0.916267
O O4 0.447235 0.320010 0.944729
O O5 0.477269 0.250000 0.571144
O O6 0.605055 0.183798 0.697985
O O7 0.744218 0.649242 0.419892
O O8 0.692250 0.599121 0.212623
O O9 0.846969 0.667646 0.177142
O O10 0.128961 0.378946 0.667037
O O11 0.152254 0.443315 0.854628
O O12 0.980320 0.381859 0.917354
O O13 0.932752 0.430609 0.711774
O O14 0.947455 0.191679 0.034066
O O15 0.236523 0.522180 0.586753
O O16 0.228793 0.527146 0.860270
O O17 0.134410 0.750000 0.586891
O O18 0.000000 0.000000 0.468436
#
# Coordination Sequence:
#
# PCOD9359787 Si02
#       8
#     8   8   8   8   8   8   8   8
#     4   8  16  31  53  74  92 122 167 219 261 294
#     4   9  17  34  56  75  99 130 169 217 264 303
#     4  10  20  33  50  70 106 142 169 207 253 309
#     4  10  18  31  46  63  96 137 170 208 248 289
#     4  11  19  33  47  68 104 141 172 209 243 302
#     4  10  19  28  46  68  96 132 167 206 247 300
#     4  10  19  33  51  70 100 141 176 207 255 307
#     4  10  18  27  45  69  94 133 174 205 252 295
#
# _framework density 22.112390999999999
#
# number of rings (size 3 to 8) (size 9 to 14) (size 15 to 20)
#    0.000    2.250    3.750    2.250    3.500    1.000 
#    2.250    0.000    0.000    0.000    0.000    0.000 
#    0.000   21.000    0.000    0.000    0.000    0.000 
#
# Total GULP energy -178444.708781 kJ/mol
# GULP energy per Si atom -5576.397149 kJ/mol
# Density = 2.206206 g / cm^3
# Si number density = 22.112391 Si / 1000 Ang^3
#
#
#
# Elastic Constant Matrix: (Units=GPa)
#
#
# Indices 1 2 3 4 5 6 
#
# 1 15.8709 -7.7124 -5.7168 0.0000 0.0000 0.0000
# 2 -7.7124 54.5381 29.2179 0.0000 0.0000 0.0000
# 3 -5.7168 29.2179 115.0414 0.0000 0.0000 0.0000
# 4 0.0000 0.0000 0.0000 30.2370 0.0000 0.0000
# 5 0.0000 0.0000 0.0000 0.0000 17.2720 0.0000
# 6 0.0000 0.0000 0.0000 0.0000 0.0000 6.4287
#
#
#
# Elastic Compliance Matrix: (Units=1/GPa)
#
#
# Indices 1 2 3 4 5 6 
#
# 1 0.067774 0.009005 0.001081 0.000000 0.000000 0.000000
# 2 0.009005 0.022420 -0.005247 0.000000 0.000000 0.000000
# 3 0.001081 -0.005247 0.010079 0.000000 0.000000 0.000000
# 4 0.000000 0.000000 0.000000 0.033072 0.000000 0.000000
# 5 0.000000 0.000000 0.000000 0.000000 0.057897 0.000000
# 6 0.000000 0.000000 0.000000 0.000000 0.000000 0.155552
#
#
# Mechanical properties :
#
#
# Convention : Reuss Voigt Hill
#
# Bulk Modulus (GPa) = 9.09498 24.11420 16.60459
# Shear Modulus (GPa) = 13.37737 22.09834 17.73785
#
# Velocity S-wave (km/s) = 2.46229 3.16470 2.83533
# Velocity P-wave (km/s) = 3.49368 4.92775 4.27133
#
# Compressibility (1/GPa) = 0.10995080
#
# Stress axis : x y z
#
# Youngs Moduli (GPa) = 14.75501 44.60293 99.21852
#
# Poissons Ratio (x) = -0.40165 -0.10724
# Poissons Ratio (y) = -0.13287 0.52057
# Poissons Ratio (z) = -0.01595 0.23402
#
# Static dielectric constant tensor:
#      x y z
#    x 1.903760 0.000000 0.000000 
#    y 0.000000 1.828680 0.000000 
#    z 0.000000 0.000000 1.879010 
# 
# From -- ./inp_files/3580.got.cif
#   From: 2010.05.17/outbox.cif.g08.bks.cpg/sg39_2_cif.got.tgz:3580.got - 2010.06.03 18:22:40.
