data_PCOD9359764
_publ_section_title
;
Structure prediction by ZEFSAII (Michael W. Deem and Ramdas Pophale) SiO2 
 PCOD9359764
Probable space group: A B M 2
;
_chemical_formula_sum "Si O2"
_cell_formula_units_Z 56
_cell_length_a 26.953552
_cell_length_b 19.398973
_cell_length_c 5.415903
_cell_angle_alpha 90.000000
_cell_angle_beta 90.000000
_cell_angle_gamma 90.000000
_cell_volume 2831.819850
_symmetry_space_group_name_H-M "A B M 2"
_symmetry_group_IT_number 39
_symmetry_cell_setting 'orthorhombic'
loop_
_space_group_symop_operation_xyz
x,y,z
-x,-y,z
-x,1/2+y,z
x,1/2-y,z
x,1/2+y,1/2+z
-x,1/2-y,1/2+z
-x,y,1/2+z
x,-y,1/2+z
loop_
_atom_site_type_symbol
_atom_site_label
_atom_site_fract_x
_atom_site_fract_y
_atom_site_fract_z
Si Si1 0.891059 0.454637 0.051840
Si Si2 0.470438 0.332755 0.029303
Si Si3 0.362648 0.612277 0.644234
Si Si4 0.325688 0.600813 0.145471
Si Si5 0.296037 0.250000 0.677050
Si Si6 0.032493 0.829265 0.045933
Si Si7 0.222725 0.458722 0.509751
Si Si8 0.704464 0.750000 0.176669
O O1 0.899053 0.498582 0.304909
O O2 0.833145 0.432374 0.045041
O O3 0.926124 0.388364 0.047437
O O4 0.462360 0.250000 0.035147
O O5 0.505356 0.349485 0.264380
O O6 0.418123 0.369474 0.069367
O O7 0.337667 0.572148 0.415871
O O8 0.330188 0.682524 0.675621
O O9 0.358921 0.579053 0.914550
O O10 0.331096 0.683327 0.178251
O O11 0.268699 0.589899 0.072091
O O12 0.265601 0.250000 0.427332
O O13 0.265271 0.250000 0.926104
O O14 0.051578 0.750000 0.046464
O O15 0.000231 0.837227 0.795225
O O16 0.227591 0.483233 0.225775
#
# Coordination Sequence:
#
# PCOD9359764 Si02
#       8
#     8   8   8   8   4   8   8   4
#     4  10  21  37  59  85 116 155 197 243 292 344
#     4  10  19  28  41  63  96 138 171 197 246 315
#     4  10  17  29  45  66  97 127 172 205 249 302
#     4  10  19  31  51  73  97 134 169 211 254 311
#     4   8  16  26  42  67  94 118 160 197 240 294
#     4  10  21  37  58  86 122 159 197 246 298 341
#     4  10  21  38  56  77 109 140 175 225 278 319
#     4   8  14  24  38  57  88 126 146 195 236 282
#
# _framework density 19.775272000000001
#
# number of rings (size 3 to 8) (size 9 to 14) (size 15 to 20)
#    0.000    2.286    0.714    2.571    0.000    1.714 
#    1.286    0.000    0.000    0.000    0.000    0.000 
#    0.000   40.000    0.000    0.000    0.000    0.000 
#
# Total GULP energy -155978.501351 kJ/mol
# GULP energy per Si atom -5570.660763 kJ/mol
# Density = 1.973026 g / cm^3
# Si number density = 19.775272 Si / 1000 Ang^3
#
#
#
# Elastic Constant Matrix: (Units=GPa)
#
#
# Indices 1 2 3 4 5 6 
#
# 1 76.6887 30.2962 7.5857 0.0000 0.0000 0.0000
# 2 30.2962 51.6595 -10.9994 0.0000 0.0000 0.0000
# 3 7.5857 -10.9994 152.7780 0.0000 0.0000 0.0000
# 4 0.0000 0.0000 0.0000 7.3971 0.0000 0.0000
# 5 0.0000 0.0000 0.0000 0.0000 25.2294 0.0000
# 6 0.0000 0.0000 0.0000 0.0000 0.0000 20.1025
#
#
#
# Elastic Compliance Matrix: (Units=1/GPa)
#
#
# Indices 1 2 3 4 5 6 
#
# 1 0.017358 -0.010524 -0.001620 0.000000 0.000000 0.000000
# 2 -0.010524 0.026040 0.002397 0.000000 0.000000 0.000000
# 3 -0.001620 0.002397 0.006798 0.000000 0.000000 0.000000
# 4 0.000000 0.000000 0.000000 0.135187 0.000000 0.000000
# 5 0.000000 0.000000 0.000000 0.000000 0.039636 0.000000
# 6 0.000000 0.000000 0.000000 0.000000 0.000000 0.049745
#
#
# Mechanical properties :
#
#
# Convention : Reuss Voigt Hill
#
# Bulk Modulus (GPa) = 32.57012 37.21012 34.89012
# Shear Modulus (GPa) = 16.42077 27.49539 21.95808
#
# Velocity S-wave (km/s) = 2.88474 3.73284 3.33585
# Velocity P-wave (km/s) = 5.25371 6.11851 5.70253
#
# Compressibility (1/GPa) = 0.03070299
#
# Stress axis : x y z
#
# Youngs Moduli (GPa) = 57.61156 38.40234 147.09223
#
# Poissons Ratio (x) = 0.40416 0.23822
# Poissons Ratio (y) = 0.60633 -0.35263
# Poissons Ratio (z) = 0.09330 -0.09206
#
# Static dielectric constant tensor:
#      x y z
#    x 1.639840 0.000000 0.000000 
#    y 0.000000 1.721020 0.000000 
#    z 0.000000 0.000000 1.801610 
# 
# From -- ./inp_files/1114.got.cif
#   From: 2010.05.17/outbox.cif.g08.bks.cpg/sg39_1_cif.got.tgz:1114.got - 2010.06.03 18:22:40.
