data_PCOD9359501
_publ_section_title
;
Structure prediction by ZEFSAII (Michael W. Deem and Ramdas Pophale) SiO2 
 PCOD9359501
Probable space group: A M M 2
;
_chemical_formula_sum "Si O2"
_cell_formula_units_Z 40
_cell_length_a 10.085960
_cell_length_b 7.452106
_cell_length_c 27.099559
_cell_angle_alpha 90.000000
_cell_angle_beta 90.000000
_cell_angle_gamma 90.000000
_cell_volume 2036.847380
_symmetry_space_group_name_H-M "A M M 2"
_symmetry_group_IT_number 38
_symmetry_cell_setting 'orthorhombic'
loop_
_space_group_symop_operation_xyz
x,y,z
-x,-y,z
-x,y,z
x,-y,z
x,1/2+y,1/2+z
-x,1/2-y,1/2+z
-x,1/2+y,1/2+z
x,1/2-y,1/2+z
loop_
_atom_site_type_symbol
_atom_site_label
_atom_site_fract_x
_atom_site_fract_y
_atom_site_fract_z
Si Si1 0.350017 0.214480 0.247100
Si Si2 0.338609 0.707474 0.853704
Si Si3 0.653343 0.720018 0.961681
Si Si4 0.850319 0.215065 0.658945
Si Si5 0.847188 0.218737 0.548297
O O1 0.500000 0.281134 0.237486
O O2 0.300637 0.285838 0.300442
O O3 0.252330 0.244334 0.201928
O O4 0.359848 0.000000 0.253420
O O5 0.500000 0.707955 0.853310
O O6 0.293877 0.500000 0.854357
O O7 0.301621 0.783298 0.907178
O O8 0.500000 0.772098 0.969421
O O9 0.654596 0.500000 0.960465
O O10 0.747923 0.779379 0.005784
O O11 0.810929 0.277268 0.603923
O O12 0.000000 0.280636 0.669453
O O13 0.857461 0.000000 0.655997
O O14 0.000000 0.270790 0.539309
O O15 0.843876 0.000000 0.547788
#
# Coordination Sequence:
#
# PCOD9359501 Si02
#       5
#     8   8   8   8   8
#     4   9  17  29  45  65  88 113 142 176 212 251
#     4   7  11  21  36  55  81 108 130 159 204 251
#     4   8  12  19  34  55  77 102 131 162 200 247
#     4   9  18  31  44  60  86 118 147 175 210 251
#     4   8  14  24  36  52  78 108 134 165 206 246
#
# _framework density 19.638192
#
# number of rings (size 3 to 8) (size 9 to 14) (size 15 to 20)
#    0.000    3.800    0.000    3.600    0.000    1.600 
#    0.000    3.000    0.000    3.600    0.000    1.400 
#    0.000    1.600    0.000    0.000    0.000    0.000 
#
# Total GULP energy -111348.134775 kJ/mol
# GULP energy per Si atom -5567.406739 kJ/mol
# Density = 1.959349 g / cm^3
# Si number density = 19.638192 Si / 1000 Ang^3
#
#
#
# Elastic Constant Matrix: (Units=GPa)
#
#
# Indices 1 2 3 4 5 6 
#
# 1 92.6207 3.4606 128.8456 0.0000 0.0000 0.0000
# 2 3.4606 56.9625 8.4032 0.0000 0.0000 0.0000
# 3 128.8456 8.4032 254.6149 0.0000 0.0000 0.0000
# 4 0.0000 0.0000 0.0000 12.0381 0.0000 0.0000
# 5 0.0000 0.0000 0.0000 0.0000 -36.0989 0.0000
# 6 0.0000 0.0000 0.0000 0.0000 0.0000 7.0611
#
#
#
# Elastic Compliance Matrix: (Units=1/GPa)
#
#
# Indices 1 2 3 4 5 6 
#
# 1 0.036485 0.000510 -0.018480 0.000000 0.000000 0.000000
# 2 0.000510 0.017648 -0.000840 0.000000 0.000000 0.000000
# 3 -0.018480 -0.000840 0.013307 0.000000 0.000000 0.000000
# 4 0.000000 0.000000 0.000000 0.083070 0.000000 0.000000
# 5 0.000000 0.000000 0.000000 0.000000 -0.027702 0.000000
# 6 0.000000 0.000000 0.000000 0.000000 0.000000 0.141620
#
#
# Mechanical properties :
#
#
# Convention : Reuss Voigt Hill
#
# Bulk Modulus (GPa) = 33.53538 76.17967 54.85752
# Shear Modulus (GPa) = 16.02621 14.16598 15.09610
#
# Velocity S-wave (km/s) = 2.85980 2.68871 2.77557
# Velocity P-wave (km/s) = 5.29323 6.96525 6.18599
#
# Compressibility (1/GPa) = 0.02981925
#
# Stress axis : x y z
#
# Youngs Moduli (GPa) = 27.40850 56.66233 75.14986
#
# Poissons Ratio (x) = -0.02888 1.38875
# Poissons Ratio (y) = -0.01397 0.06315
# Poissons Ratio (z) = 0.50650 0.04762
#
# Static dielectric constant tensor:
#      x y z
#    x 1.650850 0.000000 0.000000 
#    y 0.000000 1.815640 0.000000 
#    z 0.000000 0.000000 1.723950 
# 
# From -- ./inp_files/19461.got.cif
#   From: 2010.05.17/outbox.cif.g08.bks.cpg/sg38_10_cif.got.tgz:19461.got - 2010.06.03 18:07:57.
