data_PCOD9359278
_publ_section_title
;
Structure prediction by ZEFSAII (Michael W. Deem and Ramdas Pophale) SiO2 
 PCOD9359278
Probable space group: A M M 2
;
_chemical_formula_sum "Si O2"
_cell_formula_units_Z 56
_cell_length_a 8.867678
_cell_length_b 16.890843
_cell_length_c 19.652336
_cell_angle_alpha 90.000000
_cell_angle_beta 90.000000
_cell_angle_gamma 90.000000
_cell_volume 2943.577135
_symmetry_space_group_name_H-M "A M M 2"
_symmetry_group_IT_number 38
_symmetry_cell_setting 'orthorhombic'
loop_
_space_group_symop_operation_xyz
x,y,z
-x,-y,z
-x,y,z
x,-y,z
x,1/2+y,1/2+z
-x,1/2-y,1/2+z
-x,1/2+y,1/2+z
x,1/2-y,1/2+z
loop_
_atom_site_type_symbol
_atom_site_label
_atom_site_fract_x
_atom_site_fract_y
_atom_site_fract_z
Si Si1 0.320079 0.000000 0.005280
Si Si2 0.175751 0.089254 0.777372
Si Si3 0.678060 0.348372 0.728707
Si Si4 0.679081 0.262937 0.348512
Si Si5 0.175676 0.588934 0.113181
Si Si6 0.823108 0.663064 0.474665
Si Si7 0.820701 0.000000 0.157724
Si Si8 0.326102 0.249911 0.094619
O O1 0.257621 0.000000 0.083210
O O2 0.500000 0.000000 0.007649
O O3 0.259925 0.078879 0.968828
O O4 0.278864 0.156795 0.808283
O O5 0.183260 0.090730 0.695438
O O6 0.000000 0.103679 0.796212
O O7 0.215848 0.000000 0.799214
O O8 0.500000 0.369225 0.732544
O O9 0.726027 0.310577 0.800592
O O10 0.768274 0.422988 0.700043
O O11 0.691184 0.279106 0.672170
O O12 0.500000 0.258040 0.358539
O O13 0.762464 0.274221 0.419789
O O14 0.217499 0.500000 0.091358
O O15 0.279313 0.659208 0.087079
O O16 0.000000 0.602885 0.094913
O O17 0.780745 0.696689 0.548367
O O18 0.000000 0.651387 0.467390
O O19 0.000000 0.000000 0.147806
O O20 0.500000 0.236472 0.074787
#
# Coordination Sequence:
#
# PCOD9359278 Si02
#       8
#     4   8   8   8   8   8   4   8
#     4  12  24  42  64  92 130 169 210 259 314 380
#     4   9  18  32  51  79 116 153 189 230 276 333
#     4  10  22  40  63  90 124 162 204 256 311 369
#     4  11  23  40  60  86 119 162 204 247 302 365
#     4   9  18  33  55  84 117 153 193 243 295 344
#     4  12  26  42  61  88 123 164 205 253 312 379
#     4  12  24  38  66 100 126 159 206 263 320 374
#     4  11  21  37  61  89 119 157 199 251 307 368
#
# _framework density 19.024470999999998
#
# number of rings (size 3 to 8) (size 9 to 14) (size 15 to 20)
#    0.000    1.429    2.857    4.286    1.000    2.286 
#    0.000    1.429    1.571    0.000    0.000    0.000 
#    0.000    0.000    0.000    0.000    0.000    0.000 
#
# Total GULP energy -156433.844108 kJ/mol
# GULP energy per Si atom -5586.923004 kJ/mol
# Density = 1.898117 g / cm^3
# Si number density = 19.024471 Si / 1000 Ang^3
#
#
#
# Elastic Constant Matrix: (Units=GPa)
#
#
# Indices 1 2 3 4 5 6 
#
# 1 94.1341 33.6030 26.7172 0.0000 0.0000 0.0000
# 2 33.6030 75.3009 5.2302 0.0000 0.0000 0.0000
# 3 26.7172 5.2302 56.6082 0.0000 0.0000 0.0000
# 4 0.0000 0.0000 0.0000 27.4981 0.0000 0.0000
# 5 0.0000 0.0000 0.0000 0.0000 24.9640 0.0000
# 6 0.0000 0.0000 0.0000 0.0000 0.0000 33.2607
#
#
#
# Elastic Compliance Matrix: (Units=1/GPa)
#
#
# Indices 1 2 3 4 5 6 
#
# 1 0.014584 -0.006069 -0.006322 0.000000 0.000000 0.000000
# 2 -0.006069 0.015891 0.001396 0.000000 0.000000 0.000000
# 3 -0.006322 0.001396 0.020520 0.000000 0.000000 0.000000
# 4 0.000000 0.000000 0.000000 0.036366 0.000000 0.000000
# 5 0.000000 0.000000 0.000000 0.000000 0.040058 0.000000
# 6 0.000000 0.000000 0.000000 0.000000 0.000000 0.030066
#
#
# Mechanical properties :
#
#
# Convention : Reuss Voigt Hill
#
# Bulk Modulus (GPa) = 34.47675 39.68265 37.07970
# Shear Modulus (GPa) = 26.43489 27.84408 27.13948
#
# Velocity S-wave (km/s) = 3.73167 3.82984 3.78108
# Velocity P-wave (km/s) = 6.06043 6.36089 6.21248
#
# Compressibility (1/GPa) = 0.02900505
#
# Stress axis : x y z
#
# Youngs Moduli (GPa) = 68.56820 62.92731 48.73224
#
# Poissons Ratio (x) = 0.38190 0.30811
# Poissons Ratio (y) = 0.41614 -0.06804
# Poissons Ratio (z) = 0.43352 -0.08785
#
# Static dielectric constant tensor:
#      x y z
#    x 1.644030 0.000000 0.000000 
#    y 0.000000 1.650990 0.000000 
#    z 0.000000 0.000000 1.671170 
# 
# From -- ./inp_files/19866.got.cif
#   From: 2010.05.17/outbox.cif.g08.bks.cpg/sg38_10_cif.got.tgz:19866.got - 2010.06.03 18:07:57.
