data_PCOD9359641
_publ_section_title
;
Structure prediction by ZEFSAII (Michael W. Deem and Ramdas Pophale) SiO2 
 PCOD9359641
Probable space group: A M M 2
;
_chemical_formula_sum "Si O2"
_cell_formula_units_Z 29
_cell_length_a 18.000000
_cell_length_b 18.000000
_cell_length_c 9.000000
_cell_angle_alpha 90.000000
_cell_angle_beta 90.000000
_cell_angle_gamma 90.000000
_cell_volume 2916.000000
_symmetry_space_group_name_H-M "A M M 2"
_symmetry_group_IT_number 38
_symmetry_cell_setting 'orthorhombic'
loop_
_space_group_symop_operation_xyz
x,y,z
-x,-y,z
-x,y,z
x,-y,z
x,1/2+y,1/2+z
-x,1/2-y,1/2+z
-x,1/2+y,1/2+z
x,1/2-y,1/2+z
loop_
_atom_site_type_symbol
_atom_site_label
_atom_site_fract_x
_atom_site_fract_y
_atom_site_fract_z
Si Si1 0.256026 0.916925 0.838350
Si Si2 0.202416 0.131675 0.526748
Si Si3 0.414925 0.348858 0.338492
Si Si4 0.797963 0.695247 0.588411
Si Si5 0.364621 0.582916 0.908983
Si Si6 0.500000 0.500000 0.039823
Si Si7 0.628071 0.702164 0.669346
Si Si8 0.909401 0.587609 0.771501
O O1 0.210618 0.906349 0.686871
O O2 0.344608 0.903539 0.814721
O O3 0.245935 0.000000 0.898042
O O4 0.225806 0.854351 0.948261
O O5 0.184615 0.219644 0.544533
O O6 0.287099 0.118237 0.465789
O O7 0.137895 0.096576 0.424696
O O8 0.500000 0.378283 0.331175
O O9 0.400270 0.316025 0.504466
O O10 0.403070 0.280172 0.226567
O O11 0.718712 0.703312 0.674626
O O12 0.863741 0.648384 0.670037
O O13 0.345072 0.500000 0.848740
O O14 0.432607 0.563977 0.020850
O O15 0.394583 0.636336 0.780536
O O16 0.901529 0.500000 0.724360
O O17 0.000000 0.601722 0.780725
#
# Coordination Sequence:
#
# PCOD9359641 Si02
#       8
#     8   8   8   8   8   2   8   8
#     4  11  24  41  62  96 129 175 221 267 336 401
#     4  12  22  44  70  97 134 180 222 274 336 410
#     4  11  25  39  59  89 127 174 222 290 336 393
#     4  11  23  43  70  94 131 175 227 270 328 411
#     4  10  21  38  61  93 127 176 232 283 330 399
#     4   8  24  36  56 104 128 180 238 296 334 388
#     4  11  22  40  61  88 123 173 227 275 339 402
#     4  11  25  45  73 107 136 172 222 280 341 416
#
# _framework density 9.9451300000000007
#
# number of rings (size 3 to 8) (size 9 to 14) (size 15 to 20)
#    0.414    0.690    2.759    4.552    1.931    3.034 
#    1.241    0.690    0.000    2.483    0.000    0.000 
#    0.000    0.000    0.000    0.000    0.000    0.000 
#
# Total GULP energy -161647.393339 kJ/mol
# GULP energy per Si atom -5574.048046 kJ/mol
# Density = 0.992249 g / cm^3
# Si number density = 9.945130 Si / 1000 Ang^3
#
#
#
# Elastic Constant Matrix: (Units=GPa)
#
#
# Indices 1 2 3 4 5 6 
#
# 1 153.3108 17.2483 19.8713 0.0000 0.0000 0.0000
# 2 17.2483 109.6450 -3.5181 0.0000 0.0000 0.0000
# 3 19.8713 -3.5181 42.3649 0.0000 0.0000 0.0000
# 4 0.0000 0.0000 0.0000 17.7564 0.0000 0.0000
# 5 0.0000 0.0000 0.0000 0.0000 28.1496 0.0000
# 6 0.0000 0.0000 0.0000 0.0000 0.0000 40.2312
#
#
#
# Elastic Compliance Matrix: (Units=1/GPa)
#
#
# Indices 1 2 3 4 5 6 
#
# 1 0.007106 -0.001228 -0.003435 0.000000 0.000000 0.000000
# 2 -0.001228 0.009357 0.001353 0.000000 0.000000 0.000000
# 3 -0.003435 0.001353 0.025328 0.000000 0.000000 0.000000
# 4 0.000000 0.000000 0.000000 0.056318 0.000000 0.000000
# 5 0.000000 0.000000 0.000000 0.000000 0.035525 0.000000
# 6 0.000000 0.000000 0.000000 0.000000 0.000000 0.024856
#
#
# Mechanical properties :
#
#
# Convention : Reuss Voigt Hill
#
# Bulk Modulus (GPa) = 28.43264 41.39152 34.91208
# Shear Modulus (GPa) = 28.27518 35.34205 31.80861
#
# Velocity S-wave (km/s) = 3.77445 4.21985 4.00334
# Velocity P-wave (km/s) = 5.77244 6.67817 6.24175
#
# Compressibility (1/GPa) = 0.03517084
#
# Stress axis : x y z
#
# Youngs Moduli (GPa) = 140.72410 106.87242 39.48191
#
# Poissons Ratio (x) = 0.13125 0.13562
# Poissons Ratio (y) = 0.17282 -0.05342
# Poissons Ratio (z) = 0.48340 -0.14460
#
# Static dielectric constant tensor:
#      x y z
#    x 1.671500 0.000000 0.000000 
#    y 0.000000 1.707010 0.000000 
#    z 0.000000 0.000000 1.772360 
# 
# From -- ./inp_files/6389.got.cif
#   From: 2010.05.17/outbox.ucp.g08.bks.cvg/sg38_4_cif.got.tgz:6389.got - 2010.06.11 10:39:43.
