data_PCOD9359153
_publ_section_title
;
Structure prediction by ZEFSAII (Michael W. Deem and Ramdas Pophale) SiO2 
 PCOD9359153
Probable space group: A M M 2
;
_chemical_formula_sum "Si O2"
_cell_formula_units_Z 48
_cell_length_a 8.631916
_cell_length_b 10.244327
_cell_length_c 28.375450
_cell_angle_alpha 90.000000
_cell_angle_beta 90.000000
_cell_angle_gamma 90.000000
_cell_volume 2509.189120
_symmetry_space_group_name_H-M "A M M 2"
_symmetry_group_IT_number 38
_symmetry_cell_setting 'orthorhombic'
loop_
_space_group_symop_operation_xyz
x,y,z
-x,-y,z
-x,y,z
x,-y,z
x,1/2+y,1/2+z
-x,1/2-y,1/2+z
-x,1/2+y,1/2+z
x,1/2-y,1/2+z
loop_
_atom_site_type_symbol
_atom_site_label
_atom_site_fract_x
_atom_site_fract_y
_atom_site_fract_z
Si Si1 0.188013 0.653498 0.629540
Si Si2 0.811576 0.000000 0.470412
Si Si3 0.686235 0.153770 0.709946
Si Si4 0.184298 0.247976 0.810076
Si Si5 0.684931 0.000000 0.363444
Si Si6 0.185866 0.757660 0.025467
Si Si7 0.322632 0.000000 0.972628
Si Si8 0.321047 0.500000 0.360580
O O1 0.233626 0.500000 0.635054
O O2 0.252998 0.752081 0.668590
O O3 0.238621 0.707737 0.578328
O O4 0.000000 0.656130 0.631521
O O5 0.749544 0.000000 0.416995
O O6 0.760092 0.874713 0.500640
O O7 0.000000 0.000000 0.467600
O O8 0.500000 0.156008 0.710642
O O9 0.750060 0.213788 0.758557
O O10 0.734026 0.000000 0.705352
O O11 0.256743 0.374748 0.834458
O O12 0.233298 0.126034 0.841947
O O13 0.000000 0.262403 0.807562
O O14 0.500000 0.000000 0.365787
O O15 0.000000 0.751234 0.027738
O O16 0.236860 0.874619 0.992287
O O17 0.500000 0.000000 0.989417
O O18 0.323152 0.000000 0.916590
O O19 0.500000 0.500000 0.343169
#
# Coordination Sequence:
#
# PCOD9359153 Si02
#       8
#     8   4   8   8   4   8   4   4
#     4  10  22  41  66  95 127 165 213 264 318 380
#     4  10  22  40  65  96 127 166 217 265 312 378
#     4  11  25  44  66  94 130 168 209 260 323 387
#     4  12  25  43  68  96 126 166 217 266 315 380
#     4  12  26  44  65  92 133 176 212 265 327 380
#     4  10  21  40  64  91 126 165 209 263 316 369
#     4  11  23  37  60  91 124 165 207 253 310 377
#     4  11  23  41  64  95 132 167 208 259 323 383
#
# _framework density 19.129686
#
# number of rings (size 3 to 8) (size 9 to 14) (size 15 to 20)
#    0.000    1.167    1.667    4.250    2.333    6.667 
#    0.000    0.000    0.000    0.000    0.000    0.000 
#    0.000    0.000    0.000    0.000    0.000    0.000 
#
# Total GULP energy -134134.756950 kJ/mol
# GULP energy per Si atom -5588.948206 kJ/mol
# Density = 1.908615 g / cm^3
# Si number density = 19.129686 Si / 1000 Ang^3
#
#
#
# Elastic Constant Matrix: (Units=GPa)
#
#
# Indices 1 2 3 4 5 6 
#
# 1 56.0746 46.7457 44.7872 0.0000 0.0000 0.0000
# 2 46.7457 217.8268 105.2055 0.0000 0.0000 0.0000
# 3 44.7872 105.2055 158.1394 0.0000 0.0000 0.0000
# 4 0.0000 0.0000 0.0000 64.9304 0.0000 0.0000
# 5 0.0000 0.0000 0.0000 0.0000 46.8582 0.0000
# 6 0.0000 0.0000 0.0000 0.0000 0.0000 58.3865
#
#
#
# Elastic Compliance Matrix: (Units=1/GPa)
#
#
# Indices 1 2 3 4 5 6 
#
# 1 0.024127 -0.002766 -0.004993 0.000000 0.000000 0.000000
# 2 -0.002766 0.007081 -0.003928 0.000000 0.000000 0.000000
# 3 -0.004993 -0.003928 0.010350 0.000000 0.000000 0.000000
# 4 0.000000 0.000000 0.000000 0.015401 0.000000 0.000000
# 5 0.000000 0.000000 0.000000 0.000000 0.021341 0.000000
# 6 0.000000 0.000000 0.000000 0.000000 0.000000 0.017127
#
#
# Mechanical properties :
#
#
# Convention : Reuss Voigt Hill
#
# Bulk Modulus (GPa) = 54.98819 91.72418 73.35618
# Shear Modulus (GPa) = 40.04361 49.72185 44.88273
#
# Velocity S-wave (km/s) = 4.58019 5.10376 4.84905
# Velocity P-wave (km/s) = 7.53513 9.09857 8.35351
#
# Compressibility (1/GPa) = 0.01818572
#
# Stress axis : x y z
#
# Youngs Moduli (GPa) = 41.44680 141.21527 96.61382
#
# Poissons Ratio (x) = 0.39064 0.48238
# Poissons Ratio (y) = 0.11465 0.37946
# Poissons Ratio (z) = 0.20694 0.55463
#
# Static dielectric constant tensor:
#      x y z
#    x 1.651880 0.000000 0.000000 
#    y 0.000000 1.699920 0.000000 
#    z 0.000000 0.000000 1.648750 
# 
# From -- ./inp_files/24495.got.cif
#   From: 2010.05.17/outbox.cif.g08.bks.cpg/sg38_13_cif.got.tgz:24495.got - 2010.06.03 18:07:57.
