data_PCOD9359402
_publ_section_title
;
Structure prediction by ZEFSAII (Michael W. Deem and Ramdas Pophale) SiO2 
 PCOD9359402
Probable space group: A M M 2
;
_chemical_formula_sum "Si O2"
_cell_formula_units_Z 40
_cell_length_a 8.713682
_cell_length_b 19.185400
_cell_length_c 13.887302
_cell_angle_alpha 90.000000
_cell_angle_beta 90.000000
_cell_angle_gamma 90.000000
_cell_volume 2321.616303
_symmetry_space_group_name_H-M "A M M 2"
_symmetry_group_IT_number 38
_symmetry_cell_setting 'orthorhombic'
loop_
_space_group_symop_operation_xyz
x,y,z
-x,-y,z
-x,y,z
x,-y,z
x,1/2+y,1/2+z
-x,1/2-y,1/2+z
-x,1/2+y,1/2+z
x,1/2-y,1/2+z
loop_
_atom_site_type_symbol
_atom_site_label
_atom_site_fract_x
_atom_site_fract_y
_atom_site_fract_z
Si Si1 0.817922 0.284761 0.875000
Si Si2 0.312775 0.000000 0.871155
Si Si3 0.315793 0.285993 0.082347
Si Si4 0.685483 0.146467 0.782089
Si Si5 0.685251 0.855769 0.190306
Si Si6 0.312729 0.500000 0.593690
O O1 0.752840 0.208566 0.846535
O O2 0.753081 0.336935 0.794027
O O3 0.000000 0.283596 0.870052
O O4 0.762468 0.302751 0.981883
O O5 0.264241 0.070841 0.818342
O O6 0.500000 0.000000 0.870586
O O7 0.263586 0.000000 0.982448
O O8 0.500000 0.288055 0.069800
O O9 0.274660 0.336429 0.171339
O O10 0.274458 0.208051 0.118788
O O11 0.500000 0.150646 0.789533
O O12 0.500000 0.855750 0.198125
O O13 0.735818 0.929584 0.147540
O O14 0.500000 0.500000 0.593172
#
# Coordination Sequence:
#
# PCOD9359402 Si02
#       6
#     8   4   8   8   8   4
#     4  11  21  32  49  72 101 136 169 203 242 286
#     4   9  16  30  54  81 102 120 153 203 256 299
#     4   9  17  31  51  73  99 131 166 204 244 288
#     4   9  18  33  54  77 100 127 162 205 248 294
#     4   9  18  33  53  76 100 127 163 205 247 293
#     4   9  16  28  52  81 102 122 153 201 254 297
#
# _framework density 17.229375999999998
#
# number of rings (size 3 to 8) (size 9 to 14) (size 15 to 20)
#    0.000    2.600    0.000    4.200    0.000    6.400 
#    0.000    2.000    0.000    4.800    0.000    0.000 
#    0.000    0.000    0.000    0.000    0.000    0.000 
#
# Total GULP energy -111565.356904 kJ/mol
# GULP energy per Si atom -5578.267845 kJ/mol
# Density = 1.719016 g / cm^3
# Si number density = 17.229376 Si / 1000 Ang^3
#
#
#
# Elastic Constant Matrix: (Units=GPa)
#
#
# Indices 1 2 3 4 5 6 
#
# 1 19.3467 26.3239 36.9422 0.0000 0.0000 0.0000
# 2 26.3239 154.1314 92.8276 0.0000 0.0000 0.0000
# 3 36.9422 92.8276 155.8544 0.0000 0.0000 0.0000
# 4 0.0000 0.0000 0.0000 14.6127 0.0000 0.0000
# 5 0.0000 0.0000 0.0000 0.0000 -8.3980 0.0000
# 6 0.0000 0.0000 0.0000 0.0000 0.0000 4.6186
#
#
#
# Elastic Compliance Matrix: (Units=1/GPa)
#
#
# Indices 1 2 3 4 5 6 
#
# 1 0.096141 -0.004203 -0.020285 0.000000 0.000000 0.000000
# 2 -0.004203 0.010301 -0.005139 0.000000 0.000000 0.000000
# 3 -0.020285 -0.005139 0.014285 0.000000 0.000000 0.000000
# 4 0.000000 0.000000 0.000000 0.068434 0.000000 0.000000
# 5 0.000000 0.000000 0.000000 0.000000 -0.119077 0.000000
# 6 0.000000 0.000000 0.000000 0.000000 0.000000 0.216517
#
#
# Mechanical properties :
#
#
# Convention : Reuss Voigt Hill
#
# Bulk Modulus (GPa) = 16.26725 71.27998 43.77362
# Shear Modulus (GPa) = 13.64830 13.71592 13.68211
#
# Velocity S-wave (km/s) = 2.81757 2.82455 2.82106
# Velocity P-wave (km/s) = 4.47739 7.21792 6.00606
#
# Compressibility (1/GPa) = 0.06147319
#
# Stress axis : x y z
#
# Youngs Moduli (GPa) = 10.40139 97.07992 70.00238
#
# Poissons Ratio (x) = 0.40801 1.42000
# Poissons Ratio (y) = 0.04372 0.35974
# Poissons Ratio (z) = 0.21099 0.49889
#
# Static dielectric constant tensor:
#      x y z
#    x 1.569350 0.000000 0.000000 
#    y 0.000000 1.573610 0.000000 
#    z 0.000000 0.000000 1.568030 
# 
# From -- ./inp_files/7962.got.cif
#   From: 2010.05.17/outbox.cif.g08.bks.cpg/sg38_4_cif.got.tgz:7962.got - 2010.06.03 18:07:57.
