data_PCOD9359355
_publ_section_title
;
Structure prediction by ZEFSAII (Michael W. Deem and Ramdas Pophale) SiO2 
 PCOD9359355
Probable space group: A M M 2
;
_chemical_formula_sum "Si O2"
_cell_formula_units_Z 38
_cell_length_a 10.749251
_cell_length_b 27.403251
_cell_length_c 4.833877
_cell_angle_alpha 90.000000
_cell_angle_beta 90.000000
_cell_angle_gamma 90.000000
_cell_volume 1423.888190
_symmetry_space_group_name_H-M "A M M 2"
_symmetry_group_IT_number 38
_symmetry_cell_setting 'orthorhombic'
loop_
_space_group_symop_operation_xyz
x,y,z
-x,-y,z
-x,y,z
x,-y,z
x,1/2+y,1/2+z
-x,1/2-y,1/2+z
-x,1/2+y,1/2+z
x,1/2-y,1/2+z
loop_
_atom_site_type_symbol
_atom_site_label
_atom_site_fract_x
_atom_site_fract_y
_atom_site_fract_z
Si Si1 0.364938 0.078726 0.065040
Si Si2 0.000000 0.215697 0.118305
Si Si3 0.785050 0.649728 0.860341
Si Si4 0.357958 0.284858 0.265747
Si Si5 0.500000 0.000000 0.369587
Si Si6 0.137556 0.945103 0.668413
O O1 0.500000 0.075979 0.913433
O O2 0.331652 0.131769 0.177412
O O3 0.251351 0.060641 0.881668
O O4 0.393283 0.042536 0.319462
O O5 0.882338 0.183101 0.200273
O O6 0.000000 0.264522 0.307563
O O7 0.735530 0.676676 0.133046
O O8 0.847329 0.598830 0.952371
O O9 0.500000 0.301956 0.230790
O O10 0.342288 0.237081 0.069066
O O11 0.000000 0.938867 0.801115
O O12 0.139418 0.000000 0.552833
#
# Coordination Sequence:
#
# PCOD9359355 Si02
#       6
#     8   4   8   8   2   8
#     4  10  23  44  70 103 153 200 258 317 387 464
#     4  12  30  52  79 114 159 206 262 338 412 478
#     4  12  26  42  73 109 142 202 259 317 389 478
#     4  10  23  44  68 101 143 189 245 317 386 449
#     4   8  20  48  64 112 144 218 250 320 398 452
#     4  11  25  44  70 107 153 200 255 318 390 465
#
# _framework density 26.687491000000001
#
# number of rings (size 3 to 8) (size 9 to 14) (size 15 to 20)
#    0.632    0.632    2.105    1.895    8.842    1.684 
#    0.000    3.158    0.000    0.000    0.000    0.000 
#    0.000    0.000    0.000    0.000    0.000    0.000 
#
# Total GULP energy -106253.574468 kJ/mol
# GULP energy per Si atom -5592.293393 kJ/mol
# Density = 2.662675 g / cm^3
# Si number density = 26.687491 Si / 1000 Ang^3
#
#
#
# Elastic Constant Matrix: (Units=GPa)
#
#
# Indices 1 2 3 4 5 6 
#
# 1 199.8145 40.2098 26.7704 0.0000 0.0000 0.0000
# 2 40.2098 142.8657 -0.4380 0.0000 0.0000 0.0000
# 3 26.7704 -0.4380 57.5889 0.0000 0.0000 0.0000
# 4 0.0000 0.0000 0.0000 13.5862 0.0000 0.0000
# 5 0.0000 0.0000 0.0000 0.0000 39.0001 0.0000
# 6 0.0000 0.0000 0.0000 0.0000 0.0000 63.8817
#
#
#
# Elastic Compliance Matrix: (Units=1/GPa)
#
#
# Indices 1 2 3 4 5 6 
#
# 1 0.005684 -0.001608 -0.002654 0.000000 0.000000 0.000000
# 2 -0.001608 0.007455 0.000804 0.000000 0.000000 0.000000
# 3 -0.002654 0.000804 0.018604 0.000000 0.000000 0.000000
# 4 0.000000 0.000000 0.000000 0.073604 0.000000 0.000000
# 5 0.000000 0.000000 0.000000 0.000000 0.025641 0.000000
# 6 0.000000 0.000000 0.000000 0.000000 0.000000 0.015654
#
#
# Mechanical properties :
#
#
# Convention : Reuss Voigt Hill
#
# Bulk Modulus (GPa) = 40.27929 59.26150 49.77039
# Shear Modulus (GPa) = 30.89596 45.54206 38.21901
#
# Velocity S-wave (km/s) = 3.40618 4.13546 3.78841
# Velocity P-wave (km/s) = 5.53129 6.71242 6.15027
#
# Compressibility (1/GPa) = 0.02482666
#
# Stress axis : x y z
#
# Youngs Moduli (GPa) = 175.93793 134.14572 53.75049
#
# Poissons Ratio (x) = 0.21569 0.14267
# Poissons Ratio (y) = 0.28288 -0.04322
# Poissons Ratio (z) = 0.46701 -0.10787
#
# Static dielectric constant tensor:
#      x y z
#    x 2.123700 0.000000 0.000000 
#    y 0.000000 2.064010 0.000000 
#    z 0.000000 0.000000 2.120220 
# 
# From -- ./inp_files/921.got.cif
#   From: 2010.05.17/outbox.cif.g08.bks.cpg/sg38_1_cif.got.tgz:921.got - 2010.06.03 18:07:57.
