data_PCOD9359855
_publ_section_title
;
Structure prediction by ZEFSAII (Michael W. Deem and Ramdas Pophale) SiO2 
 PCOD9359855
Probable space group: A B M 2
;
_chemical_formula_sum "Si O2"
_cell_formula_units_Z 64
_cell_length_a 14.695180
_cell_length_b 8.606002
_cell_length_c 32.173413
_cell_angle_alpha 90.000000
_cell_angle_beta 90.000000
_cell_angle_gamma 90.000000
_cell_volume 4068.866929
_symmetry_space_group_name_H-M "A B M 2"
_symmetry_group_IT_number 39
_symmetry_cell_setting 'orthorhombic'
loop_
_space_group_symop_operation_xyz
x,y,z
-x,-y,z
-x,1/2+y,z
x,1/2-y,z
x,1/2+y,1/2+z
-x,1/2-y,1/2+z
-x,y,1/2+z
x,-y,1/2+z
loop_
_atom_site_type_symbol
_atom_site_label
_atom_site_fract_x
_atom_site_fract_y
_atom_site_fract_z
Si Si1 0.397126 0.437814 0.242880
Si Si2 0.709622 0.563628 0.500023
Si Si3 0.397775 0.562940 0.579877
Si Si4 0.097287 0.563374 0.627388
Si Si5 0.603061 0.936301 0.334596
Si Si6 0.603140 0.434859 0.421185
Si Si7 0.096857 0.436185 0.533814
Si Si8 0.712435 0.560938 0.162507
O O1 0.500000 0.500000 0.238291
O O2 0.402015 0.250000 0.241432
O O3 0.360046 0.479311 0.288912
O O4 0.334480 0.492961 0.204979
O O5 0.702453 0.750000 0.498514
O O6 0.655997 0.502666 0.540373
O O7 0.663866 0.493424 0.459179
O O8 0.815658 0.521636 0.506358
O O9 0.500000 0.500000 0.579810
O O10 0.398365 0.750000 0.577756
O O11 0.347003 0.515279 0.622381
O O12 0.094478 0.750000 0.626331
O O13 0.110799 0.503804 0.580203
O O14 0.183728 0.512134 0.654527
O O15 0.000000 0.500000 0.641941
O O16 0.602215 0.750000 0.338250
O O17 0.500000 0.000000 0.333646
O O18 0.642213 0.006891 0.376874
O O19 0.500000 0.500000 0.425776
O O20 0.597590 0.250000 0.421075
O O21 0.091956 0.250000 0.536996
O O22 0.000000 0.500000 0.518488
O O23 0.712477 0.750000 0.163465
#
# Coordination Sequence:
#
# PCOD9359855 Si02
#       8
#     8   8   8   8   8   8   8   8
#     4   9  17  30  47  69  95 126 159 193 233 278
#     4  11  22  35  49  69  95 125 161 196 233 281
#     4  11  21  33  46  64  94 131 165 195 230 272
#     4  10  18  31  49  68  92 122 158 199 240 281
#     4   9  16  28  47  68  93 121 155 196 237 280
#     4  11  21  33  50  70  96 127 160 197 238 283
#     4  10  20  33  51  71  93 120 155 198 240 282
#     4   9  18  31  47  67  94 127 160 193 233 280
#
# _framework density 15.729194
#
# number of rings (size 3 to 8) (size 9 to 14) (size 15 to 20)
#    0.000    2.000    1.250    5.250    0.000    2.000 
#    0.000    1.875    0.000    0.000    0.000    0.875 
#    0.000    2.000    0.000    0.000    0.000    0.000 
#
# Total GULP energy -178483.924897 kJ/mol
# GULP energy per Si atom -5577.622653 kJ/mol
# Density = 1.569339 g / cm^3
# Si number density = 15.729194 Si / 1000 Ang^3
#
#
#
# Elastic Constant Matrix: (Units=GPa)
#
#
# Indices 1 2 3 4 5 6 
#
# 1 124.2987 38.6128 78.8860 0.0000 0.0000 0.0000
# 2 38.6128 61.0916 42.2665 0.0000 0.0000 0.0000
# 3 78.8860 42.2665 153.8628 0.0000 0.0000 0.0000
# 4 0.0000 0.0000 0.0000 19.8243 0.0000 0.0000
# 5 0.0000 0.0000 0.0000 0.0000 5.3279 0.0000
# 6 0.0000 0.0000 0.0000 0.0000 0.0000 20.8347
#
#
#
# Elastic Compliance Matrix: (Units=1/GPa)
#
#
# Indices 1 2 3 4 5 6 
#
# 1 0.012812 -0.004387 -0.005364 0.000000 0.000000 0.000000
# 2 -0.004387 0.021712 -0.003715 0.000000 0.000000 0.000000
# 3 -0.005364 -0.003715 0.010270 0.000000 0.000000 0.000000
# 4 0.000000 0.000000 0.000000 0.050443 0.000000 0.000000
# 5 0.000000 0.000000 0.000000 0.000000 0.187692 0.000000
# 6 0.000000 0.000000 0.000000 0.000000 0.000000 0.047997
#
#
# Mechanical properties :
#
#
# Convention : Reuss Voigt Hill
#
# Bulk Modulus (GPa) = 55.98378 73.19822 64.59100
# Shear Modulus (GPa) = 13.74340 21.16322 17.45331
#
# Velocity S-wave (km/s) = 2.95913 3.67205 3.33470
# Velocity P-wave (km/s) = 6.88076 8.03842 7.48201
#
# Compressibility (1/GPa) = 0.01786232
#
# Stress axis : x y z
#
# Youngs Moduli (GPa) = 78.05230 46.05761 97.37285
#
# Poissons Ratio (x) = 0.20205 0.52227
# Poissons Ratio (y) = 0.34241 0.36175
# Poissons Ratio (z) = 0.41864 0.17111
#
# Static dielectric constant tensor:
#      x y z
#    x 1.521220 0.000000 0.000000 
#    y 0.000000 1.534280 0.000000 
#    z 0.000000 0.000000 1.534930 
# 
# From -- ./inp_files/17958.got.cif
#   From: 2010.05.17/outbox.cif.g08.bks.cpg/sg39_9_cif.got.tgz:17958.got - 2010.06.03 18:22:40.
