data_PCOD9359595
_publ_section_title
;
Structure prediction by ZEFSAII (Michael W. Deem and Ramdas Pophale) SiO2 
 PCOD9359595
Probable space group: A M M 2
;
_chemical_formula_sum "Si O2"
_cell_formula_units_Z 24
_cell_length_a 9.000000
_cell_length_b 18.000000
_cell_length_c 15.000000
_cell_angle_alpha 90.000000
_cell_angle_beta 90.000000
_cell_angle_gamma 90.000000
_cell_volume 2430.000000
_symmetry_space_group_name_H-M "A M M 2"
_symmetry_group_IT_number 38
_symmetry_cell_setting 'orthorhombic'
loop_
_space_group_symop_operation_xyz
x,y,z
-x,-y,z
-x,y,z
x,-y,z
x,1/2+y,1/2+z
-x,1/2-y,1/2+z
-x,1/2+y,1/2+z
x,1/2-y,1/2+z
loop_
_atom_site_type_symbol
_atom_site_label
_atom_site_fract_x
_atom_site_fract_y
_atom_site_fract_z
Si Si1 0.675704 0.291492 0.858550
Si Si2 0.176343 0.122960 0.664032
Si Si3 0.676287 0.283959 0.655973
Si Si4 0.678952 0.377544 0.346307
Si Si5 0.679951 0.921334 0.042450
Si Si6 0.678333 0.080099 0.484798
O O1 0.500000 0.285692 0.878736
O O2 0.688470 0.315359 0.756064
O O3 0.731424 0.207442 0.862974
O O4 0.737111 0.351721 0.926079
O O5 0.234392 0.207753 0.652916
O O6 0.242687 0.095033 0.757489
O O7 0.245343 0.081889 0.580089
O O8 0.000000 0.119241 0.664715
O O9 0.500000 0.267615 0.639695
O O10 0.732246 0.346371 0.588813
O O11 0.500000 0.377076 0.331370
O O12 0.710172 0.418917 0.437574
O O13 0.500000 0.919450 0.052352
O O14 0.733259 0.000000 0.080358
O O15 0.500000 0.087796 0.496269
O O16 0.704285 0.000000 0.440852
#
# Coordination Sequence:
#
# PCOD9359595 Si02
#       6
#     8   8   8   8   8   8
#     4   8  15  29  51  76  99 129 168 207 246 292
#     4  11  22  35  52  74 101 134 176 219 254 293
#     4   9  17  33  56  79 105 134 166 206 252 303
#     4   9  17  32  53  75 102 135 171 210 252 299
#     4   9  17  29  51  83 110 132 163 206 254 303
#     4  10  20  34  53  77 105 136 168 204 252 308
#
# _framework density 9.8765429999999999
#
# number of rings (size 3 to 8) (size 9 to 14) (size 15 to 20)
#    0.000    2.667    0.000    3.500    0.000    4.333 
#    0.000   12.500    0.000    1.500    0.000    0.000 
#    0.000    0.000    0.000    0.000    0.000    0.000 
#
# Total GULP energy -133768.514203 kJ/mol
# GULP energy per Si atom -5573.688092 kJ/mol
# Density = 0.985406 g / cm^3
# Si number density = 9.876543 Si / 1000 Ang^3
#
#
#
# Elastic Constant Matrix: (Units=GPa)
#
#
# Indices 1 2 3 4 5 6 
#
# 1 18.4126 14.6082 -2.5280 0.0000 0.0000 0.0000
# 2 14.6082 79.2291 40.2094 0.0000 0.0000 0.0000
# 3 -2.5280 40.2094 16.3448 0.0000 0.0000 0.0000
# 4 0.0000 0.0000 0.0000 366.7509 0.0000 0.0000
# 5 0.0000 0.0000 0.0000 0.0000 -6.4456 0.0000
# 6 0.0000 0.0000 0.0000 0.0000 0.0000 -4.8113
#
#
#
# Elastic Compliance Matrix: (Units=1/GPa)
#
#
# Indices 1 2 3 4 5 6 
#
# 1 0.024967 0.026411 -0.061110 0.000000 0.000000 0.000000
# 2 0.026411 -0.022853 0.060305 0.000000 0.000000 0.000000
# 3 -0.061110 0.060305 -0.096624 0.000000 0.000000 0.000000
# 4 0.000000 0.000000 0.000000 0.002727 0.000000 0.000000
# 5 0.000000 0.000000 0.000000 0.000000 -0.155144 0.000000
# 6 0.000000 0.000000 0.000000 0.000000 0.000000 -0.207843
#
#
# Mechanical properties :
#
#
# Convention : Reuss Voigt Hill
#
# Bulk Modulus (GPa) = -23.09467 24.28507 0.59520
# Shear Modulus (GPa) = -9.60775 75.21191 32.80208
#
# Velocity S-wave (km/s) = -2.20782 6.17727 4.07947
# Velocity P-wave (km/s) = 4.26806 7.94980 4.74251
#
# Compressibility (1/GPa) = -0.04330004
#
# Stress axis : x y z
#
# Youngs Moduli (GPa) = 40.05306 -43.75785 -10.34942
#
# Poissons Ratio (x) = 1.15567 -0.63246
# Poissons Ratio (y) = -1.05783 0.62412
# Poissons Ratio (z) = 2.44766 2.63881
#
# Static dielectric constant tensor:
#      x y z
#    x 1.654700 0.000000 0.000000 
#    y 0.000000 1.753320 0.000000 
#    z 0.000000 0.000000 1.702880 
# 
# From -- ./inp_files/12017.got.cif
#   From: 2010.05.17/outbox.ucp.g08.bks.cvg/sg38_7_cif.got.tgz:12017.got - 2010.06.11 10:39:43.
