data_PCOD9359808
_publ_section_title
;
Structure prediction by ZEFSAII (Michael W. Deem and Ramdas Pophale) SiO2 
 PCOD9359808
Probable space group: A B M 2
;
_chemical_formula_sum "Si O2"
_cell_formula_units_Z 64
_cell_length_a 7.199219
_cell_length_b 31.364860
_cell_length_c 12.055655
_cell_angle_alpha 90.000000
_cell_angle_beta 90.000000
_cell_angle_gamma 90.000000
_cell_volume 2722.196990
_symmetry_space_group_name_H-M "A B M 2"
_symmetry_group_IT_number 39
_symmetry_cell_setting 'orthorhombic'
loop_
_space_group_symop_operation_xyz
x,y,z
-x,-y,z
-x,1/2+y,z
x,1/2-y,z
x,1/2+y,1/2+z
-x,1/2-y,1/2+z
-x,y,1/2+z
x,-y,1/2+z
loop_
_atom_site_type_symbol
_atom_site_label
_atom_site_fract_x
_atom_site_fract_y
_atom_site_fract_z
Si Si1 0.016898 0.204046 0.163920
Si Si2 0.262322 0.955756 0.877251
Si Si3 0.759244 0.172933 0.986526
Si Si4 0.301587 0.915643 0.095808
Si Si5 0.652068 0.202828 0.514967
Si Si6 0.280669 0.390455 0.034879
Si Si7 0.706946 0.948116 0.836003
Si Si8 0.114439 0.871677 0.772665
O O1 0.969499 0.250000 0.211997
O O2 0.236936 0.203521 0.132544
O O3 0.962785 0.165180 0.244251
O O4 0.924000 0.199603 0.042125
O O5 0.480136 0.946526 0.847352
O O6 0.135272 0.918126 0.828831
O O7 0.228416 0.003146 0.835000
O O8 0.250852 0.953217 0.010661
O O9 0.779689 0.127750 0.048340
O O10 0.569598 0.196457 0.019154
O O11 0.764260 0.157960 0.858574
O O12 0.520748 0.906696 0.080039
O O13 0.248768 0.925540 0.220601
O O14 0.688129 0.250000 0.464930
O O15 0.708567 0.155421 0.472674
O O16 0.169218 0.383742 0.146912
O O17 0.217775 0.424160 0.944128
#
# Coordination Sequence:
#
# PCOD9359808 Si02
#       8
#     8   8   8   8   8   8   8   8
#     4  10  22  41  64  95 128 168 218 264 324 396
#     4   9  19  29  53  89 128 175 215 269 336 390
#     4  10  21  40  64  90 131 170 212 264 326 391
#     4   9  18  32  52  86 124 166 218 262 321 393
#     4   9  19  37  62  91 125 164 211 263 317 385
#     4   9  18  32  54  85 125 165 213 265 326 383
#     4  10  18  29  54  89 131 168 220 277 320 394
#     4  10  20  39  60  88 130 169 207 273 329 381
#
# _framework density 23.510424
#
# number of rings (size 3 to 8) (size 9 to 14) (size 15 to 20)
#    0.000    2.500    1.250    1.125    1.750    2.000 
#    4.500    0.000    0.000    0.750    0.000    0.000 
#    0.000    0.000    0.000    0.000    0.000    0.000 
#
# Total GULP energy -178170.810707 kJ/mol
# GULP energy per Si atom -5567.837835 kJ/mol
# Density = 2.345691 g / cm^3
# Si number density = 23.510424 Si / 1000 Ang^3
#
#
#
# Elastic Constant Matrix: (Units=GPa)
#
#
# Indices 1 2 3 4 5 6 
#
# 1 73.3577 9.4982 31.1024 0.0000 0.0000 0.0000
# 2 9.4982 150.2891 46.4153 0.0000 0.0000 0.0000
# 3 31.1024 46.4153 135.3034 0.0000 0.0000 0.0000
# 4 0.0000 0.0000 0.0000 23.6622 0.0000 0.0000
# 5 0.0000 0.0000 0.0000 0.0000 24.4143 0.0000
# 6 0.0000 0.0000 0.0000 0.0000 0.0000 3.2195
#
#
#
# Elastic Compliance Matrix: (Units=1/GPa)
#
#
# Indices 1 2 3 4 5 6 
#
# 1 0.015106 0.000132 -0.003518 0.000000 0.000000 0.000000
# 2 0.000132 0.007443 -0.002584 0.000000 0.000000 0.000000
# 3 -0.003518 -0.002584 0.009086 0.000000 0.000000 0.000000
# 4 0.000000 0.000000 0.000000 0.042261 0.000000 0.000000
# 5 0.000000 0.000000 0.000000 0.000000 0.040960 0.000000
# 6 0.000000 0.000000 0.000000 0.000000 0.000000 0.310606
#
#
# Mechanical properties :
#
#
# Convention : Reuss Voigt Hill
#
# Bulk Modulus (GPa) = 50.77165 59.22022 54.99593
# Shear Modulus (GPa) = 11.26209 28.38815 19.82512
#
# Velocity S-wave (km/s) = 2.19104 3.47864 2.90702
# Velocity P-wave (km/s) = 5.29558 6.43259 5.89157
#
# Compressibility (1/GPa) = 0.01969603
#
# Stress axis : x y z
#
# Youngs Moduli (GPa) = 66.19794 134.34580 110.06252
#
# Poissons Ratio (x) = -0.01769 0.38716
# Poissons Ratio (y) = -0.00872 0.28437
# Poissons Ratio (z) = 0.23286 0.34711
#
# Static dielectric constant tensor:
#      x y z
#    x 2.011870 0.000000 0.000000 
#    y 0.000000 1.964520 0.000000 
#    z 0.000000 0.000000 1.881740 
# 
# From -- ./inp_files/5396.got.cif
#   From: 2010.05.17/outbox.cif.g08.bks.cpg/sg39_3_cif.got.tgz:5396.got - 2010.06.03 18:22:40.
