data_PCOD9359873
_publ_section_title
;
Structure prediction by ZEFSAII (Michael W. Deem and Ramdas Pophale) SiO2 
 PCOD9359873
Probable space group: A B M 2
;
_chemical_formula_sum "Si O2"
_cell_formula_units_Z 64
_cell_length_a 24.819761
_cell_length_b 8.325647
_cell_length_c 15.914932
_cell_angle_alpha 90.000000
_cell_angle_beta 90.000000
_cell_angle_gamma 90.000000
_cell_volume 3288.670599
_symmetry_space_group_name_H-M "A B M 2"
_symmetry_group_IT_number 39
_symmetry_cell_setting 'orthorhombic'
loop_
_space_group_symop_operation_xyz
x,y,z
-x,-y,z
-x,1/2+y,z
x,1/2-y,z
x,1/2+y,1/2+z
-x,1/2-y,1/2+z
-x,y,1/2+z
x,-y,1/2+z
loop_
_atom_site_type_symbol
_atom_site_label
_atom_site_fract_x
_atom_site_fract_y
_atom_site_fract_z
Si Si1 0.133260 0.555909 0.766220
Si Si2 0.060835 0.057441 0.919743
Si Si3 0.326825 0.553728 0.607952
Si Si4 0.442794 0.941938 0.362195
Si Si5 0.326299 0.944250 0.422669
Si Si6 0.256480 0.556138 0.765886
Si Si7 0.939267 0.944049 0.110781
Si Si8 0.442806 0.558065 0.669226
O O1 0.134022 0.750000 0.763379
O O2 0.101304 0.505500 0.849468
O O3 0.194919 0.498602 0.767101
O O4 0.101229 0.499397 0.683161
O O5 0.061532 0.250000 0.918325
O O6 0.074187 0.003473 0.015346
O O7 0.000000 0.000000 0.901465
O O8 0.326854 0.750000 0.609527
O O9 0.308505 0.503933 0.515460
O O10 0.289107 0.498461 0.683879
O O11 0.388557 0.502381 0.623606
O O12 0.443642 0.750000 0.362098
O O13 0.388293 0.996023 0.407723
O O14 0.500000 0.000000 0.397708
O O15 0.439465 0.001160 0.265894
O O16 0.325613 0.750000 0.419699
O O17 0.288897 0.006811 0.348611
O O18 0.255588 0.750000 0.762248
O O19 0.938791 0.750000 0.111005
O O20 0.000000 0.000000 0.129409
O O21 0.500000 0.500000 0.634023
O O22 0.443276 0.750000 0.668563
#
# Coordination Sequence:
#
# PCOD9359873 Si02
#       8
#     8   8   8   8   8   8   8   8
#     4  10  21  36  56  81 110 145 186 226 266 318
#     4  10  20  35  57  85 116 148 181 220 268 318
#     4   9  19  36  57  77 103 142 180 217 271 332
#     4  10  19  31  51  78 107 137 170 215 269 323
#     4  10  21  37  57  80 106 138 180 226 271 322
#     4  10  21  39  58  77 106 145 185 225 270 319
#     4   9  19  35  55  82 113 146 180 217 263 317
#     4  10  18  31  53  78 105 137 173 214 267 327
#
# _framework density 19.460751999999999
#
# number of rings (size 3 to 8) (size 9 to 14) (size 15 to 20)
#    0.000    2.250    1.250    2.250    0.000    4.500 
#    0.000    4.375    0.000    0.000    0.000    0.000 
#    0.000    0.000    0.000    0.000    0.000    0.000 
#
# Total GULP energy -178628.499016 kJ/mol
# GULP energy per Si atom -5582.140594 kJ/mol
# Density = 1.941646 g / cm^3
# Si number density = 19.460752 Si / 1000 Ang^3
#
#
#
# Elastic Constant Matrix: (Units=GPa)
#
#
# Indices 1 2 3 4 5 6 
#
# 1 174.8725 20.4908 118.6005 0.0000 0.0000 0.0000
# 2 20.4908 14.8862 15.0144 0.0000 0.0000 0.0000
# 3 118.6005 15.0144 164.1153 0.0000 0.0000 0.0000
# 4 0.0000 0.0000 0.0000 14.2873 0.0000 0.0000
# 5 0.0000 0.0000 0.0000 0.0000 -2.0816 0.0000
# 6 0.0000 0.0000 0.0000 0.0000 0.0000 11.0015
#
#
#
# Elastic Compliance Matrix: (Units=1/GPa)
#
#
# Indices 1 2 3 4 5 6 
#
# 1 0.012153 -0.008670 -0.007989 0.000000 0.000000 0.000000
# 2 -0.008670 0.080191 -0.001071 0.000000 0.000000 0.000000
# 3 -0.007989 -0.001071 0.011965 0.000000 0.000000 0.000000
# 4 0.000000 0.000000 0.000000 0.069992 0.000000 0.000000
# 5 0.000000 0.000000 0.000000 0.000000 -0.480402 0.000000
# 6 0.000000 0.000000 0.000000 0.000000 0.000000 0.090896
#
#
# Mechanical properties :
#
#
# Convention : Reuss Voigt Hill
#
# Bulk Modulus (GPa) = 14.52473 73.56506 44.04489
# Shear Modulus (GPa) = -31.88875 17.95934 -6.96471
#
# Velocity S-wave (km/s) = -4.05238 3.04114 -1.89384
# Velocity P-wave (km/s) = 3.79682 7.08627 4.23080
#
# Compressibility (1/GPa) = 0.06884810
#
# Stress axis : x y z
#
# Youngs Moduli (GPa) = 82.28606 12.47024 83.57912
#
# Poissons Ratio (x) = 0.10812 0.66773
# Poissons Ratio (y) = 0.71344 0.08949
# Poissons Ratio (z) = 0.65739 0.01335
#
# Static dielectric constant tensor:
#      x y z
#    x 1.668260 0.000000 0.000000 
#    y 0.000000 1.680200 0.000000 
#    z 0.000000 0.000000 1.678590 
# 
# From -- ./inp_files/10566.got.cif
#   From: 2010.05.17/outbox.cif.g08.bks.cpg/sg39_6_cif.got.tgz:10566.got - 2010.06.03 18:22:40.
