data_PCOD9359349
_publ_section_title
;
Structure prediction by ZEFSAII (Michael W. Deem and Ramdas Pophale) SiO2 
 PCOD9359349
Probable space group: A M M 2
;
_chemical_formula_sum "Si O2"
_cell_formula_units_Z 34
_cell_length_a 7.581822
_cell_length_b 18.328191
_cell_length_c 9.811189
_cell_angle_alpha 90.000000
_cell_angle_beta 90.000000
_cell_angle_gamma 90.000000
_cell_volume 1363.373437
_symmetry_space_group_name_H-M "A M M 2"
_symmetry_group_IT_number 38
_symmetry_cell_setting 'orthorhombic'
loop_
_space_group_symop_operation_xyz
x,y,z
-x,-y,z
-x,y,z
x,-y,z
x,1/2+y,1/2+z
-x,1/2-y,1/2+z
-x,1/2+y,1/2+z
x,1/2-y,1/2+z
loop_
_atom_site_type_symbol
_atom_site_label
_atom_site_fract_x
_atom_site_fract_y
_atom_site_fract_z
Si Si1 0.786388 0.917728 0.613550
Si Si2 0.797236 0.880487 0.914089
Si Si3 0.205991 0.397900 0.710873
Si Si4 0.707679 0.214894 0.407977
Si Si5 0.500000 0.500000 0.822446
O O1 0.722052 0.903431 0.768489
O O2 0.741549 0.846822 0.523020
O O3 0.000000 0.920990 0.610709
O O4 0.720968 0.000000 0.574300
O O5 0.791020 0.793499 0.932252
O O6 0.000000 0.904781 0.910050
O O7 0.727708 0.910357 0.057219
O O8 0.218683 0.315568 0.764860
O O9 0.344381 0.438250 0.805555
O O10 0.000000 0.419176 0.723849
O O11 0.500000 0.226763 0.397574
#
# Coordination Sequence:
#
# PCOD9359349 Si02
#       5
#     8   8   8   8   2
#     4  10  23  43  68  98 132 172 225 283 344 408
#     4  10  23  44  70  98 131 179 229 277 346 415
#     4  11  25  45  71  98 135 179 226 281 337 406
#     4  12  25  42  65 100 138 179 230 281 338 410
#     4  12  26  44  64 104 136 176 228 282 332 410
#
# _framework density 24.938143
#
# number of rings (size 3 to 8) (size 9 to 14) (size 15 to 20)
#    0.000    1.176    1.176    3.882    4.941    7.059 
#    0.000    0.000    0.000    0.000    0.000    0.000 
#    0.000    0.000    0.000    0.000    0.000    0.000 
#
# Total GULP energy -94808.288228 kJ/mol
# GULP energy per Si atom -5576.958131 kJ/mol
# Density = 2.488138 g / cm^3
# Si number density = 24.938143 Si / 1000 Ang^3
#
#
#
# Elastic Constant Matrix: (Units=GPa)
#
#
# Indices 1 2 3 4 5 6 
#
# 1 107.5755 -10.4354 -13.7879 0.0000 0.0000 0.0000
# 2 -10.4354 109.8160 33.4506 0.0000 0.0000 0.0000
# 3 -13.7879 33.4506 141.0168 0.0000 0.0000 0.0000
# 4 0.0000 0.0000 0.0000 9.9986 0.0000 0.0000
# 5 0.0000 0.0000 0.0000 0.0000 25.3130 0.0000
# 6 0.0000 0.0000 0.0000 0.0000 0.0000 -27.5148
#
#
#
# Elastic Compliance Matrix: (Units=1/GPa)
#
#
# Indices 1 2 3 4 5 6 
#
# 1 0.009459 0.000665 0.000767 0.000000 0.000000 0.000000
# 2 0.000665 0.009862 -0.002274 0.000000 0.000000 0.000000
# 3 0.000767 -0.002274 0.007706 0.000000 0.000000 0.000000
# 4 0.000000 0.000000 0.000000 0.100014 0.000000 0.000000
# 5 0.000000 0.000000 0.000000 0.000000 0.039505 0.000000
# 6 0.000000 0.000000 0.000000 0.000000 0.000000 -0.036344
#
#
# Mechanical properties :
#
#
# Convention : Reuss Voigt Hill
#
# Bulk Modulus (GPa) = 39.45971 41.87366 40.66669
# Shear Modulus (GPa) = 35.62944 24.83809 30.23377
#
# Velocity S-wave (km/s) = 3.78393 3.15935 3.48566
# Velocity P-wave (km/s) = 5.91170 5.48964 5.70458
#
# Compressibility (1/GPa) = 0.02534230
#
# Stress axis : x y z
#
# Youngs Moduli (GPa) = 105.72357 101.39796 129.77151
#
# Poissons Ratio (x) = -0.06745 -0.09954
# Poissons Ratio (y) = -0.07032 0.29515
# Poissons Ratio (z) = -0.08109 0.23062
#
# Static dielectric constant tensor:
#      x y z
#    x 1.911600 0.000000 0.000000 
#    y 0.000000 2.099450 0.000000 
#    z 0.000000 0.000000 2.053750 
# 
# From -- ./inp_files/3156.got.cif
#   From: 2010.05.17/outbox.cif.g08.bks.cpg/sg38_2_cif.got.tgz:3156.got - 2010.06.03 18:07:57.
