data_PCOD9359306
_publ_section_title
;
Structure prediction by ZEFSAII (Michael W. Deem and Ramdas Pophale) SiO2 
 PCOD9359306
Probable space group: A M M 2
;
_chemical_formula_sum "Si O2"
_cell_formula_units_Z 56
_cell_length_a 23.143129
_cell_length_b 13.360034
_cell_length_c 8.798189
_cell_angle_alpha 90.000000
_cell_angle_beta 90.000000
_cell_angle_gamma 90.000000
_cell_volume 2720.338366
_symmetry_space_group_name_H-M "A M M 2"
_symmetry_group_IT_number 38
_symmetry_cell_setting 'orthorhombic'
loop_
_space_group_symop_operation_xyz
x,y,z
-x,-y,z
-x,y,z
x,-y,z
x,1/2+y,1/2+z
-x,1/2-y,1/2+z
-x,1/2+y,1/2+z
x,1/2-y,1/2+z
loop_
_atom_site_type_symbol
_atom_site_label
_atom_site_fract_x
_atom_site_fract_y
_atom_site_fract_z
Si Si1 0.094935 0.116449 0.883550
Si Si2 0.631929 0.745067 0.528628
Si Si3 0.286404 0.305415 0.778624
Si Si4 0.829574 0.883405 0.400745
Si Si5 0.785022 0.615901 0.230174
Si Si6 0.569356 0.617345 0.274977
Si Si7 0.064398 0.203667 0.212249
O O1 0.163879 0.121859 0.853961
O O2 0.067001 0.177597 0.744427
O O3 0.078715 0.000000 0.885831
O O4 0.077260 0.168130 0.041492
O O5 0.675391 0.678688 0.630541
O O6 0.672155 0.814626 0.422719
O O7 0.593699 0.673053 0.424188
O O8 0.594873 0.816912 0.636896
O O9 0.227238 0.365117 0.798409
O O10 0.266354 0.189154 0.772446
O O11 0.812191 0.846884 0.569526
O O12 0.885071 0.836261 0.321494
O O13 0.841253 0.000000 0.416670
O O14 0.767989 0.500000 0.212722
O O15 0.500000 0.621538 0.273157
O O16 0.586465 0.500000 0.268122
O O17 0.000000 0.168310 0.253360
#
# Coordination Sequence:
#
# PCOD9359306 Si02
#       7
#     8   8   8   8   8   8   8
#     4  11  25  45  70  96 126 167 214 270 337 404
#     4  10  23  38  66 102 137 174 224 275 321 391
#     4  11  21  39  62  95 134 170 211 276 335 389
#     4  11  24  41  64  93 128 173 221 273 339 406
#     4  10  22  41  66  90 123 171 218 264 331 412
#     4  10  22  44  71  99 139 186 228 273 323 376
#     4  12  26  44  68  96 128 166 220 282 335 409
#
# _framework density 20.585674999999998
#
# number of rings (size 3 to 8) (size 9 to 14) (size 15 to 20)
#    0.000    1.286    2.857    2.143    2.000    5.429 
#    0.000    3.571    0.000   16.286    0.000    0.000 
#    0.000    0.000    0.000    0.000    0.000    0.000 
#
# Total GULP energy -156485.009901 kJ/mol
# GULP energy per Si atom -5588.750354 kJ/mol
# Density = 2.053882 g / cm^3
# Si number density = 20.585675 Si / 1000 Ang^3
#
#
#
# Elastic Constant Matrix: (Units=GPa)
#
#
# Indices 1 2 3 4 5 6 
#
# 1 112.0703 33.7848 48.7717 0.0000 0.0000 0.0000
# 2 33.7848 105.6976 54.1611 0.0000 0.0000 0.0000
# 3 48.7717 54.1611 111.5309 0.0000 0.0000 0.0000
# 4 0.0000 0.0000 0.0000 27.6485 0.0000 0.0000
# 5 0.0000 0.0000 0.0000 0.0000 24.0772 0.0000
# 6 0.0000 0.0000 0.0000 0.0000 0.0000 1.1009
#
#
#
# Elastic Compliance Matrix: (Units=1/GPa)
#
#
# Indices 1 2 3 4 5 6 
#
# 1 0.011178 -0.001422 -0.004198 0.000000 0.000000 0.000000
# 2 -0.001422 0.012776 -0.005582 0.000000 0.000000 0.000000
# 3 -0.004198 -0.005582 0.013513 0.000000 0.000000 0.000000
# 4 0.000000 0.000000 0.000000 0.036168 0.000000 0.000000
# 5 0.000000 0.000000 0.000000 0.000000 0.041533 0.000000
# 6 0.000000 0.000000 0.000000 0.000000 0.000000 0.908326
#
#
# Mechanical properties :
#
#
# Convention : Reuss Voigt Hill
#
# Bulk Modulus (GPa) = 66.38855 66.97044 66.67949
# Shear Modulus (GPa) = 4.75774 23.40408 14.08091
#
# Velocity S-wave (km/s) = 1.52191 3.37547 2.61821
# Velocity P-wave (km/s) = 5.95048 6.91339 6.44992
#
# Compressibility (1/GPa) = 0.01506284
#
# Stress axis : x y z
#
# Youngs Moduli (GPa) = 89.45780 78.27190 74.00501
#
# Poissons Ratio (x) = 0.11131 0.31065
# Poissons Ratio (y) = 0.12722 0.41312
# Poissons Ratio (z) = 0.37551 0.43694
#
# Static dielectric constant tensor:
#      x y z
#    x 1.751790 0.000000 0.000000 
#    y 0.000000 1.738730 0.000000 
#    z 0.000000 0.000000 1.755470 
# 
# From -- ./inp_files/6733.got.cif
#   From: 2010.05.17/outbox.cif.g08.bks.cpg/sg38_4_cif.got.tgz:6733.got - 2010.06.03 18:07:57.
