data_PCOD9359266
_publ_section_title
;
Structure prediction by ZEFSAII (Michael W. Deem and Ramdas Pophale) SiO2 
 PCOD9359266
Probable space group: A M M 2
;
_chemical_formula_sum "Si O2"
_cell_formula_units_Z 52
_cell_length_a 17.639799
_cell_length_b 18.016918
_cell_length_c 8.780120
_cell_angle_alpha 90.000000
_cell_angle_beta 90.000000
_cell_angle_gamma 90.000000
_cell_volume 2790.452188
_symmetry_space_group_name_H-M "A M M 2"
_symmetry_group_IT_number 38
_symmetry_cell_setting 'orthorhombic'
loop_
_space_group_symop_operation_xyz
x,y,z
-x,-y,z
-x,y,z
x,-y,z
x,1/2+y,1/2+z
-x,1/2-y,1/2+z
-x,1/2+y,1/2+z
x,1/2-y,1/2+z
loop_
_atom_site_type_symbol
_atom_site_label
_atom_site_fract_x
_atom_site_fract_y
_atom_site_fract_z
Si Si1 0.357167 0.000000 0.967911
Si Si2 0.088707 0.354997 0.545220
Si Si3 0.185285 0.000000 0.976211
Si Si4 0.088390 0.296081 0.888442
Si Si5 0.267800 0.500000 0.171274
Si Si6 0.682685 0.255053 0.769996
Si Si7 0.588575 0.163113 0.011920
Si Si8 0.233939 0.344848 0.031350
O O1 0.339801 0.000000 0.785631
O O2 0.398958 0.074951 0.012430
O O3 0.271746 0.000000 0.037213
O O4 0.141379 0.426191 0.524926
O O5 0.106417 0.290093 0.424072
O O6 0.000000 0.375717 0.528786
O O7 0.098069 0.319407 0.713096
O O8 0.198569 0.000000 0.793686
O O9 0.145187 0.342785 0.993095
O O10 0.000000 0.306655 0.929079
O O11 0.262760 0.426146 0.072985
O O12 0.633871 0.197333 0.869028
O O13 0.627664 0.299879 0.658210
O O14 0.742745 0.209397 0.669282
O O15 0.724855 0.310603 0.883901
O O16 0.500000 0.181088 0.004010
#
# Coordination Sequence:
#
# PCOD9359266 Si02
#       8
#     4   8   4   8   4   8   8   8
#     4  10  23  38  61  88 123 160 201 237 305 369
#     4  10  22  40  61  88 122 163 205 255 311 361
#     4  10  23  38  61  86 123 157 209 247 299 369
#     4  10  23  38  62  92 121 160 206 255 312 357
#     4  10  24  40  58  92 120 159 204 248 306 356
#     4  10  23  38  67  96 118 162 205 248 303 360
#     4  11  22  42  65  94 126 157 198 251 307 369
#     4  11  22  40  63  89 130 159 207 255 294 363
#
# _framework density 18.634972000000001
#
# number of rings (size 3 to 8) (size 9 to 14) (size 15 to 20)
#    0.462    1.231    1.538    1.846   10.769    1.231 
#    0.000    1.923    0.000    0.000    0.000    0.000 
#    0.000    0.000    0.000    0.000    0.000    0.000 
#
# Total GULP energy -145224.127360 kJ/mol
# GULP energy per Si atom -5585.543360 kJ/mol
# Density = 1.859256 g / cm^3
# Si number density = 18.634972 Si / 1000 Ang^3
#
#
#
# Elastic Constant Matrix: (Units=GPa)
#
#
# Indices 1 2 3 4 5 6 
#
# 1 70.5104 9.3848 31.8037 0.0000 0.0000 0.0000
# 2 9.3848 80.8479 35.2255 0.0000 0.0000 0.0000
# 3 31.8037 35.2255 91.1728 0.0000 0.0000 0.0000
# 4 0.0000 0.0000 0.0000 18.3214 0.0000 0.0000
# 5 0.0000 0.0000 0.0000 0.0000 6.6739 0.0000
# 6 0.0000 0.0000 0.0000 0.0000 0.0000 27.8049
#
#
#
# Elastic Compliance Matrix: (Units=1/GPa)
#
#
# Indices 1 2 3 4 5 6 
#
# 1 0.016866 0.000728 -0.006165 0.000000 0.000000 0.000000
# 2 0.000728 0.014904 -0.006012 0.000000 0.000000 0.000000
# 3 -0.006165 -0.006012 0.015441 0.000000 0.000000 0.000000
# 4 0.000000 0.000000 0.000000 0.054581 0.000000 0.000000
# 5 0.000000 0.000000 0.000000 0.000000 0.149837 0.000000
# 6 0.000000 0.000000 0.000000 0.000000 0.000000 0.035965
#
#
# Mechanical properties :
#
#
# Convention : Reuss Voigt Hill
#
# Bulk Modulus (GPa) = 41.12886 43.92878 42.52882
# Shear Modulus (GPa) = 15.69381 21.63452 18.66417
#
# Velocity S-wave (km/s) = 2.90516 3.41099 3.16819
# Velocity P-wave (km/s) = 5.77685 6.25600 6.02120
#
# Compressibility (1/GPa) = 0.02431383
#
# Stress axis : x y z
#
# Youngs Moduli (GPa) = 59.29103 67.09630 64.76057
#
# Poissons Ratio (x) = -0.04886 0.39923
# Poissons Ratio (y) = -0.04317 0.38936
# Poissons Ratio (z) = 0.36551 0.40340
#
# Static dielectric constant tensor:
#      x y z
#    x 1.640630 0.000000 0.000000 
#    y 0.000000 1.608110 0.000000 
#    z 0.000000 0.000000 1.638820 
# 
# From -- ./inp_files/6337.got.cif
#   From: 2010.05.17/outbox.cif.g08.bks.cpg/sg38_4_cif.got.tgz:6337.got - 2010.06.03 18:07:57.
