data_PCOD9359044
_publ_section_title
;
Structure prediction by ZEFSAII (Michael W. Deem and Ramdas Pophale) SiO2 
 PCOD9359044
Probable space group: A M M 2
;
_chemical_formula_sum "Si O2"
_cell_formula_units_Z 48
_cell_length_a 8.716186
_cell_length_b 19.176365
_cell_length_c 15.658249
_cell_angle_alpha 90.000000
_cell_angle_beta 90.000000
_cell_angle_gamma 90.000000
_cell_volume 2617.194336
_symmetry_space_group_name_H-M "A M M 2"
_symmetry_group_IT_number 38
_symmetry_cell_setting 'orthorhombic'
loop_
_space_group_symop_operation_xyz
x,y,z
-x,-y,z
-x,y,z
x,-y,z
x,1/2+y,1/2+z
-x,1/2-y,1/2+z
-x,1/2+y,1/2+z
x,1/2-y,1/2+z
loop_
_atom_site_type_symbol
_atom_site_label
_atom_site_fract_x
_atom_site_fract_y
_atom_site_fract_z
Si Si1 0.683654 0.581369 0.652080
Si Si2 0.313366 0.579584 0.149991
Si Si3 0.183767 0.581250 0.839389
Si Si4 0.316254 0.417388 0.344172
Si Si5 0.182269 0.171207 0.997720
Si Si6 0.315382 0.326206 0.991525
O O1 0.500000 0.588358 0.654929
O O2 0.719760 0.500000 0.632765
O O3 0.752844 0.597335 0.745038
O O4 0.750901 0.630562 0.579391
O O5 0.500000 0.578552 0.149854
O O6 0.262824 0.500000 0.132486
O O7 0.268597 0.598864 0.246637
O O8 0.263872 0.632216 0.076611
O O9 0.223208 0.500000 0.857680
O O10 0.256493 0.631060 0.909924
O O11 0.000000 0.587755 0.839887
O O12 0.500000 0.406029 0.351683
O O13 0.289753 0.500000 0.357845
O O14 0.231513 0.371752 0.413917
O O15 0.251252 0.248422 0.992461
O O16 0.000000 0.174695 0.003912
O O17 0.500000 0.324338 0.990468
#
# Coordination Sequence:
#
# PCOD9359044 Si02
#       6
#     8   8   8   8   8   8
#     4  10  21  39  63  87 110 144 193 240 282 338
#     4   8  16  33  59  87 109 134 176 230 279 323
#     4  10  21  38  60  87 118 149 184 232 290 345
#     4   9  18  36  61  85 109 140 183 233 282 338
#     4  12  25  38  53  79 118 155 188 233 289 341
#     4  11  22  37  58  83 114 152 194 234 276 336
#
# _framework density 18.340250999999999
#
# number of rings (size 3 to 8) (size 9 to 14) (size 15 to 20)
#    0.000    2.000    0.000    5.000    0.000    6.333 
#    0.000    6.667    0.000    2.000    0.000    0.000 
#    0.000    0.000    0.000    0.000    0.000    0.000 
#
# Total GULP energy -134082.550275 kJ/mol
# GULP energy per Si atom -5586.772928 kJ/mol
# Density = 1.829851 g / cm^3
# Si number density = 18.340251 Si / 1000 Ang^3
#
#
#
# Elastic Constant Matrix: (Units=GPa)
#
#
# Indices 1 2 3 4 5 6 
#
# 1 74.4587 66.3285 65.6144 0.0000 0.0000 0.0000
# 2 66.3285 130.3463 125.9705 0.0000 0.0000 0.0000
# 3 65.6144 125.9705 168.8438 0.0000 0.0000 0.0000
# 4 0.0000 0.0000 0.0000 -16.3171 0.0000 0.0000
# 5 0.0000 0.0000 0.0000 0.0000 -1.3483 0.0000
# 6 0.0000 0.0000 0.0000 0.0000 0.0000 14.5286
#
#
#
# Elastic Compliance Matrix: (Units=1/GPa)
#
#
# Indices 1 2 3 4 5 6 
#
# 1 0.024595 -0.011752 -0.000790 0.000000 0.000000 0.000000
# 2 -0.011752 0.033116 -0.020140 0.000000 0.000000 0.000000
# 3 -0.000790 -0.020140 0.021256 0.000000 0.000000 0.000000
# 4 0.000000 0.000000 0.000000 -0.061285 0.000000 0.000000
# 5 0.000000 0.000000 0.000000 0.000000 -0.741657 0.000000
# 6 0.000000 0.000000 0.000000 0.000000 0.000000 0.068830
#
#
# Mechanical properties :
#
#
# Convention : Reuss Voigt Hill
#
# Bulk Modulus (GPa) = 73.51552 98.83062 86.17307
# Shear Modulus (GPa) = -8.54342 7.08832 -0.72755
#
# Velocity S-wave (km/s) = -2.16065 1.96807 -0.63052
# Velocity P-wave (km/s) = 5.82638 7.69212 6.82332
#
# Compressibility (1/GPa) = 0.01360257
#
# Stress axis : x y z
#
# Youngs Moduli (GPa) = 40.65792 30.19647 47.04593
#
# Poissons Ratio (x) = 0.35488 0.03716
# Poissons Ratio (y) = 0.47783 0.94752
# Poissons Ratio (z) = 0.03211 0.60817
#
# Static dielectric constant tensor:
#      x y z
#    x 1.612050 0.000000 0.000000 
#    y 0.000000 1.603350 0.000000 
#    z 0.000000 0.000000 1.610330 
# 
# From -- ./inp_files/12008.got.cif
#   From: 2010.05.17/outbox.cif.g08.bks.cpg/sg38_7_cif.got.tgz:12008.got - 2010.06.03 18:07:57.
