data_PCOD9359974
_publ_section_title
;
Structure prediction by ZEFSAII (Michael W. Deem and Ramdas Pophale) SiO2 
 PCOD9359974
Probable space group: A B M 2
;
_chemical_formula_sum "Si O2"
_cell_formula_units_Z 60
_cell_length_a 7.698630
_cell_length_b 16.924198
_cell_length_c 19.038635
_cell_angle_alpha 90.000000
_cell_angle_beta 90.000000
_cell_angle_gamma 90.000000
_cell_volume 2480.603506
_symmetry_space_group_name_H-M "A B M 2"
_symmetry_group_IT_number 39
_symmetry_cell_setting 'orthorhombic'
loop_
_space_group_symop_operation_xyz
x,y,z
-x,-y,z
-x,1/2+y,z
x,1/2-y,z
x,1/2+y,1/2+z
-x,1/2-y,1/2+z
-x,y,1/2+z
x,-y,1/2+z
loop_
_atom_site_type_symbol
_atom_site_label
_atom_site_fract_x
_atom_site_fract_y
_atom_site_fract_z
Si Si1 0.295219 0.132552 0.212790
Si Si2 0.918675 0.587245 0.420791
Si Si3 0.736720 0.750000 0.084077
Si Si4 0.924249 0.660758 0.789426
Si Si5 0.808857 0.962004 0.683834
Si Si6 0.755183 0.657686 0.556648
Si Si7 0.402018 0.335018 0.967736
Si Si8 0.455726 0.086053 0.342545
O O1 0.305255 0.183128 0.143515
O O2 0.431961 0.143531 0.276066
O O3 0.107422 0.153125 0.247146
O O4 0.303086 0.040661 0.191254
O O5 0.879963 0.625091 0.495980
O O6 0.732742 0.583927 0.380685
O O7 0.000000 0.500000 0.425904
O O8 0.035137 0.641720 0.370150
O O9 0.752176 0.681488 0.021455
O O10 0.858754 0.750000 0.780344
O O11 0.815221 0.590215 0.754707
O O12 0.764183 0.900234 0.622735
O O13 0.000000 0.000000 0.671385
O O14 0.795491 0.750000 0.574797
O O15 0.565073 0.655593 0.520953
O O16 0.436026 0.250000 0.931666
O O17 0.410702 0.395360 0.905233
O O18 0.500000 0.000000 0.316864
#
# Coordination Sequence:
#
# PCOD9359974 Si02
#       8
#     8   8   4   8   8   8   8   8
#     4  10  21  35  58  87 118 155 204 246 311 380
#     4  10  20  36  60  86 120 156 208 257 299 371
#     4  10  20  36  56  84 114 148 204 246 298 362
#     4  10  18  34  58  87 113 155 202 253 304 367
#     4  10  21  35  55  86 123 153 191 256 312 364
#     4  10  19  36  58  84 114 160 200 243 305 371
#     4   8  20  37  56  80 111 152 202 250 296 355
#     4  10  21  37  61  87 117 159 203 249 309 367
#
# _framework density 24.187664999999999
#
# number of rings (size 3 to 8) (size 9 to 14) (size 15 to 20)
#    0.400    1.867    0.667    3.200    0.933    4.800 
#    0.000    0.000    0.000    0.800    0.000    0.000 
#    0.000    0.000    0.000    0.000    0.000    0.000 
#
# Total GULP energy -167112.054887 kJ/mol
# GULP energy per Si atom -5570.401830 kJ/mol
# Density = 2.413261 g / cm^3
# Si number density = 24.187665 Si / 1000 Ang^3
#
#
#
# Elastic Constant Matrix: (Units=GPa)
#
#
# Indices 1 2 3 4 5 6 
#
# 1 63.1019 13.4346 14.0037 0.0000 0.0000 0.0000
# 2 13.4346 148.2662 50.4807 0.0000 0.0000 0.0000
# 3 14.0037 50.4807 137.3540 0.0000 0.0000 0.0000
# 4 0.0000 0.0000 0.0000 18.6221 0.0000 0.0000
# 5 0.0000 0.0000 0.0000 0.0000 13.8194 0.0000
# 6 0.0000 0.0000 0.0000 0.0000 0.0000 35.1719
#
#
#
# Elastic Compliance Matrix: (Units=1/GPa)
#
#
# Indices 1 2 3 4 5 6 
#
# 1 0.016355 -0.001045 -0.001283 0.000000 0.000000 0.000000
# 2 -0.001045 0.007776 -0.002751 0.000000 0.000000 0.000000
# 3 -0.001283 -0.002751 0.008422 0.000000 0.000000 0.000000
# 4 0.000000 0.000000 0.000000 0.053700 0.000000 0.000000
# 5 0.000000 0.000000 0.000000 0.000000 0.072362 0.000000
# 6 0.000000 0.000000 0.000000 0.000000 0.000000 0.028432
#
#
# Mechanical properties :
#
#
# Convention : Reuss Voigt Hill
#
# Bulk Modulus (GPa) = 44.65507 56.06224 50.35865
# Shear Modulus (GPa) = 24.42946 31.57620 28.00283
#
# Velocity S-wave (km/s) = 3.18149 3.61704 3.40624
# Velocity P-wave (km/s) = 5.65667 6.37749 6.02786
#
# Compressibility (1/GPa) = 0.02239387
#
# Stress axis : x y z
#
# Youngs Moduli (GPa) = 61.14458 128.59959 118.72977
#
# Poissons Ratio (x) = 0.13438 0.15237
# Poissons Ratio (y) = 0.06389 0.32667
# Poissons Ratio (z) = 0.07847 0.35382
#
# Static dielectric constant tensor:
#      x y z
#    x 2.067440 0.000000 0.000000 
#    y 0.000000 1.957530 0.000000 
#    z 0.000000 0.000000 1.868080 
# 
# From -- ./inp_files/11832.got.cif
#   From: 2010.05.17/outbox.cif.g08.bks.cpg/sg39_6_cif.got.tgz:11832.got - 2010.06.03 18:22:40.
