data_PCOD9359021
_publ_section_title
;
Structure prediction by ZEFSAII (Michael W. Deem and Ramdas Pophale) SiO2 
 PCOD9359021
Probable space group: A M M 2
;
_chemical_formula_sum "Si O2"
_cell_formula_units_Z 58
_cell_length_a 7.923164
_cell_length_b 15.270677
_cell_length_c 24.237906
_cell_angle_alpha 90.000000
_cell_angle_beta 90.000000
_cell_angle_gamma 90.000000
_cell_volume 2932.594620
_symmetry_space_group_name_H-M "A M M 2"
_symmetry_group_IT_number 38
_symmetry_cell_setting 'orthorhombic'
loop_
_space_group_symop_operation_xyz
x,y,z
-x,-y,z
-x,y,z
x,-y,z
x,1/2+y,1/2+z
-x,1/2-y,1/2+z
-x,1/2+y,1/2+z
x,1/2-y,1/2+z
loop_
_atom_site_type_symbol
_atom_site_label
_atom_site_fract_x
_atom_site_fract_y
_atom_site_fract_z
Si Si1 0.203344 0.905826 0.656970
Si Si2 0.309883 0.895847 0.358656
Si Si3 0.800330 0.399250 0.979223
Si Si4 0.189108 0.691619 0.754609
Si Si5 0.296294 0.899248 0.140489
Si Si6 0.307548 0.119618 0.781213
Si Si7 0.000000 0.500000 0.318913
Si Si8 0.695016 0.736675 0.073100
O O1 0.271802 0.910277 0.718529
O O2 0.286261 0.825099 0.626549
O O3 0.000000 0.895957 0.657803
O O4 0.238949 0.000000 0.629275
O O5 0.500000 0.869237 0.343967
O O6 0.268106 0.865863 0.420429
O O7 0.192188 0.868131 0.308744
O O8 0.303608 0.000000 0.362501
O O9 0.735395 0.500000 0.990513
O O10 0.000000 0.407651 0.973937
O O11 0.768403 0.325598 0.025403
O O12 0.254310 0.640589 0.700757
O O13 0.290484 0.776383 0.774227
O O14 0.000000 0.721533 0.741059
O O15 0.500000 0.900552 0.136420
O O16 0.233673 0.830711 0.093401
O O17 0.236096 0.000000 0.135627
O O18 0.500000 0.098473 0.798390
O O19 0.153151 0.075931 0.814927
O O20 0.500000 0.750274 0.058964
#
# Coordination Sequence:
#
# PCOD9359021 Si02
#       8
#     8   8   8   8   8   8   2   8
#     4  11  20  33  49  76 113 152 192 235 286 350
#     4  10  21  38  61  87 118 155 198 249 304 369
#     4  10  21  38  58  85 118 154 191 242 307 372
#     4  12  23  37  57  88 123 158 204 250 300 369
#     4  10  22  39  57  81 116 159 207 254 304 360
#     4  12  22  36  56  80 117 159 200 247 300 360
#     4  12  22  40  52  86 114 156 206 252 296 358
#     4  11  22  34  54  82 113 154 197 244 301 362
#
# _framework density 19.777708000000001
#
# number of rings (size 3 to 8) (size 9 to 14) (size 15 to 20)
#    0.000    1.103    3.448    3.931    0.000    6.621 
#    0.000    0.000    0.000    0.000    1.793    0.000 
#    0.000    0.000    0.000    0.000    0.000    0.000 
#
# Total GULP energy -161445.469004 kJ/mol
# GULP energy per Si atom -5567.085138 kJ/mol
# Density = 1.973269 g / cm^3
# Si number density = 19.777708 Si / 1000 Ang^3
#
#
#
# Elastic Constant Matrix: (Units=GPa)
#
#
# Indices 1 2 3 4 5 6 
#
# 1 82.4331 12.4194 -6.2627 0.0000 0.0000 0.0000
# 2 12.4194 114.7056 23.5977 0.0000 0.0000 0.0000
# 3 -6.2627 23.5977 54.1774 0.0000 0.0000 0.0000
# 4 0.0000 0.0000 0.0000 16.6127 0.0000 0.0000
# 5 0.0000 0.0000 0.0000 0.0000 36.0231 0.0000
# 6 0.0000 0.0000 0.0000 0.0000 0.0000 17.6732
#
#
#
# Elastic Compliance Matrix: (Units=1/GPa)
#
#
# Indices 1 2 3 4 5 6 
#
# 1 0.012577 -0.001824 0.002248 0.000000 0.000000 0.000000
# 2 -0.001824 0.009841 -0.004497 0.000000 0.000000 0.000000
# 3 0.002248 -0.004497 0.020677 0.000000 0.000000 0.000000
# 4 0.000000 0.000000 0.000000 0.060195 0.000000 0.000000
# 5 0.000000 0.000000 0.000000 0.000000 0.027760 0.000000
# 6 0.000000 0.000000 0.000000 0.000000 0.000000 0.056583
#
#
# Mechanical properties :
#
#
# Convention : Reuss Voigt Hill
#
# Bulk Modulus (GPa) = 28.61394 34.53609 31.57502
# Shear Modulus (GPa) = 24.10489 28.83259 26.46874
#
# Velocity S-wave (km/s) = 3.49491 3.82230 3.66226
# Velocity P-wave (km/s) = 5.54842 6.08112 5.82087
#
# Compressibility (1/GPa) = 0.03494800
#
# Stress axis : x y z
#
# Youngs Moduli (GPa) = 79.51204 101.61930 48.36391
#
# Poissons Ratio (x) = 0.18538 -0.10874
# Poissons Ratio (y) = 0.14505 0.21750
# Poissons Ratio (z) = -0.17877 0.45699
#
# Static dielectric constant tensor:
#      x y z
#    x 1.717430 0.000000 0.000000 
#    y 0.000000 1.791590 0.000000 
#    z 0.000000 0.000000 1.691900 
# 
# From -- ./inp_files/22026.got.cif
#   From: 2010.05.17/outbox.cif.g08.bks.cpg/sg38_12_cif.got.tgz:22026.got - 2010.06.03 18:07:57.
