data_PCOD9359012
_publ_section_title
;
Structure prediction by ZEFSAII (Michael W. Deem and Ramdas Pophale) SiO2 
 PCOD9359012
Probable space group: A M M 2
;
_chemical_formula_sum "Si O2"
_cell_formula_units_Z 44
_cell_length_a 31.989134
_cell_length_b 13.132747
_cell_length_c 5.031298
_cell_angle_alpha 90.000000
_cell_angle_beta 90.000000
_cell_angle_gamma 90.000000
_cell_volume 2113.674471
_symmetry_space_group_name_H-M "A M M 2"
_symmetry_group_IT_number 38
_symmetry_cell_setting 'orthorhombic'
loop_
_space_group_symop_operation_xyz
x,y,z
-x,-y,z
-x,y,z
x,-y,z
x,1/2+y,1/2+z
-x,1/2-y,1/2+z
-x,1/2+y,1/2+z
x,1/2-y,1/2+z
loop_
_atom_site_type_symbol
_atom_site_label
_atom_site_fract_x
_atom_site_fract_y
_atom_site_fract_z
Si Si1 0.409700 0.321150 0.171490
Si Si2 0.132395 0.179914 0.316801
Si Si3 0.500000 0.181385 0.784663
Si Si4 0.954713 0.177904 0.187185
Si Si5 0.775062 0.179118 0.289294
Si Si6 0.711497 0.500000 0.667519
Si Si7 0.344669 0.000000 0.667936
O O1 0.406952 0.228948 0.381761
O O2 0.455808 0.369289 0.217648
O O3 0.373358 0.401618 0.213911
O O4 0.131448 0.277331 0.116164
O O5 0.089163 0.123190 0.248537
O O6 0.177927 0.133031 0.267233
O O7 0.500000 0.280552 0.588478
O O8 0.954062 0.227251 0.895002
O O9 0.000000 0.126378 0.224094
O O10 0.771374 0.271043 0.078843
O O11 0.739970 0.097553 0.227294
O O12 0.693982 0.500000 0.370166
O O13 0.672704 0.500000 0.869504
#
# Coordination Sequence:
#
# PCOD9359012 Si02
#       7
#     8   8   4   8   8   4   4
#     4  10  21  39  61  86 118 150 182 224 267 313
#     4   8  14  25  42  64  89 122 163 202 251 310
#     4   8  16  33  58  85 112 146 184 217 258 313
#     4   8  12  18  31  55  87 117 148 192 241 296
#     4  10  21  38  58  77 103 139 178 227 275 316
#     4  12  26  40  56  83 109 140 190 228 270 332
#     4  12  26  39  58  86 112 146 187 222 272 332
#
# _framework density 20.816827
#
# number of rings (size 3 to 8) (size 9 to 14) (size 15 to 20)
#    0.000    2.545    0.000    2.182    0.000    4.727 
#    0.000    0.000    0.000    7.636    0.000    0.636 
#    0.000    0.000    0.000   62.727    0.000    4.364 
#
# Total GULP energy -122642.271578 kJ/mol
# GULP energy per Si atom -5574.648708 kJ/mol
# Density = 2.076945 g / cm^3
# Si number density = 20.816827 Si / 1000 Ang^3
#
#
#
# Elastic Constant Matrix: (Units=GPa)
#
#
# Indices 1 2 3 4 5 6 
#
# 1 113.4247 28.8470 -19.3728 0.0000 0.0000 0.0000
# 2 28.8470 38.8487 -12.1426 0.0000 0.0000 0.0000
# 3 -19.3728 -12.1426 70.5917 0.0000 0.0000 0.0000
# 4 0.0000 0.0000 0.0000 8.2588 0.0000 0.0000
# 5 0.0000 0.0000 0.0000 0.0000 33.9100 0.0000
# 6 0.0000 0.0000 0.0000 0.0000 0.0000 -147.9745
#
#
#
# Elastic Compliance Matrix: (Units=1/GPa)
#
#
# Indices 1 2 3 4 5 6 
#
# 1 0.011062 -0.007678 0.001715 0.000000 0.000000 0.000000
# 2 -0.007678 0.032533 0.003489 0.000000 0.000000 0.000000
# 3 0.001715 0.003489 0.015237 0.000000 0.000000 0.000000
# 4 0.000000 0.000000 0.000000 0.121083 0.000000 0.000000
# 5 0.000000 0.000000 0.000000 0.000000 0.029490 0.000000
# 6 0.000000 0.000000 0.000000 0.000000 0.000000 -0.006758
#
#
# Mechanical properties :
#
#
# Convention : Reuss Voigt Hill
#
# Bulk Modulus (GPa) = 18.55856 24.16980 21.36418
# Shear Modulus (GPa) = 22.16748 -6.12559 8.02095
#
# Velocity S-wave (km/s) = 3.26679 -1.71727 1.96506
# Velocity P-wave (km/s) = 4.81288 2.77559 3.92859
#
# Compressibility (1/GPa) = 0.05388348
#
# Stress axis : x y z
#
# Youngs Moduli (GPa) = 90.39862 30.73825 65.63062
#
# Poissons Ratio (x) = 0.23601 -0.11256
# Poissons Ratio (y) = 0.69409 -0.22898
# Poissons Ratio (z) = -0.15504 -0.10724
#
# Static dielectric constant tensor:
#      x y z
#    x 1.827220 0.000000 0.000000 
#    y 0.000000 1.743600 0.000000 
#    z 0.000000 0.000000 1.697590 
# 
# From -- ./inp_files/2269.got.cif
#   From: 2010.05.17/outbox.cif.g08.bks.cpg/sg38_2_cif.got.tgz:2269.got - 2010.06.03 18:07:57.
