data_PCOD9359326
_publ_section_title
;
Structure prediction by ZEFSAII (Michael W. Deem and Ramdas Pophale) SiO2 
 PCOD9359326
Probable space group: A M M 2
;
_chemical_formula_sum "Si O2"
_cell_formula_units_Z 64
_cell_length_a 7.732212
_cell_length_b 14.211679
_cell_length_c 25.403777
_cell_angle_alpha 90.000000
_cell_angle_beta 90.000000
_cell_angle_gamma 90.000000
_cell_volume 2791.563004
_symmetry_space_group_name_H-M "A M M 2"
_symmetry_group_IT_number 38
_symmetry_cell_setting 'orthorhombic'
loop_
_space_group_symop_operation_xyz
x,y,z
-x,-y,z
-x,y,z
x,-y,z
x,1/2+y,1/2+z
-x,1/2-y,1/2+z
-x,1/2+y,1/2+z
x,1/2-y,1/2+z
loop_
_atom_site_type_symbol
_atom_site_label
_atom_site_fract_x
_atom_site_fract_y
_atom_site_fract_z
Si Si1 0.200232 0.884611 0.413250
Si Si2 0.700486 0.208139 0.631876
Si Si3 0.292482 0.892077 0.850407
Si Si4 0.207468 0.609306 0.463776
Si Si5 0.705188 0.707611 0.245703
Si Si6 0.790510 0.109187 0.080087
Si Si7 0.210000 0.392802 0.797835
Si Si8 0.205879 0.606072 0.025598
O O1 0.276957 0.862556 0.356057
O O2 0.276127 0.854665 0.469733
O O3 0.000000 0.852721 0.411172
O O4 0.198964 0.000000 0.415075
O O5 0.500000 0.182677 0.632657
O O6 0.777572 0.180536 0.688510
O O7 0.719678 0.319677 0.622931
O O8 0.773330 0.161869 0.579273
O O9 0.500000 0.894518 0.846817
O O10 0.253266 0.847123 0.907468
O O11 0.223034 0.841778 0.798192
O O12 0.227780 0.000000 0.850854
O O13 0.267144 0.500000 0.461243
O O14 0.266427 0.642616 0.521318
O O15 0.000000 0.609444 0.466286
O O16 0.500000 0.687725 0.244306
O O17 0.729993 0.818109 0.255508
O O18 0.000000 0.113569 0.081842
O O19 0.741631 0.000000 0.086540
O O20 0.263826 0.500000 0.787790
O O21 0.000000 0.392220 0.799625
O O22 0.273615 0.500000 0.032921
O O23 0.000000 0.600368 0.016571
#
# Coordination Sequence:
#
# PCOD9359326 Si02
#       8
#     8   8   8   8   8   8   8   8
#     4   7  12  27  52  80 106 130 160 202 257 317
#     4  11  24  38  52  74 106 144 184 223 261 306
#     4   9  18  34  55  76 101 136 174 211 254 307
#     4   8  15  30  53  81 108 131 161 206 262 318
#     4  10  23  39  51  70 103 142 181 217 257 304
#     4   9  19  37  59  80 105 138 173 214 266 319
#     4   9  18  34  57  82 105 132 168 210 257 310
#     4   9  18  35  59  83 108 139 173 213 262 314
#
# _framework density 22.926226
#
# number of rings (size 3 to 8) (size 9 to 14) (size 15 to 20)
#    0.000    3.000    0.000    2.625    0.000    4.750 
#    0.000    9.375    0.000    3.750    0.000    0.000 
#    0.000    0.000    0.000    0.000    0.000    0.000 
#
# Total GULP energy -178510.499681 kJ/mol
# GULP energy per Si atom -5578.453115 kJ/mol
# Density = 2.287404 g / cm^3
# Si number density = 22.926226 Si / 1000 Ang^3
#
#
#
# Elastic Constant Matrix: (Units=GPa)
#
#
# Indices 1 2 3 4 5 6 
#
# 1 32.3497 -8.6339 1.8482 0.0000 0.0000 0.0000
# 2 -8.6339 37.0685 16.9084 0.0000 0.0000 0.0000
# 3 1.8482 16.9084 133.3129 0.0000 0.0000 0.0000
# 4 0.0000 0.0000 0.0000 20.0974 0.0000 0.0000
# 5 0.0000 0.0000 0.0000 0.0000 17.9193 0.0000
# 6 0.0000 0.0000 0.0000 0.0000 0.0000 32.6873
#
#
#
# Elastic Compliance Matrix: (Units=1/GPa)
#
#
# Indices 1 2 3 4 5 6 
#
# 1 0.033253 0.008444 -0.001532 0.000000 0.000000 0.000000
# 2 0.008444 0.030778 -0.004021 0.000000 0.000000 0.000000
# 3 -0.001532 -0.004021 0.008032 0.000000 0.000000 0.000000
# 4 0.000000 0.000000 0.000000 0.049758 0.000000 0.000000
# 5 0.000000 0.000000 0.000000 0.000000 0.055806 0.000000
# 6 0.000000 0.000000 0.000000 0.000000 0.000000 0.030593
#
#
# Mechanical properties :
#
#
# Convention : Reuss Voigt Hill
#
# Bulk Modulus (GPa) = 12.84583 24.77517 18.81050
# Shear Modulus (GPa) = 21.89279 26.98138 24.43709
#
# Velocity S-wave (km/s) = 3.09354 3.43429 3.26836
# Velocity P-wave (km/s) = 4.28663 5.15322 4.73978
#
# Compressibility (1/GPa) = 0.07784628
#
# Stress axis : x y z
#
# Youngs Moduli (GPa) = 30.07218 32.49090 124.49674
#
# Poissons Ratio (x) = -0.27436 0.19073
# Poissons Ratio (y) = -0.25393 0.50056
# Poissons Ratio (z) = 0.04607 0.13064
#
# Static dielectric constant tensor:
#      x y z
#    x 1.851970 0.000000 0.000000 
#    y 0.000000 1.883460 0.000000 
#    z 0.000000 0.000000 1.895000 
# 
# From -- ./inp_files/22163.got.cif
#   From: 2010.05.17/outbox.cif.g08.bks.cpg/sg38_12_cif.got.tgz:22163.got - 2010.06.03 18:07:57.
