data_PCOD9359947
_publ_section_title
;
Structure prediction by ZEFSAII (Michael W. Deem and Ramdas Pophale) SiO2 
 PCOD9359947
Probable space group: A B M 2
;
_chemical_formula_sum "Si O2"
_cell_formula_units_Z 64
_cell_length_a 14.976366
_cell_length_b 8.575904
_cell_length_c 25.693272
_cell_angle_alpha 90.000000
_cell_angle_beta 90.000000
_cell_angle_gamma 90.000000
_cell_volume 3299.937924
_symmetry_space_group_name_H-M "A B M 2"
_symmetry_group_IT_number 39
_symmetry_cell_setting 'orthorhombic'
loop_
_space_group_symop_operation_xyz
x,y,z
-x,-y,z
-x,1/2+y,z
x,1/2-y,z
x,1/2+y,1/2+z
-x,1/2-y,1/2+z
-x,y,1/2+z
x,-y,1/2+z
loop_
_atom_site_type_symbol
_atom_site_label
_atom_site_fract_x
_atom_site_fract_y
_atom_site_fract_z
Si Si1 0.220737 0.438115 0.779850
Si Si2 0.594412 0.934604 0.509230
Si Si3 0.364639 0.570965 0.621270
Si Si4 0.091256 0.437274 0.194853
Si Si5 0.898547 0.061334 0.377845
Si Si6 0.785826 0.439460 0.479618
Si Si7 0.595034 0.063380 0.235607
Si Si8 0.157595 0.570455 0.589862
O O1 0.218486 0.250000 0.779952
O O2 0.171924 0.500944 0.728869
O O3 0.162788 0.491384 0.829257
O O4 0.323791 0.485916 0.773377
O O5 0.595583 0.750000 0.504584
O O6 0.500000 0.000000 0.489086
O O7 0.600545 0.981927 0.570359
O O8 0.683461 0.003028 0.482002
O O9 0.396955 0.750000 0.619750
O O10 0.388029 0.498034 0.676792
O O11 0.257867 0.573526 0.613031
O O12 0.092368 0.250000 0.193972
O O13 0.100178 0.501640 0.135990
O O14 0.000000 0.500000 0.218715
O O15 0.902885 0.250000 0.376736
O O16 0.844458 0.015804 0.429952
O O17 0.000000 0.000000 0.376096
O O18 0.782038 0.250000 0.482193
O O19 0.833728 0.498958 0.532544
O O20 0.593264 0.250000 0.233505
O O21 0.500000 0.000000 0.253372
O O22 0.127783 0.750000 0.583229
#
# Coordination Sequence:
#
# PCOD9359947 Si02
#       8
#     8   8   8   8   8   8   8   8
#     4  10  22  40  59  83 114 150 193 242 288 342
#     4  11  21  34  54  84 119 157 198 237 283 339
#     4  10  18  33  54  79 114 155 197 235 280 336
#     4  11  21  34  53  81 113 149 187 231 287 349
#     4  10  22  41  65  88 113 147 193 244 295 345
#     4   9  19  38  60  83 114 151 191 242 292 340
#     4  11  22  35  54  81 115 151 194 238 288 344
#     4   8  16  31  52  77 109 147 184 224 279 337
#
# _framework density 19.394304000000002
#
# number of rings (size 3 to 8) (size 9 to 14) (size 15 to 20)
#    0.000    2.000    1.250    3.750    0.000    3.000 
#    0.000    1.250    0.000    1.500    0.000    0.000 
#    0.000    0.000    0.000    0.000    0.000    0.000 
#
# Total GULP energy -178539.551984 kJ/mol
# GULP energy per Si atom -5579.361000 kJ/mol
# Density = 1.935016 g / cm^3
# Si number density = 19.394304 Si / 1000 Ang^3
#
#
#
# Elastic Constant Matrix: (Units=GPa)
#
#
# Indices 1 2 3 4 5 6 
#
# 1 150.1334 29.6368 77.5361 0.0000 0.0000 0.0000
# 2 29.6368 34.4286 23.9439 0.0000 0.0000 0.0000
# 3 77.5361 23.9439 120.7582 0.0000 0.0000 0.0000
# 4 0.0000 0.0000 0.0000 16.2249 0.0000 0.0000
# 5 0.0000 0.0000 0.0000 0.0000 17.8354 0.0000
# 6 0.0000 0.0000 0.0000 0.0000 0.0000 27.5055
#
#
#
# Elastic Compliance Matrix: (Units=1/GPa)
#
#
# Indices 1 2 3 4 5 6 
#
# 1 0.010696 -0.005140 -0.005848 0.000000 0.000000 0.000000
# 2 -0.005140 0.036161 -0.003870 0.000000 0.000000 0.000000
# 3 -0.005848 -0.003870 0.012803 0.000000 0.000000 0.000000
# 4 0.000000 0.000000 0.000000 0.061634 0.000000 0.000000
# 5 0.000000 0.000000 0.000000 0.000000 0.056068 0.000000
# 6 0.000000 0.000000 0.000000 0.000000 0.000000 0.036356
#
#
# Mechanical properties :
#
#
# Convention : Reuss Voigt Hill
#
# Bulk Modulus (GPa) = 33.39519 63.06153 48.22836
# Shear Modulus (GPa) = 19.73037 23.92672 21.82855
#
# Velocity S-wave (km/s) = 3.19302 3.51621 3.35851
# Velocity P-wave (km/s) = 5.55430 7.00508 6.32145
#
# Compressibility (1/GPa) = 0.02994443
#
# Stress axis : x y z
#
# Youngs Moduli (GPa) = 93.49530 27.65379 78.10395
#
# Poissons Ratio (x) = 0.14213 0.45678
# Poissons Ratio (y) = 0.48054 0.30226
# Poissons Ratio (z) = 0.54680 0.10702
#
# Static dielectric constant tensor:
#      x y z
#    x 1.635490 0.000000 0.000000 
#    y 0.000000 1.666780 0.000000 
#    z 0.000000 0.000000 1.682670 
# 
# From -- ./inp_files/16198.got.cif
#   From: 2010.05.17/outbox.cif.g08.bks.cpg/sg39_9_cif.got.tgz:16198.got - 2010.06.03 18:22:40.
