data_PCOD9359389
_publ_section_title
;
Structure prediction by ZEFSAII (Michael W. Deem and Ramdas Pophale) SiO2 
 PCOD9359389
Probable space group: A M M 2
;
_chemical_formula_sum "Si O2"
_cell_formula_units_Z 40
_cell_length_a 15.924698
_cell_length_b 14.649492
_cell_length_c 7.631408
_cell_angle_alpha 90.000000
_cell_angle_beta 90.000000
_cell_angle_gamma 90.000000
_cell_volume 1780.321526
_symmetry_space_group_name_H-M "A M M 2"
_symmetry_group_IT_number 38
_symmetry_cell_setting 'orthorhombic'
loop_
_space_group_symop_operation_xyz
x,y,z
-x,-y,z
-x,y,z
x,-y,z
x,1/2+y,1/2+z
-x,1/2-y,1/2+z
-x,1/2+y,1/2+z
x,1/2-y,1/2+z
loop_
_atom_site_type_symbol
_atom_site_label
_atom_site_fract_x
_atom_site_fract_y
_atom_site_fract_z
Si Si1 0.098528 0.892439 0.713460
Si Si2 0.273440 0.403875 0.630623
Si Si3 0.408067 0.360782 0.339713
Si Si4 0.358226 0.835327 0.450533
Si Si5 0.823873 0.745962 0.498770
O O1 0.112398 0.827345 0.543529
O O2 0.146443 0.828958 0.856102
O O3 0.000000 0.895036 0.755948
O O4 0.126685 0.000000 0.699037
O O5 0.228885 0.500000 0.631287
O O6 0.329520 0.394994 0.454337
O O7 0.341430 0.398998 0.785824
O O8 0.203564 0.325908 0.652046
O O9 0.500000 0.396552 0.389136
O O10 0.407971 0.252328 0.379852
O O11 0.393349 0.373529 0.132083
O O12 0.265647 0.796541 0.489523
#
# Coordination Sequence:
#
# PCOD9359389 Si02
#       5
#     8   8   8   8   8
#     4  11  24  41  67 101 135 176 220 271 342 409
#     4  11  24  41  64  95 130 174 228 278 335 402
#     4  11  22  38  62  92 127 172 224 279 340 400
#     4  11  21  38  65  92 123 172 225 269 333 397
#     4  11  20  44  65  91 135 172 221 278 328 396
#
# _framework density 22.467852000000001
#
# number of rings (size 3 to 8) (size 9 to 14) (size 15 to 20)
#    0.000    1.000    6.000    3.000    0.000    2.800 
#    0.000    0.000    0.000    3.600    0.000    0.000 
#    0.000    0.000    0.000    0.000    0.000    0.000 
#
# Total GULP energy -111372.673437 kJ/mol
# GULP energy per Si atom -5568.633672 kJ/mol
# Density = 2.241671 g / cm^3
# Si number density = 22.467852 Si / 1000 Ang^3
#
#
#
# Elastic Constant Matrix: (Units=GPa)
#
#
# Indices 1 2 3 4 5 6 
#
# 1 89.5495 30.0329 -4.4223 0.0000 0.0000 0.0000
# 2 30.0329 163.4294 22.3061 0.0000 0.0000 0.0000
# 3 -4.4223 22.3061 82.6734 0.0000 0.0000 0.0000
# 4 0.0000 0.0000 0.0000 8.7731 0.0000 0.0000
# 5 0.0000 0.0000 0.0000 0.0000 23.6888 0.0000
# 6 0.0000 0.0000 0.0000 0.0000 0.0000 -12.0956
#
#
#
# Elastic Compliance Matrix: (Units=1/GPa)
#
#
# Indices 1 2 3 4 5 6 
#
# 1 0.012031 -0.002387 0.001287 0.000000 0.000000 0.000000
# 2 -0.002387 0.006826 -0.001969 0.000000 0.000000 0.000000
# 3 0.001287 -0.001969 0.012696 0.000000 0.000000 0.000000
# 4 0.000000 0.000000 0.000000 0.113985 0.000000 0.000000
# 5 0.000000 0.000000 0.000000 0.000000 0.042214 0.000000
# 6 0.000000 0.000000 0.000000 0.000000 0.000000 -0.082675
#
#
# Mechanical properties :
#
#
# Convention : Reuss Voigt Hill
#
# Bulk Modulus (GPa) = 39.34513 47.94285 43.64399
# Shear Modulus (GPa) = 41.77560 23.25562 32.51561
#
# Velocity S-wave (km/s) = 4.31670 3.22073 3.80834
# Velocity P-wave (km/s) = 6.51114 5.93427 6.22938
#
# Compressibility (1/GPa) = 0.02541611
#
# Stress axis : x y z
#
# Youngs Moduli (GPa) = 83.11851 146.49352 78.76477
#
# Poissons Ratio (x) = 0.34963 -0.10141
# Poissons Ratio (y) = 0.19837 0.15512
# Poissons Ratio (z) = -0.10701 0.28851
#
# Static dielectric constant tensor:
#      x y z
#    x 1.805510 0.000000 0.000000 
#    y 0.000000 1.898420 0.000000 
#    z 0.000000 0.000000 1.980470 
# 
# From -- ./inp_files/5241.got.cif
#   From: 2010.05.17/outbox.cif.g08.bks.cpg/sg38_3_cif.got.tgz:5241.got - 2010.06.03 18:07:57.
