data_PCOD9359568
_publ_section_title
;
Structure prediction by ZEFSAII (Michael W. Deem and Ramdas Pophale) SiO2 
 PCOD9359568
Probable space group: A M M 2
;
_chemical_formula_sum "Si O2"
_cell_formula_units_Z 32
_cell_length_a 9.000000
_cell_length_b 18.000000
_cell_length_c 21.000000
_cell_angle_alpha 90.000000
_cell_angle_beta 90.000000
_cell_angle_gamma 90.000000
_cell_volume 3402.000000
_symmetry_space_group_name_H-M "A M M 2"
_symmetry_group_IT_number 38
_symmetry_cell_setting 'orthorhombic'
loop_
_space_group_symop_operation_xyz
x,y,z
-x,-y,z
-x,y,z
x,-y,z
x,1/2+y,1/2+z
-x,1/2-y,1/2+z
-x,1/2+y,1/2+z
x,1/2-y,1/2+z
loop_
_atom_site_type_symbol
_atom_site_label
_atom_site_fract_x
_atom_site_fract_y
_atom_site_fract_z
Si Si1 0.820684 0.201630 0.743690
Si Si2 0.822217 0.708368 0.104390
Si Si3 0.321748 0.872204 0.111398
Si Si4 0.821143 0.581235 0.342227
Si Si5 0.676077 0.082256 0.368808
Si Si6 0.822158 0.874671 0.239962
Si Si7 0.678022 0.697110 0.976875
Si Si8 0.322735 0.626732 0.470732
O O1 0.787501 0.172258 0.672668
O O2 0.762247 0.148078 0.798441
O O3 0.774426 0.287690 0.747639
O O4 0.000000 0.203037 0.749062
O O5 0.742723 0.788527 0.107962
O O6 0.000000 0.718397 0.099987
O O7 0.759192 0.671327 0.041132
O O8 0.500000 0.871126 0.117238
O O9 0.249593 0.904992 0.174873
O O10 0.284718 0.903055 0.041301
O O11 0.780754 0.500000 0.316237
O O12 0.761001 0.588940 0.413224
O O13 0.000000 0.585858 0.343671
O O14 0.500000 0.091865 0.355674
O O15 0.764119 0.086680 0.303113
O O16 0.722689 0.146972 0.417121
O O17 0.695979 0.000000 0.397371
O O18 0.000000 0.877716 0.234787
O O19 0.500000 0.691019 0.985072
O O20 0.711608 0.784591 0.967516
O O21 0.500000 0.618695 0.462900
#
# Coordination Sequence:
#
# PCOD9359568 Si02
#       8
#     8   8   8   8   8   8   8   8
#     4   8  16  31  49  72 100 127 158 197 244 293
#     4   9  16  28  49  76 102 128 162 207 252 291
#     4   9  17  31  51  75 102 130 161 201 250 302
#     4  10  20  33  49  69  96 131 166 199 238 287
#     4  10  21  36  52  71 100 137 171 205 250 305
#     4  10  19  32  53  78 101 127 163 209 253 295
#     4   9  18  33  52  75 101 130 166 205 248 300
#     4   9  18  32  51  74  98 125 159 201 245 288
#
# _framework density 9.4062319999999993
#
# number of rings (size 3 to 8) (size 9 to 14) (size 15 to 20)
#    0.000    2.750    0.000    3.375    0.000    3.500 
#    0.000    4.375    0.000    1.500    0.000    0.000 
#    0.000    0.000    0.000    0.000    0.000    0.000 
#
# Total GULP energy -178323.758570 kJ/mol
# GULP energy per Si atom -5572.617455 kJ/mol
# Density = 0.938482 g / cm^3
# Si number density = 9.406232 Si / 1000 Ang^3
#
#
#
# Elastic Constant Matrix: (Units=GPa)
#
#
# Indices 1 2 3 4 5 6 
#
# 1 21.6541 14.8310 23.5698 0.0000 0.0000 0.0000
# 2 14.8310 54.7158 33.0673 0.0000 0.0000 0.0000
# 3 23.5698 33.0673 103.4107 0.0000 0.0000 0.0000
# 4 0.0000 0.0000 0.0000 -21.9122 0.0000 0.0000
# 5 0.0000 0.0000 0.0000 0.0000 5.7880 0.0000
# 6 0.0000 0.0000 0.0000 0.0000 0.0000 10.3722
#
#
#
# Elastic Compliance Matrix: (Units=1/GPa)
#
#
# Indices 1 2 3 4 5 6 
#
# 1 0.066328 -0.010960 -0.011613 0.000000 0.000000 0.000000
# 2 -0.010960 0.024465 -0.005325 0.000000 0.000000 0.000000
# 3 -0.011613 -0.005325 0.014020 0.000000 0.000000 0.000000
# 4 0.000000 0.000000 0.000000 -0.045637 0.000000 0.000000
# 5 0.000000 0.000000 0.000000 0.000000 0.172773 0.000000
# 6 0.000000 0.000000 0.000000 0.000000 0.000000 0.096412
#
#
# Mechanical properties :
#
#
# Convention : Reuss Voigt Hill
#
# Bulk Modulus (GPa) = 20.40138 35.85740 28.12939
# Shear Modulus (GPa) = 12.48452 6.07042 9.27747
#
# Velocity S-wave (km/s) = 2.57890 1.79828 2.22312
# Velocity P-wave (km/s) = 4.44250 4.83876 4.64485
#
# Compressibility (1/GPa) = 0.04901629
#
# Stress axis : x y z
#
# Youngs Moduli (GPa) = 15.07668 40.87426 71.32754
#
# Poissons Ratio (x) = 0.44799 0.82832
# Poissons Ratio (y) = 0.16524 0.37983
# Poissons Ratio (z) = 0.17508 0.21766
#
# Static dielectric constant tensor:
#      x y z
#    x 1.654840 0.000000 0.000000 
#    y 0.000000 1.658100 0.000000 
#    z 0.000000 0.000000 1.680680 
# 
# From -- ./inp_files/20073.got.cif
#   From: 2010.05.17/outbox.ucp.g08.bks.cvg/sg38_11_cif.got.tgz:20073.got - 2010.06.11 10:39:43.
