data_PCOD9359651
_publ_section_title
;
Structure prediction by ZEFSAII (Michael W. Deem and Ramdas Pophale) SiO2 
 PCOD9359651
Probable space group: A M M 2
;
_chemical_formula_sum "Si O2"
_cell_formula_units_Z 24
_cell_length_a 9.000000
_cell_length_b 15.000000
_cell_length_c 18.000000
_cell_angle_alpha 90.000000
_cell_angle_beta 90.000000
_cell_angle_gamma 90.000000
_cell_volume 2430.000000
_symmetry_space_group_name_H-M "A M M 2"
_symmetry_group_IT_number 38
_symmetry_cell_setting 'orthorhombic'
loop_
_space_group_symop_operation_xyz
x,y,z
-x,-y,z
-x,y,z
x,-y,z
x,1/2+y,1/2+z
-x,1/2-y,1/2+z
-x,1/2+y,1/2+z
x,1/2-y,1/2+z
loop_
_atom_site_type_symbol
_atom_site_label
_atom_site_fract_x
_atom_site_fract_y
_atom_site_fract_z
Si Si1 0.822298 0.604011 0.612970
Si Si2 0.325403 0.733934 0.493594
Si Si3 0.167594 0.600488 0.400140
Si Si4 0.321456 0.292751 0.743811
Si Si5 0.319419 0.105073 0.396020
Si Si6 0.829672 0.601439 0.222604
O O1 0.787711 0.500000 0.594929
O O2 0.766188 0.678577 0.554594
O O3 0.738462 0.633074 0.687280
O O4 0.000000 0.610379 0.621155
O O5 0.500000 0.735646 0.512655
O O6 0.293066 0.669375 0.423580
O O7 0.278373 0.833613 0.467932
O O8 0.195383 0.500000 0.427914
O O9 0.163060 0.595440 0.311804
O O10 0.000000 0.626826 0.425451
O O11 0.500000 0.286599 0.743665
O O12 0.274438 0.334528 0.824291
O O13 0.258872 0.195683 0.715594
O O14 0.500000 0.102740 0.394998
O O15 0.270624 0.000000 0.395352
O O16 0.777479 0.500000 0.198067
O O17 0.000000 0.612367 0.194811
#
# Coordination Sequence:
#
# PCOD9359651 Si02
#       6
#     8   8   8   8   8   8
#     4  11  25  43  61  84 118 160 201 243 299 366
#     4  11  21  35  57  86 115 149 194 245 299 352
#     4   9  17  30  50  77 112 151 185 225 281 340
#     4  11  21  37  62  91 122 156 197 248 303 357
#     4   9  19  36  58  86 119 152 189 239 299 358
#     4   9  18  33  54  82 118 158 196 236 287 347
#
# _framework density 9.8765429999999999
#
# number of rings (size 3 to 8) (size 9 to 14) (size 15 to 20)
#    0.000    2.000    1.667    3.500    0.000    4.667 
#    0.000    2.500    0.000    8.000    0.000    0.000 
#    0.000    0.000    0.000    0.000    0.000    0.000 
#
# Total GULP energy -133604.086381 kJ/mol
# GULP energy per Si atom -5566.836933 kJ/mol
# Density = 0.985406 g / cm^3
# Si number density = 9.876543 Si / 1000 Ang^3
#
#
#
# Elastic Constant Matrix: (Units=GPa)
#
#
# Indices 1 2 3 4 5 6 
#
# 1 49.6608 38.4070 7.1402 0.0000 0.0000 0.0000
# 2 38.4070 160.0403 28.5178 0.0000 0.0000 0.0000
# 3 7.1402 28.5178 49.0870 0.0000 0.0000 0.0000
# 4 0.0000 0.0000 0.0000 26.3576 0.0000 0.0000
# 5 0.0000 0.0000 0.0000 0.0000 24.1114 0.0000
# 6 0.0000 0.0000 0.0000 0.0000 0.0000 36.4178
#
#
#
# Elastic Compliance Matrix: (Units=1/GPa)
#
#
# Indices 1 2 3 4 5 6 
#
# 1 0.024727 -0.005904 -0.000167 0.000000 0.000000 0.000000
# 2 -0.005904 0.008380 -0.004010 0.000000 0.000000 0.000000
# 3 -0.000167 -0.004010 0.022726 0.000000 0.000000 0.000000
# 4 0.000000 0.000000 0.000000 0.037940 0.000000 0.000000
# 5 0.000000 0.000000 0.000000 0.000000 0.041474 0.000000
# 6 0.000000 0.000000 0.000000 0.000000 0.000000 0.027459
#
#
# Mechanical properties :
#
#
# Convention : Reuss Voigt Hill
#
# Bulk Modulus (GPa) = 28.03360 45.21312 36.62336
# Shear Modulus (GPa) = 25.67304 29.69222 27.68263
#
# Velocity S-wave (km/s) = 3.60904 3.88128 3.74763
# Velocity P-wave (km/s) = 5.62047 6.55931 6.10796
#
# Compressibility (1/GPa) = 0.03567148
#
# Stress axis : x y z
#
# Youngs Moduli (GPa) = 40.44175 119.33390 44.00319
#
# Poissons Ratio (x) = 0.70459 0.00733
# Poissons Ratio (y) = 0.23878 0.17643
# Poissons Ratio (z) = 0.00673 0.47848
#
# Static dielectric constant tensor:
#      x y z
#    x 1.690380 0.000000 0.000000 
#    y 0.000000 1.718140 0.000000 
#    z 0.000000 0.000000 1.817190 
# 
# From -- ./inp_files/16648.got.cif
#   From: 2010.05.17/outbox.ucp.g08.bks.cvg/sg38_9_cif.got.tgz:16648.got - 2010.06.11 10:39:43.
