data_PCOD9359446
_publ_section_title
;
Structure prediction by ZEFSAII (Michael W. Deem and Ramdas Pophale) SiO2 
 PCOD9359446
Probable space group: A M M 2
;
_chemical_formula_sum "Si O2"
_cell_formula_units_Z 24
_cell_length_a 7.919541
_cell_length_b 9.051450
_cell_length_c 18.851023
_cell_angle_alpha 90.000000
_cell_angle_beta 90.000000
_cell_angle_gamma 90.000000
_cell_volume 1351.304091
_symmetry_space_group_name_H-M "A M M 2"
_symmetry_group_IT_number 38
_symmetry_cell_setting 'orthorhombic'
loop_
_space_group_symop_operation_xyz
x,y,z
-x,-y,z
-x,y,z
x,-y,z
x,1/2+y,1/2+z
-x,1/2-y,1/2+z
-x,1/2+y,1/2+z
x,1/2-y,1/2+z
loop_
_atom_site_type_symbol
_atom_site_label
_atom_site_fract_x
_atom_site_fract_y
_atom_site_fract_z
Si Si1 0.689940 0.824523 0.139220
Si Si2 0.806224 0.168550 0.502313
Si Si3 0.000000 0.675823 0.219977
Si Si4 0.000000 0.675061 0.387926
O O1 0.500000 0.797402 0.166171
O O2 0.833431 0.747104 0.185688
O O3 0.719887 0.000000 0.137072
O O4 0.703491 0.759272 0.059744
O O5 0.000000 0.163001 0.531428
O O6 0.839415 0.250204 0.427631
O O7 0.747508 0.000000 0.493973
O O8 0.000000 0.500000 0.207359
O O9 0.000000 0.701531 0.304539
O O10 0.000000 0.500000 0.401883
#
# Coordination Sequence:
#
# PCOD9359446 Si02
#       4
#     8   8   4   4
#     4  11  23  37  57  84 113 148 187 228 275 328
#     4   9  18  33  55  82 107 138 181 224 272 322
#     4  11  22  37  58  83 113 149 184 227 280 329
#     4   9  18  33  56  81 109 147 184 223 276 331
#
# _framework density 17.760622000000001
#
# number of rings (size 3 to 8) (size 9 to 14) (size 15 to 20)
#    1.000    1.000    1.667    2.500    0.000    5.333 
#    0.000    1.667    0.000    2.000    0.000    0.000 
#    0.000    0.000    0.000    0.000    0.000    0.000 
#
# Total GULP energy -66844.949064 kJ/mol
# GULP energy per Si atom -5570.412422 kJ/mol
# Density = 1.772020 g / cm^3
# Si number density = 17.760622 Si / 1000 Ang^3
#
#
#
# Elastic Constant Matrix: (Units=GPa)
#
#
# Indices 1 2 3 4 5 6 
#
# 1 99.7774 74.4806 58.4979 0.0000 0.0000 0.0000
# 2 74.4806 144.1127 85.9647 0.0000 0.0000 0.0000
# 3 58.4979 85.9647 120.4094 0.0000 0.0000 0.0000
# 4 0.0000 0.0000 0.0000 32.7077 0.0000 0.0000
# 5 0.0000 0.0000 0.0000 0.0000 6.6597 0.0000
# 6 0.0000 0.0000 0.0000 0.0000 0.0000 13.5051
#
#
#
# Elastic Compliance Matrix: (Units=1/GPa)
#
#
# Indices 1 2 3 4 5 6 
#
# 1 0.017117 -0.006768 -0.003484 0.000000 0.000000 0.000000
# 2 -0.006768 0.014763 -0.007251 0.000000 0.000000 0.000000
# 3 -0.003484 -0.007251 0.015174 0.000000 0.000000 0.000000
# 4 0.000000 0.000000 0.000000 0.030574 0.000000 0.000000
# 5 0.000000 0.000000 0.000000 0.000000 0.150157 0.000000
# 6 0.000000 0.000000 0.000000 0.000000 0.000000 0.074046
#
#
# Mechanical properties :
#
#
# Convention : Reuss Voigt Hill
#
# Bulk Modulus (GPa) = 83.00601 89.13176 86.06889
# Shear Modulus (GPa) = 14.66907 20.26493 17.46700
#
# Velocity S-wave (km/s) = 2.87702 3.38154 3.13943
# Velocity P-wave (km/s) = 7.60748 8.09570 7.85539
#
# Compressibility (1/GPa) = 0.01204732
#
# Stress axis : x y z
#
# Youngs Moduli (GPa) = 58.42075 67.73900 65.90057
#
# Poissons Ratio (x) = 0.45849 0.22958
# Poissons Ratio (y) = 0.39542 0.47786
# Poissons Ratio (z) = 0.20352 0.49119
#
# Static dielectric constant tensor:
#      x y z
#    x 1.617770 0.000000 0.000000 
#    y 0.000000 1.599060 0.000000 
#    z 0.000000 0.000000 1.596970 
# 
# From -- ./inp_files/16071.got.cif
#   From: 2010.05.17/outbox.cif.g08.bks.cpg/sg38_9_cif.got.tgz:16071.got - 2010.06.03 18:07:57.
