data_PCOD9359269
_publ_section_title
;
Structure prediction by ZEFSAII (Michael W. Deem and Ramdas Pophale) SiO2 
 PCOD9359269
Probable space group: A M M 2
;
_chemical_formula_sum "Si O2"
_cell_formula_units_Z 34
_cell_length_a 7.510588
_cell_length_b 10.255251
_cell_length_c 19.379734
_cell_angle_alpha 90.000000
_cell_angle_beta 90.000000
_cell_angle_gamma 90.000000
_cell_volume 1492.684575
_symmetry_space_group_name_H-M "A M M 2"
_symmetry_group_IT_number 38
_symmetry_cell_setting 'orthorhombic'
loop_
_space_group_symop_operation_xyz
x,y,z
-x,-y,z
-x,y,z
x,-y,z
x,1/2+y,1/2+z
-x,1/2-y,1/2+z
-x,1/2+y,1/2+z
x,1/2-y,1/2+z
loop_
_atom_site_type_symbol
_atom_site_label
_atom_site_fract_x
_atom_site_fract_y
_atom_site_fract_z
Si Si1 0.785877 0.148590 0.384590
Si Si2 0.500000 0.000000 0.176618
Si Si3 0.794277 0.303811 0.725624
Si Si4 0.290503 0.648555 0.503100
Si Si5 0.715420 0.358807 0.110019
O O1 0.739599 0.181978 0.305366
O O2 0.722439 0.263523 0.434488
O O3 0.000000 0.146438 0.389210
O O4 0.722109 0.000000 0.400122
O O5 0.343818 0.110405 0.182982
O O6 0.775649 0.165248 0.688409
O O7 0.000000 0.345589 0.721406
O O8 0.500000 0.633528 0.519621
O O9 0.219692 0.500000 0.498202
O O10 0.212670 0.742762 0.561880
O O11 0.500000 0.359033 0.106715
O O12 0.775736 0.500000 0.084340
#
# Coordination Sequence:
#
# PCOD9359269 Si02
#       5
#     8   2   8   8   8
#     4  10  22  40  61  90 125 164 213 262 314 385
#     4  12  22  40  66  98 136 168 212 270 328 374
#     4  11  24  40  66  99 130 171 221 265 322 391
#     4  10  23  39  62  93 127 166 216 265 320 385
#     4  10  22  41  64  94 128 172 221 272 327 389
#
# _framework density 22.777754999999999
#
# number of rings (size 3 to 8) (size 9 to 14) (size 15 to 20)
#    0.000    1.647    2.353    1.059    3.294    4.235 
#    0.000    4.706    0.000    0.000    0.000    0.000 
#    0.000    0.000    0.000    0.000    0.000    0.000 
#
# Total GULP energy -94676.118842 kJ/mol
# GULP energy per Si atom -5569.183461 kJ/mol
# Density = 2.272591 g / cm^3
# Si number density = 22.777755 Si / 1000 Ang^3
#
#
#
# Elastic Constant Matrix: (Units=GPa)
#
#
# Indices 1 2 3 4 5 6 
#
# 1 88.8593 17.7948 1.4443 0.0000 0.0000 0.0000
# 2 17.7948 222.8728 89.4230 0.0000 0.0000 0.0000
# 3 1.4443 89.4230 88.3832 0.0000 0.0000 0.0000
# 4 0.0000 0.0000 0.0000 12.9738 0.0000 0.0000
# 5 0.0000 0.0000 0.0000 0.0000 29.0199 0.0000
# 6 0.0000 0.0000 0.0000 0.0000 0.0000 5.3706
#
#
#
# Elastic Compliance Matrix: (Units=1/GPa)
#
#
# Indices 1 2 3 4 5 6 
#
# 1 0.011518 -0.001421 0.001249 0.000000 0.000000 0.000000
# 2 -0.001421 0.007728 -0.007796 0.000000 0.000000 0.000000
# 3 0.001249 -0.007796 0.019182 0.000000 0.000000 0.000000
# 4 0.000000 0.000000 0.000000 0.077078 0.000000 0.000000
# 5 0.000000 0.000000 0.000000 0.000000 0.034459 0.000000
# 6 0.000000 0.000000 0.000000 0.000000 0.000000 0.186197
#
#
# Mechanical properties :
#
#
# Convention : Reuss Voigt Hill
#
# Bulk Modulus (GPa) = 44.45840 68.60439 56.53139
# Shear Modulus (GPa) = 13.90451 28.90308 21.40379
#
# Velocity S-wave (km/s) = 2.47339 3.56605 3.06875
# Velocity P-wave (km/s) = 5.26475 6.86586 6.11791
#
# Compressibility (1/GPa) = 0.02249294
#
# Stress axis : x y z
#
# Youngs Moduli (GPa) = 86.82071 129.39472 52.13318
#
# Poissons Ratio (x) = 0.18386 -0.06514
# Poissons Ratio (y) = 0.12337 0.40643
# Poissons Ratio (z) = -0.10848 1.00876
#
# Static dielectric constant tensor:
#      x y z
#    x 1.833800 0.000000 0.000000 
#    y 0.000000 1.929450 0.000000 
#    z 0.000000 0.000000 1.889260 
# 
# From -- ./inp_files/19248.got.cif
#   From: 2010.05.17/outbox.cif.g08.bks.cpg/sg38_10_cif.got.tgz:19248.got - 2010.06.03 18:07:57.
