data_PCOD9359843
_publ_section_title
;
Structure prediction by ZEFSAII (Michael W. Deem and Ramdas Pophale) SiO2 
 PCOD9359843
Probable space group: A B M 2
;
_chemical_formula_sum "Si O2"
_cell_formula_units_Z 56
_cell_length_a 20.033683
_cell_length_b 9.445929
_cell_length_c 14.919997
_cell_angle_alpha 90.000000
_cell_angle_beta 90.000000
_cell_angle_gamma 90.000000
_cell_volume 2823.411701
_symmetry_space_group_name_H-M "A B M 2"
_symmetry_group_IT_number 39
_symmetry_cell_setting 'orthorhombic'
loop_
_space_group_symop_operation_xyz
x,y,z
-x,-y,z
-x,1/2+y,z
x,1/2-y,z
x,1/2+y,1/2+z
-x,1/2-y,1/2+z
-x,y,1/2+z
x,-y,1/2+z
loop_
_atom_site_type_symbol
_atom_site_label
_atom_site_fract_x
_atom_site_fract_y
_atom_site_fract_z
Si Si1 0.565129 0.911888 0.712280
Si Si2 0.694230 0.912067 0.993081
Si Si3 0.174635 0.587796 0.958171
Si Si4 0.693732 0.411998 0.710321
Si Si5 0.931390 0.417790 0.115631
Si Si6 0.845287 0.585001 0.255113
Si Si7 0.434957 0.412349 0.492831
O O1 0.561817 0.750000 0.742690
O O2 0.565106 0.910546 0.602545
O O3 0.500000 0.000000 0.739792
O O4 0.633551 0.988108 0.740184
O O5 0.688105 0.750000 0.962661
O O6 0.763419 0.982561 0.964849
O O7 0.693596 0.911161 0.101905
O O8 0.631773 0.006932 0.963899
O O9 0.199630 0.750000 0.969571
O O10 0.142235 0.578102 0.860604
O O11 0.120008 0.560793 0.033879
O O12 0.682719 0.250000 0.740969
O O13 0.767748 0.456207 0.739849
O O14 0.942843 0.250000 0.126430
O O15 0.894375 0.485547 0.200745
O O16 0.000000 0.500000 0.099985
O O17 0.851581 0.750000 0.225539
O O18 0.500000 0.500000 0.465195
O O19 0.436898 0.250000 0.462629
#
# Coordination Sequence:
#
# PCOD9359843 Si02
#       7
#     8   8   8   8   8   8   8
#     4   9  16  25  41  68 104 144 189 240 289 344
#     4  10  18  30  52  80 111 151 196 242 293 349
#     4  10  22  39  61  89 121 156 195 239 290 345
#     4   9  17  30  51  77 108 148 190 237 288 342
#     4  11  24  42  65  92 122 155 191 235 285 344
#     4  10  21  40  63  89 121 157 196 240 290 345
#     4   9  16  26  42  69 106 147 193 245 297 351
#
# _framework density 19.834161000000002
#
# number of rings (size 3 to 8) (size 9 to 14) (size 15 to 20)
#    0.000    2.286    1.429    1.714    0.000    6.286 
#    0.000    1.429    0.000    0.857    0.000    4.000 
#    0.000    0.000    0.000    0.000    0.000    0.000 
#
# Total GULP energy -156468.532677 kJ/mol
# GULP energy per Si atom -5588.161881 kJ/mol
# Density = 1.978902 g / cm^3
# Si number density = 19.834161 Si / 1000 Ang^3
#
#
#
# Elastic Constant Matrix: (Units=GPa)
#
#
# Indices 1 2 3 4 5 6 
#
# 1 112.0379 97.7860 22.0121 0.0000 0.0000 0.0000
# 2 97.7860 159.1534 32.2078 0.0000 0.0000 0.0000
# 3 22.0121 32.2078 41.8552 0.0000 0.0000 0.0000
# 4 0.0000 0.0000 0.0000 13.0936 0.0000 0.0000
# 5 0.0000 0.0000 0.0000 0.0000 -18.4600 0.0000
# 6 0.0000 0.0000 0.0000 0.0000 0.0000 42.2529
#
#
#
# Elastic Compliance Matrix: (Units=1/GPa)
#
#
# Indices 1 2 3 4 5 6 
#
# 1 0.019299 -0.011612 -0.001214 0.000000 0.000000 0.000000
# 2 -0.011612 0.014429 -0.004996 0.000000 0.000000 0.000000
# 3 -0.001214 -0.004996 0.028375 0.000000 0.000000 0.000000
# 4 0.000000 0.000000 0.000000 0.076373 0.000000 0.000000
# 5 0.000000 0.000000 0.000000 0.000000 -0.054171 0.000000
# 6 0.000000 0.000000 0.000000 0.000000 0.000000 0.023667
#
#
# Mechanical properties :
#
#
# Convention : Reuss Voigt Hill
#
# Bulk Modulus (GPa) = 37.79530 68.56204 53.17867
# Shear Modulus (GPa) = 32.80088 18.11334 25.45711
#
# Velocity S-wave (km/s) = 4.07105 3.02526 3.58648
# Velocity P-wave (km/s) = 6.41833 6.84439 6.63478
#
# Compressibility (1/GPa) = 0.02645831
#
# Stress axis : x y z
#
# Youngs Moduli (GPa) = 51.81701 69.30639 35.24216
#
# Poissons Ratio (x) = 0.80476 0.04279
# Poissons Ratio (y) = 0.60168 0.17608
# Poissons Ratio (z) = 0.06292 0.34627
#
# Static dielectric constant tensor:
#      x y z
#    x 1.650740 0.000000 0.000000 
#    y 0.000000 1.681320 0.000000 
#    z 0.000000 0.000000 1.724910 
# 
# From -- ./inp_files/10338.got.cif
#   From: 2010.05.17/outbox.cif.g08.bks.cpg/sg39_6_cif.got.tgz:10338.got - 2010.06.03 18:22:40.
