data_PCOD9359774
_publ_section_title
;
Structure prediction by ZEFSAII (Michael W. Deem and Ramdas Pophale) SiO2 
 PCOD9359774
Probable space group: A B M 2
;
_chemical_formula_sum "Si O2"
_cell_formula_units_Z 64
_cell_length_a 9.890236
_cell_length_b 18.446382
_cell_length_c 17.432482
_cell_angle_alpha 90.000000
_cell_angle_beta 90.000000
_cell_angle_gamma 90.000000
_cell_volume 3180.365827
_symmetry_space_group_name_H-M "A B M 2"
_symmetry_group_IT_number 39
_symmetry_cell_setting 'orthorhombic'
loop_
_space_group_symop_operation_xyz
x,y,z
-x,-y,z
-x,1/2+y,z
x,1/2-y,z
x,1/2+y,1/2+z
-x,1/2-y,1/2+z
-x,y,1/2+z
x,-y,1/2+z
loop_
_atom_site_type_symbol
_atom_site_label
_atom_site_fract_x
_atom_site_fract_y
_atom_site_fract_z
Si Si1 0.796787 0.339171 0.609190
Si Si2 0.067600 0.334065 0.266409
Si Si3 0.785313 0.333476 0.317998
Si Si4 0.268173 0.170239 0.636411
Si Si5 0.478023 0.914474 0.656329
Si Si6 0.042228 0.335541 0.516635
Si Si7 0.484090 0.913857 0.337916
Si Si8 0.269092 0.165900 0.402336
O O1 0.781985 0.250000 0.610961
O O2 0.883232 0.362503 0.684687
O O3 0.654519 0.379697 0.618000
O O4 0.890062 0.359624 0.535798
O O5 0.027919 0.250000 0.252939
O O6 0.198390 0.334822 0.319543
O O7 0.939139 0.363253 0.314808
O O8 0.780084 0.250000 0.347944
O O9 0.753113 0.331001 0.227165
O O10 0.667186 0.383323 0.352259
O O11 0.313958 0.250000 0.613288
O O12 0.388396 0.117396 0.617150
O O13 0.127124 0.157712 0.595069
O O14 0.480040 0.895810 0.748095
O O15 0.500000 0.000000 0.651932
O O16 0.029163 0.250000 0.496521
O O17 0.150932 0.365927 0.456564
O O18 0.591322 0.875747 0.393695
O O19 0.500000 0.000000 0.345596
O O20 0.293814 0.250000 0.424000
#
# Coordination Sequence:
#
# PCOD9359774 Si02
#       8
#     8   8   8   8   8   8   8   8
#     4  10  17  31  55  82 108 143 186 235 289 331
#     4   9  16  28  51  80 105 134 178 228 276 325
#     4   9  16  29  52  78 101 132 178 230 279 325
#     4   9  16  30  51  74 100 133 175 227 278 326
#     4  10  20  32  50  78 112 141 183 232 274 329
#     4   9  18  32  53  80 108 138 181 233 282 333
#     4  10  20  33  50  75 112 147 184 227 273 329
#     4  10  19  33  54  81 112 146 183 228 281 334
#
# _framework density 20.123470000000001
#
# number of rings (size 3 to 8) (size 9 to 14) (size 15 to 20)
#    0.000    2.500    2.500    0.750    0.000    1.000 
#    0.000    3.125    0.000    6.000    0.000    0.000 
#    0.000    0.000    0.000    0.000    0.000    0.000 
#
# Total GULP energy -178141.929073 kJ/mol
# GULP energy per Si atom -5566.935284 kJ/mol
# Density = 2.007767 g / cm^3
# Si number density = 20.123470 Si / 1000 Ang^3
#
#
#
# Elastic Constant Matrix: (Units=GPa)
#
#
# Indices 1 2 3 4 5 6 
#
# 1 7.3062 19.4935 -36.4850 0.0000 0.0000 0.0000
# 2 19.4935 31.6708 -0.4956 0.0000 0.0000 0.0000
# 3 -36.4850 -0.4956 7.6292 0.0000 0.0000 0.0000
# 4 0.0000 0.0000 0.0000 4.5407 0.0000 0.0000
# 5 0.0000 0.0000 0.0000 0.0000 28.5003 0.0000
# 6 0.0000 0.0000 0.0000 0.0000 0.0000 -6.8791
#
#
#
# Elastic Compliance Matrix: (Units=1/GPa)
#
#
# Indices 1 2 3 4 5 6 
#
# 1 -0.005668 0.003067 -0.026905 0.000000 0.000000 0.000000
# 2 0.003067 0.029947 0.016614 0.000000 0.000000 0.000000
# 3 -0.026905 0.016614 0.003489 0.000000 0.000000 0.000000
# 4 0.000000 0.000000 0.000000 0.220228 0.000000 0.000000
# 5 0.000000 0.000000 0.000000 0.000000 0.035087 0.000000
# 6 0.000000 0.000000 0.000000 0.000000 0.000000 -0.145368
#
#
# Mechanical properties :
#
#
# Convention : Reuss Voigt Hill
#
# Bulk Modulus (GPa) = 75.05811 1.29242 38.17527
# Shear Modulus (GPa) = 31.92793 9.50527 20.71660
#
# Velocity S-wave (km/s) = 3.98754 2.17571 3.21202
# Velocity P-wave (km/s) = 7.65378 2.63729 5.72432
#
# Compressibility (1/GPa) = 0.01332301
#
# Stress axis : x y z
#
# Youngs Moduli (GPa) = -176.44289 33.39245 286.59933
#
# Poissons Ratio (x) = -0.10243 7.71084
# Poissons Ratio (y) = 0.54121 -4.76169
# Poissons Ratio (z) = -4.74712 -0.55480
#
# Static dielectric constant tensor:
#      x y z
#    x 1.761250 0.000000 0.000000 
#    y 0.000000 1.688640 0.000000 
#    z 0.000000 0.000000 1.787650 
# 
# From -- ./inp_files/14188.got.cif
#   From: 2010.05.17/outbox.cif.g08.bks.cpg/sg39_8_cif.got.tgz:14188.got - 2010.06.03 18:22:40.
