data_PCOD9359424
_publ_section_title
;
Structure prediction by ZEFSAII (Michael W. Deem and Ramdas Pophale) SiO2 
 PCOD9359424
Probable space group: A M M 2
;
_chemical_formula_sum "Si O2"
_cell_formula_units_Z 48
_cell_length_a 18.136607
_cell_length_b 7.689244
_cell_length_c 18.899395
_cell_angle_alpha 90.000000
_cell_angle_beta 90.000000
_cell_angle_gamma 90.000000
_cell_volume 2635.649084
_symmetry_space_group_name_H-M "A M M 2"
_symmetry_group_IT_number 38
_symmetry_cell_setting 'orthorhombic'
loop_
_space_group_symop_operation_xyz
x,y,z
-x,-y,z
-x,y,z
x,-y,z
x,1/2+y,1/2+z
-x,1/2-y,1/2+z
-x,1/2+y,1/2+z
x,1/2-y,1/2+z
loop_
_atom_site_type_symbol
_atom_site_label
_atom_site_fract_x
_atom_site_fract_y
_atom_site_fract_z
Si Si1 0.358834 0.787600 0.298910
Si Si2 0.356318 0.292419 0.959878
Si Si3 0.805491 0.300614 0.795730
Si Si4 0.500000 0.713492 0.709788
Si Si5 0.500000 0.293266 0.549508
Si Si6 0.915384 0.000000 0.968545
Si Si7 0.915450 0.500000 0.295777
Si Si8 0.804994 0.799975 0.468285
O O1 0.368902 0.726711 0.379904
O O2 0.276568 0.739774 0.274161
O O3 0.426356 0.730440 0.250675
O O4 0.359484 0.000000 0.299830
O O5 0.347434 0.500000 0.953746
O O6 0.276740 0.232084 0.988350
O O7 0.426489 0.258135 0.007812
O O8 0.817372 0.500000 0.773064
O O9 0.869234 0.169413 0.773458
O O10 0.803779 0.301689 0.881989
O O11 0.500000 0.500000 0.710311
O O12 0.500000 0.775234 0.629305
O O13 0.500000 0.500000 0.553909
O O14 0.916158 0.000000 0.882152
O O15 0.869282 0.169967 0.990693
O O16 0.000000 0.000000 0.992187
O O17 0.000000 0.500000 0.272121
O O18 0.815862 0.000000 0.491359
#
# Coordination Sequence:
#
# PCOD9359424 Si02
#       8
#     8   8   8   4   4   4   4   8
#     4   8  14  28  51  67  80 119 168 198 223 265
#     4   9  17  31  50  65  83 122 166 198 228 270
#     4   8  14  25  41  61  83 114 156 192 223 268
#     4   9  17  29  45  67  94 121 150 196 236 280
#     4  11  22  29  41  69  98 123 144 192 248 287
#     4   9  16  24  38  61  93 127 147 180 236 281
#     4   9  16  24  36  59  93 125 145 178 234 281
#     4   8  15  26  41  62  85 116 157 193 226 271
#
# _framework density 18.211832999999999
#
# number of rings (size 3 to 8) (size 9 to 14) (size 15 to 20)
#    0.000    3.333    0.000    2.750    1.167    2.000 
#    1.500    3.333    3.667    0.000    0.000    0.000 
#    0.000    1.333    0.667    0.000    0.000    0.000 
#
# Total GULP energy -133698.011310 kJ/mol
# GULP energy per Si atom -5570.750471 kJ/mol
# Density = 1.817038 g / cm^3
# Si number density = 18.211833 Si / 1000 Ang^3
#
#
#
# Elastic Constant Matrix: (Units=GPa)
#
#
# Indices 1 2 3 4 5 6 
#
# 1 219.3714 69.6474 54.3915 0.0000 0.0000 0.0000
# 2 69.6474 71.0043 16.3532 0.0000 0.0000 0.0000
# 3 54.3915 16.3532 39.5371 0.0000 0.0000 0.0000
# 4 0.0000 0.0000 0.0000 5.2914 0.0000 0.0000
# 5 0.0000 0.0000 0.0000 0.0000 -0.7799 0.0000
# 6 0.0000 0.0000 0.0000 0.0000 0.0000 118.4160
#
#
#
# Elastic Compliance Matrix: (Units=1/GPa)
#
#
# Indices 1 2 3 4 5 6 
#
# 1 0.009096 -0.006676 -0.009752 0.000000 0.000000 0.000000
# 2 -0.006676 0.020467 0.000719 0.000000 0.000000 0.000000
# 3 -0.009752 0.000719 0.038411 0.000000 0.000000 0.000000
# 4 0.000000 0.000000 0.000000 0.188987 0.000000 0.000000
# 5 0.000000 0.000000 0.000000 0.000000 -1.282189 0.000000
# 6 0.000000 0.000000 0.000000 0.000000 0.000000 0.008445
#
#
# Mechanical properties :
#
#
# Convention : Reuss Voigt Hill
#
# Bulk Modulus (GPa) = 27.35555 67.85522 47.60539
# Shear Modulus (GPa) = -5.13780 37.22020 16.04120
#
# Velocity S-wave (km/s) = -1.68144 4.52568 2.97107
# Velocity P-wave (km/s) = 3.35912 8.04044 6.16167
#
# Compressibility (1/GPa) = 0.03655565
#
# Stress axis : x y z
#
# Youngs Moduli (GPa) = 109.93804 48.86006 26.03400
#
# Poissons Ratio (x) = 0.32620 0.25389
# Poissons Ratio (y) = 0.73397 -0.01872
# Poissons Ratio (z) = 1.07213 -0.03514
#
# Static dielectric constant tensor:
#      x y z
#    x 0.692450 0.000000 0.000000 
#    y 0.000000 1.662680 0.000000 
#    z 0.000000 0.000000 1.593390 
# 
# From -- ./inp_files/18273.got.cif
#   From: 2010.05.17/outbox.cif.g08.bks.cpg/sg38_10_cif.got.tgz:18273.got - 2010.06.03 18:07:57.
