data_PCOD9359723
_publ_section_title
;
Structure prediction by ZEFSAII (Michael W. Deem and Ramdas Pophale) SiO2 
 PCOD9359723
Probable space group: A B M 2
;
_chemical_formula_sum "Si O2"
_cell_formula_units_Z 56
_cell_length_a 20.620953
_cell_length_b 8.524491
_cell_length_c 15.711903
_cell_angle_alpha 90.000000
_cell_angle_beta 90.000000
_cell_angle_gamma 90.000000
_cell_volume 2761.887460
_symmetry_space_group_name_H-M "A B M 2"
_symmetry_group_IT_number 39
_symmetry_cell_setting 'orthorhombic'
loop_
_space_group_symop_operation_xyz
x,y,z
-x,-y,z
-x,1/2+y,z
x,1/2-y,z
x,1/2+y,1/2+z
-x,1/2-y,1/2+z
-x,y,1/2+z
x,-y,1/2+z
loop_
_atom_site_type_symbol
_atom_site_label
_atom_site_fract_x
_atom_site_fract_y
_atom_site_fract_z
Si Si1 0.291984 0.440128 0.557520
Si Si2 0.849056 0.939408 0.616240
Si Si3 0.163657 0.439235 0.803937
Si Si4 0.567665 0.937070 0.563554
Si Si5 0.300099 0.063064 0.357086
Si Si6 0.072375 0.062541 0.957751
Si Si7 0.565706 0.936063 0.869401
O O1 0.292557 0.250000 0.562951
O O2 0.225035 0.493923 0.598832
O O3 0.361495 0.494684 0.594570
O O4 0.290306 0.480541 0.457096
O O5 0.850001 0.750000 0.607880
O O6 0.866345 0.980563 0.712784
O O7 0.896402 0.009177 0.546347
O O8 0.168976 0.250000 0.808148
O O9 0.235748 0.507401 0.810393
O O10 0.119604 0.494677 0.882071
O O11 0.566056 0.750000 0.570099
O O12 0.500000 0.000000 0.600200
O O13 0.567803 0.983761 0.463177
O O14 0.307375 0.250000 0.352542
O O15 0.366558 0.982877 0.326745
O O16 0.070934 0.250000 0.954304
O O17 0.000000 0.000000 0.947812
O O18 0.561482 0.750000 0.879324
O O19 0.500000 0.000000 0.827244
#
# Coordination Sequence:
#
# PCOD9359723 Si02
#       7
#     8   8   8   8   8   8   8
#     4   8  15  28  50  76 104 144 190 234 284 341
#     4  10  20  39  63  88 118 156 195 239 290 344
#     4  10  22  38  60  90 121 152 195 242 289 343
#     4   9  15  24  39  67 102 141 189 236 288 345
#     4  10  18  31  53  79 110 151 197 240 293 350
#     4  11  24  42  63  91 121 152 188 234 286 345
#     4  10  17  26  42  69 106 146 192 245 298 349
#
# _framework density 20.275988999999999
#
# number of rings (size 3 to 8) (size 9 to 14) (size 15 to 20)
#    0.000    2.286    1.429    4.286    0.000    1.714 
#    0.000    2.143    0.000    0.857    0.000    2.000 
#    0.000    0.000    0.000    0.000    0.000    0.000 
#
# Total GULP energy -156261.711783 kJ/mol
# GULP energy per Si atom -5580.775421 kJ/mol
# Density = 2.022984 g / cm^3
# Si number density = 20.275989 Si / 1000 Ang^3
#
#
#
# Elastic Constant Matrix: (Units=GPa)
#
#
# Indices 1 2 3 4 5 6 
#
# 1 137.6196 24.1235 31.4838 0.0000 0.0000 0.0000
# 2 24.1235 37.4264 16.3938 0.0000 0.0000 0.0000
# 3 31.4838 16.3938 65.8864 0.0000 0.0000 0.0000
# 4 0.0000 0.0000 0.0000 12.1151 0.0000 0.0000
# 5 0.0000 0.0000 0.0000 0.0000 -7.3112 0.0000
# 6 0.0000 0.0000 0.0000 0.0000 0.0000 30.3406
#
#
#
# Elastic Compliance Matrix: (Units=1/GPa)
#
#
# Indices 1 2 3 4 5 6 
#
# 1 0.008725 -0.004262 -0.003109 0.000000 0.000000 0.000000
# 2 -0.004262 0.032069 -0.005943 0.000000 0.000000 0.000000
# 3 -0.003109 -0.005943 0.018142 0.000000 0.000000 0.000000
# 4 0.000000 0.000000 0.000000 0.082542 0.000000 0.000000
# 5 0.000000 0.000000 0.000000 0.000000 -0.136776 0.000000
# 6 0.000000 0.000000 0.000000 0.000000 0.000000 0.032959
#
#
# Mechanical properties :
#
#
# Convention : Reuss Voigt Hill
#
# Bulk Modulus (GPa) = 30.95119 42.77048 36.86084
# Shear Modulus (GPa) = 66.61641 18.29099 42.45370
#
# Velocity S-wave (km/s) = 5.73813 3.00676 4.58076
# Velocity P-wave (km/s) = 7.69413 5.76143 6.79683
#
# Compressibility (1/GPa) = 0.03230893
#
# Stress axis : x y z
#
# Youngs Moduli (GPa) = 114.61781 31.18245 55.12134
#
# Poissons Ratio (x) = 0.13290 0.17135
# Poissons Ratio (y) = 0.48849 0.32758
# Poissons Ratio (z) = 0.35630 0.18531
#
# Static dielectric constant tensor:
#      x y z
#    x 1.741850 0.000000 0.000000 
#    y 0.000000 1.685300 0.000000 
#    z 0.000000 0.000000 1.733410 
# 
# From -- ./inp_files/10387.got.cif
#   From: 2010.05.17/outbox.cif.g08.bks.cpg/sg39_6_cif.got.tgz:10387.got - 2010.06.03 18:22:40.
