data_PCOD9359666
_publ_section_title
;
Structure prediction by ZEFSAII (Michael W. Deem and Ramdas Pophale) SiO2 
 PCOD9359666
Probable space group: A B M 2
;
_chemical_formula_sum "Si O2"
_cell_formula_units_Z 44
_cell_length_a 22.720193
_cell_length_b 18.551262
_cell_length_c 5.416084
_cell_angle_alpha 90.000000
_cell_angle_beta 90.000000
_cell_angle_gamma 90.000000
_cell_volume 2282.815783
_symmetry_space_group_name_H-M "A B M 2"
_symmetry_group_IT_number 39
_symmetry_cell_setting 'orthorhombic'
loop_
_space_group_symop_operation_xyz
x,y,z
-x,-y,z
-x,1/2+y,z
x,1/2-y,z
x,1/2+y,1/2+z
-x,1/2-y,1/2+z
-x,y,1/2+z
x,-y,1/2+z
loop_
_atom_site_type_symbol
_atom_site_label
_atom_site_fract_x
_atom_site_fract_y
_atom_site_fract_z
Si Si1 0.975204 0.083207 0.931740
Si Si2 0.465410 0.250000 0.011920
Si Si3 0.159710 0.452649 0.450621
Si Si4 0.461908 0.909523 0.435842
Si Si5 0.333844 0.072099 0.956221
Si Si6 0.714221 0.088894 0.956289
O O1 0.905029 0.081330 0.947134
O O2 0.997254 0.116540 0.676999
O O3 0.000000 0.000000 0.925809
O O4 0.482253 0.250000 0.302616
O O5 0.561942 0.172927 0.452713
O O6 0.163653 0.499110 0.702523
O O7 0.216022 0.400285 0.448959
O O8 0.502552 0.919266 0.679514
O O9 0.401618 0.953102 0.445547
O O10 0.315752 0.113738 0.708996
O O11 0.295923 0.998327 0.959952
O O12 0.318381 0.112900 0.208141
#
# Coordination Sequence:
#
# PCOD9359666 Si02
#       6
#     8   4   8   8   8   8
#     4  10  16  22  31  49  68  87 120 167 200 216
#     4   8  16  30  48  64  80  92 114 144 186 240
#     4  12  16  25  38  48  68  99 130 163 193 216
#     4  10  19  32  47  64  78  97 118 152 197 237
#     4  10  18  30  43  55  77  98 129 160 185 218
#     4  10  19  30  38  55  75 107 136 162 179 210
#
# _framework density 19.274442000000001
#
# number of rings (size 3 to 8) (size 9 to 14) (size 15 to 20)
#    0.000    1.818    7.273    1.091    0.000    0.000 
#    0.000   10.909    0.000    0.000    0.000    0.000 
#    0.000    0.000    0.000    0.000    0.000    0.000 
#
# Total GULP energy -122521.974452 kJ/mol
# GULP energy per Si atom -5569.180657 kJ/mol
# Density = 1.923057 g / cm^3
# Si number density = 19.274442 Si / 1000 Ang^3
#
#
#
# Elastic Constant Matrix: (Units=GPa)
#
#
# Indices 1 2 3 4 5 6 
#
# 1 122.2592 -5.0534 16.9879 0.0000 0.0000 0.0000
# 2 -5.0534 23.5536 -8.6985 0.0000 0.0000 0.0000
# 3 16.9879 -8.6985 170.8789 0.0000 0.0000 0.0000
# 4 0.0000 0.0000 0.0000 -11.5325 0.0000 0.0000
# 5 0.0000 0.0000 0.0000 0.0000 34.4600 0.0000
# 6 0.0000 0.0000 0.0000 0.0000 0.0000 7.2012
#
#
#
# Elastic Compliance Matrix: (Units=1/GPa)
#
#
# Indices 1 2 3 4 5 6 
#
# 1 0.008346 0.001513 -0.000753 0.000000 0.000000 0.000000
# 2 0.001513 0.043544 0.002066 0.000000 0.000000 0.000000
# 3 -0.000753 0.002066 0.006032 0.000000 0.000000 0.000000
# 4 0.000000 0.000000 0.000000 -0.086712 0.000000 0.000000
# 5 0.000000 0.000000 0.000000 0.000000 0.029019 0.000000
# 6 0.000000 0.000000 0.000000 0.000000 0.000000 0.138866
#
#
# Mechanical properties :
#
#
# Convention : Reuss Voigt Hill
#
# Bulk Modulus (GPa) = 15.72950 35.90709 25.81829
# Shear Modulus (GPa) = 32.33422 26.92279 29.62850
#
# Velocity S-wave (km/s) = 4.10026 3.74145 3.92496
# Velocity P-wave (km/s) = 5.53125 6.11019 5.82791
#
# Compressibility (1/GPa) = 0.06357482
#
# Stress axis : x y z
#
# Youngs Moduli (GPa) = 119.81121 22.96530 165.77950
#
# Poissons Ratio (x) = -0.03474 0.12479
# Poissons Ratio (y) = -0.18124 -0.34253
# Poissons Ratio (z) = 0.09019 -0.04745
#
# Static dielectric constant tensor:
#      x y z
#    x 1.662740 0.000000 0.000000 
#    y 0.000000 1.758080 0.000000 
#    z 0.000000 0.000000 1.853920 
# 
# From -- ./inp_files/835.got.cif
#   From: 2010.05.17/outbox.cif.g08.bks.cpg/sg39_1_cif.got.tgz:835.got - 2010.06.03 18:22:40.
