data_PCOD9359618
_publ_section_title
;
Structure prediction by ZEFSAII (Michael W. Deem and Ramdas Pophale) SiO2 
 PCOD9359618
Probable space group: A M M 2
;
_chemical_formula_sum "Si O2"
_cell_formula_units_Z 20
_cell_length_a 12.000000
_cell_length_b 9.000000
_cell_length_c 21.000000
_cell_angle_alpha 90.000000
_cell_angle_beta 90.000000
_cell_angle_gamma 90.000000
_cell_volume 2268.000000
_symmetry_space_group_name_H-M "A M M 2"
_symmetry_group_IT_number 38
_symmetry_cell_setting 'orthorhombic'
loop_
_space_group_symop_operation_xyz
x,y,z
-x,-y,z
-x,y,z
x,-y,z
x,1/2+y,1/2+z
-x,1/2-y,1/2+z
-x,1/2+y,1/2+z
x,1/2-y,1/2+z
loop_
_atom_site_type_symbol
_atom_site_label
_atom_site_fract_x
_atom_site_fract_y
_atom_site_fract_z
Si Si1 0.500000 0.819933 0.794701
Si Si2 0.745961 0.679753 0.099912
Si Si3 0.500000 0.680092 0.145358
Si Si4 0.132954 0.679497 0.965645
Si Si5 0.866965 0.822846 0.221226
Si Si6 0.745239 0.320336 0.342746
O O1 0.500000 0.770049 0.720013
O O2 0.614949 0.777001 0.830375
O O3 0.500000 0.000000 0.792450
O O4 0.752225 0.500000 0.106646
O O5 0.615377 0.723078 0.109991
O O6 0.813804 0.755332 0.157229
O O7 0.803073 0.716982 0.031948
O O8 0.500000 0.500000 0.147054
O O9 0.137878 0.500000 0.958239
O O10 0.197673 0.754415 0.906395
O O11 0.000000 0.719373 0.967571
O O12 0.812213 0.742234 0.281889
O O13 0.000000 0.799698 0.221362
O O14 0.845966 0.000000 0.224602
O O15 0.751027 0.500000 0.344252
#
# Coordination Sequence:
#
# PCOD9359618 Si02
#       6
#     4   8   4   8   8   8
#     4   9  18  35  58  86 116 143 183 244 289 325
#     4  10  20  37  62  86 112 152 193 230 283 346
#     4   9  16  33  60  88 116 143 183 240 287 331
#     4  10  22  39  57  84 122 154 187 238 288 331
#     4  11  23  37  55  83 117 149 188 242 291 331
#     4  11  22  38  61  84 111 153 196 232 283 345
#
# _framework density 8.8183419999999995
#
# number of rings (size 3 to 8) (size 9 to 14) (size 15 to 20)
#    0.000    1.800    2.000    2.400    0.000    6.800 
#    0.000    4.500    0.000    0.000    0.000    0.000 
#    0.000    0.000    0.000    0.000    0.000    0.000 
#
# Total GULP energy -111646.947599 kJ/mol
# GULP energy per Si atom -5582.347380 kJ/mol
# Density = 0.879827 g / cm^3
# Si number density = 8.818342 Si / 1000 Ang^3
#
#
#
# Elastic Constant Matrix: (Units=GPa)
#
#
# Indices 1 2 3 4 5 6 
#
# 1 200.5597 52.2576 112.9194 0.0000 0.0000 0.0000
# 2 52.2576 49.4953 55.0351 0.0000 0.0000 0.0000
# 3 112.9194 55.0351 195.3243 0.0000 0.0000 0.0000
# 4 0.0000 0.0000 0.0000 36.8486 0.0000 0.0000
# 5 0.0000 0.0000 0.0000 0.0000 41.3322 0.0000
# 6 0.0000 0.0000 0.0000 0.0000 0.0000 27.7597
#
#
#
# Elastic Compliance Matrix: (Units=1/GPa)
#
#
# Indices 1 2 3 4 5 6 
#
# 1 0.008131 -0.004890 -0.003323 0.000000 0.000000 0.000000
# 2 -0.004890 0.032363 -0.006292 0.000000 0.000000 0.000000
# 3 -0.003323 -0.006292 0.008813 0.000000 0.000000 0.000000
# 4 0.000000 0.000000 0.000000 0.027138 0.000000 0.000000
# 5 0.000000 0.000000 0.000000 0.000000 0.024194 0.000000
# 6 0.000000 0.000000 0.000000 0.000000 0.000000 0.036023
#
#
# Mechanical properties :
#
#
# Convention : Reuss Voigt Hill
#
# Bulk Modulus (GPa) = 49.26553 98.42263 73.84408
# Shear Modulus (GPa) = 28.99596 36.19925 32.59760
#
# Velocity S-wave (km/s) = 4.05911 4.53536 4.30383
# Velocity P-wave (km/s) = 7.06843 9.12978 8.16442
#
# Compressibility (1/GPa) = 0.02029817
#
# Stress axis : x y z
#
# Youngs Moduli (GPa) = 122.98610 30.89974 113.46392
#
# Poissons Ratio (x) = 0.15110 0.37702
# Poissons Ratio (y) = 0.60141 0.71387
# Poissons Ratio (z) = 0.40866 0.19441
#
# Static dielectric constant tensor:
#      x y z
#    x 1.607950 0.000000 0.000000 
#    y 0.000000 1.592280 0.000000 
#    z 0.000000 0.000000 1.577500 
# 
# From -- ./inp_files/20466.got.cif
#   From: 2010.05.17/outbox.ucp.g08.bks.cvg/sg38_11_cif.got.tgz:20466.got - 2010.06.11 10:39:43.
