data_PCOD9359303
_publ_section_title
;
Structure prediction by ZEFSAII (Michael W. Deem and Ramdas Pophale) SiO2 
 PCOD9359303
Probable space group: A M M 2
;
_chemical_formula_sum "Si O2"
_cell_formula_units_Z 56
_cell_length_a 19.766014
_cell_length_b 8.775208
_cell_length_c 16.200201
_cell_angle_alpha 90.000000
_cell_angle_beta 90.000000
_cell_angle_gamma 90.000000
_cell_volume 2809.939187
_symmetry_space_group_name_H-M "A M M 2"
_symmetry_group_IT_number 38
_symmetry_cell_setting 'orthorhombic'
loop_
_space_group_symop_operation_xyz
x,y,z
-x,-y,z
-x,y,z
x,-y,z
x,1/2+y,1/2+z
-x,1/2-y,1/2+z
-x,1/2+y,1/2+z
x,1/2-y,1/2+z
loop_
_atom_site_type_symbol
_atom_site_label
_atom_site_fract_x
_atom_site_fract_y
_atom_site_fract_z
Si Si1 0.423432 0.321735 0.899190
Si Si2 0.922169 0.683680 0.750499
Si Si3 0.163153 0.184025 0.411588
Si Si4 0.712914 0.321390 0.656931
Si Si5 0.154932 0.180684 0.594052
Si Si6 0.710506 0.820954 0.833505
Si Si7 0.576056 0.178708 0.598252
O O1 0.500000 0.281576 0.873498
O O2 0.411505 0.500000 0.877865
O O3 0.365262 0.219379 0.860997
O O4 0.420733 0.310744 0.998712
O O5 0.921137 0.500000 0.749307
O O6 0.882742 0.730664 0.833723
O O7 0.885561 0.741529 0.668162
O O8 0.000000 0.734762 0.752580
O O9 0.132689 0.222060 0.501162
O O10 0.235482 0.264151 0.400447
O O11 0.172266 0.000000 0.409073
O O12 0.723681 0.500000 0.645450
O O13 0.766723 0.228716 0.602966
O O14 0.726181 0.273202 0.750984
O O15 0.636405 0.275215 0.635897
O O16 0.148932 0.000000 0.603790
O O17 0.717804 0.000000 0.818057
O O18 0.500000 0.224901 0.623629
O O19 0.585143 0.000000 0.619864
#
# Coordination Sequence:
#
# PCOD9359303 Si02
#       7
#     8   8   8   8   8   8   8
#     4   9  19  37  59  82 113 155 200 248 307 372
#     4  10  22  42  67  95 129 169 209 250 300 362
#     4  10  22  41  65  92 127 168 207 251 307 370
#     4  12  24  38  58  84 119 161 205 255 313 370
#     4  11  23  40  65  96 127 164 211 258 307 365
#     4  12  24  37  58  87 119 156 204 259 310 363
#     4   9  19  37  59  83 114 153 200 254 309 367
#
# _framework density 19.929257
#
# number of rings (size 3 to 8) (size 9 to 14) (size 15 to 20)
#    0.000    1.571    1.429    4.714    0.000    7.143 
#    0.000    2.857    0.000    0.000    0.000    0.000 
#    0.000    0.000    0.000    0.000    0.000    0.000 
#
# Total GULP energy -156501.076415 kJ/mol
# GULP energy per Si atom -5589.324158 kJ/mol
# Density = 1.988390 g / cm^3
# Si number density = 19.929257 Si / 1000 Ang^3
#
#
#
# Elastic Constant Matrix: (Units=GPa)
#
#
# Indices 1 2 3 4 5 6 
#
# 1 94.1673 11.7106 34.5768 0.0000 0.0000 0.0000
# 2 11.7106 12.8587 10.7623 0.0000 0.0000 0.0000
# 3 34.5768 10.7623 97.3588 0.0000 0.0000 0.0000
# 4 0.0000 0.0000 0.0000 23.2344 0.0000 0.0000
# 5 0.0000 0.0000 0.0000 0.0000 14.3304 0.0000
# 6 0.0000 0.0000 0.0000 0.0000 0.0000 24.7734
#
#
#
# Elastic Compliance Matrix: (Units=1/GPa)
#
#
# Indices 1 2 3 4 5 6 
#
# 1 0.013063 -0.008830 -0.003663 0.000000 0.000000 0.000000
# 2 -0.008830 0.091667 -0.006997 0.000000 0.000000 0.000000
# 3 -0.003663 -0.006997 0.012346 0.000000 0.000000 0.000000
# 4 0.000000 0.000000 0.000000 0.043040 0.000000 0.000000
# 5 0.000000 0.000000 0.000000 0.000000 0.069782 0.000000
# 6 0.000000 0.000000 0.000000 0.000000 0.000000 0.040366
#
#
# Mechanical properties :
#
#
# Convention : Reuss Voigt Hill
#
# Bulk Modulus (GPa) = 12.80510 35.38714 24.09612
# Shear Modulus (GPa) = 14.91316 22.28997 18.60157
#
# Velocity S-wave (km/s) = 2.73848 3.34796 3.05844
# Velocity P-wave (km/s) = 4.05442 5.72189 4.95875
#
# Compressibility (1/GPa) = 0.07809391
#
# Stress axis : x y z
#
# Youngs Moduli (GPa) = 76.55472 10.90910 81.00011
#
# Poissons Ratio (x) = 0.09633 0.29670
# Poissons Ratio (y) = 0.67601 0.56676
# Poissons Ratio (z) = 0.28042 0.07633
#
# Static dielectric constant tensor:
#      x y z
#    x 1.695510 0.000000 0.000000 
#    y 0.000000 1.667700 0.000000 
#    z 0.000000 0.000000 1.716110 
# 
# From -- ./inp_files/15498.got.cif
#   From: 2010.05.17/outbox.cif.g08.bks.cpg/sg38_8_cif.got.tgz:15498.got - 2010.06.03 18:07:57.
