data_PCOD9359155
_publ_section_title
;
Structure prediction by ZEFSAII (Michael W. Deem and Ramdas Pophale) SiO2 
 PCOD9359155
Probable space group: A M M 2
;
_chemical_formula_sum "Si O2"
_cell_formula_units_Z 64
_cell_length_a 14.283379
_cell_length_b 16.424743
_cell_length_c 12.620519
_cell_angle_alpha 90.000000
_cell_angle_beta 90.000000
_cell_angle_gamma 90.000000
_cell_volume 2960.784223
_symmetry_space_group_name_H-M "A M M 2"
_symmetry_group_IT_number 38
_symmetry_cell_setting 'orthorhombic'
loop_
_space_group_symop_operation_xyz
x,y,z
-x,-y,z
-x,y,z
x,-y,z
x,1/2+y,1/2+z
-x,1/2-y,1/2+z
-x,1/2+y,1/2+z
x,1/2-y,1/2+z
loop_
_atom_site_type_symbol
_atom_site_label
_atom_site_fract_x
_atom_site_fract_y
_atom_site_fract_z
Si Si1 0.894894 0.357671 0.424190
Si Si2 0.308644 0.139492 0.893229
Si Si3 0.399279 0.094306 0.686569
Si Si4 0.106345 0.167575 0.383014
Si Si5 0.112180 0.907652 0.162396
Si Si6 0.389249 0.904959 0.119572
Si Si7 0.272300 0.096055 0.507863
Si Si8 0.612193 0.815644 0.338665
O O1 0.798401 0.389202 0.373573
O O2 0.898594 0.264503 0.387977
O O3 0.875397 0.363529 0.550355
O O4 0.000000 0.393404 0.405696
O O5 0.376162 0.096578 0.809631
O O6 0.329399 0.234644 0.868399
O O7 0.335758 0.120253 0.013468
O O8 0.500000 0.134307 0.665876
O O9 0.315210 0.129650 0.617387
O O10 0.405245 0.000000 0.653875
O O11 0.143704 0.136978 0.269007
O O12 0.176690 0.137364 0.472152
O O13 0.000000 0.136500 0.398586
O O14 0.000000 0.912721 0.173508
O O15 0.149102 0.000000 0.156544
O O16 0.500000 0.897653 0.097792
O O17 0.368961 0.847979 0.220272
O O18 0.370739 0.000000 0.144955
O O19 0.351350 0.116546 0.420591
O O20 0.254980 0.000000 0.513043
O O21 0.500000 0.801739 0.349732
#
# Coordination Sequence:
#
# PCOD9359155 Si02
#       8
#     8   8   8   8   8   8   8   8
#     4  10  23  41  60  89 130 171 212 264 326 383
#     4  12  24  40  66  95 126 168 223 268 317 386
#     4  10  23  43  65  89 124 172 218 260 316 391
#     4  10  21  40  64  93 129 169 213 267 321 381
#     4   9  19  37  63  93 125 165 212 264 322 383
#     4  10  23  43  67  97 132 168 211 270 334 389
#     4  11  23  40  64  93 125 167 213 259 316 386
#     4  11  24  40  62  95 131 165 205 267 332 386
#
# _framework density 21.615894999999998
#
# number of rings (size 3 to 8) (size 9 to 14) (size 15 to 20)
#    0.000    1.625    1.250    2.625    3.500    5.000 
#    0.000    1.875    0.000    0.750    0.000    0.000 
#    0.000    0.000    0.000    0.000    0.000    0.000 
#
# Total GULP energy -178680.844460 kJ/mol
# GULP energy per Si atom -5583.776389 kJ/mol
# Density = 2.156670 g / cm^3
# Si number density = 21.615895 Si / 1000 Ang^3
#
#
#
# Elastic Constant Matrix: (Units=GPa)
#
#
# Indices 1 2 3 4 5 6 
#
# 1 130.8872 -9.6113 7.1114 0.0000 0.0000 0.0000
# 2 -9.6113 41.3191 -11.8872 0.0000 0.0000 0.0000
# 3 7.1114 -11.8872 41.8087 0.0000 0.0000 0.0000
# 4 0.0000 0.0000 0.0000 32.0765 0.0000 0.0000
# 5 0.0000 0.0000 0.0000 0.0000 20.5274 0.0000
# 6 0.0000 0.0000 0.0000 0.0000 0.0000 37.8939
#
#
#
# Elastic Compliance Matrix: (Units=1/GPa)
#
#
# Indices 1 2 3 4 5 6 
#
# 1 0.007803 0.001561 -0.000883 0.000000 0.000000 0.000000
# 2 0.001561 0.026670 0.007317 0.000000 0.000000 0.000000
# 3 -0.000883 0.007317 0.026149 0.000000 0.000000 0.000000
# 4 0.000000 0.000000 0.000000 0.031175 0.000000 0.000000
# 5 0.000000 0.000000 0.000000 0.000000 0.048715 0.000000
# 6 0.000000 0.000000 0.000000 0.000000 0.000000 0.026390
#
#
# Mechanical properties :
#
#
# Convention : Reuss Voigt Hill
#
# Bulk Modulus (GPa) = 13.05279 20.58232 16.81755
# Shear Modulus (GPa) = 28.33663 33.32636 30.83150
#
# Velocity S-wave (km/s) = 3.62459 3.93078 3.78078
# Velocity P-wave (km/s) = 4.85474 5.49034 5.18229
#
# Compressibility (1/GPa) = 0.07661199
#
# Stress axis : x y z
#
# Youngs Moduli (GPa) = 128.15943 37.49515 38.24197
#
# Poissons Ratio (x) = -0.05852 0.03378
# Poissons Ratio (y) = -0.20004 -0.27983
# Poissons Ratio (z) = 0.11322 -0.27437
#
# Static dielectric constant tensor:
#      x y z
#    x 1.838250 0.000000 0.000000 
#    y 0.000000 1.889270 0.000000 
#    z 0.000000 0.000000 1.748990 
# 
# From -- ./inp_files/10269.got.cif
#   From: 2010.05.17/outbox.cif.g08.bks.cpg/sg38_6_cif.got.tgz:10269.got - 2010.06.03 18:07:57.
