data_PCOD9359167
_publ_section_title
;
Structure prediction by ZEFSAII (Michael W. Deem and Ramdas Pophale) SiO2 
 PCOD9359167
Probable space group: A M M 2
;
_chemical_formula_sum "Si O2"
_cell_formula_units_Z 58
_cell_length_a 7.286067
_cell_length_b 27.798969
_cell_length_c 11.836940
_cell_angle_alpha 90.000000
_cell_angle_beta 90.000000
_cell_angle_gamma 90.000000
_cell_volume 2397.514796
_symmetry_space_group_name_H-M "A M M 2"
_symmetry_group_IT_number 38
_symmetry_cell_setting 'orthorhombic'
loop_
_space_group_symop_operation_xyz
x,y,z
-x,-y,z
-x,y,z
x,-y,z
x,1/2+y,1/2+z
-x,1/2-y,1/2+z
-x,1/2+y,1/2+z
x,1/2-y,1/2+z
loop_
_atom_site_type_symbol
_atom_site_label
_atom_site_fract_x
_atom_site_fract_y
_atom_site_fract_z
Si Si1 0.219012 0.342795 0.991930
Si Si2 0.277502 0.134530 0.082951
Si Si3 0.792048 0.552052 0.010000
Si Si4 0.290651 0.812081 0.725367
Si Si5 0.279561 0.948498 0.248985
Si Si6 0.000000 0.000000 0.811516
Si Si7 0.275986 0.591442 0.337702
Si Si8 0.717742 0.790504 0.256324
O O1 0.295219 0.395743 0.025081
O O2 0.261804 0.324291 0.866370
O O3 0.000000 0.346529 0.997235
O O4 0.284566 0.307410 0.089889
O O5 0.500000 0.136126 0.083862
O O6 0.216631 0.094140 0.171612
O O7 0.213500 0.183774 0.141920
O O8 0.230831 0.115128 0.959994
O O9 0.710402 0.500000 0.044070
O O10 0.800603 0.551344 0.873654
O O11 0.000000 0.551762 0.056144
O O12 0.500000 0.814644 0.767125
O O13 0.216873 0.864570 0.755865
O O14 0.207383 0.763188 0.774761
O O15 0.500000 0.944783 0.263144
O O16 0.239861 0.000000 0.194046
O O17 0.161618 0.043111 0.816563
O O18 0.500000 0.582991 0.330752
O O19 0.500000 0.784508 0.240680
#
# Coordination Sequence:
#
# PCOD9359167 Si02
#       8
#     8   8   8   8   8   2   8   8
#     4  11  23  39  62  94 134 173 216 279 341 403
#     4   9  18  35  61  91 132 175 220 281 338 402
#     4   9  18  34  51  78 119 164 203 251 315 381
#     4  10  24  44  69  96 129 176 229 285 336 405
#     4   9  16  27  49  79 114 159 201 252 314 373
#     4  12  26  48  76 106 130 192 234 288 358 420
#     4  10  24  47  70 102 142 181 236 292 349 416
#     4  10  21  40  68  97 128 177 230 277 345 415
#
# _framework density 24.191718999999999
#
# number of rings (size 3 to 8) (size 9 to 14) (size 15 to 20)
#    0.000    2.207    1.379    0.621    3.862    1.103 
#    3.724    0.000    0.000    0.000    0.000    0.000 
#    0.000    0.000    0.000    0.000    0.000    0.000 
#
# Total GULP energy -161576.325753 kJ/mol
# GULP energy per Si atom -5571.597440 kJ/mol
# Density = 2.413666 g / cm^3
# Si number density = 24.191719 Si / 1000 Ang^3
#
#
#
# Elastic Constant Matrix: (Units=GPa)
#
#
# Indices 1 2 3 4 5 6 
#
# 1 134.0051 35.0478 -4.1332 0.0000 0.0000 0.0000
# 2 35.0478 205.1000 47.5062 0.0000 0.0000 0.0000
# 3 -4.1332 47.5062 88.6837 0.0000 0.0000 0.0000
# 4 0.0000 0.0000 0.0000 15.0535 0.0000 0.0000
# 5 0.0000 0.0000 0.0000 0.0000 15.2353 0.0000
# 6 0.0000 0.0000 0.0000 0.0000 0.0000 20.0088
#
#
#
# Elastic Compliance Matrix: (Units=1/GPa)
#
#
# Indices 1 2 3 4 5 6 
#
# 1 0.007931 -0.001645 0.001251 0.000000 0.000000 0.000000
# 2 -0.001645 0.005908 -0.003241 0.000000 0.000000 0.000000
# 3 0.001251 -0.003241 0.013071 0.000000 0.000000 0.000000
# 4 0.000000 0.000000 0.000000 0.066430 0.000000 0.000000
# 5 0.000000 0.000000 0.000000 0.000000 0.065637 0.000000
# 6 0.000000 0.000000 0.000000 0.000000 0.000000 0.049978
#
#
# Mechanical properties :
#
#
# Convention : Reuss Voigt Hill
#
# Bulk Modulus (GPa) = 50.92027 64.95894 57.93960
# Shear Modulus (GPa) = 22.44455 33.35072 27.89763
#
# Velocity S-wave (km/s) = 3.04925 3.71698 3.39955
# Velocity P-wave (km/s) = 5.78719 6.73285 6.27785
#
# Compressibility (1/GPa) = 0.01963855
#
# Stress axis : x y z
#
# Youngs Moduli (GPa) = 126.08394 169.27572 76.50769
#
# Poissons Ratio (x) = 0.27846 -0.09570
# Poissons Ratio (y) = 0.20741 0.24798
# Poissons Ratio (z) = -0.15771 0.54866
#
# Static dielectric constant tensor:
#      x y z
#    x 1.932450 0.000000 0.000000 
#    y 0.000000 1.975740 0.000000 
#    z 0.000000 0.000000 1.931400 
# 
# From -- ./inp_files/8363.got.cif
#   From: 2010.05.17/outbox.cif.g08.bks.cpg/sg38_5_cif.got.tgz:8363.got - 2010.06.03 18:07:57.
