data_PCOD9359500
_publ_section_title
;
Structure prediction by ZEFSAII (Michael W. Deem and Ramdas Pophale) SiO2 
 PCOD9359500
Probable space group: A M M 2
;
_chemical_formula_sum "Si O2"
_cell_formula_units_Z 40
_cell_length_a 7.522630
_cell_length_b 7.360867
_cell_length_c 31.717119
_cell_angle_alpha 90.000000
_cell_angle_beta 90.000000
_cell_angle_gamma 90.000000
_cell_volume 1756.274534
_symmetry_space_group_name_H-M "A M M 2"
_symmetry_group_IT_number 38
_symmetry_cell_setting 'orthorhombic'
loop_
_space_group_symop_operation_xyz
x,y,z
-x,-y,z
-x,y,z
x,-y,z
x,1/2+y,1/2+z
-x,1/2-y,1/2+z
-x,1/2+y,1/2+z
x,1/2-y,1/2+z
loop_
_atom_site_type_symbol
_atom_site_label
_atom_site_fract_x
_atom_site_fract_y
_atom_site_fract_z
Si Si1 0.500000 0.722962 0.673511
Si Si2 0.782749 0.287233 0.927497
Si Si3 0.500000 0.278440 0.770114
Si Si4 0.204737 0.722180 0.835446
Si Si5 0.798861 0.284843 0.610379
Si Si6 0.205539 0.218417 0.517688
O O1 0.500000 0.500000 0.673454
O O2 0.500000 0.781489 0.721887
O O3 0.328752 0.784081 0.646936
O O4 0.733253 0.500000 0.926965
O O5 0.730599 0.214226 0.881747
O O6 0.000000 0.278509 0.928251
O O7 0.720664 0.213746 0.972825
O O8 0.500000 0.500000 0.769443
O O9 0.670561 0.221511 0.797315
O O10 0.207064 0.500000 0.836820
O O11 0.000000 0.776231 0.829856
O O12 0.812785 0.500000 0.616689
O O13 0.718323 0.260926 0.563470
O O14 0.000000 0.209476 0.611099
O O15 0.000000 0.281889 0.519862
O O16 0.203790 0.000000 0.514571
#
# Coordination Sequence:
#
# PCOD9359500 Si02
#       6
#     4   8   4   8   8   8
#     4   9  18  30  40  53  77 107 139 175 210 243
#     4   7  10  18  33  53  78 106 129 153 193 237
#     4   9  16  24  35  51  71  99 133 165 198 237
#     4   8  13  21  33  50  73  99 126 157 194 237
#     4   9  17  29  44  60  81 111 141 168 203 244
#     4   8  13  23  41  63  86 111 137 166 200 239
#
# _framework density 22.775483999999999
#
# number of rings (size 3 to 8) (size 9 to 14) (size 15 to 20)
#    0.000    3.800    0.000    2.400    0.000    0.800 
#    0.000    5.500    0.000    2.400    0.000    0.000 
#    0.000    3.200    0.000   12.400    0.000   11.200 
#
# Total GULP energy -111500.762749 kJ/mol
# GULP energy per Si atom -5575.038137 kJ/mol
# Density = 2.272365 g / cm^3
# Si number density = 22.775484 Si / 1000 Ang^3
#
#
#
# Elastic Constant Matrix: (Units=GPa)
#
#
# Indices 1 2 3 4 5 6 
#
# 1 107.3540 3.2714 103.5062 0.0000 0.0000 0.0000
# 2 3.2714 82.7429 6.0455 0.0000 0.0000 0.0000
# 3 103.5062 6.0455 297.9368 0.0000 0.0000 0.0000
# 4 0.0000 0.0000 0.0000 7.6705 0.0000 0.0000
# 5 0.0000 0.0000 0.0000 0.0000 43.4614 0.0000
# 6 0.0000 0.0000 0.0000 0.0000 0.0000 -497.8629
#
#
#
# Elastic Compliance Matrix: (Units=1/GPa)
#
#
# Indices 1 2 3 4 5 6 
#
# 1 0.014010 -0.000199 -0.004863 0.000000 0.000000 0.000000
# 2 -0.000199 0.012106 -0.000177 0.000000 0.000000 0.000000
# 3 -0.004863 -0.000177 0.005050 0.000000 0.000000 0.000000
# 4 0.000000 0.000000 0.000000 0.130370 0.000000 0.000000
# 5 0.000000 0.000000 0.000000 0.000000 0.023009 0.000000
# 6 0.000000 0.000000 0.000000 0.000000 0.000000 -0.002009
#
#
# Mechanical properties :
#
#
# Convention : Reuss Voigt Hill
#
# Bulk Modulus (GPa) = 48.33488 79.29774 63.81631
# Shear Modulus (GPa) = 25.01136 -64.33218 -19.66041
#
# Velocity S-wave (km/s) = 3.31746 -5.32049 -2.94126
# Velocity P-wave (km/s) = 5.99520 1.68840 4.06766
#
# Compressibility (1/GPa) = 0.02068899
#
# Stress axis : x y z
#
# Youngs Moduli (GPa) = 71.37830 82.60097 198.03931
#
# Poissons Ratio (x) = 0.01640 0.96309
# Poissons Ratio (y) = 0.01417 0.03499
# Poissons Ratio (z) = 0.34712 0.01459
#
# Static dielectric constant tensor:
#      x y z
#    x 1.858450 0.000000 0.000000 
#    y 0.000000 1.972470 0.000000 
#    z 0.000000 0.000000 1.841840 
# 
# From -- ./inp_files/23235.got.cif
#   From: 2010.05.17/outbox.cif.g08.bks.cpg/sg38_12_cif.got.tgz:23235.got - 2010.06.03 18:07:57.
