data_PCOD9359157
_publ_section_title
;
Structure prediction by ZEFSAII (Michael W. Deem and Ramdas Pophale) SiO2 
 PCOD9359157
Probable space group: A M M 2
;
_chemical_formula_sum "Si O2"
_cell_formula_units_Z 64
_cell_length_a 8.769759
_cell_length_b 31.456813
_cell_length_c 12.170728
_cell_angle_alpha 90.000000
_cell_angle_beta 90.000000
_cell_angle_gamma 90.000000
_cell_volume 3357.522533
_symmetry_space_group_name_H-M "A M M 2"
_symmetry_group_IT_number 38
_symmetry_cell_setting 'orthorhombic'
loop_
_space_group_symop_operation_xyz
x,y,z
-x,-y,z
-x,y,z
x,-y,z
x,1/2+y,1/2+z
-x,1/2-y,1/2+z
-x,1/2+y,1/2+z
x,1/2-y,1/2+z
loop_
_atom_site_type_symbol
_atom_site_label
_atom_site_fract_x
_atom_site_fract_y
_atom_site_fract_z
Si Si1 0.819168 0.705869 0.242320
Si Si2 0.317683 0.625181 0.847691
Si Si3 0.681605 0.296148 0.691334
Si Si4 0.179089 0.663132 0.479212
Si Si5 0.815767 0.626327 0.091291
Si Si6 0.817870 0.952704 0.209916
Si Si7 0.319898 0.429339 0.478713
Si Si8 0.816819 0.952443 0.744443
O O1 0.728196 0.749227 0.228201
O O2 0.799786 0.686721 0.363749
O O3 0.772462 0.669252 0.156211
O O4 0.000000 0.714266 0.226494
O O5 0.500000 0.623024 0.852501
O O6 0.276156 0.668177 0.781625
O O7 0.256331 0.584866 0.779971
O O8 0.250762 0.625502 0.969736
O O9 0.500000 0.298829 0.673244
O O10 0.769347 0.307822 0.579921
O O11 0.278179 0.620507 0.481380
O O12 0.000000 0.651698 0.489135
O O13 0.767742 0.585239 0.162933
O O14 0.000000 0.625391 0.085299
O O15 0.000000 0.947859 0.212686
O O16 0.779005 0.000000 0.251889
O O17 0.761450 0.949121 0.084620
O O18 0.500000 0.435891 0.487112
O O19 0.258090 0.446855 0.363520
O O20 0.000000 0.948545 0.758264
O O21 0.784220 0.000000 0.702122
#
# Coordination Sequence:
#
# PCOD9359157 Si02
#       8
#     8   8   8   8   8   8   8   8
#     4  10  23  42  65  93 123 161 209 257 306 361
#     4  11  25  43  62  91 127 165 204 254 315 370
#     4  11  25  42  62  93 129 163 204 253 311 372
#     4  11  22  41  68  94 124 162 209 257 305 363
#     4  10  22  42  64  90 123 163 213 261 304 363
#     4  11  24  42  66  93 121 162 211 255 304 365
#     4  12  23  37  61  95 132 164 199 251 317 371
#     4  10  21  40  65  91 122 163 210 258 307 365
#
# _framework density 19.061672999999999
#
# number of rings (size 3 to 8) (size 9 to 14) (size 15 to 20)
#    0.000    1.250    2.500    3.000    1.750    6.750 
#    0.000    1.250    0.000    0.000    0.000    0.000 
#    0.000    0.000    0.000    0.000    0.000    0.000 
#
# Total GULP energy -178940.314895 kJ/mol
# GULP energy per Si atom -5591.884840 kJ/mol
# Density = 1.901829 g / cm^3
# Si number density = 19.061673 Si / 1000 Ang^3
#
#
#
# Elastic Constant Matrix: (Units=GPa)
#
#
# Indices 1 2 3 4 5 6 
#
# 1 30.7842 39.2829 36.3032 0.0000 0.0000 0.0000
# 2 39.2829 145.0104 61.7257 0.0000 0.0000 0.0000
# 3 36.3032 61.7257 136.8842 0.0000 0.0000 0.0000
# 4 0.0000 0.0000 0.0000 23.0414 0.0000 0.0000
# 5 0.0000 0.0000 0.0000 0.0000 -20.2345 0.0000
# 6 0.0000 0.0000 0.0000 0.0000 0.0000 41.4051
#
#
#
# Elastic Compliance Matrix: (Units=1/GPa)
#
#
# Indices 1 2 3 4 5 6 
#
# 1 0.059967 -0.011726 -0.010616 0.000000 0.000000 0.000000
# 2 -0.011726 0.010827 -0.001772 0.000000 0.000000 0.000000
# 3 -0.010616 -0.001772 0.010920 0.000000 0.000000 0.000000
# 4 0.000000 0.000000 0.000000 0.043400 0.000000 0.000000
# 5 0.000000 0.000000 0.000000 0.000000 -0.049421 0.000000
# 6 0.000000 0.000000 0.000000 0.000000 0.000000 0.024152
#
#
# Mechanical properties :
#
#
# Convention : Reuss Voigt Hill
#
# Bulk Modulus (GPa) = 29.86418 65.25582 47.56000
# Shear Modulus (GPa) = 31.39993 20.53354 25.96674
#
# Velocity S-wave (km/s) = 4.06307 3.28566 3.69487
# Velocity P-wave (km/s) = 6.14106 6.97871 6.57324
#
# Compressibility (1/GPa) = 0.03348493
#
# Stress axis : x y z
#
# Youngs Moduli (GPa) = 16.67589 92.36148 91.57298
#
# Poissons Ratio (x) = 1.08302 0.97216
# Poissons Ratio (y) = 0.19554 0.16231
# Poissons Ratio (z) = 0.17704 0.16371
#
# Static dielectric constant tensor:
#      x y z
#    x 1.640290 0.000000 0.000000 
#    y 0.000000 1.659250 0.000000 
#    z 0.000000 0.000000 1.624650 
# 
# From -- ./inp_files/8644.got.cif
#   From: 2010.05.17/outbox.cif.g08.bks.cpg/sg38_5_cif.got.tgz:8644.got - 2010.06.03 18:07:57.
