data_PCOD9359516
_publ_section_title
;
Structure prediction by ZEFSAII (Michael W. Deem and Ramdas Pophale) SiO2 
 PCOD9359516
Probable space group: A M M 2
;
_chemical_formula_sum "Si O2"
_cell_formula_units_Z 48
_cell_length_a 7.553135
_cell_length_b 9.725281
_cell_length_c 32.424172
_cell_angle_alpha 90.000000
_cell_angle_beta 90.000000
_cell_angle_gamma 90.000000
_cell_volume 2381.761661
_symmetry_space_group_name_H-M "A M M 2"
_symmetry_group_IT_number 38
_symmetry_cell_setting 'orthorhombic'
loop_
_space_group_symop_operation_xyz
x,y,z
-x,-y,z
-x,y,z
x,-y,z
x,1/2+y,1/2+z
-x,1/2-y,1/2+z
-x,1/2+y,1/2+z
x,1/2-y,1/2+z
loop_
_atom_site_type_symbol
_atom_site_label
_atom_site_fract_x
_atom_site_fract_y
_atom_site_fract_z
Si Si1 0.789076 0.343709 0.365660
Si Si2 0.790184 0.657140 0.545492
Si Si3 0.710269 0.843399 0.955282
Si Si4 0.783763 0.341807 0.790888
Si Si5 0.215770 0.841494 0.198119
Si Si6 0.782900 0.158238 0.621246
O O1 0.717223 0.500000 0.365522
O O2 0.760219 0.281020 0.411202
O O3 0.719799 0.254547 0.327724
O O4 0.000000 0.352955 0.360298
O O5 0.717751 0.500000 0.546950
O O6 0.765328 0.715686 0.499358
O O7 0.722023 0.755686 0.581369
O O8 0.000000 0.645733 0.552233
O O9 0.500000 0.850928 0.955957
O O10 0.784962 0.000000 0.954807
O O11 0.731338 0.500000 0.797485
O O12 0.729220 0.301588 0.744504
O O13 0.000000 0.339199 0.791209
O O14 0.273628 0.739055 0.162355
O O15 0.000000 0.841577 0.197783
O O16 0.269755 0.000000 0.190406
O O17 0.000000 0.157590 0.621059
O O18 0.726122 0.000000 0.620548
#
# Coordination Sequence:
#
# PCOD9359516 Si02
#       6
#     8   8   8   8   8   8
#     4   9  16  26  42  64  87 110 139 175 211 246
#     4   9  16  27  44  63  83 110 143 175 207 246
#     4   9  17  29  45  64  84 108 141 178 212 248
#     4   8  14  24  38  58  85 115 143 170 204 247
#     4   8  13  22  36  55  82 114 143 170 203 245
#     4   9  16  24  36  58  87 114 139 170 209 250
#
# _framework density 20.15315
#
# number of rings (size 3 to 8) (size 9 to 14) (size 15 to 20)
#    0.000    3.333    0.000    2.000    0.000    4.667 
#    0.000    4.167    0.000    6.000    0.000    1.167 
#    0.000    1.333    0.000    0.000    0.000    0.000 
#
# Total GULP energy -133750.825382 kJ/mol
# GULP energy per Si atom -5572.951058 kJ/mol
# Density = 2.010728 g / cm^3
# Si number density = 20.153150 Si / 1000 Ang^3
#
#
#
# Elastic Constant Matrix: (Units=GPa)
#
#
# Indices 1 2 3 4 5 6 
#
# 1 47.8040 5.2660 1.1323 0.0000 0.0000 0.0000
# 2 5.2660 98.5957 119.5569 0.0000 0.0000 0.0000
# 3 1.1323 119.5569 237.2732 0.0000 0.0000 0.0000
# 4 0.0000 0.0000 0.0000 25.0973 0.0000 0.0000
# 5 0.0000 0.0000 0.0000 0.0000 -43.1886 0.0000
# 6 0.0000 0.0000 0.0000 0.0000 0.0000 -3.4384
#
#
#
# Elastic Compliance Matrix: (Units=1/GPa)
#
#
# Indices 1 2 3 4 5 6 
#
# 1 0.021176 -0.002592 0.001205 0.000000 0.000000 0.000000
# 2 -0.002592 0.026391 -0.013285 0.000000 0.000000 0.000000
# 3 0.001205 -0.013285 0.010903 0.000000 0.000000 0.000000
# 4 0.000000 0.000000 0.000000 0.039845 0.000000 0.000000
# 5 0.000000 0.000000 0.000000 0.000000 -0.023154 0.000000
# 6 0.000000 0.000000 0.000000 0.000000 0.000000 -0.290833
#
#
# Mechanical properties :
#
#
# Convention : Reuss Voigt Hill
#
# Bulk Modulus (GPa) = 34.33560 70.62039 52.47800
# Shear Modulus (GPa) = -28.30936 12.87524 -7.71706
#
# Velocity S-wave (km/s) = -3.75201 2.53033 -1.95896
# Velocity P-wave (km/s) = 1.30224 6.60717 4.58033
#
# Compressibility (1/GPa) = 0.02912429
#
# Stress axis : x y z
#
# Youngs Moduli (GPa) = 47.22378 37.89228 91.71809
#
# Poissons Ratio (x) = 0.09824 -0.11054
# Poissons Ratio (y) = 0.12243 1.21850
# Poissons Ratio (z) = -0.05692 0.50341
#
# Static dielectric constant tensor:
#      x y z
#    x 1.738640 0.000000 0.000000 
#    y 0.000000 1.694750 0.000000 
#    z 0.000000 0.000000 1.725380 
# 
# From -- ./inp_files/23346.got.cif
#   From: 2010.05.17/outbox.cif.g08.bks.cpg/sg38_12_cif.got.tgz:23346.got - 2010.06.03 18:07:57.
