data_PCOD9359384
_publ_section_title
;
Structure prediction by ZEFSAII (Michael W. Deem and Ramdas Pophale) SiO2 
 PCOD9359384
Probable space group: A M M 2
;
_chemical_formula_sum "Si O2"
_cell_formula_units_Z 64
_cell_length_a 8.626506
_cell_length_b 20.149661
_cell_length_c 21.057441
_cell_angle_alpha 90.000000
_cell_angle_beta 90.000000
_cell_angle_gamma 90.000000
_cell_volume 3660.229064
_symmetry_space_group_name_H-M "A M M 2"
_symmetry_group_IT_number 38
_symmetry_cell_setting 'orthorhombic'
loop_
_space_group_symop_operation_xyz
x,y,z
-x,-y,z
-x,y,z
x,-y,z
x,1/2+y,1/2+z
-x,1/2-y,1/2+z
-x,1/2+y,1/2+z
x,1/2-y,1/2+z
loop_
_atom_site_type_symbol
_atom_site_label
_atom_site_fract_x
_atom_site_fract_y
_atom_site_fract_z
Si Si1 0.688417 0.573090 0.600590
Si Si2 0.314172 0.284869 0.552806
Si Si3 0.686219 0.713757 0.796427
Si Si4 0.685704 0.924826 0.871287
Si Si5 0.311603 0.573074 0.749269
Si Si6 0.314493 0.575434 0.219990
Si Si7 0.183458 0.209755 0.674129
Si Si8 0.816874 0.210742 0.918444
O O1 0.500000 0.572298 0.597920
O O2 0.741251 0.500000 0.578452
O O3 0.739402 0.638741 0.564190
O O4 0.731240 0.580460 0.674955
O O5 0.500000 0.283248 0.557969
O O6 0.243905 0.240257 0.608488
O O7 0.262190 0.264421 0.482904
O O8 0.500000 0.716122 0.801286
O O9 0.738612 0.637367 0.788080
O O10 0.735331 0.752032 0.732560
O O11 0.757636 0.749193 0.857292
O O12 0.500000 0.918491 0.880715
O O13 0.715303 0.917261 0.795682
O O14 0.769029 0.865863 0.907361
O O15 0.729764 0.000000 0.889595
O O16 0.500000 0.573098 0.750467
O O17 0.259364 0.500000 0.770942
O O18 0.500000 0.582856 0.211685
O O19 0.272042 0.500000 0.202350
O O20 0.228049 0.632764 0.182426
O O21 0.000000 0.218476 0.679211
O O22 0.000000 0.216394 0.923656
#
# Coordination Sequence:
#
# PCOD9359384 Si02
#       8
#     8   8   8   8   8   8   8   8
#     4   8  14  27  50  80 108 136 177 225 267 311
#     4  11  22  38  58  79 107 151 195 232 273 332
#     4  11  20  35  59  83 108 146 190 228 269 331
#     4   9  18  34  56  80 108 147 193 231 267 326
#     4   8  14  27  52  85 111 132 171 227 274 313
#     4   9  18  34  58  85 111 142 185 232 274 328
#     4  12  23  35  55  85 117 147 181 231 285 331
#     4  12  25  38  52  79 116 150 184 234 289 336
#
# _framework density 17.485244999999999
#
# number of rings (size 3 to 8) (size 9 to 14) (size 15 to 20)
#    0.000    2.000    2.500    4.500    0.000    1.000 
#    0.000    2.500    0.000    4.125    0.000    1.750 
#    0.000    0.000    0.000    0.000    0.000    0.000 
#
# Total GULP energy -178613.565255 kJ/mol
# GULP energy per Si atom -5581.673914 kJ/mol
# Density = 1.744545 g / cm^3
# Si number density = 17.485245 Si / 1000 Ang^3
#
#
#
# Elastic Constant Matrix: (Units=GPa)
#
#
# Indices 1 2 3 4 5 6 
#
# 1 27.6712 12.3874 -1.5974 0.0000 0.0000 0.0000
# 2 12.3874 90.9696 27.4286 0.0000 0.0000 0.0000
# 3 -1.5974 27.4286 56.5242 0.0000 0.0000 0.0000
# 4 0.0000 0.0000 0.0000 17.2273 0.0000 0.0000
# 5 0.0000 0.0000 0.0000 0.0000 12.5208 0.0000
# 6 0.0000 0.0000 0.0000 0.0000 0.0000 2.4958
#
#
#
# Elastic Compliance Matrix: (Units=1/GPa)
#
#
# Indices 1 2 3 4 5 6 
#
# 1 0.039378 -0.006674 0.004351 0.000000 0.000000 0.000000
# 2 -0.006674 0.014008 -0.006986 0.000000 0.000000 0.000000
# 3 0.004351 -0.006986 0.021205 0.000000 0.000000 0.000000
# 4 0.000000 0.000000 0.000000 0.058047 0.000000 0.000000
# 5 0.000000 0.000000 0.000000 0.000000 0.079867 0.000000
# 6 0.000000 0.000000 0.000000 0.000000 0.000000 0.400667
#
#
# Mechanical properties :
#
#
# Convention : Reuss Voigt Hill
#
# Bulk Modulus (GPa) = 17.86585 27.95580 22.91082
# Shear Modulus (GPa) = 7.68703 15.57855 11.63279
#
# Velocity S-wave (km/s) = 2.09901 2.98812 2.58212
# Velocity P-wave (km/s) = 4.01426 5.28471 4.69268
#
# Compressibility (1/GPa) = 0.05597271
#
# Stress axis : x y z
#
# Youngs Moduli (GPa) = 25.39515 71.38836 47.15980
#
# Poissons Ratio (x) = 0.47645 -0.20521
# Poissons Ratio (y) = 0.16949 0.32946
# Poissons Ratio (z) = -0.11051 0.49872
#
# Static dielectric constant tensor:
#      x y z
#    x 1.585600 0.000000 0.000000 
#    y 0.000000 1.618900 0.000000 
#    z 0.000000 0.000000 1.570510 
# 
# From -- ./inp_files/20244.got.cif
#   From: 2010.05.17/outbox.cif.g08.bks.cpg/sg38_11_cif.got.tgz:20244.got - 2010.06.03 18:07:57.
