data_PCOD9359904
_publ_section_title
;
Structure prediction by ZEFSAII (Michael W. Deem and Ramdas Pophale) SiO2 
 PCOD9359904
Probable space group: A B M 2
;
_chemical_formula_sum "Si O2"
_cell_formula_units_Z 56
_cell_length_a 18.464389
_cell_length_b 8.508201
_cell_length_c 19.658041
_cell_angle_alpha 90.000000
_cell_angle_beta 90.000000
_cell_angle_gamma 90.000000
_cell_volume 3088.253333
_symmetry_space_group_name_H-M "A B M 2"
_symmetry_group_IT_number 39
_symmetry_cell_setting 'orthorhombic'
loop_
_space_group_symop_operation_xyz
x,y,z
-x,-y,z
-x,1/2+y,z
x,1/2-y,z
x,1/2+y,1/2+z
-x,1/2-y,1/2+z
-x,y,1/2+z
x,-y,1/2+z
loop_
_atom_site_type_symbol
_atom_site_label
_atom_site_fract_x
_atom_site_fract_y
_atom_site_fract_z
Si Si1 0.260883 0.439616 0.074900
Si Si2 0.188895 0.065888 0.209321
Si Si3 0.803587 0.938003 0.926484
Si Si4 0.418657 0.564592 0.042205
Si Si5 0.081522 0.559283 0.829132
Si Si6 0.573194 0.571308 0.893447
Si Si7 0.693136 0.926526 0.320318
O O1 0.265519 0.250000 0.081109
O O2 0.209617 0.501660 0.135918
O O3 0.344289 0.499392 0.075733
O O4 0.220564 0.472580 0.003432
O O5 0.169978 0.250000 0.199389
O O6 0.128416 0.005293 0.262492
O O7 0.264082 0.058409 0.250714
O O8 0.792687 0.750000 0.915763
O O9 0.881835 0.986104 0.896989
O O10 0.751576 0.040973 0.878837
O O11 0.500000 0.500000 0.060374
O O12 0.420703 0.750000 0.051973
O O13 0.408467 0.523247 0.962069
O O14 0.085347 0.750000 0.832636
O O15 0.000000 0.500000 0.822481
O O16 0.500000 0.500000 0.865949
O O17 0.564430 0.750000 0.914978
O O18 0.632333 0.551698 0.835852
O O19 0.663576 0.750000 0.326371
#
# Coordination Sequence:
#
# PCOD9359904 Si02
#       7
#     8   8   8   8   8   8   8
#     4  10  19  35  56  80 111 145 184 224 271 325
#     4   8  18  35  56  79 107 145 179 215 265 323
#     4  10  19  31  54  82 108 138 175 218 266 318
#     4  11  21  33  51  76 107 143 185 230 280 326
#     4  10  20  37  60  83 110 142 180 222 271 326
#     4  11  20  31  48  73 102 136 179 228 280 325
#     4  10  18  32  52  75 104 137 177 221 265 317
#
# _framework density 18.133229
#
# number of rings (size 3 to 8) (size 9 to 14) (size 15 to 20)
#    0.000    2.000    1.429    5.571    0.000    0.571 
#    0.000    5.714    0.000    1.714    0.000    0.000 
#    0.000    0.000    0.000    0.000    0.000    0.000 
#
# Total GULP energy -155929.784339 kJ/mol
# GULP energy per Si atom -5568.920869 kJ/mol
# Density = 1.809196 g / cm^3
# Si number density = 18.133229 Si / 1000 Ang^3
#
#
#
# Elastic Constant Matrix: (Units=GPa)
#
#
# Indices 1 2 3 4 5 6 
#
# 1 106.6673 13.4245 32.9149 0.0000 0.0000 0.0000
# 2 13.4245 47.1141 23.3770 0.0000 0.0000 0.0000
# 3 32.9149 23.3770 84.1822 0.0000 0.0000 0.0000
# 4 0.0000 0.0000 0.0000 10.5514 0.0000 0.0000
# 5 0.0000 0.0000 0.0000 0.0000 19.9610 0.0000
# 6 0.0000 0.0000 0.0000 0.0000 0.0000 28.9920
#
#
#
# Elastic Compliance Matrix: (Units=1/GPa)
#
#
# Indices 1 2 3 4 5 6 
#
# 1 0.010713 -0.001130 -0.003875 0.000000 0.000000 0.000000
# 2 -0.001130 0.024736 -0.006427 0.000000 0.000000 0.000000
# 3 -0.003875 -0.006427 0.015179 0.000000 0.000000 0.000000
# 4 0.000000 0.000000 0.000000 0.094774 0.000000 0.000000
# 5 0.000000 0.000000 0.000000 0.000000 0.050098 0.000000
# 6 0.000000 0.000000 0.000000 0.000000 0.000000 0.034492
#
#
# Mechanical properties :
#
#
# Convention : Reuss Voigt Hill
#
# Bulk Modulus (GPa) = 36.01828 41.93293 38.97561
# Shear Modulus (GPa) = 19.07589 23.11735 21.09662
#
# Velocity S-wave (km/s) = 3.24695 3.57439 3.41460
# Velocity P-wave (km/s) = 5.82779 6.34115 6.08988
#
# Compressibility (1/GPa) = 0.02776368
#
# Stress axis : x y z
#
# Youngs Moduli (GPa) = 93.34586 40.42672 65.88082
#
# Poissons Ratio (x) = 0.04567 0.25528
# Poissons Ratio (y) = 0.10546 0.42344
# Poissons Ratio (z) = 0.36171 0.25984
#
# Static dielectric constant tensor:
#      x y z
#    x 1.679950 0.000000 0.000000 
#    y 0.000000 1.641800 0.000000 
#    z 0.000000 0.000000 1.630070 
# 
# From -- ./inp_files/13061.got.cif
#   From: 2010.05.17/outbox.cif.g08.bks.cpg/sg39_7_cif.got.tgz:13061.got - 2010.06.03 18:22:40.
