data_PCOD9359179
_publ_section_title
;
Structure prediction by ZEFSAII (Michael W. Deem and Ramdas Pophale) SiO2 
 PCOD9359179
Probable space group: A M M 2
;
_chemical_formula_sum "Si O2"
_cell_formula_units_Z 32
_cell_length_a 8.668906
_cell_length_b 14.009482
_cell_length_c 11.875036
_cell_angle_alpha 90.000000
_cell_angle_beta 90.000000
_cell_angle_gamma 90.000000
_cell_volume 1442.186103
_symmetry_space_group_name_H-M "A M M 2"
_symmetry_group_IT_number 38
_symmetry_cell_setting 'orthorhombic'
loop_
_space_group_symop_operation_xyz
x,y,z
-x,-y,z
-x,y,z
x,-y,z
x,1/2+y,1/2+z
-x,1/2-y,1/2+z
-x,1/2+y,1/2+z
x,1/2-y,1/2+z
loop_
_atom_site_type_symbol
_atom_site_label
_atom_site_fract_x
_atom_site_fract_y
_atom_site_fract_z
Si Si1 0.258913 0.390936 0.639260
Si Si2 0.667405 0.682716 0.179021
Si Si3 0.172389 0.111081 0.880596
Si Si4 0.000000 0.388900 0.825654
Si Si5 0.000000 0.884884 0.576806
O O1 0.321630 0.500000 0.649878
O O2 0.348937 0.292828 0.646131
O O3 0.184331 0.387618 0.515107
O O4 0.142968 0.375716 0.743180
O O5 0.500000 0.636023 0.150891
O O6 0.700504 0.669106 0.312346
O O7 0.831368 0.646957 0.125840
O O8 0.000000 0.141896 0.847206
O O9 0.190291 0.000000 0.846962
O O10 0.000000 0.500000 0.854721
O O11 0.000000 0.343664 0.948564
O O12 0.000000 0.000000 0.586290
#
# Coordination Sequence:
#
# PCOD9359179 Si02
#       5
#     8   8   8   4   4
#     4  10  22  42  69 100 137 181 229 285 346 404
#     4  12  27  42  68 104 139 183 235 281 336 411
#     4  10  21  41  71 102 133 176 229 287 346 403
#     4   9  19  39  69 100 129 177 233 276 338 414
#     4  11  25  45  70 102 143 185 224 282 351 410
#
# _framework density 22.188538000000001
#
# number of rings (size 3 to 8) (size 9 to 14) (size 15 to 20)
#    0.000    1.500    2.500    1.500    3.500    3.500 
#    0.000    2.500    0.000    4.500    0.000    0.000 
#    0.000    0.000    0.000    0.000    0.000    0.000 
#
# Total GULP energy -89087.322839 kJ/mol
# GULP energy per Si atom -5567.957677 kJ/mol
# Density = 2.213804 g / cm^3
# Si number density = 22.188538 Si / 1000 Ang^3
#
#
#
# Elastic Constant Matrix: (Units=GPa)
#
#
# Indices 1 2 3 4 5 6 
#
# 1 180.4540 54.5972 62.3143 0.0000 0.0000 0.0000
# 2 54.5972 119.9853 15.3570 0.0000 0.0000 0.0000
# 3 62.3143 15.3570 130.2320 0.0000 0.0000 0.0000
# 4 0.0000 0.0000 0.0000 33.4164 0.0000 0.0000
# 5 0.0000 0.0000 0.0000 0.0000 243.8946 0.0000
# 6 0.0000 0.0000 0.0000 0.0000 0.0000 -15.6462
#
#
#
# Elastic Compliance Matrix: (Units=1/GPa)
#
#
# Indices 1 2 3 4 5 6 
#
# 1 0.007590 -0.003035 -0.003274 0.000000 0.000000 0.000000
# 2 -0.003035 0.009675 0.000311 0.000000 0.000000 0.000000
# 3 -0.003274 0.000311 0.009208 0.000000 0.000000 0.000000
# 4 0.000000 0.000000 0.000000 0.029925 0.000000 0.000000
# 5 0.000000 0.000000 0.000000 0.000000 0.004100 0.000000
# 6 0.000000 0.000000 0.000000 0.000000 0.000000 -0.063913
#
#
# Mechanical properties :
#
#
# Convention : Reuss Voigt Hill
#
# Bulk Modulus (GPa) = 69.06548 77.24534 73.15541
# Shear Modulus (GPa) = 372.90544 72.22648 222.56596
#
# Velocity S-wave (km/s) = 12.97794 5.71156 10.02619
# Velocity P-wave (km/s) = 15.99261 8.85351 12.92572
#
# Compressibility (1/GPa) = 0.01447901
#
# Stress axis : x y z
#
# Youngs Moduli (GPa) = 131.74611 103.35419 108.59549
#
# Poissons Ratio (x) = 0.31366 0.35554
# Poissons Ratio (y) = 0.39983 -0.03379
# Poissons Ratio (z) = 0.43134 -0.03216
#
# Static dielectric constant tensor:
#      x y z
#    x 1.573970 0.000000 0.000000 
#    y 0.000000 1.853890 0.000000 
#    z 0.000000 0.000000 1.822350 
# 
# From -- ./inp_files/7602.got.cif
#   From: 2010.05.17/outbox.cif.g08.bks.cpg/sg38_4_cif.got.tgz:7602.got - 2010.06.03 18:07:57.
