data_PCOD9359520
_publ_section_title
;
Structure prediction by ZEFSAII (Michael W. Deem and Ramdas Pophale) SiO2 
 PCOD9359520
Probable space group: A M M 2
;
_chemical_formula_sum "Si O2"
_cell_formula_units_Z 64
_cell_length_a 9.753471
_cell_length_b 7.553449
_cell_length_c 43.181423
_cell_angle_alpha 90.000000
_cell_angle_beta 90.000000
_cell_angle_gamma 90.000000
_cell_volume 3181.276726
_symmetry_space_group_name_H-M "A M M 2"
_symmetry_group_IT_number 38
_symmetry_cell_setting 'orthorhombic'
loop_
_space_group_symop_operation_xyz
x,y,z
-x,-y,z
-x,y,z
x,-y,z
x,1/2+y,1/2+z
-x,1/2-y,1/2+z
-x,1/2+y,1/2+z
x,1/2-y,1/2+z
loop_
_atom_site_type_symbol
_atom_site_label
_atom_site_fract_x
_atom_site_fract_y
_atom_site_fract_z
Si Si1 0.840062 0.716065 0.071160
Si Si2 0.844020 0.789502 0.935786
Si Si3 0.155804 0.287337 0.755866
Si Si4 0.158565 0.287375 0.003241
Si Si5 0.843344 0.788168 0.686143
Si Si6 0.343792 0.712315 0.380471
Si Si7 0.658080 0.283057 0.129244
Si Si8 0.343936 0.212565 0.311439
O O1 0.840823 0.500000 0.071557
O O2 0.743014 0.773957 0.098971
O O3 0.000000 0.769121 0.075150
O O4 0.789172 0.771808 0.036886
O O5 0.781174 0.764010 0.970089
O O6 0.751335 0.718281 0.908009
O O7 0.000000 0.716933 0.935366
O O8 0.854692 0.000000 0.931287
O O9 0.150300 0.500000 0.758684
O O10 0.204805 0.248306 0.721081
O O11 0.251200 0.219663 0.783417
O O12 0.000000 0.219328 0.758396
O O13 0.158232 0.500000 0.003871
O O14 0.000000 0.225846 0.002286
O O15 0.740887 0.723623 0.659691
O O16 0.000000 0.719507 0.682871
O O17 0.851000 0.000000 0.682614
O O18 0.500000 0.781196 0.382257
O O19 0.350872 0.500000 0.383736
O O20 0.290176 0.748705 0.345897
O O21 0.500000 0.226426 0.128983
O O22 0.657492 0.500000 0.129247
O O23 0.500000 0.280909 0.309665
O O24 0.350032 0.000000 0.308589
#
# Coordination Sequence:
#
# PCOD9359520 Si02
#       8
#     8   8   8   8   8   8   8   8
#     4   8  13  23  40  59  80 110 145 177 212 256
#     4   9  17  29  45  65  88 113 142 177 215 253
#     4   9  18  32  48  66  89 115 142 174 213 255
#     4   8  14  25  42  64  87 111 142 178 214 254
#     4   9  17  29  45  65  88 114 144 176 211 253
#     4   9  18  32  47  63  86 116 146 174 209 255
#     4   9  16  25  39  62  90 115 141 178 219 253
#     4   9  18  32  48  65  86 113 144 176 211 253
#
# _framework density 20.117711
#
# number of rings (size 3 to 8) (size 9 to 14) (size 15 to 20)
#    0.000    3.250    0.000    1.125    0.000    3.500 
#    0.000    0.625    0.000    1.500    0.000    3.500 
#    0.000    0.000    0.000    0.000    0.000    0.000 
#
# Total GULP energy -178347.378231 kJ/mol
# GULP energy per Si atom -5573.355570 kJ/mol
# Density = 2.007192 g / cm^3
# Si number density = 20.117711 Si / 1000 Ang^3
#
#
#
# Elastic Constant Matrix: (Units=GPa)
#
#
# Indices 1 2 3 4 5 6 
#
# 1 88.4525 4.4470 113.7065 0.0000 0.0000 0.0000
# 2 4.4470 46.0094 0.1585 0.0000 0.0000 0.0000
# 3 113.7065 0.1585 243.8846 0.0000 0.0000 0.0000
# 4 0.0000 0.0000 0.0000 13.9066 0.0000 0.0000
# 5 0.0000 0.0000 0.0000 0.0000 -47.7045 0.0000
# 6 0.0000 0.0000 0.0000 0.0000 0.0000 -2.0798
#
#
#
# Elastic Compliance Matrix: (Units=1/GPa)
#
#
# Indices 1 2 3 4 5 6 
#
# 1 0.028552 -0.002714 -0.013310 0.000000 0.000000 0.000000
# 2 -0.002714 0.021993 0.001251 0.000000 0.000000 0.000000
# 3 -0.013310 0.001251 0.010305 0.000000 0.000000 0.000000
# 4 0.000000 0.000000 0.000000 0.071908 0.000000 0.000000
# 5 0.000000 0.000000 0.000000 0.000000 -0.020962 0.000000
# 6 0.000000 0.000000 0.000000 0.000000 0.000000 -0.480817
#
#
# Mechanical properties :
#
#
# Convention : Reuss Voigt Hill
#
# Bulk Modulus (GPa) = 31.94479 68.33007 50.13743
# Shear Modulus (GPa) = -15.19573 10.16009 -2.51782
#
# Velocity S-wave (km/s) = -2.75133 2.24973 -1.11994
# Velocity P-wave (km/s) = 2.41254 6.38649 4.82740
#
# Compressibility (1/GPa) = 0.03130401
#
# Stress axis : x y z
#
# Youngs Moduli (GPa) = 35.02336 45.46965 97.03903
#
# Poissons Ratio (x) = 0.12340 1.29161
# Poissons Ratio (y) = 0.09505 -0.12139
# Poissons Ratio (z) = 0.46617 -0.05688
#
# Static dielectric constant tensor:
#      x y z
#    x 1.696870 0.000000 0.000000 
#    y 0.000000 1.765560 0.000000 
#    z 0.000000 0.000000 1.716790 
# 
# From -- ./inp_files/24613.got.cif
#   From: 2010.05.17/outbox.cif.g08.bks.cpg/sg38_13_cif.got.tgz:24613.got - 2010.06.03 18:07:57.
