data_PCOD9359019
_publ_section_title
;
Structure prediction by ZEFSAII (Michael W. Deem and Ramdas Pophale) SiO2 
 PCOD9359019
Probable space group: A M M 2
;
_chemical_formula_sum "Si O2"
_cell_formula_units_Z 40
_cell_length_a 8.603274
_cell_length_b 30.141926
_cell_length_c 7.556472
_cell_angle_alpha 90.000000
_cell_angle_beta 90.000000
_cell_angle_gamma 90.000000
_cell_volume 1959.538639
_symmetry_space_group_name_H-M "A M M 2"
_symmetry_group_IT_number 38
_symmetry_cell_setting 'orthorhombic'
loop_
_space_group_symop_operation_xyz
x,y,z
-x,-y,z
-x,y,z
x,-y,z
x,1/2+y,1/2+z
-x,1/2-y,1/2+z
-x,1/2+y,1/2+z
x,1/2-y,1/2+z
loop_
_atom_site_type_symbol
_atom_site_label
_atom_site_fract_x
_atom_site_fract_y
_atom_site_fract_z
Si Si1 0.318128 0.711190 0.183060
Si Si2 0.315116 0.892683 0.993725
Si Si3 0.815257 0.050253 0.290153
Si Si4 0.821788 0.300548 0.552828
Si Si5 0.315360 0.883212 0.579016
O O1 0.500000 0.706867 0.238825
O O2 0.199824 0.703457 0.342234
O O3 0.289499 0.669831 0.051119
O O4 0.285660 0.760633 0.119897
O O5 0.500000 0.887296 0.001697
O O6 0.262858 0.934670 0.106627
O O7 0.238103 0.849963 0.088216
O O8 0.272888 0.893228 0.784975
O O9 0.768576 0.084787 0.442839
O O10 0.000000 0.051626 0.266875
O O11 0.768868 0.000000 0.337330
O O12 0.000000 0.294610 0.607804
O O13 0.500000 0.890650 0.560621
#
# Coordination Sequence:
#
# PCOD9359019 Si02
#       5
#     8   8   8   8   8
#     4  10  21  38  58  84 120 162 204 248 303 367
#     4  10  22  42  65  89 122 163 208 258 311 370
#     4  11  25  42  63  93 126 162 205 257 319 378
#     4  11  22  36  57  88 122 159 203 251 305 366
#     4   9  21  41  64  89 119 160 207 255 308 366
#
# _framework density 20.412970000000001
#
# number of rings (size 3 to 8) (size 9 to 14) (size 15 to 20)
#    0.000    1.800    0.000    4.800    2.800    7.200 
#    0.000    4.000    0.000    0.000    0.000    0.000 
#    0.000    0.000    0.000    0.000    0.000    0.000 
#
# Total GULP energy -111646.472065 kJ/mol
# GULP energy per Si atom -5582.323603 kJ/mol
# Density = 2.036651 g / cm^3
# Si number density = 20.412970 Si / 1000 Ang^3
#
#
#
# Elastic Constant Matrix: (Units=GPa)
#
#
# Indices 1 2 3 4 5 6 
#
# 1 59.0994 19.9069 9.9575 0.0000 0.0000 0.0000
# 2 19.9069 81.6314 13.5982 0.0000 0.0000 0.0000
# 3 9.9575 13.5982 37.2897 0.0000 0.0000 0.0000
# 4 0.0000 0.0000 0.0000 32.8751 0.0000 0.0000
# 5 0.0000 0.0000 0.0000 0.0000 28.6118 0.0000
# 6 0.0000 0.0000 0.0000 0.0000 0.0000 30.4943
#
#
#
# Elastic Compliance Matrix: (Units=1/GPa)
#
#
# Indices 1 2 3 4 5 6 
#
# 1 0.018873 -0.004006 -0.003579 0.000000 0.000000 0.000000
# 2 -0.004006 0.013893 -0.003996 0.000000 0.000000 0.000000
# 3 -0.003579 -0.003996 0.029230 0.000000 0.000000 0.000000
# 4 0.000000 0.000000 0.000000 0.030418 0.000000 0.000000
# 5 0.000000 0.000000 0.000000 0.000000 0.034951 0.000000
# 6 0.000000 0.000000 0.000000 0.000000 0.000000 0.032793
#
#
# Mechanical properties :
#
#
# Convention : Reuss Voigt Hill
#
# Bulk Modulus (GPa) = 25.75122 29.43839 27.59481
# Shear Modulus (GPa) = 25.47573 27.36676 26.42125
#
# Velocity S-wave (km/s) = 3.53656 3.66547 3.60159
# Velocity P-wave (km/s) = 5.41469 5.68919 5.55364
#
# Compressibility (1/GPa) = 0.03883311
#
# Stress axis : x y z
#
# Youngs Moduli (GPa) = 52.98548 71.97917 34.21136
#
# Poissons Ratio (x) = 0.28837 0.12243
# Poissons Ratio (y) = 0.21228 0.13672
# Poissons Ratio (z) = 0.18962 0.28766
#
# Static dielectric constant tensor:
#      x y z
#    x 1.676390 0.000000 0.000000 
#    y 0.000000 1.752870 0.000000 
#    z 0.000000 0.000000 1.756230 
# 
# From -- ./inp_files/3305.got.cif
#   From: 2010.05.17/outbox.cif.g08.bks.cpg/sg38_2_cif.got.tgz:3305.got - 2010.06.03 18:07:57.
