data_PCOD9359476
_publ_section_title
;
Structure prediction by ZEFSAII (Michael W. Deem and Ramdas Pophale) SiO2 
 PCOD9359476
Probable space group: A M M 2
;
_chemical_formula_sum "Si O2"
_cell_formula_units_Z 56
_cell_length_a 8.770839
_cell_length_b 21.147634
_cell_length_c 15.401433
_cell_angle_alpha 90.000000
_cell_angle_beta 90.000000
_cell_angle_gamma 90.000000
_cell_volume 2856.696189
_symmetry_space_group_name_H-M "A M M 2"
_symmetry_group_IT_number 38
_symmetry_cell_setting 'orthorhombic'
loop_
_space_group_symop_operation_xyz
x,y,z
-x,-y,z
-x,y,z
x,-y,z
x,1/2+y,1/2+z
-x,1/2-y,1/2+z
-x,1/2+y,1/2+z
x,1/2-y,1/2+z
loop_
_atom_site_type_symbol
_atom_site_label
_atom_site_fract_x
_atom_site_fract_y
_atom_site_fract_z
Si Si1 0.174765 0.428559 0.766500
Si Si2 0.836321 0.071720 0.059363
Si Si3 0.180215 0.738760 0.996575
Si Si4 0.321568 0.806196 0.332616
Si Si5 0.673413 0.134890 0.924101
Si Si6 0.683536 0.202989 0.683213
Si Si7 0.183284 0.926328 0.756980
O O1 0.213284 0.500000 0.794878
O O2 0.170027 0.428198 0.662155
O O3 0.290306 0.374094 0.791077
O O4 0.000000 0.414534 0.795357
O O5 0.000000 0.102518 0.033718
O O6 0.842894 0.000000 0.029223
O O7 0.689441 0.100978 0.016194
O O8 0.231971 0.689217 0.923682
O O9 0.241477 0.800572 0.946166
O O10 0.000000 0.739860 0.007719
O O11 0.255735 0.728808 0.090795
O O12 0.500000 0.795724 0.349985
O O13 0.272895 0.751379 0.262516
O O14 0.500000 0.145147 0.896784
O O15 0.758237 0.092497 0.853027
O O16 0.500000 0.200810 0.681101
O O17 0.748245 0.132116 0.700608
O O18 0.000000 0.923065 0.753170
O O19 0.227064 0.000000 0.737122
#
# Coordination Sequence:
#
# PCOD9359476 Si02
#       7
#     8   8   8   8   8   8   8
#     4   9  19  36  58  85 119 161 206 252 307 373
#     4   9  18  33  53  80 116 157 200 244 297 368
#     4  12  25  41  65  91 122 164 213 265 318 386
#     4  11  23  40  63  93 126 161 204 260 321 383
#     4  12  23  36  56  88 125 161 207 263 322 381
#     4  11  24  43  67  96 132 169 212 270 331 392
#     4  11  24  42  65  93 128 173 223 271 326 396
#
# _framework density 19.603065999999998
#
# number of rings (size 3 to 8) (size 9 to 14) (size 15 to 20)
#    0.000    1.286    1.429    6.000    0.000    8.000 
#    0.000    2.143    0.000    4.286    0.000    0.000 
#    0.000    0.000    0.000    0.000    0.000    0.000 
#
# Total GULP energy -156112.581162 kJ/mol
# GULP energy per Si atom -5575.449327 kJ/mol
# Density = 1.955845 g / cm^3
# Si number density = 19.603066 Si / 1000 Ang^3
#
#
#
# Elastic Constant Matrix: (Units=GPa)
#
#
# Indices 1 2 3 4 5 6 
#
# 1 90.5373 29.3487 33.1464 0.0000 0.0000 0.0000
# 2 29.3487 84.0721 23.9088 0.0000 0.0000 0.0000
# 3 33.1464 23.9088 89.8136 0.0000 0.0000 0.0000
# 4 0.0000 0.0000 0.0000 31.8698 0.0000 0.0000
# 5 0.0000 0.0000 0.0000 0.0000 32.6888 0.0000
# 6 0.0000 0.0000 0.0000 0.0000 0.0000 23.0047
#
#
#
# Elastic Compliance Matrix: (Units=1/GPa)
#
#
# Indices 1 2 3 4 5 6 
#
# 1 0.013721 -0.003624 -0.004099 0.000000 0.000000 0.000000
# 2 -0.003624 0.013826 -0.002343 0.000000 0.000000 0.000000
# 3 -0.004099 -0.002343 0.013271 0.000000 0.000000 0.000000
# 4 0.000000 0.000000 0.000000 0.031378 0.000000 0.000000
# 5 0.000000 0.000000 0.000000 0.000000 0.030591 0.000000
# 6 0.000000 0.000000 0.000000 0.000000 0.000000 0.043469
#
#
# Mechanical properties :
#
#
# Convention : Reuss Voigt Hill
#
# Bulk Modulus (GPa) = 48.34390 48.58120 48.46255
# Shear Modulus (GPa) = 28.85454 29.38061 29.11758
#
# Velocity S-wave (km/s) = 3.84075 3.87560 3.85822
# Velocity P-wave (km/s) = 6.66209 6.69801 6.68007
#
# Compressibility (1/GPa) = 0.02068513
#
# Stress axis : x y z
#
# Youngs Moduli (GPa) = 72.88310 72.32751 75.35429
#
# Poissons Ratio (x) = 0.26212 0.30887
# Poissons Ratio (y) = 0.26413 0.17656
# Poissons Ratio (z) = 0.29874 0.16947
#
# Static dielectric constant tensor:
#      x y z
#    x 1.716450 0.000000 0.000000 
#    y 0.000000 1.859300 0.000000 
#    z 0.000000 0.000000 1.713310 
# 
# From -- ./inp_files/12446.got.cif
#   From: 2010.05.17/outbox.cif.g08.bks.cpg/sg38_7_cif.got.tgz:12446.got - 2010.06.03 18:07:57.
