data_PCOD9359187
_publ_section_title
;
Structure prediction by ZEFSAII (Michael W. Deem and Ramdas Pophale) SiO2 
 PCOD9359187
Probable space group: A M M 2
;
_chemical_formula_sum "Si O2"
_cell_formula_units_Z 56
_cell_length_a 14.089787
_cell_length_b 19.700562
_cell_length_c 10.717630
_cell_angle_alpha 90.000000
_cell_angle_beta 90.000000
_cell_angle_gamma 90.000000
_cell_volume 2974.964607
_symmetry_space_group_name_H-M "A M M 2"
_symmetry_group_IT_number 38
_symmetry_cell_setting 'orthorhombic'
loop_
_space_group_symop_operation_xyz
x,y,z
-x,-y,z
-x,y,z
x,-y,z
x,1/2+y,1/2+z
-x,1/2-y,1/2+z
-x,1/2+y,1/2+z
x,1/2-y,1/2+z
loop_
_atom_site_type_symbol
_atom_site_label
_atom_site_fract_x
_atom_site_fract_y
_atom_site_fract_z
Si Si1 0.768308 0.421455 0.227800
Si Si2 0.613022 0.298632 0.510598
Si Si3 0.246524 0.422807 0.516349
Si Si4 0.885919 0.804160 0.643505
Si Si5 0.886544 0.076189 0.251107
Si Si6 0.884698 0.285078 0.874313
Si Si7 0.612387 0.191112 0.725688
O O1 0.759114 0.500000 0.193277
O O2 0.792512 0.417627 0.375464
O O3 0.847021 0.380110 0.151998
O O4 0.672386 0.377757 0.213288
O O5 0.500000 0.311754 0.522203
O O6 0.673126 0.366514 0.533528
O O7 0.637206 0.242192 0.613694
O O8 0.630254 0.279119 0.365123
O O9 0.284226 0.500000 0.529313
O O10 0.165275 0.413994 0.619238
O O11 0.850625 0.764205 0.765221
O O12 0.854492 0.769047 0.514705
O O13 0.000000 0.804448 0.644740
O O14 0.858111 0.137874 0.340300
O O15 0.000000 0.080355 0.233758
O O16 0.864150 0.000000 0.296964
O O17 0.000000 0.281520 0.872409
O O18 0.500000 0.177233 0.717871
#
# Coordination Sequence:
#
# PCOD9359187 Si02
#       7
#     8   8   8   8   8   8   8
#     4  10  22  36  53  80 109 142 184 222 266 320
#     4   9  18  34  57  82 106 137 175 217 268 321
#     4   9  19  34  52  80 112 142 179 221 265 315
#     4  10  22  37  55  80 109 142 179 223 270 316
#     4   9  18  33  53  76 106 144 182 218 259 313
#     4   9  20  36  54  77 104 139 182 222 264 314
#     4   9  19  36  58  81 106 138 176 221 268 317
#
# _framework density 18.823751999999999
#
# number of rings (size 3 to 8) (size 9 to 14) (size 15 to 20)
#    0.000    2.714    0.000    0.000    4.000    3.143 
#    0.000    5.714    0.000    0.000    0.000    4.000 
#    0.000    0.000    0.000    0.000    0.000    0.000 
#
# Total GULP energy -156216.411527 kJ/mol
# GULP energy per Si atom -5579.157555 kJ/mol
# Density = 1.878091 g / cm^3
# Si number density = 18.823752 Si / 1000 Ang^3
#
#
#
# Elastic Constant Matrix: (Units=GPa)
#
#
# Indices 1 2 3 4 5 6 
#
# 1 34.6931 15.9734 33.0216 0.0000 0.0000 0.0000
# 2 15.9734 103.8810 69.9302 0.0000 0.0000 0.0000
# 3 33.0216 69.9302 114.5002 0.0000 0.0000 0.0000
# 4 0.0000 0.0000 0.0000 30.3847 0.0000 0.0000
# 5 0.0000 0.0000 0.0000 0.0000 20.9232 0.0000
# 6 0.0000 0.0000 0.0000 0.0000 0.0000 27.4353
#
#
#
# Elastic Compliance Matrix: (Units=1/GPa)
#
#
# Indices 1 2 3 4 5 6 
#
# 1 0.040189 0.002756 -0.013274 0.000000 0.000000 0.000000
# 2 0.002756 0.016536 -0.010894 0.000000 0.000000 0.000000
# 3 -0.013274 -0.010894 0.019215 0.000000 0.000000 0.000000
# 4 0.000000 0.000000 0.000000 0.032911 0.000000 0.000000
# 5 0.000000 0.000000 0.000000 0.000000 0.047794 0.000000
# 6 0.000000 0.000000 0.000000 0.000000 0.000000 0.036449
#
#
# Mechanical properties :
#
#
# Convention : Reuss Voigt Hill
#
# Bulk Modulus (GPa) = 30.19607 54.54719 42.37163
# Shear Modulus (GPa) = 20.24629 24.69192 22.46911
#
# Velocity S-wave (km/s) = 3.28315 3.62573 3.45868
# Velocity P-wave (km/s) = 5.51801 6.82412 6.20552
#
# Compressibility (1/GPa) = 0.03311689
#
# Stress axis : x y z
#
# Youngs Moduli (GPa) = 24.88214 60.47260 52.04193
#
# Poissons Ratio (x) = -0.16664 0.69078
# Poissons Ratio (y) = -0.06857 0.56696
# Poissons Ratio (z) = 0.33028 0.65880
#
# Static dielectric constant tensor:
#      x y z
#    x 1.646730 0.000000 0.000000 
#    y 0.000000 1.644140 0.000000 
#    z 0.000000 0.000000 1.673110 
# 
# From -- ./inp_files/5730.got.cif
#   From: 2010.05.17/outbox.cif.g08.bks.cpg/sg38_3_cif.got.tgz:5730.got - 2010.06.03 18:07:57.
