data_PCOD9359197
_publ_section_title
;
Structure prediction by ZEFSAII (Michael W. Deem and Ramdas Pophale) SiO2 
 PCOD9359197
Probable space group: A M M 2
;
_chemical_formula_sum "Si O2"
_cell_formula_units_Z 64
_cell_length_a 8.640015
_cell_length_b 30.952856
_cell_length_c 14.641942
_cell_angle_alpha 90.000000
_cell_angle_beta 90.000000
_cell_angle_gamma 90.000000
_cell_volume 3915.740527
_symmetry_space_group_name_H-M "A M M 2"
_symmetry_group_IT_number 38
_symmetry_cell_setting 'orthorhombic'
loop_
_space_group_symop_operation_xyz
x,y,z
-x,-y,z
-x,y,z
x,-y,z
x,1/2+y,1/2+z
-x,1/2-y,1/2+z
-x,1/2+y,1/2+z
x,1/2-y,1/2+z
loop_
_atom_site_type_symbol
_atom_site_label
_atom_site_fract_x
_atom_site_fract_y
_atom_site_fract_z
Si Si1 0.682982 0.301476 0.165670
Si Si2 0.686344 0.049308 0.218878
Si Si3 0.816342 0.269157 0.345375
Si Si4 0.184870 0.281474 0.556976
Si Si5 0.818855 0.132751 0.527289
Si Si6 0.313626 0.049190 0.433476
Si Si7 0.320386 0.823238 0.354654
Si Si8 0.815810 0.864379 0.177171
O O1 0.500000 0.299492 0.178328
O O2 0.767490 0.300251 0.263404
O O3 0.735141 0.259052 0.107243
O O4 0.729780 0.343956 0.109268
O O5 0.500000 0.053653 0.213932
O O6 0.730348 0.054704 0.326431
O O7 0.766579 0.086384 0.159484
O O8 0.725915 0.000000 0.193409
O O9 0.781053 0.283041 0.449074
O O10 0.720939 0.225461 0.329264
O O11 0.000000 0.260294 0.339173
O O12 0.222906 0.327324 0.603700
O O13 0.000000 0.274654 0.567405
O O14 0.760366 0.085673 0.496521
O O15 0.784046 0.162668 0.439330
O O16 0.000000 0.132126 0.546908
O O17 0.500000 0.053366 0.437209
O O18 0.273014 0.000000 0.459469
O O19 0.500000 0.828312 0.379282
O O20 0.277457 0.851675 0.267866
O O21 0.000000 0.862161 0.193904
#
# Coordination Sequence:
#
# PCOD9359197 Si02
#       8
#     8   8   8   8   8   8   8   8
#     4  12  24  36  54  77 104 139 179 220 261 311
#     4   9  18  32  50  73 104 140 174 212 260 310
#     4  11  22  38  55  73 103 140 178 220 265 308
#     4  10  22  37  54  74 104 140 175 216 263 313
#     4  12  23  35  52  76 106 142 180 219 260 312
#     4   9  18  33  52  75 106 139 172 214 262 314
#     4  12  22  32  49  75 106 140 179 218 258 307
#     4  11  21  33  51  77 105 139 178 214 259 313
#
# _framework density 16.344290000000001
#
# number of rings (size 3 to 8) (size 9 to 14) (size 15 to 20)
#    0.000    1.250    3.750    4.875    0.000    1.500 
#    0.000    1.250    0.000    0.000    0.000    0.875 
#    0.000    5.000    0.000    0.000    0.000    0.000 
#
# Total GULP energy -178677.167723 kJ/mol
# GULP energy per Si atom -5583.661491 kJ/mol
# Density = 1.630709 g / cm^3
# Si number density = 16.344290 Si / 1000 Ang^3
#
#
#
# Elastic Constant Matrix: (Units=GPa)
#
#
# Indices 1 2 3 4 5 6 
#
# 1 46.7264 21.0358 13.5817 0.0000 0.0000 0.0000
# 2 21.0358 81.7452 3.9871 0.0000 0.0000 0.0000
# 3 13.5817 3.9871 42.1565 0.0000 0.0000 0.0000
# 4 0.0000 0.0000 0.0000 21.1579 0.0000 0.0000
# 5 0.0000 0.0000 0.0000 0.0000 -6.0196 0.0000
# 6 0.0000 0.0000 0.0000 0.0000 0.0000 1631.9299
#
#
#
# Elastic Compliance Matrix: (Units=1/GPa)
#
#
# Indices 1 2 3 4 5 6 
#
# 1 0.026627 -0.006463 -0.007967 0.000000 0.000000 0.000000
# 2 -0.006463 0.013859 0.000772 0.000000 0.000000 0.000000
# 3 -0.007967 0.000772 0.026215 0.000000 0.000000 0.000000
# 4 0.000000 0.000000 0.000000 0.047264 0.000000 0.000000
# 5 0.000000 0.000000 0.000000 0.000000 -0.166125 0.000000
# 6 0.000000 0.000000 0.000000 0.000000 0.000000 0.000613
#
#
# Mechanical properties :
#
#
# Convention : Reuss Voigt Hill
#
# Bulk Modulus (GPa) = 25.39193 27.53747 26.46470
# Shear Modulus (GPa) = -450.34413 338.21519 -56.06447
#
# Velocity S-wave (km/s) = -16.61729 14.40073 -5.86316
# Velocity P-wave (km/s) = 18.77790 17.12871 5.44136
#
# Compressibility (1/GPa) = 0.03938260
#
# Stress axis : x y z
#
# Youngs Moduli (GPa) = 37.55631 72.15664 38.14618
#
# Poissons Ratio (x) = 0.46637 0.30392
# Poissons Ratio (y) = 0.24274 -0.02943
# Poissons Ratio (z) = 0.29922 -0.05567
#
# Static dielectric constant tensor:
#      x y z
#    x 1.547490 0.000000 0.000000 
#    y 0.000000 1.573950 0.000000 
#    z 0.000000 0.000000 1.536770 
# 
# From -- ./inp_files/13067.got.cif
#   From: 2010.05.17/outbox.cif.g08.bks.cpg/sg38_7_cif.got.tgz:13067.got - 2010.06.03 18:07:57.
