data_PCOD9359836
_publ_section_title
;
Structure prediction by ZEFSAII (Michael W. Deem and Ramdas Pophale) SiO2 
 PCOD9359836
Probable space group: A B M 2
;
_chemical_formula_sum "Si O2"
_cell_formula_units_Z 48
_cell_length_a 16.845275
_cell_length_b 8.538907
_cell_length_c 18.958150
_cell_angle_alpha 90.000000
_cell_angle_beta 90.000000
_cell_angle_gamma 90.000000
_cell_volume 2726.944782
_symmetry_space_group_name_H-M "A B M 2"
_symmetry_group_IT_number 39
_symmetry_cell_setting 'orthorhombic'
loop_
_space_group_symop_operation_xyz
x,y,z
-x,-y,z
-x,1/2+y,z
x,1/2-y,z
x,1/2+y,1/2+z
-x,1/2-y,1/2+z
-x,y,1/2+z
x,-y,1/2+z
loop_
_atom_site_type_symbol
_atom_site_label
_atom_site_fract_x
_atom_site_fract_y
_atom_site_fract_z
Si Si1 0.171924 0.064712 0.201880
Si Si2 0.734672 0.563352 0.824298
Si Si3 0.677880 0.064343 0.117407
Si Si4 0.084958 0.061380 0.067433
Si Si5 0.415969 0.063792 0.239084
Si Si6 0.245351 0.939320 0.486860
O O1 0.164567 0.250000 0.213125
O O2 0.103359 0.009863 0.148331
O O3 0.189958 0.982720 0.275799
O O4 0.250865 0.029011 0.156037
O O5 0.724616 0.750000 0.820579
O O6 0.656609 0.486134 0.789863
O O7 0.746301 0.516858 0.905329
O O8 0.689814 0.250000 0.124969
O O9 0.602038 0.012931 0.162512
O O10 0.687177 0.014473 0.036446
O O11 0.084320 0.250000 0.067403
O O12 0.159454 0.012308 0.018771
O O13 0.000000 0.000000 0.043842
O O14 0.417291 0.250000 0.232674
O O15 0.500000 0.000000 0.265557
O O16 0.250423 0.750000 0.492441
#
# Coordination Sequence:
#
# PCOD9359836 Si02
#       6
#     8   8   8   8   8   8
#     4   9  17  31  49  70  98 129 164 204 247 295
#     4  10  19  33  54  77 102 134 171 207 250 304
#     4  10  18  30  51  76  98 126 167 204 241 294
#     4   9  18  32  50  72  98 131 169 212 258 300
#     4  11  21  35  54  76 104 133 167 210 254 298
#     4   9  19  35  52  73 104 137 168 207 254 303
#
# _framework density 17.602118000000001
#
# number of rings (size 3 to 8) (size 9 to 14) (size 15 to 20)
#    0.000    2.333    0.000    7.000    0.000    4.667 
#    0.000    1.667    0.000    8.000    0.000    0.000 
#    0.000    0.000    0.000    0.000    0.000    0.000 
#
# Total GULP energy -133735.561221 kJ/mol
# GULP energy per Si atom -5572.315051 kJ/mol
# Density = 1.756205 g / cm^3
# Si number density = 17.602118 Si / 1000 Ang^3
#
#
#
# Elastic Constant Matrix: (Units=GPa)
#
#
# Indices 1 2 3 4 5 6 
#
# 1 74.0760 15.8968 35.6343 0.0000 0.0000 0.0000
# 2 15.8968 30.0847 30.5510 0.0000 0.0000 0.0000
# 3 35.6343 30.5510 138.7814 0.0000 0.0000 0.0000
# 4 0.0000 0.0000 0.0000 25.0278 0.0000 0.0000
# 5 0.0000 0.0000 0.0000 0.0000 17.1274 0.0000
# 6 0.0000 0.0000 0.0000 0.0000 0.0000 24.3058
#
#
#
# Elastic Compliance Matrix: (Units=1/GPa)
#
#
# Indices 1 2 3 4 5 6 
#
# 1 0.016090 -0.005547 -0.002910 0.000000 0.000000 0.000000
# 2 -0.005547 0.044722 -0.008421 0.000000 0.000000 0.000000
# 3 -0.002910 -0.008421 0.009807 0.000000 0.000000 0.000000
# 4 0.000000 0.000000 0.000000 0.039956 0.000000 0.000000
# 5 0.000000 0.000000 0.000000 0.000000 0.058386 0.000000
# 6 0.000000 0.000000 0.000000 0.000000 0.000000 0.041142
#
#
# Mechanical properties :
#
#
# Convention : Reuss Voigt Hill
#
# Bulk Modulus (GPa) = 27.12759 45.23405 36.18082
# Shear Modulus (GPa) = 19.52018 24.01617 21.76818
#
# Velocity S-wave (km/s) = 3.33373 3.69777 3.52046
# Velocity P-wave (km/s) = 5.50121 6.63214 6.09297
#
# Compressibility (1/GPa) = 0.03686284
#
# Stress axis : x y z
#
# Youngs Moduli (GPa) = 62.15049 22.36060 101.97233
#
# Poissons Ratio (x) = 0.12402 0.29678
# Poissons Ratio (y) = 0.34472 0.85868
# Poissons Ratio (z) = 0.18088 0.18829
#
# Static dielectric constant tensor:
#      x y z
#    x 1.620190 0.000000 0.000000 
#    y 0.000000 1.601050 0.000000 
#    z 0.000000 0.000000 1.632020 
# 
# From -- ./inp_files/12845.got.cif
#   From: 2010.05.17/outbox.cif.g08.bks.cpg/sg39_7_cif.got.tgz:12845.got - 2010.06.03 18:22:40.
