data_PCOD9359557
_publ_section_title
;
Structure prediction by ZEFSAII (Michael W. Deem and Ramdas Pophale) SiO2 
 PCOD9359557
Probable space group: A M M 2
;
_chemical_formula_sum "Si O2"
_cell_formula_units_Z 32
_cell_length_a 15.000000
_cell_length_b 18.000000
_cell_length_c 12.000000
_cell_angle_alpha 90.000000
_cell_angle_beta 90.000000
_cell_angle_gamma 90.000000
_cell_volume 3240.000000
_symmetry_space_group_name_H-M "A M M 2"
_symmetry_group_IT_number 38
_symmetry_cell_setting 'orthorhombic'
loop_
_space_group_symop_operation_xyz
x,y,z
-x,-y,z
-x,y,z
x,-y,z
x,1/2+y,1/2+z
-x,1/2-y,1/2+z
-x,1/2+y,1/2+z
x,1/2-y,1/2+z
loop_
_atom_site_type_symbol
_atom_site_label
_atom_site_fract_x
_atom_site_fract_y
_atom_site_fract_z
Si Si1 0.903599 0.154203 0.036240
Si Si2 0.395477 0.212914 0.492279
Si Si3 0.594146 0.586810 0.585095
Si Si4 0.096894 0.830302 0.515782
Si Si5 0.644109 0.412904 0.823969
Si Si6 0.721804 0.650447 0.409394
Si Si7 0.172917 0.158115 0.270841
Si Si8 0.745440 0.814574 0.676653
O O1 0.910899 0.243182 0.042786
O O2 0.877084 0.129186 0.160701
O O3 0.000000 0.123733 0.002497
O O4 0.823482 0.145885 0.949905
O O5 0.500000 0.231719 0.501887
O O6 0.388325 0.135771 0.426379
O O7 0.332351 0.271804 0.426476
O O8 0.342719 0.206501 0.608325
O O9 0.500000 0.609176 0.534525
O O10 0.593378 0.500000 0.606021
O O11 0.603765 0.619057 0.708417
O O12 0.670997 0.601694 0.499232
O O13 0.116200 0.834740 0.383682
O O14 0.182295 0.850626 0.591891
O O15 0.000000 0.865199 0.541427
O O16 0.625285 0.500000 0.838994
O O17 0.748180 0.397431 0.803957
O O18 0.720541 0.633307 0.279696
O O19 0.212929 0.238924 0.232444
#
# Coordination Sequence:
#
# PCOD9359557 Si02
#       8
#     8   8   8   8   8   8   8   8
#     4  10  19  30  53  86 119 149 183 234 288 340
#     4  12  24  38  56  83 118 154 195 245 296 350
#     4  10  22  40  62  87 114 151 197 243 294 349
#     4  10  19  32  55  84 117 152 186 235 291 342
#     4  11  21  38  63  85 115 156 196 247 300 351
#     4  12  21  37  59  85 121 153 195 236 290 349
#     4  11  17  36  56  83 119 145 192 238 289 347
#     4  11  20  36  54  84 118 150 189 235 288 348
#
# _framework density 9.8765429999999999
#
# number of rings (size 3 to 8) (size 9 to 14) (size 15 to 20)
#    0.000    1.125    7.500    1.125    0.000    2.750 
#    0.000    0.625    0.000    2.625    0.000    0.000 
#    0.000    0.000    0.000    0.000    0.000    0.000 
#
# Total GULP energy -178206.367749 kJ/mol
# GULP energy per Si atom -5568.948992 kJ/mol
# Density = 0.985406 g / cm^3
# Si number density = 9.876543 Si / 1000 Ang^3
#
#
#
# Elastic Constant Matrix: (Units=GPa)
#
#
# Indices 1 2 3 4 5 6 
#
# 1 143.3122 8.8342 47.9389 0.0000 0.0000 0.0000
# 2 8.8342 33.8394 16.2247 0.0000 0.0000 0.0000
# 3 47.9389 16.2247 116.0781 0.0000 0.0000 0.0000
# 4 0.0000 0.0000 0.0000 15.8438 0.0000 0.0000
# 5 0.0000 0.0000 0.0000 0.0000 18.6508 0.0000
# 6 0.0000 0.0000 0.0000 0.0000 0.0000 7.9093
#
#
#
# Elastic Compliance Matrix: (Units=1/GPa)
#
#
# Indices 1 2 3 4 5 6 
#
# 1 0.008106 -0.000548 -0.003271 0.000000 0.000000 0.000000
# 2 -0.000548 0.031711 -0.004206 0.000000 0.000000 0.000000
# 3 -0.003271 -0.004206 0.010554 0.000000 0.000000 0.000000
# 4 0.000000 0.000000 0.000000 0.063116 0.000000 0.000000
# 5 0.000000 0.000000 0.000000 0.000000 0.053617 0.000000
# 6 0.000000 0.000000 0.000000 0.000000 0.000000 0.126434
#
#
# Mechanical properties :
#
#
# Convention : Reuss Voigt Hill
#
# Bulk Modulus (GPa) = 29.13705 48.80282 38.96993
# Shear Modulus (GPa) = 15.57499 23.16289 19.36894
#
# Velocity S-wave (km/s) = 2.81104 3.42807 3.13477
# Velocity P-wave (km/s) = 5.03176 6.35838 5.73357
#
# Compressibility (1/GPa) = 0.03432057
#
# Stress axis : x y z
#
# Youngs Moduli (GPa) = 123.36986 31.53474 94.75359
#
# Poissons Ratio (x) = 0.01727 0.30994
# Poissons Ratio (y) = 0.06758 0.39855
# Poissons Ratio (z) = 0.40354 0.13264
#
# Static dielectric constant tensor:
#      x y z
#    x 1.521590 0.000000 0.000000 
#    y 0.000000 1.724550 0.000000 
#    z 0.000000 0.000000 1.715980 
# 
# From -- ./inp_files/10254.got.cif
#   From: 2010.05.17/outbox.ucp.g08.bks.cvg/sg38_6_cif.got.tgz:10254.got - 2010.06.11 10:39:43.
