data_PCOD9359231
_publ_section_title
;
Structure prediction by ZEFSAII (Michael W. Deem and Ramdas Pophale) SiO2 
 PCOD9359231
Probable space group: A M M 2
;
_chemical_formula_sum "Si O2"
_cell_formula_units_Z 48
_cell_length_a 14.334984
_cell_length_b 17.688852
_cell_length_c 9.963205
_cell_angle_alpha 90.000000
_cell_angle_beta 90.000000
_cell_angle_gamma 90.000000
_cell_volume 2526.364018
_symmetry_space_group_name_H-M "A M M 2"
_symmetry_group_IT_number 38
_symmetry_cell_setting 'orthorhombic'
loop_
_space_group_symop_operation_xyz
x,y,z
-x,-y,z
-x,y,z
x,-y,z
x,1/2+y,1/2+z
-x,1/2-y,1/2+z
-x,1/2+y,1/2+z
x,1/2-y,1/2+z
loop_
_atom_site_type_symbol
_atom_site_label
_atom_site_fract_x
_atom_site_fract_y
_atom_site_fract_z
Si Si1 0.607033 0.158009 0.482500
Si Si2 0.393808 0.791981 0.183799
Si Si3 0.206776 0.636052 0.637917
Si Si4 0.200590 0.415717 0.937626
Si Si5 0.888684 0.300058 0.138902
Si Si6 0.110996 0.084116 0.872601
O O1 0.500000 0.129194 0.484458
O O2 0.616661 0.207814 0.345420
O O3 0.621074 0.211945 0.610805
O O4 0.690159 0.098113 0.472371
O O5 0.500000 0.814886 0.154013
O O6 0.317323 0.849649 0.128693
O O7 0.188145 0.595226 0.778585
O O8 0.160685 0.719376 0.642000
O O9 0.165195 0.594100 0.510776
O O10 0.171423 0.500000 0.977122
O O11 0.144341 0.350198 0.013328
O O12 0.863312 0.350031 0.269087
O O13 0.000000 0.289931 0.135281
O O14 0.000000 0.090736 0.897867
O O15 0.128050 0.000000 0.816507
#
# Coordination Sequence:
#
# PCOD9359231 Si02
#       6
#     8   8   8   8   8   8
#     4   9  18  34  55  82 113 145 182 225 273 326
#     4   9  18  32  54  84 112 141 180 228 276 322
#     4  11  21  36  60  85 111 143 189 234 269 325
#     4  11  23  37  56  86 118 148 182 227 285 334
#     4  11  23  39  58  81 110 146 189 235 277 327
#     4  10  22  39  57  79 111 150 185 224 281 336
#
# _framework density 18.999638000000001
#
# number of rings (size 3 to 8) (size 9 to 14) (size 15 to 20)
#    0.000    1.833    1.667    2.500    2.333    4.000 
#    0.000    0.000    0.000    1.500    0.000    0.000 
#    0.000    0.000    0.000    0.000    0.000    0.000 
#
# Total GULP energy -133987.708290 kJ/mol
# GULP energy per Si atom -5582.821179 kJ/mol
# Density = 1.895639 g / cm^3
# Si number density = 18.999638 Si / 1000 Ang^3
#
#
#
# Elastic Constant Matrix: (Units=GPa)
#
#
# Indices 1 2 3 4 5 6 
#
# 1 45.0185 17.0529 18.2663 0.0000 0.0000 0.0000
# 2 17.0529 75.1671 9.5261 0.0000 0.0000 0.0000
# 3 18.2663 9.5261 50.5527 0.0000 0.0000 0.0000
# 4 0.0000 0.0000 0.0000 26.5750 0.0000 0.0000
# 5 0.0000 0.0000 0.0000 0.0000 28.0262 0.0000
# 6 0.0000 0.0000 0.0000 0.0000 0.0000 -57.4378
#
#
#
# Elastic Compliance Matrix: (Units=1/GPa)
#
#
# Indices 1 2 3 4 5 6 
#
# 1 0.027860 -0.005168 -0.009093 0.000000 0.000000 0.000000
# 2 -0.005168 0.014588 -0.000881 0.000000 0.000000 0.000000
# 3 -0.009093 -0.000881 0.023233 0.000000 0.000000 0.000000
# 4 0.000000 0.000000 0.000000 0.037629 0.000000 0.000000
# 5 0.000000 0.000000 0.000000 0.000000 0.035681 0.000000
# 6 0.000000 0.000000 0.000000 0.000000 0.000000 -0.017410
#
#
# Mechanical properties :
#
#
# Convention : Reuss Voigt Hill
#
# Bulk Modulus (GPa) = 28.25182 28.93655 28.59418
# Shear Modulus (GPa) = 30.55019 7.82555 19.18787
#
# Velocity S-wave (km/s) = 4.01426 2.03168 3.18135
# Velocity P-wave (km/s) = 6.03222 4.55706 5.34576
#
# Compressibility (1/GPa) = 0.03539595
#
# Stress axis : x y z
#
# Youngs Moduli (GPa) = 35.89343 68.55002 43.04219
#
# Poissons Ratio (x) = 0.35428 0.39138
# Poissons Ratio (y) = 0.18550 0.03794
# Poissons Ratio (z) = 0.32638 0.06043
#
# Static dielectric constant tensor:
#      x y z
#    x 1.667410 0.000000 0.000000 
#    y 0.000000 1.618610 0.000000 
#    z 0.000000 0.000000 1.659070 
# 
# From -- ./inp_files/5455.got.cif
#   From: 2010.05.17/outbox.cif.g08.bks.cpg/sg38_3_cif.got.tgz:5455.got - 2010.06.03 18:07:57.
