data_PCOD9359965
_publ_section_title
;
Structure prediction by ZEFSAII (Michael W. Deem and Ramdas Pophale) SiO2 
 PCOD9359965
Probable space group: A B M 2
;
_chemical_formula_sum "Si O2"
_cell_formula_units_Z 60
_cell_length_a 9.345621
_cell_length_b 14.425752
_cell_length_c 22.204298
_cell_angle_alpha 90.000000
_cell_angle_beta 90.000000
_cell_angle_gamma 90.000000
_cell_volume 2993.530407
_symmetry_space_group_name_H-M "A B M 2"
_symmetry_group_IT_number 39
_symmetry_cell_setting 'orthorhombic'
loop_
_space_group_symop_operation_xyz
x,y,z
-x,-y,z
-x,1/2+y,z
x,1/2-y,z
x,1/2+y,1/2+z
-x,1/2-y,1/2+z
-x,y,1/2+z
x,-y,1/2+z
loop_
_atom_site_type_symbol
_atom_site_label
_atom_site_fract_x
_atom_site_fract_y
_atom_site_fract_z
Si Si1 0.464998 0.140026 0.373890
Si Si2 0.684322 0.859058 0.673648
Si Si3 0.862635 0.148101 0.297543
Si Si4 0.000000 0.000000 0.992522
Si Si5 0.256918 0.523530 0.399647
Si Si6 0.062940 0.857191 0.095038
Si Si7 0.909142 0.093705 0.714895
Si Si8 0.407059 0.361116 0.233825
O O1 0.453452 0.250000 0.386113
O O2 0.606853 0.094114 0.403254
O O3 0.469502 0.127131 0.301157
O O4 0.329218 0.077408 0.392359
O O5 0.669811 0.750000 0.659007
O O6 0.767620 0.860768 0.737292
O O7 0.789898 0.898731 0.623467
O O8 0.526212 0.893209 0.686541
O O9 0.831137 0.250000 0.324773
O O10 0.827436 0.064736 0.341956
O O11 0.023252 0.147358 0.271668
O O12 0.019655 0.913752 0.037169
O O13 0.859717 0.982282 0.952127
O O14 0.083286 0.750000 0.080273
O O15 0.950100 0.862640 0.150421
O O16 0.741152 0.086803 0.723987
O O17 0.000000 0.000000 0.715901
O O18 0.380961 0.250000 0.226752
#
# Coordination Sequence:
#
# PCOD9359965 Si02
#       8
#     8   8   8   4   8   8   8   8
#     4  10  22  42  64  94 138 175 208 265 336 404
#     4   8  16  34  64  95 126 160 200 248 321 401
#     4  10  19  35  59  95 134 172 205 255 334 404
#     4  12  28  46  64  94 124 176 242 284 312 376
#     4  11  24  41  64  92 131 173 228 276 319 389
#     4  10  22  45  66  88 127 172 216 274 331 381
#     4  11  21  35  61  97 137 167 205 266 330 400
#     4  10  18  33  60  99 134 163 201 247 321 412
#
# _framework density 20.043223999999999
#
# number of rings (size 3 to 8) (size 9 to 14) (size 15 to 20)
#    0.000    1.867    2.000    3.200    2.800    1.600 
#    0.000    2.667    0.000    1.600    0.000    0.000 
#    0.000    0.000    0.000    0.000    0.000    0.000 
#
# Total GULP energy -167459.214467 kJ/mol
# GULP energy per Si atom -5581.973816 kJ/mol
# Density = 1.999760 g / cm^3
# Si number density = 20.043224 Si / 1000 Ang^3
#
#
#
# Elastic Constant Matrix: (Units=GPa)
#
#
# Indices 1 2 3 4 5 6 
#
# 1 143.3265 44.7046 55.4507 0.0000 0.0000 0.0000
# 2 44.7046 126.8908 49.2130 0.0000 0.0000 0.0000
# 3 55.4507 49.2130 92.7292 0.0000 0.0000 0.0000
# 4 0.0000 0.0000 0.0000 5.1136 0.0000 0.0000
# 5 0.0000 0.0000 0.0000 0.0000 21.5198 0.0000
# 6 0.0000 0.0000 0.0000 0.0000 0.0000 24.9589
#
#
#
# Elastic Compliance Matrix: (Units=1/GPa)
#
#
# Indices 1 2 3 4 5 6 
#
# 1 0.009272 -0.001406 -0.004799 0.000000 0.000000 0.000000
# 2 -0.001406 0.010136 -0.004539 0.000000 0.000000 0.000000
# 3 -0.004799 -0.004539 0.016063 0.000000 0.000000 0.000000
# 4 0.000000 0.000000 0.000000 0.195557 0.000000 0.000000
# 5 0.000000 0.000000 0.000000 0.000000 0.046469 0.000000
# 6 0.000000 0.000000 0.000000 0.000000 0.000000 0.040066
#
#
# Mechanical properties :
#
#
# Convention : Reuss Voigt Hill
#
# Bulk Modulus (GPa) = 71.50746 73.52034 72.51390
# Shear Modulus (GPa) = 14.54715 24.55701 19.55208
#
# Velocity S-wave (km/s) = 2.69697 3.50409 3.12668
# Velocity P-wave (km/s) = 6.74183 7.28917 7.02084
#
# Compressibility (1/GPa) = 0.01398456
#
# Stress axis : x y z
#
# Youngs Moduli (GPa) = 107.85218 98.65445 62.25679
#
# Poissons Ratio (x) = 0.13866 0.29874
# Poissons Ratio (y) = 0.15159 0.28259
# Poissons Ratio (z) = 0.51753 0.44780
#
# Static dielectric constant tensor:
#      x y z
#    x 1.755750 0.000000 0.000000 
#    y 0.000000 1.817260 0.000000 
#    z 0.000000 0.000000 1.675870 
# 
# From -- ./inp_files/15634.got.cif
#   From: 2010.05.17/outbox.cif.g08.bks.cpg/sg39_8_cif.got.tgz:15634.got - 2010.06.03 18:22:40.
