data_PCOD9359858
_publ_section_title
;
Structure prediction by ZEFSAII (Michael W. Deem and Ramdas Pophale) SiO2 
 PCOD9359858
Probable space group: A B M 2
;
_chemical_formula_sum "Si O2"
_cell_formula_units_Z 56
_cell_length_a 16.028163
_cell_length_b 7.957253
_cell_length_c 21.070769
_cell_angle_alpha 90.000000
_cell_angle_beta 90.000000
_cell_angle_gamma 90.000000
_cell_volume 2687.368999
_symmetry_space_group_name_H-M "A B M 2"
_symmetry_group_IT_number 39
_symmetry_cell_setting 'orthorhombic'
loop_
_space_group_symop_operation_xyz
x,y,z
-x,-y,z
-x,1/2+y,z
x,1/2-y,z
x,1/2+y,1/2+z
-x,1/2-y,1/2+z
-x,y,1/2+z
x,-y,1/2+z
loop_
_atom_site_type_symbol
_atom_site_label
_atom_site_fract_x
_atom_site_fract_y
_atom_site_fract_z
Si Si1 0.772773 0.053011 0.990440
Si Si2 0.411343 0.049280 0.026200
Si Si3 0.770680 0.456529 0.851908
Si Si4 0.410057 0.452098 0.304612
Si Si5 0.631731 0.954812 0.165038
Si Si6 0.817665 0.549098 0.128802
Si Si7 0.092691 0.547643 0.749425
O O1 0.787416 0.250000 0.989138
O O2 0.797944 0.984022 0.921714
O O3 0.673178 0.022099 0.996622
O O4 0.817044 0.990744 0.054380
O O5 0.403430 0.250000 0.025787
O O6 0.410394 0.988429 0.099732
O O7 0.500000 0.000000 0.997115
O O8 0.770042 0.250000 0.851477
O O9 0.675267 0.510078 0.837998
O O10 0.835092 0.510667 0.797581
O O11 0.500000 0.500000 0.332008
O O12 0.406612 0.250000 0.303663
O O13 0.404756 0.514974 0.231483
O O14 0.628896 0.750000 0.166062
O O15 0.728218 0.005549 0.157221
O O16 0.818205 0.750000 0.132261
O O17 0.886922 0.485391 0.177879
O O18 0.097160 0.750000 0.749056
O O19 0.000000 0.500000 0.769227
#
# Coordination Sequence:
#
# PCOD9359858 Si02
#       7
#     8   8   8   8   8   8   8
#     4  10  20  34  54  79 108 146 187 227 275 330
#     4  10  19  31  48  73 105 145 191 236 282 329
#     4   9  19  37  58  78 110 153 187 222 275 336
#     4  10  18  31  50  74 104 142 185 225 269 318
#     4   8  14  27  49  72  98 134 176 221 269 319
#     4   9  17  34  58  81 106 142 179 220 277 335
#     4  10  20  38  64  89 112 142 183 229 282 337
#
# _framework density 20.838224
#
# number of rings (size 3 to 8) (size 9 to 14) (size 15 to 20)
#    0.000    2.571    1.429    2.143    0.000    1.143 
#    0.000    8.571    0.000    3.429    0.000    0.000 
#    0.000    0.000    0.000    0.000    0.000    0.000 
#
# Total GULP energy -156154.971778 kJ/mol
# GULP energy per Si atom -5576.963278 kJ/mol
# Density = 2.079080 g / cm^3
# Si number density = 20.838224 Si / 1000 Ang^3
#
#
#
# Elastic Constant Matrix: (Units=GPa)
#
#
# Indices 1 2 3 4 5 6 
#
# 1 101.0102 4.9176 56.1498 0.0000 0.0000 0.0000
# 2 4.9176 11.3484 8.0559 0.0000 0.0000 0.0000
# 3 56.1498 8.0559 138.6371 0.0000 0.0000 0.0000
# 4 0.0000 0.0000 0.0000 12.8234 0.0000 0.0000
# 5 0.0000 0.0000 0.0000 0.0000 -2.7407 0.0000
# 6 0.0000 0.0000 0.0000 0.0000 0.0000 21.5607
#
#
#
# Elastic Compliance Matrix: (Units=1/GPa)
#
#
# Indices 1 2 3 4 5 6 
#
# 1 0.012818 -0.001950 -0.005078 0.000000 0.000000 0.000000
# 2 -0.001950 0.092206 -0.004568 0.000000 0.000000 0.000000
# 3 -0.005078 -0.004568 0.009535 0.000000 0.000000 0.000000
# 4 0.000000 0.000000 0.000000 0.077983 0.000000 0.000000
# 5 0.000000 0.000000 0.000000 0.000000 -0.364866 0.000000
# 6 0.000000 0.000000 0.000000 0.000000 0.000000 0.046381
#
#
# Mechanical properties :
#
#
# Convention : Reuss Voigt Hill
#
# Bulk Modulus (GPa) = 10.94487 43.24914 27.09700
# Shear Modulus (GPa) = -69.15988 18.45349 -25.35319
#
# Velocity S-wave (km/s) = -5.76724 2.97906 -3.49186
# Velocity P-wave (km/s) = 6.25174 5.71252 1.79603
#
# Compressibility (1/GPa) = 0.09136697
#
# Stress axis : x y z
#
# Youngs Moduli (GPa) = 78.01712 10.84530 104.87459
#
# Poissons Ratio (x) = 0.02114 0.53256
# Poissons Ratio (y) = 0.15210 0.47909
# Poissons Ratio (z) = 0.39617 0.04954
#
# Static dielectric constant tensor:
#      x y z
#    x 1.725800 0.000000 0.000000 
#    y 0.000000 1.757250 0.000000 
#    z 0.000000 0.000000 1.792510 
# 
# From -- ./inp_files/14755.got.cif
#   From: 2010.05.17/outbox.cif.g08.bks.cpg/sg39_8_cif.got.tgz:14755.got - 2010.06.03 18:22:40.
