data_PCOD9359454
_publ_section_title
;
Structure prediction by ZEFSAII (Michael W. Deem and Ramdas Pophale) SiO2 
 PCOD9359454
Probable space group: A M M 2
;
_chemical_formula_sum "Si O2"
_cell_formula_units_Z 56
_cell_length_a 13.138333
_cell_length_b 21.684940
_cell_length_c 9.582520
_cell_angle_alpha 90.000000
_cell_angle_beta 90.000000
_cell_angle_gamma 90.000000
_cell_volume 2730.097922
_symmetry_space_group_name_H-M "A M M 2"
_symmetry_group_IT_number 38
_symmetry_cell_setting 'orthorhombic'
loop_
_space_group_symop_operation_xyz
x,y,z
-x,-y,z
-x,y,z
x,-y,z
x,1/2+y,1/2+z
-x,1/2-y,1/2+z
-x,1/2+y,1/2+z
x,1/2-y,1/2+z
loop_
_atom_site_type_symbol
_atom_site_label
_atom_site_fract_x
_atom_site_fract_y
_atom_site_fract_z
Si Si1 0.687087 0.067132 0.799110
Si Si2 0.116026 0.427920 0.484489
Si Si3 0.880212 0.309076 0.681393
Si Si4 0.621495 0.431591 0.702383
Si Si5 0.612447 0.167847 0.978261
Si Si6 0.236012 0.724604 0.963625
Si Si7 0.377487 0.388847 0.017315
O O1 0.798648 0.080475 0.864277
O O2 0.611335 0.117588 0.857762
O O3 0.673666 0.069274 0.634763
O O4 0.656978 0.000000 0.851448
O O5 0.123013 0.500000 0.531048
O O6 0.129801 0.376017 0.604335
O O7 0.000000 0.419410 0.431314
O O8 0.821180 0.301729 0.827914
O O9 0.838970 0.255891 0.576580
O O10 0.000000 0.299930 0.706393
O O11 0.500000 0.434531 0.678975
O O12 0.663196 0.500000 0.669042
O O13 0.651917 0.372498 0.609825
O O14 0.637740 0.417031 0.863885
O O15 0.500000 0.192444 0.009313
O O16 0.688537 0.219537 0.927165
O O17 0.312450 0.673719 0.024917
O O18 0.500000 0.381639 0.036337
#
# Coordination Sequence:
#
# PCOD9359454 Si02
#       7
#     8   8   8   8   8   8   8
#     4  11  22  38  62  93 125 163 210 262 315 378
#     4   9  20  42  70  96 122 158 208 269 332 383
#     4  11  24  44  70  96 125 160 206 267 327 381
#     4   9  19  37  60  86 117 161 216 265 309 354
#     4  11  22  38  61  89 123 169 216 264 305 364
#     4  12  24  42  62  93 127 168 216 254 308 384
#     4  11  24  40  59  88 132 179 211 255 313 372
#
# _framework density 20.512086
#
# number of rings (size 3 to 8) (size 9 to 14) (size 15 to 20)
#    0.000    1.429    1.429    3.857    0.000    2.286 
#    0.000    5.714    0.000    0.000    0.000    0.000 
#    0.000    0.000    0.000    0.000    0.000    0.000 
#
# Total GULP energy -156254.678683 kJ/mol
# GULP energy per Si atom -5580.524239 kJ/mol
# Density = 2.046540 g / cm^3
# Si number density = 20.512086 Si / 1000 Ang^3
#
#
#
# Elastic Constant Matrix: (Units=GPa)
#
#
# Indices 1 2 3 4 5 6 
#
# 1 145.6975 45.6628 34.3226 0.0000 0.0000 0.0000
# 2 45.6628 112.1483 28.9154 0.0000 0.0000 0.0000
# 3 34.3226 28.9154 95.0906 0.0000 0.0000 0.0000
# 4 0.0000 0.0000 0.0000 16.8216 0.0000 0.0000
# 5 0.0000 0.0000 0.0000 0.0000 34.5728 0.0000
# 6 0.0000 0.0000 0.0000 0.0000 0.0000 46.4714
#
#
#
# Elastic Compliance Matrix: (Units=1/GPa)
#
#
# Indices 1 2 3 4 5 6 
#
# 1 0.008244 -0.002810 -0.002121 0.000000 0.000000 0.000000
# 2 -0.002810 0.010633 -0.002219 0.000000 0.000000 0.000000
# 3 -0.002121 -0.002219 0.011957 0.000000 0.000000 0.000000
# 4 0.000000 0.000000 0.000000 0.059447 0.000000 0.000000
# 5 0.000000 0.000000 0.000000 0.000000 0.028924 0.000000
# 6 0.000000 0.000000 0.000000 0.000000 0.000000 0.021519
#
#
# Mechanical properties :
#
#
# Convention : Reuss Voigt Hill
#
# Bulk Modulus (GPa) = 60.48354 63.41536 61.94945
# Shear Modulus (GPa) = 31.14583 35.84221 33.49402
#
# Velocity S-wave (km/s) = 3.90091 4.18469 4.04529
# Velocity P-wave (km/s) = 7.05976 7.37103 7.21707
#
# Compressibility (1/GPa) = 0.01653342
#
# Stress axis : x y z
#
# Youngs Moduli (GPa) = 121.30312 94.04744 83.63486
#
# Poissons Ratio (x) = 0.26424 0.17741
# Poissons Ratio (y) = 0.34082 0.18560
# Poissons Ratio (z) = 0.25731 0.20871
#
# Static dielectric constant tensor:
#      x y z
#    x 1.756230 0.000000 0.000000 
#    y 0.000000 1.776050 0.000000 
#    z 0.000000 0.000000 1.766280 
# 
# From -- ./inp_files/5708.got.cif
#   From: 2010.05.17/outbox.cif.g08.bks.cpg/sg38_3_cif.got.tgz:5708.got - 2010.06.03 18:07:57.
