data_PCOD9359885
_publ_section_title
;
Structure prediction by ZEFSAII (Michael W. Deem and Ramdas Pophale) SiO2 
 PCOD9359885
Probable space group: A B M 2
;
_chemical_formula_sum "Si O2"
_cell_formula_units_Z 64
_cell_length_a 14.937419
_cell_length_b 8.680018
_cell_length_c 25.432241
_cell_angle_alpha 90.000000
_cell_angle_beta 90.000000
_cell_angle_gamma 90.000000
_cell_volume 3297.469745
_symmetry_space_group_name_H-M "A B M 2"
_symmetry_group_IT_number 39
_symmetry_cell_setting 'orthorhombic'
loop_
_space_group_symop_operation_xyz
x,y,z
-x,-y,z
-x,1/2+y,z
x,1/2-y,z
x,1/2+y,1/2+z
-x,1/2-y,1/2+z
-x,y,1/2+z
x,-y,1/2+z
loop_
_atom_site_type_symbol
_atom_site_label
_atom_site_fract_x
_atom_site_fract_y
_atom_site_fract_z
Si Si1 0.101546 0.933993 0.510610
Si Si2 0.398719 0.434915 0.506357
Si Si3 0.750980 0.064119 0.203693
Si Si4 0.399572 0.433155 0.897602
Si Si5 0.099906 0.434492 0.619468
Si Si6 0.745483 0.066076 0.820299
Si Si7 0.900005 0.434349 0.901287
Si Si8 0.600047 0.564194 0.622423
O O1 0.100561 0.750000 0.510673
O O2 0.139741 0.997762 0.565199
O O3 0.138708 0.997239 0.455756
O O4 0.000000 0.000000 0.510769
O O5 0.500000 0.500000 0.507440
O O6 0.399127 0.250000 0.501553
O O7 0.359913 0.505450 0.453101
O O8 0.362990 0.477620 0.564167
O O9 0.747585 0.250000 0.209115
O O10 0.837915 0.026318 0.168753
O O11 0.665602 0.014439 0.168859
O O12 0.752060 0.989590 0.260674
O O13 0.500000 0.500000 0.892069
O O14 0.404765 0.250000 0.899514
O O15 0.337446 0.488902 0.850333
O O16 0.095679 0.250000 0.614117
O O17 0.000000 0.500000 0.626340
O O18 0.734648 0.250000 0.822275
O O19 0.834847 0.026401 0.853272
O O20 0.905685 0.250000 0.906611
O O21 0.000000 0.500000 0.893495
O O22 0.500000 0.500000 0.628303
O O23 0.595335 0.750000 0.623224
#
# Coordination Sequence:
#
# PCOD9359885 Si02
#       8
#     8   8   8   8   8   8   8   8
#     4  10  18  31  55  86 117 147 183 227 279 339
#     4   9  16  30  54  84 116 146 181 224 275 336
#     4  10  23  41  58  79 110 149 192 235 280 333
#     4  11  22  38  61  87 117 151 188 232 283 337
#     4  10  20  36  58  83 114 151 188 231 284 337
#     4  11  25  42  59  82 112 149 194 240 284 335
#     4  10  21  38  60  85 115 149 186 231 285 342
#     4   9  19  36  58  84 113 146 181 222 275 331
#
# _framework density 19.408819999999999
#
# number of rings (size 3 to 8) (size 9 to 14) (size 15 to 20)
#    0.000    2.000    0.000    6.000    0.000    6.000 
#    0.000    6.250    0.000    0.000    0.000    0.000 
#    0.000    0.000    0.000    0.000    0.000    0.000 
#
# Total GULP energy -178703.791074 kJ/mol
# GULP energy per Si atom -5584.493471 kJ/mol
# Density = 1.936464 g / cm^3
# Si number density = 19.408820 Si / 1000 Ang^3
#
#
#
# Elastic Constant Matrix: (Units=GPa)
#
#
# Indices 1 2 3 4 5 6 
#
# 1 106.8807 47.4092 81.6067 0.0000 0.0000 0.0000
# 2 47.4092 91.7325 78.6074 0.0000 0.0000 0.0000
# 3 81.6067 78.6074 212.6959 0.0000 0.0000 0.0000
# 4 0.0000 0.0000 0.0000 44.2695 0.0000 0.0000
# 5 0.0000 0.0000 0.0000 0.0000 31.8885 0.0000
# 6 0.0000 0.0000 0.0000 0.0000 0.0000 18.1903
#
#
#
# Elastic Compliance Matrix: (Units=1/GPa)
#
#
# Indices 1 2 3 4 5 6 
#
# 1 0.014120 -0.003886 -0.003981 0.000000 0.000000 0.000000
# 2 -0.003886 0.017023 -0.004801 0.000000 0.000000 0.000000
# 3 -0.003981 -0.004801 0.008003 0.000000 0.000000 0.000000
# 4 0.000000 0.000000 0.000000 0.022589 0.000000 0.000000
# 5 0.000000 0.000000 0.000000 0.000000 0.031359 0.000000
# 6 0.000000 0.000000 0.000000 0.000000 0.000000 0.054974
#
#
# Mechanical properties :
#
#
# Convention : Reuss Voigt Hill
#
# Bulk Modulus (GPa) = 72.40586 91.83952 82.12269
# Shear Modulus (GPa) = 28.08873 32.44870 30.26871
#
# Velocity S-wave (km/s) = 3.80835 4.09327 3.95338
# Velocity P-wave (km/s) = 7.53158 8.35230 7.95254
#
# Compressibility (1/GPa) = 0.01381104
#
# Stress axis : x y z
#
# Youngs Moduli (GPa) = 70.82310 58.74376 124.94890
#
# Poissons Ratio (x) = 0.22826 0.49747
# Poissons Ratio (y) = 0.27519 0.59982
# Poissons Ratio (z) = 0.28197 0.28200
#
# Static dielectric constant tensor:
#      x y z
#    x 1.754740 0.000000 0.000000 
#    y 0.000000 1.650930 0.000000 
#    z 0.000000 0.000000 1.689140 
# 
# From -- ./inp_files/16213.got.cif
#   From: 2010.05.17/outbox.cif.g08.bks.cpg/sg39_9_cif.got.tgz:16213.got - 2010.06.03 18:22:40.
