data_PCOD9359445
_publ_section_title
;
Structure prediction by ZEFSAII (Michael W. Deem and Ramdas Pophale) SiO2 
 PCOD9359445
Probable space group: A M M 2
;
_chemical_formula_sum "Si O2"
_cell_formula_units_Z 58
_cell_length_a 7.483661
_cell_length_b 15.584180
_cell_length_c 24.449896
_cell_angle_alpha 90.000000
_cell_angle_beta 90.000000
_cell_angle_gamma 90.000000
_cell_volume 2851.511177
_symmetry_space_group_name_H-M "A M M 2"
_symmetry_group_IT_number 38
_symmetry_cell_setting 'orthorhombic'
loop_
_space_group_symop_operation_xyz
x,y,z
-x,-y,z
-x,y,z
x,-y,z
x,1/2+y,1/2+z
-x,1/2-y,1/2+z
-x,1/2+y,1/2+z
x,1/2-y,1/2+z
loop_
_atom_site_type_symbol
_atom_site_label
_atom_site_fract_x
_atom_site_fract_y
_atom_site_fract_z
Si Si1 0.215501 0.402977 0.507830
Si Si2 0.500000 0.500000 0.171005
Si Si3 0.204457 0.650944 0.180714
Si Si4 0.212164 0.903933 0.351969
Si Si5 0.290475 0.268895 0.069159
Si Si6 0.217588 0.597561 0.383301
Si Si7 0.715306 0.597912 0.977822
Si Si8 0.782298 0.764078 0.794406
O O1 0.275100 0.500000 0.521326
O O2 0.271108 0.327871 0.548153
O O3 0.274529 0.383194 0.445479
O O4 0.000000 0.404168 0.507119
O O5 0.342773 0.574608 0.171405
O O6 0.204431 0.710204 0.126985
O O7 0.263039 0.704726 0.234015
O O8 0.000000 0.620517 0.190464
O O9 0.235634 0.879223 0.415679
O O10 0.282918 0.829260 0.313138
O O11 0.000000 0.909315 0.342508
O O12 0.286974 0.000000 0.344964
O O13 0.500000 0.287428 0.075301
O O14 0.219909 0.333644 0.022132
O O15 0.271875 0.500000 0.369793
O O16 0.278555 0.665843 0.338927
O O17 0.000000 0.598625 0.383234
O O18 0.500000 0.596752 0.980362
O O19 0.777204 0.500000 0.988688
O O20 0.000000 0.762111 0.797047
#
# Coordination Sequence:
#
# PCOD9359445 Si02
#       8
#     8   2   8   8   8   8   8   8
#     4   9  18  34  58  86 115 153 200 250 305 365
#     4  12  26  48  64  90 126 156 202 264 288 352
#     4  11  25  43  66  90 120 163 204 244 304 362
#     4   9  17  32  55  84 116 149 192 247 297 351
#     4  11  22  37  58  82 121 160 201 255 301 353
#     4   8  14  26  49  80 111 145 192 246 299 360
#     4   9  19  33  52  79 116 156 192 237 301 361
#     4   9  18  33  55  83 115 154 197 241 296 356
#
# _framework density 20.340091999999999
#
# number of rings (size 3 to 8) (size 9 to 14) (size 15 to 20)
#    0.000    2.483    0.690    2.276    1.931    2.483 
#    1.241    0.690    1.517    2.483    0.000    0.000 
#    0.000    0.000    0.000    0.000    0.000    0.000 
#
# Total GULP energy -161663.708896 kJ/mol
# GULP energy per Si atom -5574.610652 kJ/mol
# Density = 2.029380 g / cm^3
# Si number density = 20.340092 Si / 1000 Ang^3
#
#
#
# Elastic Constant Matrix: (Units=GPa)
#
#
# Indices 1 2 3 4 5 6 
#
# 1 79.3041 17.1725 15.1890 0.0000 0.0000 0.0000
# 2 17.1725 145.3595 111.6519 0.0000 0.0000 0.0000
# 3 15.1890 111.6519 125.2758 0.0000 0.0000 0.0000
# 4 0.0000 0.0000 0.0000 -18.1404 0.0000 0.0000
# 5 0.0000 0.0000 0.0000 0.0000 36.7782 0.0000
# 6 0.0000 0.0000 0.0000 0.0000 0.0000 13.1038
#
#
#
# Elastic Compliance Matrix: (Units=1/GPa)
#
#
# Indices 1 2 3 4 5 6 
#
# 1 0.012958 -0.001027 -0.000655 0.000000 0.000000 0.000000
# 2 -0.001027 0.021892 -0.019386 0.000000 0.000000 0.000000
# 3 -0.000655 -0.019386 0.025340 0.000000 0.000000 0.000000
# 4 0.000000 0.000000 0.000000 -0.055126 0.000000 0.000000
# 5 0.000000 0.000000 0.000000 0.000000 0.027190 0.000000
# 6 0.000000 0.000000 0.000000 0.000000 0.000000 0.076314
#
#
# Mechanical properties :
#
#
# Convention : Reuss Voigt Hill
#
# Bulk Modulus (GPa) = 55.39857 70.88511 63.14184
# Shear Modulus (GPa) = 31.90343 20.07672 25.99007
#
# Velocity S-wave (km/s) = 3.96473 3.14515 3.57848
# Velocity P-wave (km/s) = 6.94651 6.93649 6.94150
#
# Compressibility (1/GPa) = 0.01805101
#
# Stress axis : x y z
#
# Youngs Moduli (GPa) = 77.17427 45.67932 39.46336
#
# Poissons Ratio (x) = 0.04693 0.02586
# Poissons Ratio (y) = 0.07929 0.76505
# Poissons Ratio (z) = 0.05058 0.88556
#
# Static dielectric constant tensor:
#      x y z
#    x 1.767110 0.000000 0.000000 
#    y 0.000000 1.716660 0.000000 
#    z 0.000000 0.000000 1.690250 
# 
# From -- ./inp_files/22050.got.cif
#   From: 2010.05.17/outbox.cif.g08.bks.cpg/sg38_12_cif.got.tgz:22050.got - 2010.06.03 18:07:57.
