data_PCOD9359908
_publ_section_title
;
Structure prediction by ZEFSAII (Michael W. Deem and Ramdas Pophale) SiO2 
 PCOD9359908
Probable space group: A B M 2
;
_chemical_formula_sum "Si O2"
_cell_formula_units_Z 64
_cell_length_a 14.344820
_cell_length_b 22.861829
_cell_length_c 9.806005
_cell_angle_alpha 90.000000
_cell_angle_beta 90.000000
_cell_angle_gamma 90.000000
_cell_volume 3215.867787
_symmetry_space_group_name_H-M "A B M 2"
_symmetry_group_IT_number 39
_symmetry_cell_setting 'orthorhombic'
loop_
_space_group_symop_operation_xyz
x,y,z
-x,-y,z
-x,1/2+y,z
x,1/2-y,z
x,1/2+y,1/2+z
-x,1/2-y,1/2+z
-x,y,1/2+z
x,-y,1/2+z
loop_
_atom_site_type_symbol
_atom_site_label
_atom_site_fract_x
_atom_site_fract_y
_atom_site_fract_z
Si Si1 0.593207 0.017144 0.460120
Si Si2 0.724177 0.638956 0.226620
Si Si3 0.297659 0.508798 0.722834
Si Si4 0.407230 0.849929 0.468195
Si Si5 0.719387 0.627521 0.735820
Si Si6 0.085830 0.820879 0.274958
Si Si7 0.380872 0.816662 0.993319
Si Si8 0.086735 0.819525 0.589977
O O1 0.677267 0.008787 0.563841
O O2 0.575614 0.083722 0.423057
O O3 0.500000 0.000000 0.536000
O O4 0.613199 0.982857 0.322257
O O5 0.752838 0.570577 0.245837
O O6 0.681910 0.666559 0.363204
O O7 0.814781 0.668698 0.162183
O O8 0.640660 0.646358 0.115953
O O9 0.265898 0.442675 0.759974
O O10 0.326058 0.834988 0.360434
O O11 0.507647 0.819866 0.465883
O O12 0.819894 0.654835 0.708494
O O13 0.648432 0.638258 0.611559
O O14 0.088025 0.750000 0.274738
O O15 0.083229 0.841475 0.433429
O O16 0.996909 0.840940 0.187017
O O17 0.359427 0.750000 0.035278
O O18 0.074766 0.750000 0.579864
#
# Coordination Sequence:
#
# PCOD9359908 Si02
#       8
#     8   8   8   8   8   8   8   8
#     4  10  18  32  52  80 111 156 207 251 285 334
#     4  11  22  41  61  90 125 163 202 255 306 360
#     4  10  21  34  59  84 118 158 202 246 298 362
#     4  10  22  38  57  82 121 166 209 243 295 354
#     4  11  22  41  61  90 125 163 202 255 306 360
#     4  10  22  41  66  91 116 151 199 252 307 366
#     4  12  26  38  57  92 131 168 207 250 305 370
#     4  10  22  41  66  91 116 151 199 252 307 366
#
# _framework density 19.901316000000001
#
# number of rings (size 3 to 8) (size 9 to 14) (size 15 to 20)
#    0.000    1.500    1.250    4.125    1.750    7.000 
#    0.000    0.625    0.000    1.500    0.000    0.000 
#    0.000    0.000    0.000    0.000    0.000    0.000 
#
# Total GULP energy -178275.488239 kJ/mol
# GULP energy per Si atom -5571.109007 kJ/mol
# Density = 1.985602 g / cm^3
# Si number density = 19.901316 Si / 1000 Ang^3
#
#
#
# Elastic Constant Matrix: (Units=GPa)
#
#
# Indices 1 2 3 4 5 6 
#
# 1 83.6377 5.9138 2.0084 0.0000 0.0000 0.0000
# 2 5.9138 39.2854 -0.8221 0.0000 0.0000 0.0000
# 3 2.0084 -0.8221 52.0760 0.0000 0.0000 0.0000
# 4 0.0000 0.0000 0.0000 19.9518 0.0000 0.0000
# 5 0.0000 0.0000 0.0000 0.0000 26.6598 0.0000
# 6 0.0000 0.0000 0.0000 0.0000 0.0000 0.7677
#
#
#
# Elastic Compliance Matrix: (Units=1/GPa)
#
#
# Indices 1 2 3 4 5 6 
#
# 1 0.012098 -0.001831 -0.000495 0.000000 0.000000 0.000000
# 2 -0.001831 0.025740 0.000477 0.000000 0.000000 0.000000
# 3 -0.000495 0.000477 0.019229 0.000000 0.000000 0.000000
# 4 0.000000 0.000000 0.000000 0.050121 0.000000 0.000000
# 5 0.000000 0.000000 0.000000 0.000000 0.037510 0.000000
# 6 0.000000 0.000000 0.000000 0.000000 0.000000 1.302540
#
#
# Mechanical properties :
#
#
# Convention : Reuss Voigt Hill
#
# Bulk Modulus (GPa) = 18.73798 21.02213 19.88006
# Shear Modulus (GPa) = 3.40431 20.66914 12.03672
#
# Velocity S-wave (km/s) = 1.30932 3.22620 2.46198
# Velocity P-wave (km/s) = 3.42369 4.94610 4.25356
#
# Compressibility (1/GPa) = 0.05336754
#
# Stress axis : x y z
#
# Youngs Moduli (GPa) = 82.66013 38.84938 52.00386
#
# Poissons Ratio (x) = 0.07115 0.02577
# Poissons Ratio (y) = 0.15139 -0.02480
# Poissons Ratio (z) = 0.04096 -0.01853
#
# Static dielectric constant tensor:
#      x y z
#    x 1.762910 0.000000 0.000000 
#    y 0.000000 1.739520 0.000000 
#    z 0.000000 0.000000 1.738440 
# 
# From -- ./inp_files/3526.got.cif
#   From: 2010.05.17/outbox.cif.g08.bks.cpg/sg39_2_cif.got.tgz:3526.got - 2010.06.03 18:22:40.
