data_PCOD9359011
_publ_section_title
;
Structure prediction by ZEFSAII (Michael W. Deem and Ramdas Pophale) SiO2 
 PCOD9359011
Probable space group: A M M 2
;
_chemical_formula_sum "Si O2"
_cell_formula_units_Z 56
_cell_length_a 7.697320
_cell_length_b 21.200637
_cell_length_c 14.411164
_cell_angle_alpha 90.000000
_cell_angle_beta 90.000000
_cell_angle_gamma 90.000000
_cell_volume 2351.730287
_symmetry_space_group_name_H-M "A M M 2"
_symmetry_group_IT_number 38
_symmetry_cell_setting 'orthorhombic'
loop_
_space_group_symop_operation_xyz
x,y,z
-x,-y,z
-x,y,z
x,-y,z
x,1/2+y,1/2+z
-x,1/2-y,1/2+z
-x,1/2+y,1/2+z
x,1/2-y,1/2+z
loop_
_atom_site_type_symbol
_atom_site_label
_atom_site_fract_x
_atom_site_fract_y
_atom_site_fract_z
Si Si1 0.713383 0.070051 0.007770
Si Si2 0.194593 0.671447 0.970777
Si Si3 0.700177 0.661771 0.658793
Si Si4 0.297809 0.928791 0.328725
Si Si5 0.301194 0.096303 0.801436
Si Si6 0.797037 0.568311 0.098891
Si Si7 0.204932 0.761570 0.813292
O O1 0.500000 0.072734 0.010625
O O2 0.775819 0.131307 0.065262
O O3 0.762106 0.000000 0.043352
O O4 0.768768 0.075154 0.900947
O O5 0.188894 0.615154 0.895561
O O6 0.274652 0.726366 0.906618
O O7 0.000000 0.692323 0.998515
O O8 0.279149 0.633292 0.056132
O O9 0.500000 0.680038 0.641422
O O10 0.704465 0.601667 0.727552
O O11 0.776550 0.717692 0.721689
O O12 0.500000 0.926148 0.359597
O O13 0.238223 0.000000 0.328428
O O14 0.500000 0.075024 0.795861
O O15 0.210833 0.072030 0.709331
O O16 0.293291 0.171884 0.799970
O O17 0.722664 0.500000 0.068340
O O18 0.000000 0.568638 0.071852
O O19 0.000000 0.771396 0.827080
#
# Coordination Sequence:
#
# PCOD9359011 Si02
#       7
#     8   8   8   8   8   8   8
#     4   9  18  34  57  84 112 142 177 221 274 326
#     4   9  19  35  55  78 106 143 181 220 269 326
#     4   9  17  32  55  81 109 141 178 219 266 324
#     4   9  16  26  45  76 110 141 174 216 266 320
#     4  11  23  38  57  80 109 146 189 233 271 315
#     4  10  21  38  59  83 112 146 183 224 274 327
#     4  10  21  38  57  80 112 146 182 223 272 326
#
# _framework density 23.812252999999998
#
# number of rings (size 3 to 8) (size 9 to 14) (size 15 to 20)
#    0.000    2.429    0.000    2.143    0.000    5.714 
#    0.000    4.286    0.000    3.000    0.000    0.000 
#    0.000    0.000    0.000    0.000    0.000    0.000 
#
# Total GULP energy -156243.405151 kJ/mol
# GULP energy per Si atom -5580.121613 kJ/mol
# Density = 2.375806 g / cm^3
# Si number density = 23.812253 Si / 1000 Ang^3
#
#
#
# Elastic Constant Matrix: (Units=GPa)
#
#
# Indices 1 2 3 4 5 6 
#
# 1 47.4772 -0.9406 8.6400 0.0000 0.0000 0.0000
# 2 -0.9406 121.6583 19.1520 0.0000 0.0000 0.0000
# 3 8.6400 19.1520 96.1861 0.0000 0.0000 0.0000
# 4 0.0000 0.0000 0.0000 25.0138 0.0000 0.0000
# 5 0.0000 0.0000 0.0000 0.0000 22.7935 0.0000
# 6 0.0000 0.0000 0.0000 0.0000 0.0000 -18.5132
#
#
#
# Elastic Compliance Matrix: (Units=1/GPa)
#
#
# Indices 1 2 3 4 5 6 
#
# 1 0.021440 0.000484 -0.002022 0.000000 0.000000 0.000000
# 2 0.000484 0.008497 -0.001735 0.000000 0.000000 0.000000
# 3 -0.002022 -0.001735 0.010924 0.000000 0.000000 0.000000
# 4 0.000000 0.000000 0.000000 0.039978 0.000000 0.000000
# 5 0.000000 0.000000 0.000000 0.000000 0.043872 0.000000
# 6 0.000000 0.000000 0.000000 0.000000 0.000000 -0.054016
#
#
# Mechanical properties :
#
#
# Convention : Reuss Voigt Hill
#
# Bulk Modulus (GPa) = 29.14281 35.44716 32.29498
# Shear Modulus (GPa) = 56.38254 21.75685 39.06969
#
# Velocity S-wave (km/s) = 4.87128 3.02600 4.05500
# Velocity P-wave (km/s) = 6.62603 5.20839 5.95951
#
# Compressibility (1/GPa) = 0.03431378
#
# Stress axis : x y z
#
# Youngs Moduli (GPa) = 46.64102 117.69325 91.54413
#
# Poissons Ratio (x) = -0.05698 0.18513
# Poissons Ratio (y) = -0.02258 0.15886
# Poissons Ratio (z) = 0.09432 0.20423
#
# Static dielectric constant tensor:
#      x y z
#    x 1.918980 0.000000 0.000000 
#    y 0.000000 1.921710 0.000000 
#    z 0.000000 0.000000 1.943550 
# 
# From -- ./inp_files/12391.got.cif
#   From: 2010.05.17/outbox.cif.g08.bks.cpg/sg38_7_cif.got.tgz:12391.got - 2010.06.03 18:07:57.
