data_PCOD9359752
_publ_section_title
;
Structure prediction by ZEFSAII (Michael W. Deem and Ramdas Pophale) SiO2 
 PCOD9359752
Probable space group: A B M 2
;
_chemical_formula_sum "Si O2"
_cell_formula_units_Z 40
_cell_length_a 15.535356
_cell_length_b 8.739273
_cell_length_c 14.898628
_cell_angle_alpha 90.000000
_cell_angle_beta 90.000000
_cell_angle_gamma 90.000000
_cell_volume 2022.752714
_symmetry_space_group_name_H-M "A B M 2"
_symmetry_group_IT_number 39
_symmetry_cell_setting 'orthorhombic'
loop_
_space_group_symop_operation_xyz
x,y,z
-x,-y,z
-x,1/2+y,z
x,1/2-y,z
x,1/2+y,1/2+z
-x,1/2-y,1/2+z
-x,y,1/2+z
x,-y,1/2+z
loop_
_atom_site_type_symbol
_atom_site_label
_atom_site_fract_x
_atom_site_fract_y
_atom_site_fract_z
Si Si1 0.734013 0.934021 0.204340
Si Si2 0.277833 0.566368 0.493908
Si Si3 0.087246 0.432409 0.698637
Si Si4 0.404955 0.067577 0.350803
Si Si5 0.912730 0.933768 0.995881
O O1 0.746085 0.750000 0.208852
O O2 0.653376 0.978273 0.265357
O O3 0.821765 0.013293 0.237473
O O4 0.718551 0.973101 0.099712
O O5 0.286114 0.750000 0.486688
O O6 0.351857 0.487882 0.437221
O O7 0.181625 0.524587 0.459186
O O8 0.082091 0.250000 0.696556
O O9 0.089112 0.501013 0.597484
O O10 0.000000 0.500000 0.740558
O O11 0.410813 0.250000 0.351504
O O12 0.500000 0.000000 0.347729
O O13 0.918550 0.750000 0.998900
O O14 0.000000 0.000000 0.953788
#
# Coordination Sequence:
#
# PCOD9359752 Si02
#       5
#     8   8   8   8   8
#     4   9  20  39  59  82 113 149 185 226 275 329
#     4   9  19  37  59  83 114 148 185 227 273 324
#     4  10  17  27  49  80 113 149 186 225 268 321
#     4  11  24  41  61  83 110 142 182 232 284 335
#     4   9  16  28  49  78 113 150 185 224 268 321
#
# _framework density 19.775034000000002
#
# number of rings (size 3 to 8) (size 9 to 14) (size 15 to 20)
#    0.000    2.400    0.000    5.400    0.000    6.400 
#    0.000    3.000    0.000    2.400    0.000    0.000 
#    0.000    0.000    0.000    0.000    0.000    0.000 
#
# Total GULP energy -111625.479549 kJ/mol
# GULP energy per Si atom -5581.273977 kJ/mol
# Density = 1.973002 g / cm^3
# Si number density = 19.775034 Si / 1000 Ang^3
#
#
#
# Elastic Constant Matrix: (Units=GPa)
#
#
# Indices 1 2 3 4 5 6 
#
# 1 241.0968 72.9895 72.7533 0.0000 0.0000 0.0000
# 2 72.9895 58.1363 25.7864 0.0000 0.0000 0.0000
# 3 72.7533 25.7864 86.3117 0.0000 0.0000 0.0000
# 4 0.0000 0.0000 0.0000 12.1607 0.0000 0.0000
# 5 0.0000 0.0000 0.0000 0.0000 37.0091 0.0000
# 6 0.0000 0.0000 0.0000 0.0000 0.0000 39.6256
#
#
#
# Elastic Compliance Matrix: (Units=1/GPa)
#
#
# Indices 1 2 3 4 5 6 
#
# 1 0.007832 -0.007959 -0.004224 0.000000 0.000000 0.000000
# 2 -0.007959 0.027918 -0.001632 0.000000 0.000000 0.000000
# 3 -0.004224 -0.001632 0.015634 0.000000 0.000000 0.000000
# 4 0.000000 0.000000 0.000000 0.082232 0.000000 0.000000
# 5 0.000000 0.000000 0.000000 0.000000 0.027020 0.000000
# 6 0.000000 0.000000 0.000000 0.000000 0.000000 0.025236
#
#
# Mechanical properties :
#
#
# Convention : Reuss Voigt Hill
#
# Bulk Modulus (GPa) = 42.09858 80.95591 61.52725
# Shear Modulus (GPa) = 22.58164 32.02679 27.30422
#
# Velocity S-wave (km/s) = 3.38291 4.02874 3.71986
# Velocity P-wave (km/s) = 6.04927 7.91633 7.04493
#
# Compressibility (1/GPa) = 0.02375377
#
# Stress axis : x y z
#
# Youngs Moduli (GPa) = 127.68365 35.81973 63.96515
#
# Poissons Ratio (x) = 0.28510 0.27016
# Poissons Ratio (y) = 1.01629 0.10436
# Poissons Ratio (z) = 0.53929 0.05844
#
# Static dielectric constant tensor:
#      x y z
#    x 1.711920 0.000000 0.000000 
#    y 0.000000 1.656500 0.000000 
#    z 0.000000 0.000000 1.740160 
# 
# From -- ./inp_files/9625.got.cif
#   From: 2010.05.17/outbox.cif.g08.bks.cpg/sg39_5_cif.got.tgz:9625.got - 2010.06.03 18:22:40.
