data_PCOD9359473
_publ_section_title
;
Structure prediction by ZEFSAII (Michael W. Deem and Ramdas Pophale) SiO2 
 PCOD9359473
Probable space group: A M M 2
;
_chemical_formula_sum "Si O2"
_cell_formula_units_Z 48
_cell_length_a 19.411529
_cell_length_b 8.051605
_cell_length_c 14.941048
_cell_angle_alpha 90.000000
_cell_angle_beta 90.000000
_cell_angle_gamma 90.000000
_cell_volume 2335.195618
_symmetry_space_group_name_H-M "A M M 2"
_symmetry_group_IT_number 38
_symmetry_cell_setting 'orthorhombic'
loop_
_space_group_symop_operation_xyz
x,y,z
-x,-y,z
-x,y,z
x,-y,z
x,1/2+y,1/2+z
-x,1/2-y,1/2+z
-x,1/2+y,1/2+z
x,1/2-y,1/2+z
loop_
_atom_site_type_symbol
_atom_site_label
_atom_site_fract_x
_atom_site_fract_y
_atom_site_fract_z
Si Si1 0.579171 0.000000 0.289181
Si Si2 0.670676 0.189330 0.788765
Si Si3 0.825873 0.808726 0.848861
Si Si4 0.420613 0.000000 0.069827
Si Si5 0.921516 0.306598 0.692212
Si Si6 0.672463 0.191332 0.572051
Si Si7 0.829464 0.810222 0.537108
O O1 0.618954 0.833538 0.318534
O O2 0.580054 0.000000 0.179543
O O3 0.500000 0.000000 0.317878
O O4 0.748063 0.232817 0.819051
O O5 0.670238 0.187814 0.680379
O O6 0.654365 0.000000 0.818077
O O7 0.876720 0.786208 0.766272
O O8 0.825582 0.000000 0.877841
O O9 0.848009 0.701968 0.933515
O O10 0.380685 0.167490 0.041365
O O11 0.500000 0.000000 0.041201
O O12 0.922648 0.500000 0.717197
O O13 0.881516 0.288775 0.598926
O O14 0.000000 0.245906 0.685918
O O15 0.749859 0.244157 0.545806
O O16 0.660120 0.000000 0.541447
O O17 0.830927 0.000000 0.569243
#
# Coordination Sequence:
#
# PCOD9359473 Si02
#       7
#     4   8   8   4   8   8   8
#     4   9  18  30  52  86 118 159 200 249 319 372
#     4   9  18  33  55  84 117 156 204 258 307 367
#     4  11  23  39  63  94 122 162 213 258 308 368
#     4   9  18  30  52  86 118 159 200 249 319 372
#     4  11  25  43  65  93 127 164 201 252 318 374
#     4   9  18  33  55  84 117 156 204 258 307 367
#     4  11  23  39  63  94 122 162 213 258 308 368
#
# _framework density 20.555022999999998
#
# number of rings (size 3 to 8) (size 9 to 14) (size 15 to 20)
#    0.000    2.000    1.667    1.500    4.667    2.667 
#    0.000    3.333    0.000    1.000    0.000    0.000 
#    0.000    0.000    0.000    0.000    0.000    0.000 
#
# Total GULP energy -134088.221588 kJ/mol
# GULP energy per Si atom -5587.009233 kJ/mol
# Density = 2.050824 g / cm^3
# Si number density = 20.555023 Si / 1000 Ang^3
#
#
#
# Elastic Constant Matrix: (Units=GPa)
#
#
# Indices 1 2 3 4 5 6 
#
# 1 155.1387 73.0146 31.5071 0.0000 0.0000 0.0000
# 2 73.0146 82.1960 25.9111 0.0000 0.0000 0.0000
# 3 31.5071 25.9111 54.7499 0.0000 0.0000 0.0000
# 4 0.0000 0.0000 0.0000 20.9967 0.0000 0.0000
# 5 0.0000 0.0000 0.0000 0.0000 -15.6086 0.0000
# 6 0.0000 0.0000 0.0000 0.0000 0.0000 -2.4306
#
#
#
# Elastic Compliance Matrix: (Units=1/GPa)
#
#
# Indices 1 2 3 4 5 6 
#
# 1 0.011270 -0.009363 -0.002054 0.000000 0.000000 0.000000
# 2 -0.009363 0.022079 -0.005061 0.000000 0.000000 0.000000
# 3 -0.002054 -0.005061 0.021842 0.000000 0.000000 0.000000
# 4 0.000000 0.000000 0.000000 0.047627 0.000000 0.000000
# 5 0.000000 0.000000 0.000000 0.000000 -0.064067 0.000000
# 6 0.000000 0.000000 0.000000 0.000000 0.000000 -0.411416
#
#
# Mechanical properties :
#
#
# Convention : Reuss Voigt Hill
#
# Bulk Modulus (GPa) = 44.97574 61.43890 53.20732
# Shear Modulus (GPa) = -15.04675 11.36828 -1.83924
#
# Velocity S-wave (km/s) = -2.70853 2.35429 -0.94696
# Velocity P-wave (km/s) = 3.48521 6.11106 4.97452
#
# Compressibility (1/GPa) = 0.02223421
#
# Stress axis : x y z
#
# Youngs Moduli (GPa) = 88.73252 45.29216 45.78332
#
# Poissons Ratio (x) = 0.42409 0.09404
# Poissons Ratio (y) = 0.83084 0.23170
# Poissons Ratio (z) = 0.18227 0.22921
#
# Static dielectric constant tensor:
#      x y z
#    x 1.692680 0.000000 0.000000 
#    y 0.000000 1.720210 0.000000 
#    z 0.000000 0.000000 1.725310 
# 
# From -- ./inp_files/15021.got.cif
#   From: 2010.05.17/outbox.cif.g08.bks.cpg/sg38_8_cif.got.tgz:15021.got - 2010.06.03 18:07:57.
