data_PCOD9359232
_publ_section_title
;
Structure prediction by ZEFSAII (Michael W. Deem and Ramdas Pophale) SiO2 
 PCOD9359232
Probable space group: A M M 2
;
_chemical_formula_sum "Si O2"
_cell_formula_units_Z 58
_cell_length_a 13.276327
_cell_length_b 25.500984
_cell_length_c 10.022612
_cell_angle_alpha 90.000000
_cell_angle_beta 90.000000
_cell_angle_gamma 90.000000
_cell_volume 3393.249529
_symmetry_space_group_name_H-M "A M M 2"
_symmetry_group_IT_number 38
_symmetry_cell_setting 'orthorhombic'
loop_
_space_group_symop_operation_xyz
x,y,z
-x,-y,z
-x,y,z
x,-y,z
x,1/2+y,1/2+z
-x,1/2-y,1/2+z
-x,1/2+y,1/2+z
x,1/2-y,1/2+z
loop_
_atom_site_type_symbol
_atom_site_label
_atom_site_fract_x
_atom_site_fract_y
_atom_site_fract_z
Si Si1 0.119296 0.708880 0.919820
Si Si2 0.620388 0.153272 0.086026
Si Si3 0.109391 0.911162 0.485499
Si Si4 0.000000 0.000000 0.351142
Si Si5 0.383476 0.846491 0.772033
Si Si6 0.755392 0.751447 0.671650
Si Si7 0.378755 0.059196 0.278219
Si Si8 0.318014 0.560564 0.083971
O O1 0.174599 0.731646 0.791328
O O2 0.000000 0.720130 0.918917
O O3 0.131821 0.645931 0.928340
O O4 0.174334 0.732471 0.048551
O O5 0.500000 0.160537 0.106845
O O6 0.636095 0.143714 0.928635
O O7 0.680250 0.204920 0.129263
O O8 0.654859 0.103942 0.175741
O O9 0.086916 0.953833 0.370913
O O10 0.197828 0.930665 0.580035
O O11 0.000000 0.908473 0.557386
O O12 0.500000 0.829721 0.758359
O O13 0.310065 0.801334 0.718194
O O14 0.366520 0.898801 0.685658
O O15 0.500000 0.058025 0.270707
O O16 0.350757 0.071764 0.431122
O O17 0.342264 0.000000 0.248258
O O18 0.342947 0.500000 0.112939
#
# Coordination Sequence:
#
# PCOD9359232 Si02
#       8
#     8   8   8   2   8   8   8   8
#     4  11  23  38  62  89 116 149 195 239 293 355
#     4  10  22  39  57  79 113 159 200 235 292 357
#     4   9  17  32  54  84 113 145 186 231 284 345
#     4   8  16  32  56  80 122 142 184 236 290 338
#     4  11  24  38  55  84 118 156 200 243 296 356
#     4  12  22  41  58  84 119 153 192 247 297 345
#     4   9  19  34  55  82 113 150 194 240 291 349
#     4  11  19  34  58  88 117 149 192 250 298 344
#
# _framework density 17.092758
#
# number of rings (size 3 to 8) (size 9 to 14) (size 15 to 20)
#    0.414    1.241    3.448    2.069    0.000    1.379 
#    0.000    1.379    0.000    0.000    0.000    0.000 
#    0.000    1.103    0.000    0.000    0.000    0.000 
#
# Total GULP energy -161450.230133 kJ/mol
# GULP energy per Si atom -5567.249315 kJ/mol
# Density = 1.705385 g / cm^3
# Si number density = 17.092758 Si / 1000 Ang^3
#
#
#
# Elastic Constant Matrix: (Units=GPa)
#
#
# Indices 1 2 3 4 5 6 
#
# 1 66.1307 51.7136 48.1933 0.0000 0.0000 0.0000
# 2 51.7136 145.2563 88.0967 0.0000 0.0000 0.0000
# 3 48.1933 88.0967 120.6843 0.0000 0.0000 0.0000
# 4 0.0000 0.0000 0.0000 8.7963 0.0000 0.0000
# 5 0.0000 0.0000 0.0000 0.0000 5.0327 0.0000
# 6 0.0000 0.0000 0.0000 0.0000 0.0000 32.0297
#
#
#
# Elastic Compliance Matrix: (Units=1/GPa)
#
#
# Indices 1 2 3 4 5 6 
#
# 1 0.022984 -0.004695 -0.005751 0.000000 0.000000 0.000000
# 2 -0.004695 0.013312 -0.007843 0.000000 0.000000 0.000000
# 3 -0.005751 -0.007843 0.016308 0.000000 0.000000 0.000000
# 4 0.000000 0.000000 0.000000 0.113684 0.000000 0.000000
# 5 0.000000 0.000000 0.000000 0.000000 0.198701 0.000000
# 6 0.000000 0.000000 0.000000 0.000000 0.000000 0.031221
#
#
# Mechanical properties :
#
#
# Convention : Reuss Voigt Hill
#
# Bulk Modulus (GPa) = 62.39654 78.67540 70.53597
# Shear Modulus (GPa) = 11.41210 18.77625 15.09417
#
# Velocity S-wave (km/s) = 2.58671 3.31795 2.97488
# Velocity P-wave (km/s) = 6.74576 7.79787 7.29082
#
# Compressibility (1/GPa) = 0.01602653
#
# Stress axis : x y z
#
# Youngs Moduli (GPa) = 43.50845 75.11746 61.31916
#
# Poissons Ratio (x) = 0.35264 0.35267
# Poissons Ratio (y) = 0.20425 0.48093
# Poissons Ratio (z) = 0.25024 0.58916
#
# Static dielectric constant tensor:
#      x y z
#    x 1.607210 0.000000 0.000000 
#    y 0.000000 1.574910 0.000000 
#    z 0.000000 0.000000 1.549620 
# 
# From -- ./inp_files/5870.got.cif
#   From: 2010.05.17/outbox.cif.g08.bks.cpg/sg38_3_cif.got.tgz:5870.got - 2010.06.03 18:07:57.
