data_PCOD9359980
_publ_section_title
;
Structure prediction by ZEFSAII (Michael W. Deem and Ramdas Pophale) SiO2 
 PCOD9359980
Probable space group: A B M 2
;
_chemical_formula_sum "Si O2"
_cell_formula_units_Z 40
_cell_length_a 4.924566
_cell_length_b 14.246136
_cell_length_c 23.577522
_cell_angle_alpha 90.000000
_cell_angle_beta 90.000000
_cell_angle_gamma 90.000000
_cell_volume 1654.105505
_symmetry_space_group_name_H-M "A B M 2"
_symmetry_group_IT_number 39
_symmetry_cell_setting 'orthorhombic'
loop_
_space_group_symop_operation_xyz
x,y,z
-x,-y,z
-x,1/2+y,z
x,1/2-y,z
x,1/2+y,1/2+z
-x,1/2-y,1/2+z
-x,y,1/2+z
x,-y,1/2+z
loop_
_atom_site_type_symbol
_atom_site_label
_atom_site_fract_x
_atom_site_fract_y
_atom_site_fract_z
Si Si1 0.461539 0.612515 0.303870
Si Si2 0.778146 0.250000 0.641205
Si Si3 0.278146 0.750000 0.065110
Si Si4 0.038461 0.612515 0.402446
Si Si5 0.973639 0.112736 0.735315
Si Si6 0.473639 0.387264 0.471001
O O1 0.500000 0.500000 0.310639
O O2 0.250000 0.640888 0.353158
O O3 0.767718 0.640477 0.287189
O O4 0.280524 0.640216 0.249635
O O5 0.471890 0.250000 0.619941
O O6 0.857318 0.160824 0.679785
O O7 0.971891 0.250000 0.586375
O O8 0.357319 0.839176 0.026530
O O9 0.219475 0.640216 0.456681
O O10 0.000000 0.500000 0.395676
O O11 0.732282 0.640477 0.419127
O O12 0.000000 0.000000 0.731622
O O13 0.500000 0.500000 0.474693
#
# Coordination Sequence:
#
# PCOD9359980 Si02
#       6
#     8   4   4   8   8   8
#     4  10  18  34  61  93 126 160 192 232 295 366
#     4  12  26  44  63  84 117 160 210 266 310 344
#     4  12  26  44  63  84 117 160 210 266 310 344
#     4  10  18  34  61  93 126 160 192 232 295 366
#     4  10  22  39  61  90 122 157 200 247 298 361
#     4  10  22  39  61  90 122 157 200 247 298 361
#
# _framework density 24.182251999999998
#
# number of rings (size 3 to 8) (size 9 to 14) (size 15 to 20)
#    0.000    1.600    0.000    7.200    0.000    1.600 
#    0.000    6.000    0.000    0.000    0.000   12.600 
#    0.000    0.000    0.000    0.000    0.000    0.000 
#
# Total GULP energy -111571.851618 kJ/mol
# GULP energy per Si atom -5578.592581 kJ/mol
# Density = 2.412721 g / cm^3
# Si number density = 24.182252 Si / 1000 Ang^3
#
#
#
# Elastic Constant Matrix: (Units=GPa)
#
#
# Indices 1 2 3 4 5 6 
#
# 1 168.7068 12.7452 23.3609 0.0000 0.0000 0.0000
# 2 12.7452 132.6777 21.3882 0.0000 0.0000 0.0000
# 3 23.3609 21.3882 88.9025 0.0000 0.0000 0.0000
# 4 0.0000 0.0000 0.0000 59.0993 0.0000 0.0000
# 5 0.0000 0.0000 0.0000 0.0000 66.6166 0.0000
# 6 0.0000 0.0000 0.0000 0.0000 0.0000 -1.9675
#
#
#
# Elastic Compliance Matrix: (Units=1/GPa)
#
#
# Indices 1 2 3 4 5 6 
#
# 1 0.006166 -0.000345 -0.001537 0.000000 0.000000 0.000000
# 2 -0.000345 0.007860 -0.001801 0.000000 0.000000 0.000000
# 3 -0.001537 -0.001801 0.012085 0.000000 0.000000 0.000000
# 4 0.000000 0.000000 0.000000 0.016921 0.000000 0.000000
# 5 0.000000 0.000000 0.000000 0.000000 0.015011 0.000000
# 6 0.000000 0.000000 0.000000 0.000000 0.000000 -0.508266
#
#
# Mechanical properties :
#
#
# Convention : Reuss Voigt Hill
#
# Bulk Modulus (GPa) = 53.34120 56.14172 54.74146
# Shear Modulus (GPa) = -11.45193 46.93588 17.74197
#
# Velocity S-wave (km/s) = -2.17852 4.41037 2.71159
# Velocity P-wave (km/s) = 3.97215 7.01439 5.69998
#
# Compressibility (1/GPa) = 0.01874723
#
# Stress axis : x y z
#
# Youngs Moduli (GPa) = 162.17017 127.21982 82.74417
#
# Poissons Ratio (x) = 0.04383 0.12722
# Poissons Ratio (y) = 0.05587 0.14898
# Poissons Ratio (z) = 0.24933 0.22906
#
# Static dielectric constant tensor:
#      x y z
#    x 1.845420 0.000000 0.000000 
#    y 0.000000 1.957710 0.000000 
#    z 0.000000 0.000000 1.969650 
# 
# From -- ./inp_files/13447.got.cif
#   From: 2010.05.17/outbox.cif.g08.bks.cpg/sg39_7_cif.got.tgz:13447.got - 2010.06.03 18:22:40.
