data_PCOD9359547
_publ_section_title
;
Structure prediction by ZEFSAII (Michael W. Deem and Ramdas Pophale) SiO2 
 PCOD9359547
Probable space group: A M M 2
;
_chemical_formula_sum "Si O2"
_cell_formula_units_Z 32
_cell_length_a 9.000000
_cell_length_b 30.000000
_cell_length_c 12.000000
_cell_angle_alpha 90.000000
_cell_angle_beta 90.000000
_cell_angle_gamma 90.000000
_cell_volume 3240.000000
_symmetry_space_group_name_H-M "A M M 2"
_symmetry_group_IT_number 38
_symmetry_cell_setting 'orthorhombic'
loop_
_space_group_symop_operation_xyz
x,y,z
-x,-y,z
-x,y,z
x,-y,z
x,1/2+y,1/2+z
-x,1/2-y,1/2+z
-x,1/2+y,1/2+z
x,1/2-y,1/2+z
loop_
_atom_site_type_symbol
_atom_site_label
_atom_site_fract_x
_atom_site_fract_y
_atom_site_fract_z
Si Si1 0.321011 0.050305 0.541070
Si Si2 0.328797 0.836105 0.231985
Si Si3 0.824712 0.716642 0.904152
Si Si4 0.668021 0.869492 0.983641
Si Si5 0.678384 0.654020 0.093519
Si Si6 0.834324 0.450107 0.564946
Si Si7 0.825014 0.311226 0.318189
Si Si8 0.173181 0.575999 0.815655
O O1 0.500000 0.051540 0.528363
O O2 0.281396 0.100268 0.591217
O O3 0.238837 0.051479 0.422016
O O4 0.287549 0.000000 0.591030
O O5 0.500000 0.825685 0.260069
O O6 0.215799 0.800508 0.280564
O O7 0.317909 0.843170 0.100230
O O8 0.277095 0.881627 0.291020
O O9 0.777626 0.768294 0.892837
O O10 0.000000 0.714362 0.926882
O O11 0.743019 0.683331 0.990227
O O12 0.500000 0.864371 0.941412
O O13 0.706680 0.919811 0.015445
O O14 0.786358 0.852702 0.895963
O O15 0.500000 0.656115 0.089964
O O16 0.739795 0.678835 0.203484
O O17 0.826442 0.500000 0.522598
O O18 0.822623 0.450113 0.699126
O O19 0.000000 0.431488 0.541088
O O20 0.000000 0.306393 0.295408
O O21 0.000000 0.588750 0.835334
#
# Coordination Sequence:
#
# PCOD9359547 Si02
#       8
#     8   8   8   8   8   8   8   8
#     4  10  21  37  58  87 124 165 207 255 315 376
#     4  10  20  35  57  88 123 159 197 243 300 363
#     4  11  24  41  64  93 123 159 201 252 312 372
#     4  10  22  39  60  88 121 158 205 254 305 362
#     4  11  24  43  67  93 127 166 209 263 315 374
#     4   9  18  33  54  83 120 162 206 253 309 367
#     4  11  26  45  65  89 122 164 210 258 314 375
#     4  10  18  30  52  84 122 161 200 247 300 362
#
# _framework density 9.8765429999999999
#
# number of rings (size 3 to 8) (size 9 to 14) (size 15 to 20)
#    0.000    1.750    1.250    2.625    1.750    5.500 
#    0.000    0.625    0.000    2.250    0.000    0.000 
#    0.000    0.000    0.000    0.000    0.000    0.000 
#
# Total GULP energy -178336.879667 kJ/mol
# GULP energy per Si atom -5573.027490 kJ/mol
# Density = 0.985406 g / cm^3
# Si number density = 9.876543 Si / 1000 Ang^3
#
#
#
# Elastic Constant Matrix: (Units=GPa)
#
#
# Indices 1 2 3 4 5 6 
#
# 1 41.1469 26.5232 23.5499 0.0000 0.0000 0.0000
# 2 26.5232 87.6448 31.5112 0.0000 0.0000 0.0000
# 3 23.5499 31.5112 49.1501 0.0000 0.0000 0.0000
# 4 0.0000 0.0000 0.0000 4.5352 0.0000 0.0000
# 5 0.0000 0.0000 0.0000 0.0000 31.0207 0.0000
# 6 0.0000 0.0000 0.0000 0.0000 0.0000 23.6711
#
#
#
# Elastic Compliance Matrix: (Units=1/GPa)
#
#
# Indices 1 2 3 4 5 6 
#
# 1 0.035807 -0.006066 -0.013268 0.000000 0.000000 0.000000
# 2 -0.006066 0.015855 -0.007259 0.000000 0.000000 0.000000
# 3 -0.013268 -0.007259 0.031357 0.000000 0.000000 0.000000
# 4 0.000000 0.000000 0.000000 0.220497 0.000000 0.000000
# 5 0.000000 0.000000 0.000000 0.000000 0.032237 0.000000
# 6 0.000000 0.000000 0.000000 0.000000 0.000000 0.042246
#
#
# Mechanical properties :
#
#
# Convention : Reuss Voigt Hill
#
# Bulk Modulus (GPa) = 33.51848 37.90116 35.70982
# Shear Modulus (GPa) = 11.33462 18.26924 14.80193
#
# Velocity S-wave (km/s) = 2.39804 3.04448 2.74039
# Velocity P-wave (km/s) = 4.96720 5.62029 5.30380
#
# Compressibility (1/GPa) = 0.02983429
#
# Stress axis : x y z
#
# Youngs Moduli (GPa) = 27.92778 63.07146 31.89119
#
# Poissons Ratio (x) = 0.38257 0.42312
# Poissons Ratio (y) = 0.16940 0.23149
# Poissons Ratio (z) = 0.37054 0.45782
#
# Static dielectric constant tensor:
#      x y z
#    x 1.671840 0.000000 0.000000 
#    y 0.000000 1.760040 0.000000 
#    z 0.000000 0.000000 1.694920 
# 
# From -- ./inp_files/8522.got.cif
#   From: 2010.05.17/outbox.ucp.g08.bks.cvg/sg38_5_cif.got.tgz:8522.got - 2010.06.11 10:39:43.
