data_PCOD9359024
_publ_section_title
;
Structure prediction by ZEFSAII (Michael W. Deem and Ramdas Pophale) SiO2 
 PCOD9359024
Probable space group: A M M 2
;
_chemical_formula_sum "Si O2"
_cell_formula_units_Z 64
_cell_length_a 9.063908
_cell_length_b 14.245890
_cell_length_c 24.673064
_cell_angle_alpha 90.000000
_cell_angle_beta 90.000000
_cell_angle_gamma 90.000000
_cell_volume 3185.870809
_symmetry_space_group_name_H-M "A M M 2"
_symmetry_group_IT_number 38
_symmetry_cell_setting 'orthorhombic'
loop_
_space_group_symop_operation_xyz
x,y,z
-x,-y,z
-x,y,z
x,-y,z
x,1/2+y,1/2+z
-x,1/2-y,1/2+z
-x,1/2+y,1/2+z
x,1/2-y,1/2+z
loop_
_atom_site_type_symbol
_atom_site_label
_atom_site_fract_x
_atom_site_fract_y
_atom_site_fract_z
Si Si1 0.169633 0.885431 0.413250
Si Si2 0.677434 0.291898 0.580397
Si Si3 0.325368 0.888919 0.745447
Si Si4 0.167718 0.614338 0.358076
Si Si5 0.823426 0.776120 0.189960
Si Si6 0.671826 0.113255 0.967395
Si Si7 0.179554 0.392094 0.795629
Si Si8 0.323099 0.605990 0.024195
O O1 0.226500 0.853405 0.354455
O O2 0.264160 0.862017 0.465664
O O3 0.000000 0.855839 0.421098
O O4 0.168948 0.000000 0.409847
O O5 0.500000 0.299752 0.586732
O O6 0.757775 0.319677 0.635319
O O7 0.719109 0.347769 0.525837
O O8 0.717740 0.183628 0.567931
O O9 0.500000 0.871883 0.743054
O O10 0.262913 0.863287 0.805023
O O11 0.242443 0.826671 0.701245
O O12 0.299780 0.000000 0.737601
O O13 0.164728 0.500000 0.360441
O O14 0.234827 0.645789 0.415441
O O15 0.000000 0.647881 0.350714
O O16 0.776712 0.834807 0.243022
O O17 0.000000 0.773570 0.187462
O O18 0.500000 0.139945 0.959487
O O19 0.678841 0.000000 0.969020
O O20 0.227985 0.500000 0.790427
O O21 0.000000 0.392385 0.797825
O O22 0.500000 0.603821 0.021825
O O23 0.269631 0.500000 0.035013
#
# Coordination Sequence:
#
# PCOD9359024 Si02
#       8
#     8   8   8   8   8   8   8   8
#     4   8  14  28  52  78 102 129 162 200 246 305
#     4  10  22  38  52  71 102 140 183 223 260 314
#     4  10  21  38  59  80 107 145 181 216 268 332
#     4   9  17  31  54  84 113 137 169 218 271 323
#     4  11  23  37  55  80 107 138 182 232 272 311
#     4   9  18  34  55  77 105 142 179 218 268 322
#     4   8  16  33  55  79 109 142 171 205 259 322
#     4   9  18  33  52  73  99 130 163 204 254 304
#
# _framework density 20.088699999999999
#
# number of rings (size 3 to 8) (size 9 to 14) (size 15 to 20)
#    0.000    2.750    0.000    1.875    0.000    5.250 
#    0.000    5.000    0.000    2.625    0.000    0.000 
#    0.000    0.000    0.000    0.000    0.000    0.000 
#
# Total GULP energy -178635.007094 kJ/mol
# GULP energy per Si atom -5582.343972 kJ/mol
# Density = 2.004298 g / cm^3
# Si number density = 20.088700 Si / 1000 Ang^3
#
#
#
# Elastic Constant Matrix: (Units=GPa)
#
#
# Indices 1 2 3 4 5 6 
#
# 1 27.8630 8.7430 19.1308 0.0000 0.0000 0.0000
# 2 8.7430 33.6193 7.8232 0.0000 0.0000 0.0000
# 3 19.1308 7.8232 92.3662 0.0000 0.0000 0.0000
# 4 0.0000 0.0000 0.0000 28.6654 0.0000 0.0000
# 5 0.0000 0.0000 0.0000 0.0000 33.6354 0.0000
# 6 0.0000 0.0000 0.0000 0.0000 0.0000 14.1512
#
#
#
# Elastic Compliance Matrix: (Units=1/GPa)
#
#
# Indices 1 2 3 4 5 6 
#
# 1 0.044720 -0.009665 -0.008444 0.000000 0.000000 0.000000
# 2 -0.009665 0.032432 -0.000745 0.000000 0.000000 0.000000
# 3 -0.008444 -0.000745 0.012638 0.000000 0.000000 0.000000
# 4 0.000000 0.000000 0.000000 0.034885 0.000000 0.000000
# 5 0.000000 0.000000 0.000000 0.000000 0.029731 0.000000
# 6 0.000000 0.000000 0.000000 0.000000 0.000000 0.070665
#
#
# Mechanical properties :
#
#
# Convention : Reuss Voigt Hill
#
# Bulk Modulus (GPa) = 19.20029 25.02693 22.11361
# Shear Modulus (GPa) = 17.84823 23.16717 20.50770
#
# Velocity S-wave (km/s) = 2.98396 3.39963 3.19855
# Velocity P-wave (km/s) = 4.63147 5.28159 4.96718
#
# Compressibility (1/GPa) = 0.05208255
#
# Stress axis : x y z
#
# Youngs Moduli (GPa) = 22.36130 30.83410 79.12366
#
# Poissons Ratio (x) = 0.29801 0.66810
# Poissons Ratio (y) = 0.21612 0.05895
# Poissons Ratio (z) = 0.18881 0.02297
#
# Static dielectric constant tensor:
#      x y z
#    x 1.677110 0.000000 0.000000 
#    y 0.000000 1.771180 0.000000 
#    z 0.000000 0.000000 1.688200 
# 
# From -- ./inp_files/22165.got.cif
#   From: 2010.05.17/outbox.cif.g08.bks.cpg/sg38_12_cif.got.tgz:22165.got - 2010.06.03 18:07:57.
