data_PCOD9359288
_publ_section_title
;
Structure prediction by ZEFSAII (Michael W. Deem and Ramdas Pophale) SiO2 
 PCOD9359288
Probable space group: A M M 2
;
_chemical_formula_sum "Si O2"
_cell_formula_units_Z 48
_cell_length_a 16.186788
_cell_length_b 10.146345
_cell_length_c 14.253567
_cell_angle_alpha 90.000000
_cell_angle_beta 90.000000
_cell_angle_gamma 90.000000
_cell_volume 2340.959313
_symmetry_space_group_name_H-M "A M M 2"
_symmetry_group_IT_number 38
_symmetry_cell_setting 'orthorhombic'
loop_
_space_group_symop_operation_xyz
x,y,z
-x,-y,z
-x,y,z
x,-y,z
x,1/2+y,1/2+z
-x,1/2-y,1/2+z
-x,1/2+y,1/2+z
x,1/2-y,1/2+z
loop_
_atom_site_type_symbol
_atom_site_label
_atom_site_fract_x
_atom_site_fract_y
_atom_site_fract_z
Si Si1 0.000000 0.349303 0.718631
Si Si2 0.821580 0.345655 0.678654
Si Si3 0.401413 0.656358 0.495306
Si Si4 0.000000 0.347521 0.942828
Si Si5 0.150110 0.851380 0.974456
Si Si6 0.711824 0.792053 0.828234
Si Si7 0.404487 0.642517 0.161116
O O1 0.913444 0.283770 0.690110
O O2 0.000000 0.356542 0.830364
O O3 0.000000 0.500000 0.680686
O O4 0.833166 0.500000 0.690266
O O5 0.798827 0.323173 0.570124
O O6 0.758578 0.308983 0.759916
O O7 0.500000 0.659379 0.477335
O O8 0.376938 0.500000 0.498187
O O9 0.352474 0.731344 0.412771
O O10 0.388187 0.735479 0.592082
O O11 0.919795 0.260122 0.967835
O O12 0.000000 0.500000 0.978347
O O13 0.211078 0.851797 0.885843
O O14 0.114727 0.000000 0.982932
O O15 0.655258 0.861452 0.750179
O O16 0.500000 0.653871 0.192417
O O17 0.396293 0.500000 0.111163
#
# Coordination Sequence:
#
# PCOD9359288 Si02
#       7
#     4   8   8   4   8   8   8
#     4   9  17  37  63  84 115 159 204 246 299 356
#     4  10  22  40  64  91 123 165 207 251 304 364
#     4  10  22  42  66  91 122 162 207 253 303 362
#     4  11  22  41  65  90 121 161 208 254 307 364
#     4  11  23  40  64  92 123 161 208 256 305 363
#     4  12  22  36  62  94 126 159 201 253 309 364
#     4  10  22  41  63  88 122 163 204 249 306 368
#
# _framework density 20.504414000000001
#
# number of rings (size 3 to 8) (size 9 to 14) (size 15 to 20)
#    0.000    1.500    1.667    3.750    0.000    5.333 
#    0.000    4.167    0.000    5.000    0.000    0.000 
#    0.000    0.000    0.000    0.000    0.000    0.000 
#
# Total GULP energy -133606.155824 kJ/mol
# GULP energy per Si atom -5566.923159 kJ/mol
# Density = 2.045775 g / cm^3
# Si number density = 20.504414 Si / 1000 Ang^3
#
#
#
# Elastic Constant Matrix: (Units=GPa)
#
#
# Indices 1 2 3 4 5 6 
#
# 1 121.1205 60.0343 50.5909 0.0000 0.0000 0.0000
# 2 60.0343 83.0508 52.7510 0.0000 0.0000 0.0000
# 3 50.5909 52.7510 124.1516 0.0000 0.0000 0.0000
# 4 0.0000 0.0000 0.0000 15.2538 0.0000 0.0000
# 5 0.0000 0.0000 0.0000 0.0000 46.8765 0.0000
# 6 0.0000 0.0000 0.0000 0.0000 0.0000 0.5369
#
#
#
# Elastic Compliance Matrix: (Units=1/GPa)
#
#
# Indices 1 2 3 4 5 6 
#
# 1 0.013156 -0.008361 -0.001808 0.000000 0.000000 0.000000
# 2 -0.008361 0.021806 -0.005858 0.000000 0.000000 0.000000
# 3 -0.001808 -0.005858 0.011280 0.000000 0.000000 0.000000
# 4 0.000000 0.000000 0.000000 0.065557 0.000000 0.000000
# 5 0.000000 0.000000 0.000000 0.000000 0.021333 0.000000
# 6 0.000000 0.000000 0.000000 0.000000 0.000000 1.862627
#
#
# Mechanical properties :
#
#
# Convention : Reuss Voigt Hill
#
# Bulk Modulus (GPa) = 70.48668 72.78616 71.63642
# Shear Modulus (GPa) = 2.45997 23.52988 12.99493
#
# Velocity S-wave (km/s) = 1.09651 3.39123 2.52019
# Velocity P-wave (km/s) = 6.00451 7.13504 6.59404
#
# Compressibility (1/GPa) = 0.01418708
#
# Stress axis : x y z
#
# Youngs Moduli (GPa) = 76.01153 45.85971 88.64869
#
# Poissons Ratio (x) = 0.38345 0.16030
# Poissons Ratio (y) = 0.63556 0.51929
# Poissons Ratio (z) = 0.13745 0.26864
#
# Static dielectric constant tensor:
#      x y z
#    x 1.819730 0.000000 0.000000 
#    y 0.000000 1.738390 0.000000 
#    z 0.000000 0.000000 1.718440 
# 
# From -- ./inp_files/15073.got.cif
#   From: 2010.05.17/outbox.cif.g08.bks.cpg/sg38_8_cif.got.tgz:15073.got - 2010.06.03 18:07:57.
