data_PCOD9359134
_publ_section_title
;
Structure prediction by ZEFSAII (Michael W. Deem and Ramdas Pophale) SiO2 
 PCOD9359134
Probable space group: A M M 2
;
_chemical_formula_sum "Si O2"
_cell_formula_units_Z 58
_cell_length_a 16.080677
_cell_length_b 22.200958
_cell_length_c 7.826033
_cell_angle_alpha 90.000000
_cell_angle_beta 90.000000
_cell_angle_gamma 90.000000
_cell_volume 2793.944139
_symmetry_space_group_name_H-M "A M M 2"
_symmetry_group_IT_number 38
_symmetry_cell_setting 'orthorhombic'
loop_
_space_group_symop_operation_xyz
x,y,z
-x,-y,z
-x,y,z
x,-y,z
x,1/2+y,1/2+z
-x,1/2-y,1/2+z
-x,1/2+y,1/2+z
x,1/2-y,1/2+z
loop_
_atom_site_type_symbol
_atom_site_label
_atom_site_fract_x
_atom_site_fract_y
_atom_site_fract_z
Si Si1 0.095096 0.812778 0.212750
Si Si2 0.845781 0.309580 0.062164
Si Si3 0.904758 0.564967 0.188661
Si Si4 0.330981 0.683309 0.241543
Si Si5 0.836533 0.065717 0.057668
Si Si6 0.598585 0.309395 0.869877
Si Si7 0.500000 0.500000 0.557643
Si Si8 0.351663 0.099232 0.070329
O O1 0.105174 0.751660 0.104983
O O2 0.164506 0.807390 0.359590
O O3 0.000000 0.814181 0.277944
O O4 0.114202 0.875308 0.118737
O O5 0.891098 0.373410 0.089443
O O6 0.763651 0.312104 0.176216
O O7 0.891600 0.500000 0.097961
O O8 0.846191 0.565861 0.353089
O O9 0.000000 0.565194 0.250299
O O10 0.359280 0.745829 0.325922
O O11 0.344416 0.634372 0.389441
O O12 0.380624 0.672167 0.064767
O O13 0.739736 0.071902 0.102782
O O14 0.868123 0.000000 0.118072
O O15 0.500000 0.302360 0.853185
O O16 0.629131 0.356186 0.727504
O O17 0.426291 0.552078 0.559625
#
# Coordination Sequence:
#
# PCOD9359134 Si02
#       8
#     8   8   8   8   8   8   2   8
#     4  12  26  41  66 101 140 187 234 291 354 420
#     4  12  24  44  64  98 139 181 229 287 353 423
#     4  10  21  39  65  94 128 174 221 273 331 401
#     4  12  25  43  72 106 141 183 238 295 364 435
#     4  11  23  44  70  94 134 180 234 283 345 422
#     4  12  26  43  70 106 140 178 232 299 366 431
#     4  12  28  48  78 100 146 198 236 298 370 436
#     4  12  25  49  72 105 144 186 238 293 361 436
#
# _framework density 20.759184000000001
#
# number of rings (size 3 to 8) (size 9 to 14) (size 15 to 20)
#    0.000    0.414    4.138    5.379    1.931    1.379 
#    0.000    1.379    0.000    0.000    0.000    0.000 
#    0.000    0.000    0.000    0.000    0.000    0.000 
#
# Total GULP energy -161749.535256 kJ/mol
# GULP energy per Si atom -5577.570181 kJ/mol
# Density = 2.071193 g / cm^3
# Si number density = 20.759184 Si / 1000 Ang^3
#
#
#
# Elastic Constant Matrix: (Units=GPa)
#
#
# Indices 1 2 3 4 5 6 
#
# 1 75.7310 28.0331 -18.1707 0.0000 0.0000 0.0000
# 2 28.0331 175.7477 39.0677 0.0000 0.0000 0.0000
# 3 -18.1707 39.0677 78.5729 0.0000 0.0000 0.0000
# 4 0.0000 0.0000 0.0000 14.2370 0.0000 0.0000
# 5 0.0000 0.0000 0.0000 0.0000 27.5685 0.0000
# 6 0.0000 0.0000 0.0000 0.0000 0.0000 41.0636
#
#
#
# Elastic Compliance Matrix: (Units=1/GPa)
#
#
# Indices 1 2 3 4 5 6 
#
# 1 0.015939 -0.003780 0.005565 0.000000 0.000000 0.000000
# 2 -0.003780 0.007293 -0.004500 0.000000 0.000000 0.000000
# 3 0.005565 -0.004500 0.016252 0.000000 0.000000 0.000000
# 4 0.000000 0.000000 0.000000 0.070240 0.000000 0.000000
# 5 0.000000 0.000000 0.000000 0.000000 0.036273 0.000000
# 6 0.000000 0.000000 0.000000 0.000000 0.000000 0.024352
#
#
# Mechanical properties :
#
#
# Convention : Reuss Voigt Hill
#
# Bulk Modulus (GPa) = 29.36452 47.54577 38.45514
# Shear Modulus (GPa) = 26.71936 35.31525 31.01730
#
# Velocity S-wave (km/s) = 3.59152 4.12902 3.86962
# Velocity P-wave (km/s) = 5.60132 6.75906 6.20724
#
# Compressibility (1/GPa) = 0.03405470
#
# Stress axis : x y z
#
# Youngs Moduli (GPa) = 62.73924 137.11322 61.53203
#
# Poissons Ratio (x) = 0.51822 -0.34244
# Poissons Ratio (y) = 0.23712 0.27692
# Poissons Ratio (z) = -0.34916 0.61706
#
# Static dielectric constant tensor:
#      x y z
#    x 1.742620 0.000000 0.000000 
#    y 0.000000 1.790160 0.000000 
#    z 0.000000 0.000000 1.739360 
# 
# From -- ./inp_files/6385.got.cif
#   From: 2010.05.17/outbox.cif.g08.bks.cpg/sg38_4_cif.got.tgz:6385.got - 2010.06.03 18:07:57.
