data_PCOD9359626
_publ_section_title
;
Structure prediction by ZEFSAII (Michael W. Deem and Ramdas Pophale) SiO2 
 PCOD9359626
Probable space group: A M M 2
;
_chemical_formula_sum "Si O2"
_cell_formula_units_Z 28
_cell_length_a 21.000000
_cell_length_b 9.000000
_cell_length_c 15.000000
_cell_angle_alpha 90.000000
_cell_angle_beta 90.000000
_cell_angle_gamma 90.000000
_cell_volume 2835.000000
_symmetry_space_group_name_H-M "A M M 2"
_symmetry_group_IT_number 38
_symmetry_cell_setting 'orthorhombic'
loop_
_space_group_symop_operation_xyz
x,y,z
-x,-y,z
-x,y,z
x,-y,z
x,1/2+y,1/2+z
-x,1/2-y,1/2+z
-x,1/2+y,1/2+z
x,1/2-y,1/2+z
loop_
_atom_site_type_symbol
_atom_site_label
_atom_site_fract_x
_atom_site_fract_y
_atom_site_fract_z
Si Si1 0.431511 0.823150 0.162960
Si Si2 0.431382 0.175407 0.855378
Si Si3 0.697940 0.334527 0.117386
Si Si4 0.832383 0.680089 0.901164
Si Si5 0.306265 0.333833 0.907398
Si Si6 0.073384 0.679484 0.261117
Si Si7 0.166176 0.819009 0.606542
O O1 0.500000 0.773841 0.122657
O O2 0.433252 0.767145 0.264266
O O3 0.366216 0.756300 0.127920
O O4 0.429132 0.000000 0.157116
O O5 0.500000 0.201703 0.901907
O O6 0.367249 0.230251 0.900528
O O7 0.427615 0.000000 0.837608
O O8 0.688798 0.500000 0.156870
O O9 0.765609 0.267374 0.146492
O O10 0.707452 0.350310 0.011814
O O11 0.834152 0.500000 0.897929
O O12 0.760774 0.723857 0.869861
O O13 0.885834 0.749809 0.839919
O O14 0.841948 0.727281 0.004113
O O15 0.320456 0.500000 0.871170
O O16 0.076060 0.500000 0.267383
O O17 0.108232 0.723809 0.169396
O O18 0.000000 0.725068 0.263313
O O19 0.170413 0.000000 0.606517
#
# Coordination Sequence:
#
# PCOD9359626 Si02
#       7
#     8   8   8   8   8   8   8
#     4  10  21  35  50  72 105 141 177 222 273 320
#     4  10  21  35  51  73 102 139 183 225 267 322
#     4   9  18  34  55  77 102 136 179 223 268 323
#     4   9  19  37  59  83 112 146 186 229 273 329
#     4   9  19  35  54  78 107 137 174 224 278 325
#     4  10  21  36  56  85 116 146 183 225 274 330
#     4   8  17  36  58  80 110 148 186 224 270 328
#
# _framework density 9.8765429999999999
#
# number of rings (size 3 to 8) (size 9 to 14) (size 15 to 20)
#    0.000    2.714    0.000    2.571    2.000    4.286 
#    0.000    7.143    0.000    0.000    0.000    0.000 
#    0.000    0.000    0.000    0.000    0.000    0.000 
#
# Total GULP energy -155931.825032 kJ/mol
# GULP energy per Si atom -5568.993751 kJ/mol
# Density = 0.985406 g / cm^3
# Si number density = 9.876543 Si / 1000 Ang^3
#
#
#
# Elastic Constant Matrix: (Units=GPa)
#
#
# Indices 1 2 3 4 5 6 
#
# 1 181.2143 32.0704 36.7914 0.0000 0.0000 0.0000
# 2 32.0704 14.8747 -4.6930 0.0000 0.0000 0.0000
# 3 36.7914 -4.6930 56.0075 0.0000 0.0000 0.0000
# 4 0.0000 0.0000 0.0000 20.9502 0.0000 0.0000
# 5 0.0000 0.0000 0.0000 0.0000 11.9140 0.0000
# 6 0.0000 0.0000 0.0000 0.0000 0.0000 -7.8979
#
#
#
# Elastic Compliance Matrix: (Units=1/GPa)
#
#
# Indices 1 2 3 4 5 6 
#
# 1 0.013944 -0.033850 -0.011996 0.000000 0.000000 0.000000
# 2 -0.033850 0.151222 0.034907 0.000000 0.000000 0.000000
# 3 -0.011996 0.034907 0.028660 0.000000 0.000000 0.000000
# 4 0.000000 0.000000 0.000000 0.047732 0.000000 0.000000
# 5 0.000000 0.000000 0.000000 0.000000 0.083935 0.000000
# 6 0.000000 0.000000 0.000000 0.000000 0.000000 -0.126616
#
#
# Mechanical properties :
#
#
# Convention : Reuss Voigt Hill
#
# Bulk Modulus (GPa) = 5.81568 42.27046 24.04307
# Shear Modulus (GPa) = 17.98091 17.52177 17.75134
#
# Velocity S-wave (km/s) = 3.02036 2.98155 3.00102
# Velocity P-wave (km/s) = 3.88768 5.77051 4.92000
#
# Compressibility (1/GPa) = 0.17194906
#
# Stress axis : x y z
#
# Youngs Moduli (GPa) = 71.71291 6.61278 34.89157
#
# Poissons Ratio (x) = 0.22384 0.41858
# Poissons Ratio (y) = 2.42746 -1.21797
# Poissons Ratio (z) = 0.86030 -0.23083
#
# Static dielectric constant tensor:
#      x y z
#    x 1.756010 0.000000 0.000000 
#    y 0.000000 1.682400 0.000000 
#    z 0.000000 0.000000 1.732300 
# 
# From -- ./inp_files/15431.got.cif
#   From: 2010.05.17/outbox.ucp.g08.bks.cvg/sg38_8_cif.got.tgz:15431.got - 2010.06.11 10:39:43.
