data_PCOD9359541
_publ_section_title
;
Structure prediction by ZEFSAII (Michael W. Deem and Ramdas Pophale) SiO2 
 PCOD9359541
Probable space group: A M M 2
;
_chemical_formula_sum "Si O2"
_cell_formula_units_Z 32
_cell_length_a 21.000000
_cell_length_b 9.000000
_cell_length_c 21.000000
_cell_angle_alpha 90.000000
_cell_angle_beta 90.000000
_cell_angle_gamma 90.000000
_cell_volume 3969.000000
_symmetry_space_group_name_H-M "A M M 2"
_symmetry_group_IT_number 38
_symmetry_cell_setting 'orthorhombic'
loop_
_space_group_symop_operation_xyz
x,y,z
-x,-y,z
-x,y,z
x,-y,z
x,1/2+y,1/2+z
-x,1/2-y,1/2+z
-x,1/2+y,1/2+z
x,1/2-y,1/2+z
loop_
_atom_site_type_symbol
_atom_site_label
_atom_site_fract_x
_atom_site_fract_y
_atom_site_fract_z
Si Si1 0.305421 0.679247 0.663870
Si Si2 0.839071 0.820465 0.202636
Si Si3 0.925562 0.681011 0.582958
Si Si4 0.665697 0.679681 0.804443
Si Si5 0.675813 0.680780 0.520370
Si Si6 0.575126 0.679481 0.921213
Si Si7 0.197155 0.820790 0.833287
Si Si8 0.179666 0.819918 0.978075
O O1 0.307631 0.500000 0.661615
O O2 0.230700 0.718190 0.673394
O O3 0.340829 0.723411 0.729622
O O4 0.330290 0.728579 0.594728
O O5 0.892901 0.778263 0.150896
O O6 0.840452 0.745588 0.272384
O O7 0.840665 0.000000 0.210235
O O8 0.926042 0.500000 0.581150
O O9 0.876532 0.729984 0.526507
O O10 0.000000 0.728567 0.577011
O O11 0.674516 0.500000 0.806042
O O12 0.608165 0.715738 0.852710
O O13 0.730925 0.756365 0.828148
O O14 0.671992 0.500000 0.516665
O O15 0.621285 0.748942 0.474924
O O16 0.748145 0.723619 0.498851
O O17 0.500000 0.723408 0.924586
O O18 0.577333 0.500000 0.927905
O O19 0.170892 0.779434 0.903575
O O20 0.198873 0.000000 0.828966
O O21 0.179215 0.000000 0.981296
#
# Coordination Sequence:
#
# PCOD9359541 Si02
#       8
#     8   8   8   8   8   8   8   8
#     4   8  14  26  48  72  92 115 152 201 243 271
#     4   9  16  29  48  71  97 124 158 202 244 286
#     4   9  16  28  49  74  98 129 169 207 245 290
#     4   9  17  31  50  71  94 124 160 198 241 287
#     4  10  17  30  51  73  97 125 160 206 248 286
#     4  10  21  35  49  69 101 134 161 195 244 300
#     4  10  18  28  46  72  99 125 157 200 246 288
#     4   9  16  27  45  71 100 126 159 205 247 282
#
# _framework density 8.0624839999999995
#
# number of rings (size 3 to 8) (size 9 to 14) (size 15 to 20)
#    0.000    2.750    2.500    1.125    0.000    0.250 
#    0.000    3.750    0.000    4.875    0.000    0.000 
#    0.000    0.000    0.000    0.000    0.000    0.000 
#
# Total GULP energy -178161.902533 kJ/mol
# GULP energy per Si atom -5567.559454 kJ/mol
# Density = 0.804413 g / cm^3
# Si number density = 8.062484 Si / 1000 Ang^3
#
#
#
# Elastic Constant Matrix: (Units=GPa)
#
#
# Indices 1 2 3 4 5 6 
#
# 1 130.3437 18.3993 87.6935 0.0000 0.0000 0.0000
# 2 18.3993 17.9055 24.6566 0.0000 0.0000 0.0000
# 3 87.6935 24.6566 181.4103 0.0000 0.0000 0.0000
# 4 0.0000 0.0000 0.0000 27.0749 0.0000 0.0000
# 5 0.0000 0.0000 0.0000 0.0000 30.0542 0.0000
# 6 0.0000 0.0000 0.0000 0.0000 0.0000 18.3722
#
#
#
# Elastic Compliance Matrix: (Units=1/GPa)
#
#
# Indices 1 2 3 4 5 6 
#
# 1 0.011755 -0.005234 -0.004971 0.000000 0.000000 0.000000
# 2 -0.005234 0.071039 -0.007125 0.000000 0.000000 0.000000
# 3 -0.004971 -0.007125 0.008884 0.000000 0.000000 0.000000
# 4 0.000000 0.000000 0.000000 0.036935 0.000000 0.000000
# 5 0.000000 0.000000 0.000000 0.000000 0.033273 0.000000
# 6 0.000000 0.000000 0.000000 0.000000 0.000000 0.054430
#
#
# Mechanical properties :
#
#
# Convention : Reuss Voigt Hill
#
# Bulk Modulus (GPa) = 17.53855 65.68427 41.61141
# Shear Modulus (GPa) = 18.51971 28.36094 23.44032
#
# Velocity S-wave (km/s) = 3.39265 4.19838 3.81683
# Velocity P-wave (km/s) = 5.12318 8.02027 6.72948
#
# Compressibility (1/GPa) = 0.05701725
#
# Stress axis : x y z
#
# Youngs Moduli (GPa) = 85.06742 14.07680 112.56403
#
# Poissons Ratio (x) = 0.07368 0.55957
# Poissons Ratio (y) = 0.44525 0.80204
# Poissons Ratio (z) = 0.42288 0.10030
#
# Static dielectric constant tensor:
#      x y z
#    x 1.526810 0.000000 0.000000 
#    y 0.000000 1.541880 0.000000 
#    z 0.000000 0.000000 1.574150 
# 
# From -- ./inp_files/21517.got.cif
#   From: 2010.05.17/outbox.ucp.g08.bks.cvg/sg38_11_cif.got.tgz:21517.got - 2010.06.11 10:39:43.
