data_PCOD9359168
_publ_section_title
;
Structure prediction by ZEFSAII (Michael W. Deem and Ramdas Pophale) SiO2 
 PCOD9359168
Probable space group: A M M 2
;
_chemical_formula_sum "Si O2"
_cell_formula_units_Z 40
_cell_length_a 13.678653
_cell_length_b 14.965327
_cell_length_c 7.760720
_cell_angle_alpha 90.000000
_cell_angle_beta 90.000000
_cell_angle_gamma 90.000000
_cell_volume 1588.662185
_symmetry_space_group_name_H-M "A M M 2"
_symmetry_group_IT_number 38
_symmetry_cell_setting 'orthorhombic'
loop_
_space_group_symop_operation_xyz
x,y,z
-x,-y,z
-x,y,z
x,-y,z
x,1/2+y,1/2+z
-x,1/2-y,1/2+z
-x,1/2+y,1/2+z
x,1/2-y,1/2+z
loop_
_atom_site_type_symbol
_atom_site_label
_atom_site_fract_x
_atom_site_fract_y
_atom_site_fract_z
Si Si1 0.886791 0.357731 0.399720
Si Si2 0.616903 0.278480 0.503818
Si Si3 0.113483 0.852251 0.498862
Si Si4 0.618064 0.897897 0.668013
Si Si5 0.745697 0.093912 0.199983
O O1 0.882077 0.253162 0.453347
O O2 0.859332 0.366784 0.198695
O O3 0.818041 0.405247 0.535067
O O4 0.000000 0.385417 0.416353
O O5 0.500000 0.282159 0.525682
O O6 0.644362 0.173664 0.519201
O O7 0.640825 0.342150 0.341961
O O8 0.672306 0.326207 0.660173
O O9 0.183068 0.897820 0.362030
O O10 0.000000 0.879630 0.478250
O O11 0.500000 0.905389 0.663907
O O12 0.656031 0.000000 0.661469
O O13 0.690239 0.000000 0.208159
#
# Coordination Sequence:
#
# PCOD9359168 Si02
#       5
#     8   8   8   8   8
#     4  10  21  40  68  98 131 178 230 289 359 425
#     4  10  23  43  68 100 140 183 233 295 350 410
#     4  10  21  40  68  99 133 177 230 291 357 426
#     4   9  19  40  69  96 128 179 235 287 353 420
#     4  12  26  41  66 102 140 188 239 291 353 424
#
# _framework density 25.178419999999999
#
# number of rings (size 3 to 8) (size 9 to 14) (size 15 to 20)
#    0.000    1.800    2.000    1.200    2.800    3.600 
#    0.000    4.000    0.000    9.600    0.000    0.000 
#    0.000    0.000    0.000    0.000    0.000    0.000 
#
# Total GULP energy -111989.049146 kJ/mol
# GULP energy per Si atom -5599.452457 kJ/mol
# Density = 2.512111 g / cm^3
# Si number density = 25.178420 Si / 1000 Ang^3
#
#
#
# Elastic Constant Matrix: (Units=GPa)
#
#
# Indices 1 2 3 4 5 6 
#
# 1 86.4264 42.4742 58.9267 0.0000 0.0000 0.0000
# 2 42.4742 207.7525 47.6762 0.0000 0.0000 0.0000
# 3 58.9267 47.6762 190.8163 0.0000 0.0000 0.0000
# 4 0.0000 0.0000 0.0000 6.9413 0.0000 0.0000
# 5 0.0000 0.0000 0.0000 0.0000 25.1542 0.0000
# 6 0.0000 0.0000 0.0000 0.0000 0.0000 18.9183
#
#
#
# Elastic Compliance Matrix: (Units=1/GPa)
#
#
# Indices 1 2 3 4 5 6 
#
# 1 0.015553 -0.002204 -0.004252 0.000000 0.000000 0.000000
# 2 -0.002204 0.005418 -0.000673 0.000000 0.000000 0.000000
# 3 -0.004252 -0.000673 0.006722 0.000000 0.000000 0.000000
# 4 0.000000 0.000000 0.000000 0.144065 0.000000 0.000000
# 5 0.000000 0.000000 0.000000 0.000000 0.039755 0.000000
# 6 0.000000 0.000000 0.000000 0.000000 0.000000 0.052859
#
#
# Mechanical properties :
#
#
# Convention : Reuss Voigt Hill
#
# Bulk Modulus (GPa) = 74.43487 87.01661 80.72574
# Shear Modulus (GPa) = 17.66101 32.59729 25.12915
#
# Velocity S-wave (km/s) = 2.65133 3.60203 3.16261
# Velocity P-wave (km/s) = 6.24499 7.20656 6.74294
#
# Compressibility (1/GPa) = 0.01343456
#
# Stress axis : x y z
#
# Youngs Moduli (GPa) = 64.29662 184.55304 148.76463
#
# Poissons Ratio (x) = 0.40673 0.63259
# Poissons Ratio (y) = 0.14170 0.10015
# Poissons Ratio (z) = 0.27341 0.12425
#
# Static dielectric constant tensor:
#      x y z
#    x 1.947410 0.000000 0.000000 
#    y 0.000000 1.976330 0.000000 
#    z 0.000000 0.000000 2.010100 
# 
# From -- ./inp_files/5227.got.cif
#   From: 2010.05.17/outbox.cif.g08.bks.cpg/sg38_3_cif.got.tgz:5227.got - 2010.06.03 18:07:57.
