data_PCOD9359697
_publ_section_title
;
Structure prediction by ZEFSAII (Michael W. Deem and Ramdas Pophale) SiO2 
 PCOD9359697
Probable space group: A B M 2
;
_chemical_formula_sum "Si O2"
_cell_formula_units_Z 64
_cell_length_a 20.322147
_cell_length_b 31.131300
_cell_length_c 5.442607
_cell_angle_alpha 90.000000
_cell_angle_beta 90.000000
_cell_angle_gamma 90.000000
_cell_volume 3443.291742
_symmetry_space_group_name_H-M "A B M 2"
_symmetry_group_IT_number 39
_symmetry_cell_setting 'orthorhombic'
loop_
_space_group_symop_operation_xyz
x,y,z
-x,-y,z
-x,1/2+y,z
x,1/2-y,z
x,1/2+y,1/2+z
-x,1/2-y,1/2+z
-x,y,1/2+z
x,-y,1/2+z
loop_
_atom_site_type_symbol
_atom_site_label
_atom_site_fract_x
_atom_site_fract_y
_atom_site_fract_z
Si Si1 0.598631 0.610350 0.202590
Si Si2 0.137994 0.700639 0.649530
Si Si3 0.924455 0.481139 0.652886
Si Si4 0.347086 0.359535 0.700611
Si Si5 0.957555 0.618368 0.154680
Si Si6 0.425391 0.484512 0.048142
Si Si7 0.485156 0.684467 0.202878
Si Si8 0.223382 0.701222 0.149194
O O1 0.635812 0.611093 0.463911
O O2 0.571503 0.563964 0.138672
O O3 0.536302 0.643281 0.207769
O O4 0.646893 0.621341 0.974681
O O5 0.109984 0.750000 0.653262
O O6 0.088366 0.660488 0.652630
O O7 0.179355 0.697366 0.395900
O O8 0.181915 0.696903 0.897099
O O9 0.894374 0.499959 0.402790
O O10 0.925132 0.429409 0.653229
O O11 0.000000 0.500000 0.652798
O O12 0.409441 0.327885 0.696043
O O13 0.280331 0.333942 0.659392
O O14 0.999390 0.619836 0.406088
O O15 0.500000 0.500000 0.009207
O O16 0.394192 0.510217 0.277886
O O17 0.498166 0.706979 0.454487
O O18 0.250891 0.750000 0.149926
#
# Coordination Sequence:
#
# PCOD9359697 Si02
#       8
#     8   8   8   8   8   8   8   8
#     4  10  19  31  47  77 111 131 172 223 280 344
#     4  10  23  40  58  83 120 154 187 239 279 319
#     4  10  16  30  49  80 123 147 182 222 269 302
#     4  10  19  31  56  75  96 139 180 225 273 319
#     4  12  21  33  58  90 124 154 187 226 278 359
#     4  10  21  27  43  67 108 138 175 207 267 344
#     4   8  16  25  44  66 104 123 158 203 273 325
#     4  10  21  41  61  80 105 140 196 241 266 316
#
# _framework density 18.586865
#
# number of rings (size 3 to 8) (size 9 to 14) (size 15 to 20)
#    0.000    2.000    2.500    2.250   10.500    0.500 
#    0.000    0.000    0.000    6.750    0.000   17.500 
#    0.000    0.000    0.000    0.000    0.000    0.000 
#
# Total GULP energy -178166.227307 kJ/mol
# GULP energy per Si atom -5567.694603 kJ/mol
# Density = 1.854456 g / cm^3
# Si number density = 18.586865 Si / 1000 Ang^3
#
#
#
# Elastic Constant Matrix: (Units=GPa)
#
#
# Indices 1 2 3 4 5 6 
#
# 1 29.1283 37.5865 23.0204 0.0000 0.0000 0.0000
# 2 37.5865 124.8619 21.8470 0.0000 0.0000 0.0000
# 3 23.0204 21.8470 171.0935 0.0000 0.0000 0.0000
# 4 0.0000 0.0000 0.0000 35.9474 0.0000 0.0000
# 5 0.0000 0.0000 0.0000 0.0000 17.6594 0.0000
# 6 0.0000 0.0000 0.0000 0.0000 0.0000 22.7579
#
#
#
# Elastic Compliance Matrix: (Units=1/GPa)
#
#
# Indices 1 2 3 4 5 6 
#
# 1 0.061739 -0.017523 -0.006069 0.000000 0.000000 0.000000
# 2 -0.017523 0.013165 0.000677 0.000000 0.000000 0.000000
# 3 -0.006069 0.000677 0.006575 0.000000 0.000000 0.000000
# 4 0.000000 0.000000 0.000000 0.027818 0.000000 0.000000
# 5 0.000000 0.000000 0.000000 0.000000 0.056627 0.000000
# 6 0.000000 0.000000 0.000000 0.000000 0.000000 0.043941
#
#
# Mechanical properties :
#
#
# Convention : Reuss Voigt Hill
#
# Bulk Modulus (GPa) = 28.05236 54.44350 41.24793
# Shear Modulus (GPa) = 18.68606 31.44825 25.06716
#
# Velocity S-wave (km/s) = 3.17414 4.11781 3.67638
# Velocity P-wave (km/s) = 5.34406 7.20857 6.34517
#
# Compressibility (1/GPa) = 0.03564763
#
# Stress axis : x y z
#
# Youngs Moduli (GPa) = 16.19731 75.95741 152.09156
#
# Poissons Ratio (x) = 1.33099 0.92310
# Poissons Ratio (y) = 0.28382 -0.10291
# Poissons Ratio (z) = 0.09831 -0.05139
#
# Static dielectric constant tensor:
#      x y z
#    x 1.568810 0.000000 0.000000 
#    y 0.000000 1.650620 0.000000 
#    z 0.000000 0.000000 1.733470 
# 
# From -- ./inp_files/910.got.cif
#   From: 2010.05.17/outbox.cif.g08.bks.cpg/sg39_1_cif.got.tgz:910.got - 2010.06.03 18:22:40.
