data_PCOD9359969
_publ_section_title
;
Structure prediction by ZEFSAII (Michael W. Deem and Ramdas Pophale) SiO2 
 PCOD9359969
Probable space group: A B M 2
;
_chemical_formula_sum "Si O2"
_cell_formula_units_Z 56
_cell_length_a 15.778471
_cell_length_b 8.450693
_cell_length_c 20.747019
_cell_angle_alpha 90.000000
_cell_angle_beta 90.000000
_cell_angle_gamma 90.000000
_cell_volume 2766.387066
_symmetry_space_group_name_H-M "A B M 2"
_symmetry_group_IT_number 39
_symmetry_cell_setting 'orthorhombic'
loop_
_space_group_symop_operation_xyz
x,y,z
-x,-y,z
-x,1/2+y,z
x,1/2-y,z
x,1/2+y,1/2+z
-x,1/2-y,1/2+z
-x,y,1/2+z
x,-y,1/2+z
loop_
_atom_site_type_symbol
_atom_site_label
_atom_site_fract_x
_atom_site_fract_y
_atom_site_fract_z
Si Si1 0.910598 0.933886 0.790330
Si Si2 0.591521 0.441633 0.016647
Si Si3 0.729103 0.438401 0.753499
Si Si4 0.263565 0.062288 0.616307
Si Si5 0.912042 0.937247 0.066481
Si Si6 0.323984 0.062158 0.390826
Si Si7 0.872128 0.064992 0.925439
O O1 0.901242 0.750000 0.774444
O O2 0.828858 0.027865 0.765265
O O3 0.908440 0.959591 0.867776
O O4 0.000000 0.000000 0.766356
O O5 0.500000 0.500000 0.038021
O O6 0.592178 0.250000 0.015799
O O7 0.667420 0.492014 0.063900
O O8 0.612075 0.501875 0.944252
O O9 0.717042 0.250000 0.748158
O O10 0.704412 0.522016 0.687600
O O11 0.681733 0.500105 0.817938
O O12 0.251938 0.250000 0.608665
O O13 0.172450 0.982838 0.605013
O O14 0.916901 0.750000 0.059475
O O15 0.000000 0.000000 0.095618
O O16 0.902156 0.015386 0.995750
O O17 0.340122 0.250000 0.384645
O O18 0.229678 0.047456 0.420746
O O19 0.892030 0.250000 0.913106
#
# Coordination Sequence:
#
# PCOD9359969 Si02
#       7
#     8   8   8   8   8   8   8
#     4  11  21  34  52  80 115 156 207 256 305 359
#     4  10  21  40  66  95 123 158 199 248 308 367
#     4  10  21  38  61  86 116 158 203 247 307 367
#     4  11  23  42  63  87 125 165 204 254 311 365
#     4  12  24  37  56  85 120 162 211 257 308 365
#     4   8  16  35  61  86 116 153 190 239 300 355
#     4  10  18  34  56  81 116 157 200 252 311 358
#
# _framework density 20.243009000000001
#
# number of rings (size 3 to 8) (size 9 to 14) (size 15 to 20)
#    0.000    1.714    1.429    5.143    0.000    1.714 
#    0.000    5.000    0.000    3.429    0.000    0.000 
#    0.000    0.000    0.000    0.000    0.000    0.000 
#
# Total GULP energy -156440.831118 kJ/mol
# GULP energy per Si atom -5587.172540 kJ/mol
# Density = 2.019694 g / cm^3
# Si number density = 20.243009 Si / 1000 Ang^3
#
#
#
# Elastic Constant Matrix: (Units=GPa)
#
#
# Indices 1 2 3 4 5 6 
#
# 1 76.9956 13.7058 37.6512 0.0000 0.0000 0.0000
# 2 13.7058 44.6218 -4.8355 0.0000 0.0000 0.0000
# 3 37.6512 -4.8355 101.8164 0.0000 0.0000 0.0000
# 4 0.0000 0.0000 0.0000 27.7897 0.0000 0.0000
# 5 0.0000 0.0000 0.0000 0.0000 -3.7497 0.0000
# 6 0.0000 0.0000 0.0000 0.0000 0.0000 23.4477
#
#
#
# Elastic Compliance Matrix: (Units=1/GPa)
#
#
# Indices 1 2 3 4 5 6 
#
# 1 0.017342 -0.006053 -0.006700 0.000000 0.000000 0.000000
# 2 -0.006053 0.024639 0.003408 0.000000 0.000000 0.000000
# 3 -0.006700 0.003408 0.012461 0.000000 0.000000 0.000000
# 4 0.000000 0.000000 0.000000 0.035985 0.000000 0.000000
# 5 0.000000 0.000000 0.000000 0.000000 -0.266688 0.000000
# 6 0.000000 0.000000 0.000000 0.000000 0.000000 0.042648
#
#
# Mechanical properties :
#
#
# Convention : Reuss Voigt Hill
#
# Bulk Modulus (GPa) = 27.96985 35.16409 31.56697
# Shear Modulus (GPa) = -48.54038 21.29171 -13.62434
#
# Velocity S-wave (km/s) = -4.90213 3.24667 -2.59711
# Velocity P-wave (km/s) = 4.26546 5.60921 2.57576
#
# Compressibility (1/GPa) = 0.03575278
#
# Stress axis : x y z
#
# Youngs Moduli (GPa) = 57.66466 40.58601 80.24905
#
# Poissons Ratio (x) = 0.24565 0.53769
# Poissons Ratio (y) = 0.34902 -0.27352
# Poissons Ratio (z) = 0.38637 -0.13833
#
# Static dielectric constant tensor:
#      x y z
#    x 1.715990 0.000000 0.000000 
#    y 0.000000 1.682750 0.000000 
#    z 0.000000 0.000000 1.747750 
# 
# From -- ./inp_files/14782.got.cif
#   From: 2010.05.17/outbox.cif.g08.bks.cpg/sg39_8_cif.got.tgz:14782.got - 2010.06.03 18:22:40.
