data_PCOD9359794
_publ_section_title
;
Structure prediction by ZEFSAII (Michael W. Deem and Ramdas Pophale) SiO2 
 PCOD9359794
Probable space group: A B M 2
;
_chemical_formula_sum "Si O2"
_cell_formula_units_Z 48
_cell_length_a 8.252968
_cell_length_b 14.235870
_cell_length_c 14.577096
_cell_angle_alpha 90.000000
_cell_angle_beta 90.000000
_cell_angle_gamma 90.000000
_cell_volume 1712.636472
_symmetry_space_group_name_H-M "A B M 2"
_symmetry_group_IT_number 39
_symmetry_cell_setting 'orthorhombic'
loop_
_space_group_symop_operation_xyz
x,y,z
-x,-y,z
-x,1/2+y,z
x,1/2-y,z
x,1/2+y,1/2+z
-x,1/2-y,1/2+z
-x,y,1/2+z
x,-y,1/2+z
loop_
_atom_site_type_symbol
_atom_site_label
_atom_site_fract_x
_atom_site_fract_y
_atom_site_fract_z
Si Si1 0.403388 0.638766 0.427610
Si Si2 0.797257 0.143080 0.584960
Si Si3 0.896637 0.364317 0.203727
Si Si4 0.897110 0.364574 0.860902
Si Si5 0.721493 0.135977 0.034104
Si Si6 0.574782 0.098041 0.745580
O O1 0.391797 0.750000 0.444060
O O2 0.256442 0.598545 0.488640
O O3 0.563363 0.603268 0.480532
O O4 0.440112 0.633576 0.319325
O O5 0.850590 0.250000 0.567120
O O6 0.942956 0.105646 0.646610
O O7 0.639398 0.145845 0.652635
O O8 0.885223 0.250000 0.206942
O O9 0.940422 0.393441 0.307100
O O10 0.753932 0.397226 0.137117
O O11 0.884619 0.250000 0.852178
O O12 0.872712 0.385650 0.967148
O O13 0.738920 0.402750 0.807359
O O14 0.710683 0.250000 0.037544
O O15 0.500000 0.000000 0.720199
#
# Coordination Sequence:
#
# PCOD9359794 Si02
#       6
#     8   8   8   8   8   8
#     4   9  17  30  47  68  95 123 152 192 239 278
#     4   9  17  30  47  68  95 123 152 192 239 278
#     4   8  13  23  41  65  90 116 147 182 224 276
#     4   8  14  26  43  64  95 128 155 188 235 284
#     4   8  13  23  41  65  90 116 147 182 224 276
#     4  10  18  28  45  68  92 124 160 192 225 276
#
# _framework density 28.026962999999999
#
# number of rings (size 3 to 8) (size 9 to 14) (size 15 to 20)
#    0.000    3.333    0.000    3.500    0.000    0.667 
#    0.000    1.667    0.000    8.000    0.000   28.000 
#    0.000    0.000    0.000    0.000    0.000   21.333 
#
# Total GULP energy -134095.427491 kJ/mol
# GULP energy per Si atom -5587.309479 kJ/mol
# Density = 2.796317 g / cm^3
# Si number density = 28.026963 Si / 1000 Ang^3
#
#
#
# Elastic Constant Matrix: (Units=GPa)
#
#
# Indices 1 2 3 4 5 6 
#
# 1 58.8437 28.0574 43.3306 0.0000 0.0000 0.0000
# 2 28.0574 83.9080 13.7795 0.0000 0.0000 0.0000
# 3 43.3306 13.7795 183.0248 0.0000 0.0000 0.0000
# 4 0.0000 0.0000 0.0000 -53.4562 0.0000 0.0000
# 5 0.0000 0.0000 0.0000 0.0000 54.2412 0.0000
# 6 0.0000 0.0000 0.0000 0.0000 0.0000 22.1900
#
#
#
# Elastic Compliance Matrix: (Units=1/GPa)
#
#
# Indices 1 2 3 4 5 6 
#
# 1 0.024292 -0.007268 -0.005204 0.000000 0.000000 0.000000
# 2 -0.007268 0.014242 0.000648 0.000000 0.000000 0.000000
# 3 -0.005204 0.000648 0.006647 0.000000 0.000000 0.000000
# 4 0.000000 0.000000 0.000000 -0.018707 0.000000 0.000000
# 5 0.000000 0.000000 0.000000 0.000000 0.018436 0.000000
# 6 0.000000 0.000000 0.000000 0.000000 0.000000 0.045065
#
#
# Mechanical properties :
#
#
# Convention : Reuss Voigt Hill
#
# Bulk Modulus (GPa) = 46.43965 55.12353 50.78159
# Shear Modulus (GPa) = 41.39096 20.63559 31.01327
#
# Velocity S-wave (km/s) = 3.84712 2.71638 3.33010
# Velocity P-wave (km/s) = 6.02821 5.43590 5.73971
#
# Compressibility (1/GPa) = 0.02153333
#
# Stress axis : x y z
#
# Youngs Moduli (GPa) = 41.16653 70.21658 150.44622
#
# Poissons Ratio (x) = 0.51034 0.78289
# Poissons Ratio (y) = 0.29920 -0.09756
# Poissons Ratio (z) = 0.21422 -0.04553
#
# Static dielectric constant tensor:
#      x y z
#    x 2.226750 0.000000 0.000000 
#    y 0.000000 2.159210 0.000000 
#    z 0.000000 0.000000 2.190270 
# 
# From -- ./inp_files/9348.got.cif
#   From: 2010.05.17/outbox.cif.g08.bks.cpg/sg39_5_cif.got.tgz:9348.got - 2010.06.03 18:22:40.
