data_PCOD9359142
_publ_section_title
;
Structure prediction by ZEFSAII (Michael W. Deem and Ramdas Pophale) SiO2 
 PCOD9359142
Probable space group: A M M 2
;
_chemical_formula_sum "Si O2"
_cell_formula_units_Z 34
_cell_length_a 11.379405
_cell_length_b 29.209965
_cell_length_c 5.077362
_cell_angle_alpha 90.000000
_cell_angle_beta 90.000000
_cell_angle_gamma 90.000000
_cell_volume 1687.674620
_symmetry_space_group_name_H-M "A M M 2"
_symmetry_group_IT_number 38
_symmetry_cell_setting 'orthorhombic'
loop_
_space_group_symop_operation_xyz
x,y,z
-x,-y,z
-x,y,z
x,-y,z
x,1/2+y,1/2+z
-x,1/2-y,1/2+z
-x,1/2+y,1/2+z
x,1/2-y,1/2+z
loop_
_atom_site_type_symbol
_atom_site_label
_atom_site_fract_x
_atom_site_fract_y
_atom_site_fract_z
Si Si1 0.359236 0.279188 0.571150
Si Si2 0.500000 0.000000 0.152021
Si Si3 0.316248 0.000000 0.652236
Si Si4 0.861786 0.583682 0.076133
Si Si5 0.000000 0.219585 0.105336
Si Si6 0.808086 0.856405 0.076012
O O1 0.500000 0.279092 0.574244
O O2 0.318115 0.251039 0.317370
O O3 0.317409 0.331579 0.570144
O O4 0.602565 0.000000 0.389356
O O5 0.603048 0.000000 0.914938
O O6 0.228574 0.043494 0.645108
O O7 0.844698 0.622644 0.297502
O O8 0.000000 0.570195 0.071006
O O9 0.825996 0.605313 0.796259
O O10 0.890469 0.186354 0.144689
O O11 0.000000 0.260104 0.313945
#
# Coordination Sequence:
#
# PCOD9359142 Si02
#       6
#     8   2   4   8   4   8
#     4  10  21  40  62  86 124 174 229 273 324 390
#     4  10  24  50  70 106 132 166 228 264 320 426
#     4  11  25  48  78  98 137 181 212 270 348 393
#     4  12  24  45  68 101 138 171 223 276 329 408
#     4  12  22  36  60  89 136 187 216 268 336 388
#     4  12  23  40  62  99 137 168 226 278 327 391
#
# _framework density 20.146063999999999
#
# number of rings (size 3 to 8) (size 9 to 14) (size 15 to 20)
#    0.000    0.706    2.353    6.000    0.000    0.000 
#   12.706    3.529    0.000    0.000    0.000    0.000 
#    0.000    0.000    0.000    0.000    0.000    0.000 
#
# Total GULP energy -94742.939042 kJ/mol
# GULP energy per Si atom -5573.114061 kJ/mol
# Density = 2.010021 g / cm^3
# Si number density = 20.146064 Si / 1000 Ang^3
#
#
#
# Elastic Constant Matrix: (Units=GPa)
#
#
# Indices 1 2 3 4 5 6 
#
# 1 105.8945 45.7641 31.5168 0.0000 0.0000 0.0000
# 2 45.7641 59.4793 -0.6141 0.0000 0.0000 0.0000
# 3 31.5168 -0.6141 127.1875 0.0000 0.0000 0.0000
# 4 0.0000 0.0000 0.0000 20.0084 0.0000 0.0000
# 5 0.0000 0.0000 0.0000 0.0000 4.5072 0.0000
# 6 0.0000 0.0000 0.0000 0.0000 0.0000 19.4291
#
#
#
# Elastic Compliance Matrix: (Units=1/GPa)
#
#
# Indices 1 2 3 4 5 6 
#
# 1 0.015965 -0.012325 -0.004016 0.000000 0.000000 0.000000
# 2 -0.012325 0.026329 0.003181 0.000000 0.000000 0.000000
# 3 -0.004016 0.003181 0.008873 0.000000 0.000000 0.000000
# 4 0.000000 0.000000 0.000000 0.049979 0.000000 0.000000
# 5 0.000000 0.000000 0.000000 0.000000 0.221869 0.000000
# 6 0.000000 0.000000 0.000000 0.000000 0.000000 0.051469
#
#
# Mechanical properties :
#
#
# Convention : Reuss Voigt Hill
#
# Bulk Modulus (GPa) = 40.24565 49.54388 44.89477
# Shear Modulus (GPa) = 12.22241 23.18192 17.70216
#
# Velocity S-wave (km/s) = 2.46578 3.39587 2.96749
# Velocity P-wave (km/s) = 5.30349 6.32626 5.83732
#
# Compressibility (1/GPa) = 0.02484741
#
# Stress axis : x y z
#
# Youngs Moduli (GPa) = 62.63695 37.98162 112.70368
#
# Poissons Ratio (x) = 0.46813 0.45257
# Poissons Ratio (y) = 0.77201 -0.35854
# Poissons Ratio (z) = 0.25153 -0.12083
#
# Static dielectric constant tensor:
#      x y z
#    x 1.881610 0.000000 0.000000 
#    y 0.000000 1.673380 0.000000 
#    z 0.000000 0.000000 1.674980 
# 
# From -- ./inp_files/850.got.cif
#   From: 2010.05.17/outbox.cif.g08.bks.cpg/sg38_1_cif.got.tgz:850.got - 2010.06.03 18:07:57.
