data_PCOD9359374
_publ_section_title
;
Structure prediction by ZEFSAII (Michael W. Deem and Ramdas Pophale) SiO2 
 PCOD9359374
Probable space group: A M M 2
;
_chemical_formula_sum "Si O2"
_cell_formula_units_Z 44
_cell_length_a 15.016559
_cell_length_b 16.737014
_cell_length_c 9.172217
_cell_angle_alpha 90.000000
_cell_angle_beta 90.000000
_cell_angle_gamma 90.000000
_cell_volume 2305.274929
_symmetry_space_group_name_H-M "A M M 2"
_symmetry_group_IT_number 38
_symmetry_cell_setting 'orthorhombic'
loop_
_space_group_symop_operation_xyz
x,y,z
-x,-y,z
-x,y,z
x,-y,z
x,1/2+y,1/2+z
-x,1/2-y,1/2+z
-x,1/2+y,1/2+z
x,1/2-y,1/2+z
loop_
_atom_site_type_symbol
_atom_site_label
_atom_site_fract_x
_atom_site_fract_y
_atom_site_fract_z
Si Si1 0.500000 0.654345 0.586611
Si Si2 0.670805 0.408934 0.434305
Si Si3 0.669617 0.130783 0.607191
Si Si4 0.500000 0.825585 0.430966
Si Si5 0.894804 0.660705 0.853925
Si Si6 0.794563 0.278457 0.567724
Si Si7 0.808112 0.000000 0.476774
O O1 0.411503 0.606843 0.541775
O O2 0.500000 0.735876 0.493786
O O3 0.500000 0.673626 0.757245
O O4 0.701324 0.500000 0.447137
O O5 0.639784 0.392425 0.269292
O O6 0.749682 0.348065 0.472518
O O7 0.587756 0.133071 0.495912
O O8 0.714972 0.218196 0.612504
O O9 0.743281 0.069271 0.551149
O O10 0.840833 0.683749 0.708262
O O11 0.868627 0.571908 0.904364
O O12 0.000000 0.667173 0.830703
O O13 0.862953 0.725216 0.974729
#
# Coordination Sequence:
#
# PCOD9359374 Si02
#       7
#     4   8   8   4   8   8   4
#     4  12  27  41  63 100 133 181 237 274 330 389
#     4  12  25  44  66  99 137 177 223 283 332 396
#     4  11  23  46  67  97 136 180 229 269 338 398
#     4  12  26  40  70  95 137 185 231 279 317 406
#     4  11  24  45  70 100 134 173 222 283 345 410
#     4  11  24  41  71  98 131 177 225 272 340 411
#     4  10  25  41  72  98 132 172 222 271 341 404
#
# _framework density 19.086659000000001
#
# number of rings (size 3 to 8) (size 9 to 14) (size 15 to 20)
#    0.000    0.727    4.545    2.727    6.364    0.364 
#    1.636    0.000    0.000    0.000    0.000    0.000 
#    0.000    0.000    0.000    0.000    0.000    0.000 
#
# Total GULP energy -122504.810896 kJ/mol
# GULP energy per Si atom -5568.400495 kJ/mol
# Density = 1.904322 g / cm^3
# Si number density = 19.086659 Si / 1000 Ang^3
#
#
#
# Elastic Constant Matrix: (Units=GPa)
#
#
# Indices 1 2 3 4 5 6 
#
# 1 79.9200 25.2718 48.7798 0.0000 0.0000 0.0000
# 2 25.2718 138.1407 32.3247 0.0000 0.0000 0.0000
# 3 48.7798 32.3247 85.4426 0.0000 0.0000 0.0000
# 4 0.0000 0.0000 0.0000 20.5091 0.0000 0.0000
# 5 0.0000 0.0000 0.0000 0.0000 15.8326 0.0000
# 6 0.0000 0.0000 0.0000 0.0000 0.0000 24.2157
#
#
#
# Elastic Compliance Matrix: (Units=1/GPa)
#
#
# Indices 1 2 3 4 5 6 
#
# 1 0.019342 -0.001047 -0.010646 0.000000 0.000000 0.000000
# 2 -0.001047 0.007999 -0.002428 0.000000 0.000000 0.000000
# 3 -0.010646 -0.002428 0.018700 0.000000 0.000000 0.000000
# 4 0.000000 0.000000 0.000000 0.048759 0.000000 0.000000
# 5 0.000000 0.000000 0.000000 0.000000 0.063161 0.000000
# 6 0.000000 0.000000 0.000000 0.000000 0.000000 0.041295
#
#
# Mechanical properties :
#
#
# Convention : Reuss Voigt Hill
#
# Bulk Modulus (GPa) = 56.18725 57.36179 56.77452
# Shear Modulus (GPa) = 21.41957 25.25329 23.33643
#
# Velocity S-wave (km/s) = 3.35360 3.64137 3.50044
# Velocity P-wave (km/s) = 6.67064 6.91361 6.79321
#
# Compressibility (1/GPa) = 0.01779763
#
# Stress axis : x y z
#
# Youngs Moduli (GPa) = 51.70209 125.01906 53.47498
#
# Poissons Ratio (x) = 0.13092 0.56930
# Poissons Ratio (y) = 0.05414 0.12985
# Poissons Ratio (z) = 0.55042 0.30358
#
# Static dielectric constant tensor:
#      x y z
#    x 1.670180 0.000000 0.000000 
#    y 0.000000 1.664210 0.000000 
#    z 0.000000 0.000000 1.657200 
# 
# From -- ./inp_files/5416.got.cif
#   From: 2010.05.17/outbox.cif.g08.bks.cpg/sg38_3_cif.got.tgz:5416.got - 2010.06.03 18:07:57.
