data_PCOD9359714
_publ_section_title
;
Structure prediction by ZEFSAII (Michael W. Deem and Ramdas Pophale) SiO2 
 PCOD9359714
Probable space group: A B M 2
;
_chemical_formula_sum "Si O2"
_cell_formula_units_Z 60
_cell_length_a 16.209027
_cell_length_b 11.476788
_cell_length_c 14.461402
_cell_angle_alpha 90.000000
_cell_angle_beta 90.000000
_cell_angle_gamma 90.000000
_cell_volume 2690.219423
_symmetry_space_group_name_H-M "A B M 2"
_symmetry_group_IT_number 39
_symmetry_cell_setting 'orthorhombic'
loop_
_space_group_symop_operation_xyz
x,y,z
-x,-y,z
-x,1/2+y,z
x,1/2-y,z
x,1/2+y,1/2+z
-x,1/2-y,1/2+z
-x,y,1/2+z
x,-y,1/2+z
loop_
_atom_site_type_symbol
_atom_site_label
_atom_site_fract_x
_atom_site_fract_y
_atom_site_fract_z
Si Si1 0.586036 0.125284 0.149630
Si Si2 0.882564 0.387363 0.527745
Si Si3 0.545048 0.877983 0.868278
Si Si4 0.107374 0.381876 0.224883
Si Si5 0.390767 0.122800 0.128956
Si Si6 0.713982 0.122880 0.803755
Si Si7 0.000000 0.500000 0.880110
Si Si8 0.279600 0.384515 0.919465
O O1 0.623520 0.250000 0.124049
O O2 0.579189 0.121325 0.262181
O O3 0.369249 0.987602 0.108205
O O4 0.489914 0.126050 0.119323
O O5 0.887806 0.250000 0.541688
O O6 0.905802 0.442465 0.626153
O O7 0.788241 0.408034 0.497354
O O8 0.944897 0.421263 0.447182
O O9 0.503561 0.750000 0.880615
O O10 0.500000 0.000000 0.883042
O O11 0.074812 0.250000 0.224370
O O12 0.205646 0.376584 0.238401
O O13 0.064952 0.440190 0.311957
O O14 0.355623 0.250000 0.099727
O O15 0.366463 0.122761 0.238954
O O16 0.377292 0.121420 0.938134
O O17 0.715571 0.250000 0.853919
O O18 0.723296 0.001604 0.857537
O O19 0.260700 0.250000 0.883499
#
# Coordination Sequence:
#
# PCOD9359714 Si02
#       8
#     8   8   8   8   8   8   4   8
#     4   9  14  20  32  57  95 129 168 225 277 325
#     4  10  22  39  59  87 124 160 200 250 302 365
#     4  10  17  25  42  71 106 144 193 245 296 352
#     4  10  22  38  58  88 119 153 199 247 299 363
#     4   9  15  22  36  60  93 132 172 222 278 327
#     4  10  18  31  51  76 108 146 190 240 290 347
#     4  12  20  38  66  88 116 158 200 250 306 358
#     4  10  19  33  53  79 113 157 201 246 301 361
#
# _framework density 22.303014999999998
#
# number of rings (size 3 to 8) (size 9 to 14) (size 15 to 20)
#    0.000    2.133    4.000    0.800    0.000    0.533 
#    0.000    0.000    0.000    2.400    3.467    0.000 
#    0.000    0.000    0.000    0.000    0.000    0.000 
#
# Total GULP energy -167085.554625 kJ/mol
# GULP energy per Si atom -5569.518487 kJ/mol
# Density = 2.225225 g / cm^3
# Si number density = 22.303015 Si / 1000 Ang^3
#
#
#
# Elastic Constant Matrix: (Units=GPa)
#
#
# Indices 1 2 3 4 5 6 
#
# 1 60.6347 15.6723 10.4271 0.0000 0.0000 0.0000
# 2 15.6723 198.7581 37.5867 0.0000 0.0000 0.0000
# 3 10.4271 37.5867 67.5944 0.0000 0.0000 0.0000
# 4 0.0000 0.0000 0.0000 -6.6433 0.0000 0.0000
# 5 0.0000 0.0000 0.0000 0.0000 13.5598 0.0000
# 6 0.0000 0.0000 0.0000 0.0000 0.0000 -5.5208
#
#
#
# Elastic Compliance Matrix: (Units=1/GPa)
#
#
# Indices 1 2 3 4 5 6 
#
# 1 0.017100 -0.000949 -0.002110 0.000000 0.000000 0.000000
# 2 -0.000949 0.005675 -0.003009 0.000000 0.000000 0.000000
# 3 -0.002110 -0.003009 0.016793 0.000000 0.000000 0.000000
# 4 0.000000 0.000000 0.000000 -0.150528 0.000000 0.000000
# 5 0.000000 0.000000 0.000000 0.000000 0.073747 0.000000
# 6 0.000000 0.000000 0.000000 0.000000 0.000000 -0.181134
#
#
# Mechanical properties :
#
#
# Convention : Reuss Voigt Hill
#
# Bulk Modulus (GPa) = 36.45475 50.48437 43.46956
# Shear Modulus (GPa) = -25.37226 17.83257 -3.76985
#
# Velocity S-wave (km/s) = -3.37651 2.83071 -1.30152
# Velocity P-wave (km/s) = 1.08608 5.77657 4.15622
#
# Compressibility (1/GPa) = 0.02743126
#
# Stress axis : x y z
#
# Youngs Moduli (GPa) = 58.47801 176.20575 59.54870
#
# Poissons Ratio (x) = 0.16728 0.12565
# Poissons Ratio (y) = 0.05552 0.17920
# Poissons Ratio (z) = 0.12339 0.53026
#
# Static dielectric constant tensor:
#      x y z
#    x 1.832440 0.000000 0.000000 
#    y 0.000000 1.881830 0.000000 
#    z 0.000000 0.000000 1.937160 
# 
# From -- ./inp_files/7000.got.cif
#   From: 2010.05.17/outbox.cif.g08.bks.cpg/sg39_4_cif.got.tgz:7000.got - 2010.06.03 18:22:40.
