data_PCOD9359982
_publ_section_title
;
Structure prediction by ZEFSAII (Michael W. Deem and Ramdas Pophale) SiO2 
 PCOD9359982
Probable space group: A B M 2
;
_chemical_formula_sum "Si O2"
_cell_formula_units_Z 60
_cell_length_a 7.007170
_cell_length_b 17.725591
_cell_length_c 19.481103
_cell_angle_alpha 90.000000
_cell_angle_beta 90.000000
_cell_angle_gamma 90.000000
_cell_volume 2419.674350
_symmetry_space_group_name_H-M "A B M 2"
_symmetry_group_IT_number 39
_symmetry_cell_setting 'orthorhombic'
loop_
_space_group_symop_operation_xyz
x,y,z
-x,-y,z
-x,1/2+y,z
x,1/2-y,z
x,1/2+y,1/2+z
-x,1/2-y,1/2+z
-x,y,1/2+z
x,-y,1/2+z
loop_
_atom_site_type_symbol
_atom_site_label
_atom_site_fract_x
_atom_site_fract_y
_atom_site_fract_z
Si Si1 0.489852 0.080182 0.347010
Si Si2 0.010154 0.165838 0.953650
Si Si3 0.435692 0.665836 0.986352
Si Si4 0.951236 0.832523 0.162861
Si Si5 0.294929 0.919920 0.102957
Si Si6 0.779510 0.470890 0.721046
Si Si7 0.831591 0.669249 0.804750
Si Si8 0.000000 0.500000 0.009626
O O1 0.496753 0.137717 0.410858
O O2 0.326528 0.063390 0.288903
O O3 0.679750 0.102813 0.306283
O O4 0.500000 0.000000 0.383828
O O5 0.086636 0.250000 0.976378
O O6 0.041724 0.165853 0.872374
O O7 0.790994 0.167872 0.974244
O O8 0.065217 0.079250 0.973852
O O9 0.504393 0.750000 0.999554
O O10 0.458801 0.614443 0.054301
O O11 0.877014 0.750000 0.144312
O O12 0.137307 0.854696 0.119047
O O13 0.033393 0.830478 0.239883
O O14 0.804166 0.900559 0.168274
O O15 0.320611 0.963554 0.174935
O O16 0.178784 0.977117 0.055400
O O17 0.000000 0.500000 0.735151
O O18 0.724645 0.750000 0.804002
#
# Coordination Sequence:
#
# PCOD9359982 Si02
#       8
#     8   8   8   8   8   8   8   4
#     4  12  25  38  60  93 125 168 206 259 321 374
#     4   9  20  37  62  92 124 160 202 259 318 375
#     4  10  22  40  64  92 124 162 209 262 316 379
#     4  10  19  36  64  90 117 160 208 254 313 373
#     4  10  19  38  58  89 123 160 201 263 314 370
#     4  10  21  41  60  89 127 160 209 260 309 377
#     4  10  22  40  61  88 127 167 206 254 312 380
#     4  10  18  34  62  90 124 158 206 268 320 376
#
# _framework density 24.796726
#
# number of rings (size 3 to 8) (size 9 to 14) (size 15 to 20)
#    0.000    1.867    2.000    3.200    3.733    2.667 
#    4.800    2.000    0.000    0.000    0.000    0.000 
#    0.000    0.000    0.000    0.000    0.000    0.000 
#
# Total GULP energy -167222.725037 kJ/mol
# GULP energy per Si atom -5574.090835 kJ/mol
# Density = 2.474029 g / cm^3
# Si number density = 24.796726 Si / 1000 Ang^3
#
#
#
# Elastic Constant Matrix: (Units=GPa)
#
#
# Indices 1 2 3 4 5 6 
#
# 1 54.6204 -4.2785 26.9067 0.0000 0.0000 0.0000
# 2 -4.2785 149.7115 45.9134 0.0000 0.0000 0.0000
# 3 26.9067 45.9134 161.6057 0.0000 0.0000 0.0000
# 4 0.0000 0.0000 0.0000 29.3137 0.0000 0.0000
# 5 0.0000 0.0000 0.0000 0.0000 25.7504 0.0000
# 6 0.0000 0.0000 0.0000 0.0000 0.0000 15.6628
#
#
#
# Elastic Compliance Matrix: (Units=1/GPa)
#
#
# Indices 1 2 3 4 5 6 
#
# 1 0.020366 0.001777 -0.003896 0.000000 0.000000 0.000000
# 2 0.001777 0.007472 -0.002419 0.000000 0.000000 0.000000
# 3 -0.003896 -0.002419 0.007524 0.000000 0.000000 0.000000
# 4 0.000000 0.000000 0.000000 0.034114 0.000000 0.000000
# 5 0.000000 0.000000 0.000000 0.000000 0.038834 0.000000
# 6 0.000000 0.000000 0.000000 0.000000 0.000000 0.063845
#
#
# Mechanical properties :
#
#
# Convention : Reuss Voigt Hill
#
# Bulk Modulus (GPa) = 38.04176 55.89120 46.96648
# Shear Modulus (GPa) = 26.31672 33.97179 30.14426
#
# Velocity S-wave (km/s) = 3.26129 3.70538 3.49041
# Velocity P-wave (km/s) = 5.43655 6.39493 5.93512
#
# Compressibility (1/GPa) = 0.02628690
#
# Stress axis : x y z
#
# Youngs Moduli (GPa) = 49.10042 133.83195 132.91348
#
# Poissons Ratio (x) = -0.23779 0.51779
# Poissons Ratio (y) = -0.08724 0.32148
# Poissons Ratio (z) = 0.19128 0.32370
#
# Static dielectric constant tensor:
#      x y z
#    x 1.983430 0.000000 0.000000 
#    y 0.000000 2.105230 0.000000 
#    z 0.000000 0.000000 2.054130 
# 
# From -- ./inp_files/11812.got.cif
#   From: 2010.05.17/outbox.cif.g08.bks.cpg/sg39_6_cif.got.tgz:11812.got - 2010.06.03 18:22:40.
