data_PCOD9359272
_publ_section_title
;
Structure prediction by ZEFSAII (Michael W. Deem and Ramdas Pophale) SiO2 
 PCOD9359272
Probable space group: A M M 2
;
_chemical_formula_sum "Si O2"
_cell_formula_units_Z 48
_cell_length_a 7.307999
_cell_length_b 29.785487
_cell_length_c 9.978172
_cell_angle_alpha 90.000000
_cell_angle_beta 90.000000
_cell_angle_gamma 90.000000
_cell_volume 2171.971741
_symmetry_space_group_name_H-M "A M M 2"
_symmetry_group_IT_number 38
_symmetry_cell_setting 'orthorhombic'
loop_
_space_group_symop_operation_xyz
x,y,z
-x,-y,z
-x,y,z
x,-y,z
x,1/2+y,1/2+z
-x,1/2-y,1/2+z
-x,1/2+y,1/2+z
x,1/2-y,1/2+z
loop_
_atom_site_type_symbol
_atom_site_label
_atom_site_fract_x
_atom_site_fract_y
_atom_site_fract_z
Si Si1 0.776386 0.214859 0.556850
Si Si2 0.777561 0.203592 0.249498
Si Si3 0.500000 0.053805 0.410440
Si Si4 0.781939 0.448306 0.129204
Si Si5 0.779321 0.359443 0.266134
Si Si6 0.780595 0.373463 0.554889
Si Si7 0.500000 0.053374 0.099044
O O1 0.716189 0.211948 0.402131
O O2 0.721337 0.258193 0.643539
O O3 0.715943 0.172604 0.647171
O O4 0.000000 0.215071 0.552755
O O5 0.726804 0.156046 0.183400
O O6 0.000000 0.204692 0.252575
O O7 0.321073 0.066640 0.494260
O O8 0.500000 0.064754 0.256857
O O9 0.500000 0.000000 0.412755
O O10 0.732483 0.500000 0.162238
O O11 0.000000 0.446964 0.110446
O O12 0.729165 0.410989 0.237097
O O13 0.729235 0.347248 0.417742
O O14 0.000000 0.356959 0.261990
O O15 0.678722 0.420784 0.547636
O O16 0.000000 0.379307 0.556589
O O17 0.500000 0.000000 0.077215
#
# Coordination Sequence:
#
# PCOD9359272 Si02
#       7
#     8   8   4   8   8   8   4
#     4   9  16  28  52  88 125 159 204 251 297 360
#     4   9  17  30  54  87 122 162 203 248 301 358
#     4   9  20  37  55  80 112 147 189 239 296 352
#     4   9  18  33  55  82 114 152 196 247 298 351
#     4   9  18  32  54  87 121 156 202 250 298 357
#     4  10  22  40  62  88 122 162 203 250 304 360
#     4  11  26  43  61  88 122 159 203 253 303 364
#
# _framework density 22.099734000000002
#
# number of rings (size 3 to 8) (size 9 to 14) (size 15 to 20)
#    0.000    2.667    0.000    1.000    2.333    6.333 
#    0.000    4.167    0.000    5.000    0.000    0.000 
#    0.000    0.000    0.000    0.000    0.000    0.000 
#
# Total GULP energy -133938.110776 kJ/mol
# GULP energy per Si atom -5580.754616 kJ/mol
# Density = 2.204943 g / cm^3
# Si number density = 22.099734 Si / 1000 Ang^3
#
#
#
# Elastic Constant Matrix: (Units=GPa)
#
#
# Indices 1 2 3 4 5 6 
#
# 1 86.3902 27.6791 24.3227 0.0000 0.0000 0.0000
# 2 27.6791 138.3404 70.4172 0.0000 0.0000 0.0000
# 3 24.3227 70.4172 177.2296 0.0000 0.0000 0.0000
# 4 0.0000 0.0000 0.0000 34.8783 0.0000 0.0000
# 5 0.0000 0.0000 0.0000 0.0000 51.5623 0.0000
# 6 0.0000 0.0000 0.0000 0.0000 0.0000 -35.4307
#
#
#
# Elastic Compliance Matrix: (Units=1/GPa)
#
#
# Indices 1 2 3 4 5 6 
#
# 1 0.012483 -0.002038 -0.000904 0.000000 0.000000 0.000000
# 2 -0.002038 0.009394 -0.003453 0.000000 0.000000 0.000000
# 3 -0.000904 -0.003453 0.007138 0.000000 0.000000 0.000000
# 4 0.000000 0.000000 0.000000 0.028671 0.000000 0.000000
# 5 0.000000 0.000000 0.000000 0.000000 0.019394 0.000000
# 6 0.000000 0.000000 0.000000 0.000000 0.000000 -0.028224
#
#
# Mechanical properties :
#
#
# Convention : Reuss Voigt Hill
#
# Bulk Modulus (GPa) = 61.62598 71.86644 66.74621
# Shear Modulus (GPa) = 74.56886 28.83807 51.70346
#
# Velocity S-wave (km/s) = 5.81509 3.61627 4.84214
# Velocity P-wave (km/s) = 8.54593 7.07292 7.84408
#
# Compressibility (1/GPa) = 0.01622692
#
# Stress axis : x y z
#
# Youngs Moduli (GPa) = 80.11145 106.45440 140.09099
#
# Poissons Ratio (x) = 0.21691 0.12657
# Poissons Ratio (y) = 0.16324 0.48369
# Poissons Ratio (z) = 0.07238 0.36755
#
# Static dielectric constant tensor:
#      x y z
#    x 1.811580 0.000000 0.000000 
#    y 0.000000 1.793070 0.000000 
#    z 0.000000 0.000000 1.810560 
# 
# From -- ./inp_files/3835.got.cif
#   From: 2010.05.17/outbox.cif.g08.bks.cpg/sg38_2_cif.got.tgz:3835.got - 2010.06.03 18:07:57.
