data_PCOD9359790
_publ_section_title
;
Structure prediction by ZEFSAII (Michael W. Deem and Ramdas Pophale) SiO2 
 PCOD9359790
Probable space group: A B M 2
;
_chemical_formula_sum "Si O2"
_cell_formula_units_Z 64
_cell_length_a 14.821506
_cell_length_b 7.965425
_cell_length_c 32.558313
_cell_angle_alpha 90.000000
_cell_angle_beta 90.000000
_cell_angle_gamma 90.000000
_cell_volume 3843.821228
_symmetry_space_group_name_H-M "A B M 2"
_symmetry_group_IT_number 39
_symmetry_cell_setting 'orthorhombic'
loop_
_space_group_symop_operation_xyz
x,y,z
-x,-y,z
-x,1/2+y,z
x,1/2-y,z
x,1/2+y,1/2+z
-x,1/2-y,1/2+z
-x,y,1/2+z
x,-y,1/2+z
loop_
_atom_site_type_symbol
_atom_site_label
_atom_site_fract_x
_atom_site_fract_y
_atom_site_fract_z
Si Si1 0.787993 0.956115 0.538840
Si Si2 0.212067 0.544179 0.200899
Si Si3 0.105283 0.449854 0.870594
Si Si4 0.599476 0.548078 0.572471
Si Si5 0.400522 0.451925 0.667092
Si Si6 0.894744 0.952950 0.780800
Si Si7 0.894875 0.551325 0.459719
Si Si8 0.895713 0.451938 0.119944
O O1 0.788541 0.750000 0.538262
O O2 0.684751 0.009943 0.545992
O O3 0.835570 0.017272 0.497287
O O4 0.845294 0.009829 0.578726
O O5 0.210978 0.750000 0.201443
O O6 0.315228 0.490263 0.193603
O O7 0.165014 0.486199 0.242774
O O8 0.154409 0.489503 0.161205
O O9 0.111766 0.250000 0.870573
O O10 0.137806 0.512529 0.825987
O O11 0.142102 0.509089 0.914352
O O12 0.000000 0.500000 0.871374
O O13 0.500000 0.500000 0.557581
O O14 0.603712 0.750000 0.573995
O O15 0.608802 0.486955 0.619790
O O16 0.500000 0.500000 0.681992
O O17 0.396190 0.250000 0.665623
O O18 0.890941 0.750000 0.780966
O O19 0.000000 0.000000 0.775482
O O20 0.894376 0.750000 0.463269
O O21 0.000000 0.500000 0.463027
O O22 0.889428 0.250000 0.120032
O O23 0.000000 0.500000 0.119852
#
# Coordination Sequence:
#
# PCOD9359790 Si02
#       8
#     8   8   8   8   8   8   8   8
#     4   9  17  29  44  61  84 115 144 168 205 254
#     4   9  16  28  45  62  83 115 145 167 204 255
#     4   9  16  27  42  60  83 109 140 179 215 246
#     4   9  16  29  46  63  82 108 140 175 212 249
#     4   9  16  28  46  63  82 109 140 175 211 249
#     4   9  17  28  43  63  86 113 144 174 207 248
#     4  10  18  28  43  62  85 114 145 175 207 248
#     4  10  18  29  42  58  84 117 146 169 197 239
#
# _framework density 16.650098
#
# number of rings (size 3 to 8) (size 9 to 14) (size 15 to 20)
#    0.000    2.750    1.250    2.250    0.000    0.500 
#    0.000    3.750    0.000    0.000    0.000    0.875 
#    0.000    6.000    0.000    0.000    0.000    0.000 
#
# Total GULP energy -178278.252462 kJ/mol
# GULP energy per Si atom -5571.195389 kJ/mol
# Density = 1.661220 g / cm^3
# Si number density = 16.650098 Si / 1000 Ang^3
#
#
#
# Elastic Constant Matrix: (Units=GPa)
#
#
# Indices 1 2 3 4 5 6 
#
# 1 133.3734 5.2830 88.3386 0.0000 0.0000 0.0000
# 2 5.2830 13.0802 12.0537 0.0000 0.0000 0.0000
# 3 88.3386 12.0537 164.1161 0.0000 0.0000 0.0000
# 4 0.0000 0.0000 0.0000 4.8544 0.0000 0.0000
# 5 0.0000 0.0000 0.0000 0.0000 9.0633 0.0000
# 6 0.0000 0.0000 0.0000 0.0000 0.0000 18.6178
#
#
#
# Elastic Compliance Matrix: (Units=1/GPa)
#
#
# Indices 1 2 3 4 5 6 
#
# 1 0.011668 0.001153 -0.006365 0.000000 0.000000 0.000000
# 2 0.001153 0.082115 -0.006652 0.000000 0.000000 0.000000
# 3 -0.006365 -0.006652 0.010008 0.000000 0.000000 0.000000
# 4 0.000000 0.000000 0.000000 0.205998 0.000000 0.000000
# 5 0.000000 0.000000 0.000000 0.000000 0.110335 0.000000
# 6 0.000000 0.000000 0.000000 0.000000 0.000000 0.053712
#
#
# Mechanical properties :
#
#
# Convention : Reuss Voigt Hill
#
# Bulk Modulus (GPa) = 12.49007 57.99114 35.24060
# Shear Modulus (GPa) = 9.53741 20.16673 14.85207
#
# Velocity S-wave (km/s) = 2.39595 3.48402 2.98990
# Velocity P-wave (km/s) = 3.89511 7.14769 5.75592
#
# Compressibility (1/GPa) = 0.08006361
#
# Stress axis : x y z
#
# Youngs Moduli (GPa) = 85.70434 12.17799 99.92022
#
# Poissons Ratio (x) = -0.01404 0.63601
# Poissons Ratio (y) = -0.09882 0.66464
# Poissons Ratio (z) = 0.54553 0.08100
#
# Static dielectric constant tensor:
#      x y z
#    x 1.547520 0.000000 0.000000 
#    y 0.000000 1.593790 0.000000 
#    z 0.000000 0.000000 1.591430 
# 
# From -- ./inp_files/17963.got.cif
#   From: 2010.05.17/outbox.cif.g08.bks.cpg/sg39_9_cif.got.tgz:17963.got - 2010.06.03 18:22:40.
