data_PCOD9359750
_publ_section_title
;
Structure prediction by ZEFSAII (Michael W. Deem and Ramdas Pophale) SiO2 
 PCOD9359750
Probable space group: A B M 2
;
_chemical_formula_sum "Si O2"
_cell_formula_units_Z 64
_cell_length_a 7.641559
_cell_length_b 18.287884
_cell_length_c 21.803033
_cell_angle_alpha 90.000000
_cell_angle_beta 90.000000
_cell_angle_gamma 90.000000
_cell_volume 3046.929047
_symmetry_space_group_name_H-M "A B M 2"
_symmetry_group_IT_number 39
_symmetry_cell_setting 'orthorhombic'
loop_
_space_group_symop_operation_xyz
x,y,z
-x,-y,z
-x,1/2+y,z
x,1/2-y,z
x,1/2+y,1/2+z
-x,1/2-y,1/2+z
-x,y,1/2+z
x,-y,1/2+z
loop_
_atom_site_type_symbol
_atom_site_label
_atom_site_fract_x
_atom_site_fract_y
_atom_site_fract_z
Si Si1 0.472950 0.833128 0.642300
Si Si2 0.039265 0.584110 0.011828
Si Si3 0.546815 0.914377 0.514934
Si Si4 0.536389 0.413187 0.765791
Si Si5 0.083669 0.660762 0.762358
Si Si6 0.961520 0.833459 0.393751
Si Si7 0.532511 0.164752 0.891354
Si Si8 0.055520 0.331054 0.132376
O O1 0.542705 0.750000 0.640218
O O2 0.502371 0.876074 0.579168
O O3 0.534428 0.875809 0.703182
O O4 0.262401 0.827351 0.645490
O O5 0.245954 0.593920 0.010295
O O6 0.000000 0.500000 0.012016
O O7 0.973078 0.618823 0.074527
O O8 0.968649 0.619381 0.949516
O O9 0.472970 0.874201 0.454286
O O10 0.500000 0.000000 0.515381
O O11 0.500000 0.500000 0.765440
O O12 0.742803 0.389702 0.764185
O O13 0.473526 0.376958 0.829729
O O14 0.125787 0.750000 0.763495
O O15 0.981743 0.645783 0.825217
O O16 0.983150 0.646240 0.698896
O O17 0.009432 0.750000 0.405843
O O18 0.747413 0.836802 0.391434
O O19 0.481854 0.250000 0.889899
O O20 0.990429 0.250000 0.116863
#
# Coordination Sequence:
#
# PCOD9359750 Si02
#       8
#     8   8   8   8   8   8   8   8
#     4  10  20  35  55  79 107 143 181 219 262 315
#     4  11  22  34  51  77 108 139 172 216 267 316
#     4  11  22  36  54  77 107 142 180 223 270 319
#     4  10  17  27  48  78 109 140 173 214 260 310
#     4   8  15  31  54  77 100 132 174 216 258 313
#     4   8  15  30  53  76  98 129 172 215 256 307
#     4   9  17  31  51  76 103 136 179 221 259 308
#     4   9  18  34  57  80 104 135 174 216 260 310
#
# _framework density 21.004756
#
# number of rings (size 3 to 8) (size 9 to 14) (size 15 to 20)
#    0.000    2.500    0.000    4.875    0.000    2.500 
#    0.000    0.625    0.000    6.000    0.000    3.500 
#    0.000    0.000    0.000    0.000    0.000    0.000 
#
# Total GULP energy -178492.187785 kJ/mol
# GULP energy per Si atom -5577.880868 kJ/mol
# Density = 2.095695 g / cm^3
# Si number density = 21.004756 Si / 1000 Ang^3
#
#
#
# Elastic Constant Matrix: (Units=GPa)
#
#
# Indices 1 2 3 4 5 6 
#
# 1 35.4762 4.3234 5.9019 0.0000 0.0000 0.0000
# 2 4.3234 173.1751 140.9082 0.0000 0.0000 0.0000
# 3 5.9019 140.9082 265.0752 0.0000 0.0000 0.0000
# 4 0.0000 0.0000 0.0000 27.9024 0.0000 0.0000
# 5 0.0000 0.0000 0.0000 0.0000 9.2067 0.0000
# 6 0.0000 0.0000 0.0000 0.0000 0.0000 87.7901
#
#
#
# Elastic Compliance Matrix: (Units=1/GPa)
#
#
# Indices 1 2 3 4 5 6 
#
# 1 0.028304 -0.000342 -0.000449 0.000000 0.000000 0.000000
# 2 -0.000342 0.010180 -0.005404 0.000000 0.000000 0.000000
# 3 -0.000449 -0.005404 0.006655 0.000000 0.000000 0.000000
# 4 0.000000 0.000000 0.000000 0.035839 0.000000 0.000000
# 5 0.000000 0.000000 0.000000 0.000000 0.108617 0.000000
# 6 0.000000 0.000000 0.000000 0.000000 0.000000 0.011391
#
#
# Mechanical properties :
#
#
# Convention : Reuss Voigt Hill
#
# Bulk Modulus (GPa) = 30.53329 86.22149 58.37739
# Shear Modulus (GPa) = 22.29246 46.48604 34.38925
#
# Velocity S-wave (km/s) = 3.26130 4.70948 4.05064
# Velocity P-wave (km/s) = 5.36185 8.40892 7.05193
#
# Compressibility (1/GPa) = 0.03275114
#
# Stress axis : x y z
#
# Youngs Moduli (GPa) = 35.33043 98.23159 150.26113
#
# Poissons Ratio (x) = 0.03356 0.06741
# Poissons Ratio (y) = 0.01207 0.81199
# Poissons Ratio (z) = 0.01585 0.53083
#
# Static dielectric constant tensor:
#      x y z
#    x 1.810430 0.000000 0.000000 
#    y 0.000000 1.711850 0.000000 
#    z 0.000000 0.000000 1.814650 
# 
# From -- ./inp_files/14251.got.cif
#   From: 2010.05.17/outbox.cif.g08.bks.cpg/sg39_8_cif.got.tgz:14251.got - 2010.06.03 18:22:40.
