data_PCOD9359097
_publ_section_title
;
Structure prediction by ZEFSAII (Michael W. Deem and Ramdas Pophale) SiO2 
 PCOD9359097
Probable space group: A M M 2
;
_chemical_formula_sum "Si O2"
_cell_formula_units_Z 56
_cell_length_a 14.322269
_cell_length_b 8.533210
_cell_length_c 22.264920
_cell_angle_alpha 90.000000
_cell_angle_beta 90.000000
_cell_angle_gamma 90.000000
_cell_volume 2721.105618
_symmetry_space_group_name_H-M "A M M 2"
_symmetry_group_IT_number 38
_symmetry_cell_setting 'orthorhombic'
loop_
_space_group_symop_operation_xyz
x,y,z
-x,-y,z
-x,y,z
x,-y,z
x,1/2+y,1/2+z
-x,1/2-y,1/2+z
-x,1/2+y,1/2+z
x,1/2-y,1/2+z
loop_
_atom_site_type_symbol
_atom_site_label
_atom_site_fract_x
_atom_site_fract_y
_atom_site_fract_z
Si Si1 0.154627 0.821613 0.938060
Si Si2 0.396774 0.815901 0.856602
Si Si3 0.000000 0.329045 0.009827
Si Si4 0.359108 0.819323 0.991568
Si Si5 0.214798 0.182627 0.312296
Si Si6 0.196184 0.687754 0.180161
Si Si7 0.000000 0.178912 0.131174
Si Si8 0.394798 0.813021 0.621373
O O1 0.172892 0.773713 0.869422
O O2 0.118874 0.000000 0.940168
O O3 0.087685 0.696713 0.967716
O O4 0.249203 0.816709 0.976938
O O5 0.500000 0.809149 0.831101
O O6 0.325212 0.708984 0.821700
O O7 0.365609 0.000000 0.855383
O O8 0.399296 0.769726 0.926892
O O9 0.000000 0.195983 0.059631
O O10 0.000000 0.500000 0.038968
O O11 0.384787 0.723042 0.050280
O O12 0.387168 0.000000 0.002145
O O13 0.190057 0.256939 0.248856
O O14 0.190288 0.000000 0.314382
O O15 0.197616 0.500000 0.176302
O O16 0.099224 0.745904 0.150563
O O17 0.296810 0.744708 0.152111
O O18 0.000000 0.000000 0.151759
O O19 0.500000 0.755127 0.640046
O O20 0.395822 0.000000 0.630924
#
# Coordination Sequence:
#
# PCOD9359097 Si02
#       8
#     8   8   4   8   8   8   4   8
#     4  10  21  39  61  86 118 157 198 243 300 365
#     4   9  18  34  56  82 115 158 203 246 300 368
#     4  12  24  39  62  95 126 152 190 242 302 362
#     4   9  18  33  55  83 115 152 196 244 295 355
#     4  11  23  39  59  87 120 153 196 252 310 367
#     4  11  24  44  66  88 120 165 214 258 305 367
#     4  12  26  45  68  95 126 162 206 256 310 366
#     4  10  22  38  58  87 122 160 202 250 304 361
#
# _framework density 20.579871000000001
#
# number of rings (size 3 to 8) (size 9 to 14) (size 15 to 20)
#    0.000    1.714    0.000    5.571    0.000    8.571 
#    0.000    4.286    0.000    0.000    0.000    0.000 
#    0.000    0.000    0.000    0.000    0.000    0.000 
#
# Total GULP energy -156215.182909 kJ/mol
# GULP energy per Si atom -5579.113675 kJ/mol
# Density = 2.053303 g / cm^3
# Si number density = 20.579871 Si / 1000 Ang^3
#
#
#
# Elastic Constant Matrix: (Units=GPa)
#
#
# Indices 1 2 3 4 5 6 
#
# 1 121.8511 25.7147 38.5034 0.0000 0.0000 0.0000
# 2 25.7147 58.5930 7.2507 0.0000 0.0000 0.0000
# 3 38.5034 7.2507 70.9562 0.0000 0.0000 0.0000
# 4 0.0000 0.0000 0.0000 29.8667 0.0000 0.0000
# 5 0.0000 0.0000 0.0000 0.0000 -73.2611 0.0000
# 6 0.0000 0.0000 0.0000 0.0000 0.0000 23.5490
#
#
#
# Elastic Compliance Matrix: (Units=1/GPa)
#
#
# Indices 1 2 3 4 5 6 
#
# 1 0.010781 -0.004059 -0.005435 0.000000 0.000000 0.000000
# 2 -0.004059 0.018813 0.000280 0.000000 0.000000 0.000000
# 3 -0.005435 0.000280 0.017014 0.000000 0.000000 0.000000
# 4 0.000000 0.000000 0.000000 0.033482 0.000000 0.000000
# 5 0.000000 0.000000 0.000000 0.000000 -0.013650 0.000000
# 6 0.000000 0.000000 0.000000 0.000000 0.000000 0.042465
#
#
# Mechanical properties :
#
#
# Convention : Reuss Voigt Hill
#
# Bulk Modulus (GPa) = 35.48606 43.81534 39.65070
# Shear Modulus (GPa) = 36.56932 8.02636 22.29784
#
# Velocity S-wave (km/s) = 4.21996 1.97701 3.29519
# Velocity P-wave (km/s) = 6.40504 5.15248 5.81260
#
# Compressibility (1/GPa) = 0.02818008
#
# Stress axis : x y z
#
# Youngs Moduli (GPa) = 92.75785 53.15334 58.77522
#
# Poissons Ratio (x) = 0.21574 0.31946
# Poissons Ratio (y) = 0.37648 -0.01646
# Poissons Ratio (z) = 0.50417 -0.01488
#
# Static dielectric constant tensor:
#      x y z
#    x 1.874740 0.000000 0.000000 
#    y 0.000000 1.717520 0.000000 
#    z 0.000000 0.000000 1.694870 
# 
# From -- ./inp_files/21150.got.cif
#   From: 2010.05.17/outbox.cif.g08.bks.cpg/sg38_11_cif.got.tgz:21150.got - 2010.06.03 18:07:57.
