data_PCOD9359397
_publ_section_title
;
Structure prediction by ZEFSAII (Michael W. Deem and Ramdas Pophale) SiO2 
 PCOD9359397
Probable space group: A M M 2
;
_chemical_formula_sum "Si O2"
_cell_formula_units_Z 48
_cell_length_a 7.819240
_cell_length_b 24.559348
_cell_length_c 14.357560
_cell_angle_alpha 90.000000
_cell_angle_beta 90.000000
_cell_angle_gamma 90.000000
_cell_volume 2757.160298
_symmetry_space_group_name_H-M "A M M 2"
_symmetry_group_IT_number 38
_symmetry_cell_setting 'orthorhombic'
loop_
_space_group_symop_operation_xyz
x,y,z
-x,-y,z
-x,y,z
x,-y,z
x,1/2+y,1/2+z
-x,1/2-y,1/2+z
-x,1/2+y,1/2+z
x,1/2-y,1/2+z
loop_
_atom_site_type_symbol
_atom_site_label
_atom_site_fract_x
_atom_site_fract_y
_atom_site_fract_z
Si Si1 0.799553 0.278142 0.828500
Si Si2 0.209848 0.334398 0.011966
Si Si3 0.793506 0.561457 0.336510
Si Si4 0.206150 0.227112 0.121010
Si Si5 0.208763 0.938806 0.622300
Si Si6 0.300941 0.171586 0.934767
O O1 0.728821 0.317343 0.909307
O O2 0.725696 0.282374 0.724901
O O3 0.788771 0.216786 0.869371
O O4 0.000000 0.291627 0.820595
O O5 0.000000 0.334409 0.010364
O O6 0.262702 0.285593 0.080858
O O7 0.266929 0.391806 0.052954
O O8 0.736732 0.500000 0.361949
O O9 0.739323 0.571980 0.229359
O O10 0.736041 0.610648 0.401399
O O11 0.000000 0.561180 0.337082
O O12 0.000000 0.229462 0.126119
O O13 0.250699 0.183560 0.041472
O O14 0.000000 0.938266 0.621998
O O15 0.262824 0.000000 0.597431
O O16 0.500000 0.182746 0.924930
#
# Coordination Sequence:
#
# PCOD9359397 Si02
#       6
#     8   8   8   8   8   8
#     4   9  17  30  48  67  89 121 158 191 223 266
#     4   8  13  22  39  63  86 110 143 183 225 262
#     4   9  17  30  48  67  88 119 158 192 222 267
#     4   9  17  30  47  63  84 118 159 196 225 265
#     4   8  13  22  40  67  94 116 140 176 222 267
#     4  11  21  30  44  68  97 122 146 185 237 289
#
# _framework density 17.409216000000001
#
# number of rings (size 3 to 8) (size 9 to 14) (size 15 to 20)
#    0.000    3.000    0.000    4.500    0.000    3.667 
#    0.000    0.000    0.000    1.000    0.000    4.667 
#    0.000    0.000    0.000    0.000    0.000    0.000 
#
# Total GULP energy -133737.270716 kJ/mol
# GULP energy per Si atom -5572.386280 kJ/mol
# Density = 1.736959 g / cm^3
# Si number density = 17.409216 Si / 1000 Ang^3
#
#
#
# Elastic Constant Matrix: (Units=GPa)
#
#
# Indices 1 2 3 4 5 6 
#
# 1 18.5073 -1.9977 5.5592 0.0000 0.0000 0.0000
# 2 -1.9977 139.8291 101.1206 0.0000 0.0000 0.0000
# 3 5.5592 101.1206 161.4324 0.0000 0.0000 0.0000
# 4 0.0000 0.0000 0.0000 20.4689 0.0000 0.0000
# 5 0.0000 0.0000 0.0000 0.0000 -28.7281 0.0000
# 6 0.0000 0.0000 0.0000 0.0000 0.0000 -7.2352
#
#
#
# Elastic Compliance Matrix: (Units=1/GPa)
#
#
# Indices 1 2 3 4 5 6 
#
# 1 0.055794 0.003997 -0.004425 0.000000 0.000000 0.000000
# 2 0.003997 0.013360 -0.008507 0.000000 0.000000 0.000000
# 3 -0.004425 -0.008507 0.011675 0.000000 0.000000 0.000000
# 4 0.000000 0.000000 0.000000 0.048855 0.000000 0.000000
# 5 0.000000 0.000000 0.000000 0.000000 -0.034809 0.000000
# 6 0.000000 0.000000 0.000000 0.000000 0.000000 -0.138214
#
#
# Mechanical properties :
#
#
# Convention : Reuss Voigt Hill
#
# Bulk Modulus (GPa) = 15.88300 58.79255 37.33777
# Shear Modulus (GPa) = -1115.28662 11.24024 -552.02319
#
# Velocity S-wave (km/s) = -25.33813 2.54372 -17.82625
# Velocity P-wave (km/s) = 29.10128 6.51702 20.05509
#
# Compressibility (1/GPa) = 0.06296041
#
# Stress axis : x y z
#
# Youngs Moduli (GPa) = 17.92322 74.84800 85.65008
#
# Poissons Ratio (x) = -0.29920 0.37903
# Poissons Ratio (y) = -0.07165 0.72859
# Poissons Ratio (z) = 0.07932 0.63670
#
# Static dielectric constant tensor:
#      x y z
#    x 1.612430 0.000000 0.000000 
#    y 0.000000 1.578010 0.000000 
#    z 0.000000 0.000000 1.604360 
# 
# From -- ./inp_files/12238.got.cif
#   From: 2010.05.17/outbox.cif.g08.bks.cpg/sg38_7_cif.got.tgz:12238.got - 2010.06.03 18:07:57.
