data_PCOD9359420
_publ_section_title
;
Structure prediction by ZEFSAII (Michael W. Deem and Ramdas Pophale) SiO2 
 PCOD9359420
Probable space group: A M M 2
;
_chemical_formula_sum "Si O2"
_cell_formula_units_Z 48
_cell_length_a 7.666052
_cell_length_b 31.726697
_cell_length_c 9.878685
_cell_angle_alpha 90.000000
_cell_angle_beta 90.000000
_cell_angle_gamma 90.000000
_cell_volume 2402.679036
_symmetry_space_group_name_H-M "A M M 2"
_symmetry_group_IT_number 38
_symmetry_cell_setting 'orthorhombic'
loop_
_space_group_symop_operation_xyz
x,y,z
-x,-y,z
-x,y,z
x,-y,z
x,1/2+y,1/2+z
-x,1/2-y,1/2+z
-x,1/2+y,1/2+z
x,1/2-y,1/2+z
loop_
_atom_site_type_symbol
_atom_site_label
_atom_site_fract_x
_atom_site_fract_y
_atom_site_fract_z
Si Si1 0.000000 0.788444 0.599751
Si Si2 0.794526 0.095416 0.899807
Si Si3 0.710339 0.416441 0.908941
Si Si4 0.285347 0.500000 0.052106
Si Si5 0.000000 0.797308 0.270499
Si Si6 0.708390 0.000000 0.863632
Si Si7 0.296015 0.638624 0.674028
Si Si8 0.299041 0.353164 0.139876
O O1 0.000000 0.787482 0.433373
O O2 0.168305 0.814479 0.651747
O O3 0.000000 0.743904 0.675634
O O4 0.761879 0.045519 0.922944
O O5 0.713400 0.112611 0.760297
O O6 0.000000 0.101708 0.889411
O O7 0.724966 0.125164 0.019157
O O8 0.500000 0.419695 0.913945
O O9 0.757346 0.403168 0.758709
O O10 0.777587 0.459152 0.972396
O O11 0.758525 0.377945 0.005584
O O12 0.500000 0.500000 0.054567
O O13 0.228682 0.500000 0.207542
O O14 0.168992 0.824820 0.226129
O O15 0.500000 0.000000 0.864461
O O16 0.500000 0.648235 0.701939
O O17 0.500000 0.339792 0.127170
#
# Coordination Sequence:
#
# PCOD9359420 Si02
#       8
#     4   8   8   4   4   4   8   8
#     4  12  28  46  72 101 136 170 213 280 341 403
#     4  12  24  40  65  98 140 184 230 280 332 391
#     4   9  18  35  63  94 125 171 218 263 318 377
#     4   9  16  30  57  94 130 165 224 278 311 370
#     4  12  28  48  72 101 134 166 213 278 343 409
#     4  11  21  36  59  96 140 181 228 281 328 384
#     4  11  24  45  70  95 134 180 219 271 338 404
#     4  11  22  42  69  96 131 178 223 267 330 401
#
# _framework density 19.977699999999999
#
# number of rings (size 3 to 8) (size 9 to 14) (size 15 to 20)
#    0.000    1.167    5.000    1.750    2.333    1.333 
#    0.000    1.667    0.000    0.000    0.000    0.000 
#    0.000    0.000    0.000    0.000    0.000    0.000 
#
# Total GULP energy -134002.955555 kJ/mol
# GULP energy per Si atom -5583.456481 kJ/mol
# Density = 1.993223 g / cm^3
# Si number density = 19.977700 Si / 1000 Ang^3
#
#
#
# Elastic Constant Matrix: (Units=GPa)
#
#
# Indices 1 2 3 4 5 6 
#
# 1 107.1057 43.9413 7.7091 0.0000 0.0000 0.0000
# 2 43.9413 116.1927 16.1029 0.0000 0.0000 0.0000
# 3 7.7091 16.1029 69.8062 0.0000 0.0000 0.0000
# 4 0.0000 0.0000 0.0000 30.6116 0.0000 0.0000
# 5 0.0000 0.0000 0.0000 0.0000 18.0217 0.0000
# 6 0.0000 0.0000 0.0000 0.0000 0.0000 14.8544
#
#
#
# Elastic Compliance Matrix: (Units=1/GPa)
#
#
# Indices 1 2 3 4 5 6 
#
# 1 0.011056 -0.004144 -0.000265 0.000000 0.000000 0.000000
# 2 -0.004144 0.010444 -0.001952 0.000000 0.000000 0.000000
# 3 -0.000265 -0.001952 0.014805 0.000000 0.000000 0.000000
# 4 0.000000 0.000000 0.000000 0.032667 0.000000 0.000000
# 5 0.000000 0.000000 0.000000 0.000000 0.055489 0.000000
# 6 0.000000 0.000000 0.000000 0.000000 0.000000 0.067320
#
#
# Mechanical properties :
#
#
# Convention : Reuss Voigt Hill
#
# Bulk Modulus (GPa) = 42.40320 47.62346 45.01333
# Shear Modulus (GPa) = 23.54450 27.72095 25.63272
#
# Velocity S-wave (km/s) = 3.43671 3.72908 3.58588
# Velocity P-wave (km/s) = 6.08435 6.51395 6.30281
#
# Compressibility (1/GPa) = 0.02358313
#
# Stress axis : x y z
#
# Youngs Moduli (GPa) = 90.44939 95.74732 67.54554
#
# Poissons Ratio (x) = 0.39681 0.01790
# Poissons Ratio (y) = 0.37485 0.13182
# Poissons Ratio (z) = 0.02396 0.18686
#
# Static dielectric constant tensor:
#      x y z
#    x 1.712430 0.000000 0.000000 
#    y 0.000000 1.697670 0.000000 
#    z 0.000000 0.000000 1.688720 
# 
# From -- ./inp_files/3904.got.cif
#   From: 2010.05.17/outbox.cif.g08.bks.cpg/sg38_2_cif.got.tgz:3904.got - 2010.06.03 18:07:57.
