data_PCOD9359722
_publ_section_title
;
Structure prediction by ZEFSAII (Michael W. Deem and Ramdas Pophale) SiO2 
 PCOD9359722
Probable space group: A B M 2
;
_chemical_formula_sum "Si O2"
_cell_formula_units_Z 64
_cell_length_a 15.588668
_cell_length_b 8.873545
_cell_length_c 31.538885
_cell_angle_alpha 90.000000
_cell_angle_beta 90.000000
_cell_angle_gamma 90.000000
_cell_volume 4362.671366
_symmetry_space_group_name_H-M "A B M 2"
_symmetry_group_IT_number 39
_symmetry_cell_setting 'orthorhombic'
loop_
_space_group_symop_operation_xyz
x,y,z
-x,-y,z
-x,1/2+y,z
x,1/2-y,z
x,1/2+y,1/2+z
-x,1/2-y,1/2+z
-x,y,1/2+z
x,-y,1/2+z
loop_
_atom_site_type_symbol
_atom_site_label
_atom_site_fract_x
_atom_site_fract_y
_atom_site_fract_z
Si Si1 0.904946 0.068275 0.314510
Si Si2 0.096623 0.430921 0.227322
Si Si3 0.095221 0.929951 0.047461
Si Si4 0.411592 0.576102 0.984832
Si Si5 0.769113 0.430721 0.483319
Si Si6 0.095535 0.069872 0.642485
Si Si7 0.587704 0.577420 0.381707
Si Si8 0.233390 0.930582 0.385117
O O1 0.910873 0.250000 0.310376
O O2 0.843964 0.029376 0.353901
O O3 0.867329 0.997250 0.271128
O O4 0.000000 0.000000 0.320698
O O5 0.093513 0.250000 0.227817
O O6 0.137315 0.491965 0.183580
O O7 0.000000 0.500000 0.227134
O O8 0.088525 0.750000 0.042551
O O9 0.130556 0.959121 0.095284
O O10 0.158431 0.998852 0.012894
O O11 0.000000 0.000000 0.043849
O O12 0.500000 0.500000 0.999620
O O13 0.406854 0.750000 0.998116
O O14 0.414258 0.573556 0.933286
O O15 0.325200 0.488261 0.996688
O O16 0.772232 0.250000 0.485395
O O17 0.781862 0.477687 0.433978
O O18 0.090588 0.250000 0.649122
O O19 0.000000 0.000000 0.640261
O O20 0.500000 0.500000 0.366909
O O21 0.589335 0.750000 0.368233
O O22 0.676064 0.496794 0.369834
O O23 0.240975 0.750000 0.385402
#
# Coordination Sequence:
#
# PCOD9359722 Si02
#       8
#     8   8   8   8   8   8   8   8
#     4  10  19  31  44  59  83 114 147 181 214 250
#     4  10  17  26  42  62  82 104 134 172 215 259
#     4  10  20  32  45  62  85 115 149 182 215 254
#     4   9  16  27  43  63  84 108 139 176 219 261
#     4  10  19  31  45  62  86 116 149 183 217 253
#     4   9  16  27  43  61  81 105 135 172 215 258
#     4   9  16  26  43  63  83 107 136 174 217 259
#     4   9  19  32  44  60  84 115 149 182 214 250
#
# _framework density 14.669911000000001
#
# number of rings (size 3 to 8) (size 9 to 14) (size 15 to 20)
#    0.000    2.500    0.000    4.875    0.000    6.500 
#    0.000    1.250    0.000    0.000    0.000    0.000 
#    0.000    1.000    0.000    8.250    0.000    5.625 
#
# Total GULP energy -178203.744032 kJ/mol
# GULP energy per Si atom -5568.867001 kJ/mol
# Density = 1.463652 g / cm^3
# Si number density = 14.669911 Si / 1000 Ang^3
#
#
#
# Elastic Constant Matrix: (Units=GPa)
#
#
# Indices 1 2 3 4 5 6 
#
# 1 87.4822 42.6948 58.1121 0.0000 0.0000 0.0000
# 2 42.6948 79.2791 49.0788 0.0000 0.0000 0.0000
# 3 58.1121 49.0788 91.8195 0.0000 0.0000 0.0000
# 4 0.0000 0.0000 0.0000 -301.2495 0.0000 0.0000
# 5 0.0000 0.0000 0.0000 0.0000 -0.7130 0.0000
# 6 0.0000 0.0000 0.0000 0.0000 0.0000 24.8494
#
#
#
# Elastic Compliance Matrix: (Units=1/GPa)
#
#
# Indices 1 2 3 4 5 6 
#
# 1 0.020767 -0.004554 -0.010709 0.000000 0.000000 0.000000
# 2 -0.004554 0.019850 -0.007728 0.000000 0.000000 0.000000
# 3 -0.010709 -0.007728 0.021799 0.000000 0.000000 0.000000
# 4 0.000000 0.000000 0.000000 -0.003320 0.000000 0.000000
# 5 0.000000 0.000000 0.000000 0.000000 -1.402448 0.000000
# 6 0.000000 0.000000 0.000000 0.000000 0.000000 0.040242
#
#
# Mechanical properties :
#
#
# Convention : Reuss Voigt Hill
#
# Bulk Modulus (GPa) = 60.84835 62.03915 61.44375
# Shear Modulus (GPa) = -3.99474 -48.17629 -26.08551
#
# Velocity S-wave (km/s) = -1.65197 -5.73685 -4.22140
# Velocity P-wave (km/s) = 6.15871 1.22480 4.26788
#
# Compressibility (1/GPa) = 0.01643430
#
# Stress axis : x y z
#
# Youngs Moduli (GPa) = 48.15217 50.37684 45.87272
#
# Poissons Ratio (x) = 0.22943 0.49126
# Poissons Ratio (y) = 0.21930 0.35450
# Poissons Ratio (z) = 0.51568 0.38931
#
# Static dielectric constant tensor:
#      x y z
#    x 1.460520 0.000000 0.000000 
#    y 0.000000 1.552200 0.000000 
#    z 0.000000 0.000000 1.516590 
# 
# From -- ./inp_files/17980.got.cif
#   From: 2010.05.17/outbox.cif.g08.bks.cpg/sg39_9_cif.got.tgz:17980.got - 2010.06.03 18:22:40.
