data_PCOD9359762
_publ_section_title
;
Structure prediction by ZEFSAII (Michael W. Deem and Ramdas Pophale) SiO2 
 PCOD9359762
Probable space group: A B M 2
;
_chemical_formula_sum "Si O2"
_cell_formula_units_Z 64
_cell_length_a 25.482238
_cell_length_b 8.525127
_cell_length_c 15.085183
_cell_angle_alpha 90.000000
_cell_angle_beta 90.000000
_cell_angle_gamma 90.000000
_cell_volume 3277.094824
_symmetry_space_group_name_H-M "A B M 2"
_symmetry_group_IT_number 39
_symmetry_cell_setting 'orthorhombic'
loop_
_space_group_symop_operation_xyz
x,y,z
-x,-y,z
-x,1/2+y,z
x,1/2-y,z
x,1/2+y,1/2+z
-x,1/2-y,1/2+z
-x,y,1/2+z
x,-y,1/2+z
loop_
_atom_site_type_symbol
_atom_site_label
_atom_site_fract_x
_atom_site_fract_y
_atom_site_fract_z
Si Si1 0.942688 0.561596 0.510380
Si Si2 0.254420 0.061635 0.364578
Si Si3 0.664320 0.438101 0.506037
Si Si4 0.136606 0.938132 0.365603
Si Si5 0.445676 0.436856 0.216066
Si Si6 0.553719 0.063101 0.013900
Si Si7 0.668762 0.559292 0.211570
Si Si8 0.056794 0.561288 0.215406
O O1 0.942224 0.750000 0.505298
O O2 0.897306 0.492362 0.449641
O O3 0.935495 0.513130 0.613197
O O4 0.000000 0.500000 0.481976
O O5 0.256439 0.250000 0.368602
O O6 0.284380 0.008271 0.274965
O O7 0.287987 0.992977 0.445554
O O8 0.194696 0.006835 0.366363
O O9 0.659391 0.250000 0.504655
O O10 0.609264 0.512188 0.473548
O O11 0.673241 0.488588 0.608712
O O12 0.139787 0.750000 0.364517
O O13 0.103218 0.991429 0.279710
O O14 0.500000 0.500000 0.255042
O O15 0.447431 0.250000 0.222073
O O16 0.445300 0.486572 0.112328
O O17 0.388462 0.491932 0.248287
O O18 0.551015 0.250000 0.020666
O O19 0.500000 0.000000 0.971039
O O20 0.668395 0.750000 0.211531
O O21 0.055153 0.750000 0.217578
O O22 0.000000 0.500000 0.245279
#
# Coordination Sequence:
#
# PCOD9359762 Si02
#       8
#     8   8   8   8   8   8   8   8
#     4  10  20  37  60  89 120 152 186 227 274 328
#     4  11  23  40  58  80 108 146 192 237 278 328
#     4  10  20  38  59  81 109 145 183 228 281 336
#     4  11  23  39  57  82 114 151 189 232 277 325
#     4   9  15  27  48  76 106 138 175 222 276 336
#     4  10  17  28  49  79 109 141 179 224 276 335
#     4   8  18  36  57  77 106 144 182 224 278 334
#     4   9  20  37  59  86 118 149 183 224 273 326
#
# _framework density 19.529492999999999
#
# number of rings (size 3 to 8) (size 9 to 14) (size 15 to 20)
#    0.000    2.250    0.000    4.875    0.000    3.500 
#    0.000   10.625    0.000    1.500    0.000    0.000 
#    0.000    0.000    0.000    0.000    0.000    0.000 
#
# Total GULP energy -178641.301225 kJ/mol
# GULP energy per Si atom -5582.540663 kJ/mol
# Density = 1.948504 g / cm^3
# Si number density = 19.529493 Si / 1000 Ang^3
#
#
#
# Elastic Constant Matrix: (Units=GPa)
#
#
# Indices 1 2 3 4 5 6 
#
# 1 204.3176 28.4407 77.7231 0.0000 0.0000 0.0000
# 2 28.4407 38.6667 10.6520 0.0000 0.0000 0.0000
# 3 77.7231 10.6520 90.1944 0.0000 0.0000 0.0000
# 4 0.0000 0.0000 0.0000 10.9624 0.0000 0.0000
# 5 0.0000 0.0000 0.0000 0.0000 -54.3960 0.0000
# 6 0.0000 0.0000 0.0000 0.0000 0.0000 37.5011
#
#
#
# Elastic Compliance Matrix: (Units=1/GPa)
#
#
# Indices 1 2 3 4 5 6 
#
# 1 0.007848 -0.004041 -0.006285 0.000000 0.000000 0.000000
# 2 -0.004041 0.028812 0.000079 0.000000 0.000000 0.000000
# 3 -0.006285 0.000079 0.016494 0.000000 0.000000 0.000000
# 4 0.000000 0.000000 0.000000 0.091220 0.000000 0.000000
# 5 0.000000 0.000000 0.000000 0.000000 -0.018384 0.000000
# 6 0.000000 0.000000 0.000000 0.000000 0.000000 0.026666
#
#
# Mechanical properties :
#
#
# Convention : Reuss Voigt Hill
#
# Bulk Modulus (GPa) = 30.61812 62.97891 46.79851
# Shear Modulus (GPa) = 27.16835 13.23771 20.20303
#
# Velocity S-wave (km/s) = 3.73385 2.60634 3.21984
# Velocity P-wave (km/s) = 5.85669 6.43238 6.15127
#
# Compressibility (1/GPa) = 0.03266040
#
# Stress axis : x y z
#
# Youngs Moduli (GPa) = 127.42376 34.70739 60.62748
#
# Poissons Ratio (x) = 0.14025 0.38107
# Poissons Ratio (y) = 0.51489 -0.00481
# Poissons Ratio (z) = 0.80092 -0.00275
#
# Static dielectric constant tensor:
#      x y z
#    x 1.676800 0.000000 0.000000 
#    y 0.000000 1.665050 0.000000 
#    z 0.000000 0.000000 1.714200 
# 
# From -- ./inp_files/10619.got.cif
#   From: 2010.05.17/outbox.cif.g08.bks.cpg/sg39_6_cif.got.tgz:10619.got - 2010.06.03 18:22:40.
