data_PCOD9359640
_publ_section_title
;
Structure prediction by ZEFSAII (Michael W. Deem and Ramdas Pophale) SiO2 
 PCOD9359640
Probable space group: A M M 2
;
_chemical_formula_sum "Si O2"
_cell_formula_units_Z 32
_cell_length_a 9.000000
_cell_length_b 24.000000
_cell_length_c 15.000000
_cell_angle_alpha 90.000000
_cell_angle_beta 90.000000
_cell_angle_gamma 90.000000
_cell_volume 3240.000000
_symmetry_space_group_name_H-M "A M M 2"
_symmetry_group_IT_number 38
_symmetry_cell_setting 'orthorhombic'
loop_
_space_group_symop_operation_xyz
x,y,z
-x,-y,z
-x,y,z
x,-y,z
x,1/2+y,1/2+z
-x,1/2-y,1/2+z
-x,1/2+y,1/2+z
x,1/2-y,1/2+z
loop_
_atom_site_type_symbol
_atom_site_label
_atom_site_fract_x
_atom_site_fract_y
_atom_site_fract_z
Si Si1 0.677610 0.367503 0.423940
Si Si2 0.329474 0.935013 0.589738
Si Si3 0.323837 0.860383 0.262255
Si Si4 0.174788 0.875044 0.744783
Si Si5 0.680156 0.436976 0.595590
Si Si6 0.826710 0.239650 0.998169
Si Si7 0.170034 0.132839 0.441298
Si Si8 0.675209 0.739662 0.185587
O O1 0.500000 0.360404 0.425485
O O2 0.733477 0.391439 0.331521
O O3 0.724556 0.407966 0.503800
O O4 0.755963 0.308011 0.437632
O O5 0.500000 0.923183 0.616213
O O6 0.218305 0.917295 0.667295
O O7 0.282398 0.897548 0.506926
O O8 0.317492 0.000000 0.568287
O O9 0.500000 0.869433 0.280394
O O10 0.281690 0.895439 0.175261
O O11 0.221602 0.879611 0.342243
O O12 0.304396 0.794515 0.245451
O O13 0.231792 0.813783 0.715515
O O14 0.000000 0.873429 0.761135
O O15 0.500000 0.439473 0.594428
O O16 0.735563 0.500000 0.606014
O O17 0.820009 0.300818 0.955785
O O18 0.000000 0.227242 0.016971
O O19 0.731407 0.242704 0.088185
O O20 0.000000 0.116088 0.459700
O O21 0.500000 0.725855 0.184339
#
# Coordination Sequence:
#
# PCOD9359640 Si02
#       8
#     8   8   8   8   8   8   8   8
#     4  11  22  39  63  92 123 163 211 258 307 365
#     4  11  25  45  68  91 117 159 213 261 306 365
#     4  10  21  38  61  92 123 160 207 252 304 362
#     4  12  25  41  62  93 128 163 200 250 317 377
#     4   9  19  38  62  87 117 155 205 260 305 348
#     4  11  22  37  60  91 127 165 200 248 315 375
#     4  11  24  40  61  92 126 162 199 247 314 372
#     4  11  21  37  63  93 124 161 205 253 304 368
#
# _framework density 9.8765429999999999
#
# number of rings (size 3 to 8) (size 9 to 14) (size 15 to 20)
#    0.000    1.250    2.500    3.750    0.000    6.500 
#    0.000    2.500    0.000    2.625    0.000    0.000 
#    0.000    0.000    0.000    0.000    0.000    0.000 
#
# Total GULP energy -178814.124256 kJ/mol
# GULP energy per Si atom -5587.941383 kJ/mol
# Density = 0.985406 g / cm^3
# Si number density = 9.876543 Si / 1000 Ang^3
#
#
#
# Elastic Constant Matrix: (Units=GPa)
#
#
# Indices 1 2 3 4 5 6 
#
# 1 62.6626 -61.3467 -44.7264 0.0000 0.0000 0.0000
# 2 -61.3467 360.9580 132.3323 0.0000 0.0000 0.0000
# 3 -44.7264 132.3323 119.8266 0.0000 0.0000 0.0000
# 4 0.0000 0.0000 0.0000 -154.2102 0.0000 0.0000
# 5 0.0000 0.0000 0.0000 0.0000 -36.0398 0.0000
# 6 0.0000 0.0000 0.0000 0.0000 0.0000 -12.6455
#
#
#
# Elastic Compliance Matrix: (Units=1/GPa)
#
#
# Indices 1 2 3 4 5 6 
#
# 1 0.022074 0.001228 0.006883 0.000000 0.000000 0.000000
# 2 0.001228 0.004724 -0.004758 0.000000 0.000000 0.000000
# 3 0.006883 -0.004758 0.016169 0.000000 0.000000 0.000000
# 4 0.000000 0.000000 0.000000 -0.006485 0.000000 0.000000
# 5 0.000000 0.000000 0.000000 0.000000 -0.027747 0.000000
# 6 0.000000 0.000000 0.000000 0.000000 0.000000 -0.079080
#
#
# Mechanical properties :
#
#
# Convention : Reuss Voigt Hill
#
# Bulk Modulus (GPa) = 20.13202 66.21840 43.17521
# Shear Modulus (GPa) = -82.65307 -6.09991 -44.37649
#
# Velocity S-wave (km/s) = -6.47564 -1.75920 -4.74493
# Velocity P-wave (km/s) = 6.76003 5.42858 2.84855
#
# Compressibility (1/GPa) = 0.04967212
#
# Stress axis : x y z
#
# Youngs Moduli (GPa) = 45.30297 211.70692 61.84637
#
# Poissons Ratio (x) = -0.26002 -0.42568
# Poissons Ratio (y) = -0.05564 0.29427
# Poissons Ratio (z) = -0.31181 1.00731
#
# Static dielectric constant tensor:
#      x y z
#    x 1.655960 0.000000 0.000000 
#    y 0.000000 1.704730 0.000000 
#    z 0.000000 0.000000 1.208030 
# 
# From -- ./inp_files/12762.got.cif
#   From: 2010.05.17/outbox.ucp.g08.bks.cvg/sg38_7_cif.got.tgz:12762.got - 2010.06.11 10:39:43.
