data_PCOD9359958
_publ_section_title
;
Structure prediction by ZEFSAII (Michael W. Deem and Ramdas Pophale) SiO2 
 PCOD9359958
Probable space group: A B M 2
;
_chemical_formula_sum "Si O2"
_cell_formula_units_Z 64
_cell_length_a 11.851009
_cell_length_b 14.717558
_cell_length_c 17.554135
_cell_angle_alpha 90.000000
_cell_angle_beta 90.000000
_cell_angle_gamma 90.000000
_cell_volume 3061.755579
_symmetry_space_group_name_H-M "A B M 2"
_symmetry_group_IT_number 39
_symmetry_cell_setting 'orthorhombic'
loop_
_space_group_symop_operation_xyz
x,y,z
-x,-y,z
-x,1/2+y,z
x,1/2-y,z
x,1/2+y,1/2+z
-x,1/2-y,1/2+z
-x,y,1/2+z
x,-y,1/2+z
loop_
_atom_site_type_symbol
_atom_site_label
_atom_site_fract_x
_atom_site_fract_y
_atom_site_fract_z
Si Si1 0.269873 0.347660 0.810910
Si Si2 0.133003 0.506803 0.610050
Si Si3 0.292318 0.854349 0.542014
Si Si4 0.326521 0.860064 0.833403
Si Si5 0.869075 0.981190 0.294383
Si Si6 0.304837 0.852881 0.131890
Si Si7 0.543914 0.355600 0.683600
Si Si8 0.468768 0.143444 0.920429
O O1 0.229212 0.250000 0.840296
O O2 0.195310 0.432940 0.830315
O O3 0.268336 0.344355 0.720012
O O4 0.395947 0.359411 0.842603
O O5 0.183679 0.586230 0.558308
O O6 0.144295 0.524590 0.701832
O O7 0.212719 0.418887 0.594852
O O8 0.000000 0.500000 0.595679
O O9 0.265648 0.750000 0.520853
O O10 0.359431 0.853200 0.621053
O O11 0.382402 0.894479 0.482153
O O12 0.326608 0.750000 0.831732
O O13 0.200016 0.896708 0.828639
O O14 0.395756 0.894596 0.758546
O O15 0.406192 0.891661 0.903403
O O16 0.000000 0.000000 0.308934
O O17 0.310097 0.750000 0.098861
O O18 0.431010 0.893910 0.143240
O O19 0.511945 0.250000 0.701402
O O20 0.482882 0.250000 0.941810
#
# Coordination Sequence:
#
# PCOD9359958 Si02
#       8
#     8   8   8   8   8   8   8   8
#     4   9  17  33  53  74 104 141 186 241 290 337
#     4  10  21  35  51  80 119 158 203 241 283 355
#     4  10  20  35  56  85 120 154 190 241 299 358
#     4  10  18  33  57  84 116 153 194 246 300 350
#     4  10  21  34  51  82 117 155 201 239 283 351
#     4   9  17  32  54  78 105 142 189 244 294 340
#     4   9  16  30  53  80 110 144 184 234 295 348
#     4   9  18  34  57  83 111 145 191 242 300 359
#
# _framework density 20.903040000000001
#
# number of rings (size 3 to 8) (size 9 to 14) (size 15 to 20)
#    0.000    2.500    2.500    0.000    0.000    2.000 
#    0.000    5.625    0.000    0.000    0.000    5.250 
#    0.000    0.000    0.000    0.000    0.000    0.000 
#
# Total GULP energy -178310.722720 kJ/mol
# GULP energy per Si atom -5572.210085 kJ/mol
# Density = 2.085546 g / cm^3
# Si number density = 20.903040 Si / 1000 Ang^3
#
#
#
# Elastic Constant Matrix: (Units=GPa)
#
#
# Indices 1 2 3 4 5 6 
#
# 1 150.9999 48.7594 27.5101 0.0000 0.0000 0.0000
# 2 48.7594 64.3044 16.8599 0.0000 0.0000 0.0000
# 3 27.5101 16.8599 38.5716 0.0000 0.0000 0.0000
# 4 0.0000 0.0000 0.0000 7.9142 0.0000 0.0000
# 5 0.0000 0.0000 0.0000 0.0000 26.0557 0.0000
# 6 0.0000 0.0000 0.0000 0.0000 0.0000 84.0923
#
#
#
# Elastic Compliance Matrix: (Units=1/GPa)
#
#
# Indices 1 2 3 4 5 6 
#
# 1 0.009287 -0.005992 -0.004005 0.000000 0.000000 0.000000
# 2 -0.005992 0.021430 -0.005094 0.000000 0.000000 0.000000
# 3 -0.004005 -0.005094 0.031008 0.000000 0.000000 0.000000
# 4 0.000000 0.000000 0.000000 0.126354 0.000000 0.000000
# 5 0.000000 0.000000 0.000000 0.000000 0.038379 0.000000
# 6 0.000000 0.000000 0.000000 0.000000 0.000000 0.011892
#
#
# Mechanical properties :
#
#
# Convention : Reuss Voigt Hill
#
# Bulk Modulus (GPa) = 31.70063 48.90387 40.30225
# Shear Modulus (GPa) = 17.91820 34.32888 26.12354
#
# Velocity S-wave (km/s) = 2.93098 4.05692 3.53901
# Velocity P-wave (km/s) = 5.16263 6.73729 6.00183
#
# Compressibility (1/GPa) = 0.03154511
#
# Stress axis : x y z
#
# Youngs Moduli (GPa) = 107.67778 46.66359 32.24940
#
# Poissons Ratio (x) = 0.27961 0.12914
# Poissons Ratio (y) = 0.64520 0.16426
# Poissons Ratio (z) = 0.43120 0.23768
#
# Static dielectric constant tensor:
#      x y z
#    x 1.743640 0.000000 0.000000 
#    y 0.000000 1.820460 0.000000 
#    z 0.000000 0.000000 1.799990 
# 
# From -- ./inp_files/12332.got.cif
#   From: 2010.05.17/outbox.cif.g08.bks.cpg/sg39_7_cif.got.tgz:12332.got - 2010.06.03 18:22:40.
