data_PCOD9359496
_publ_section_title
;
Structure prediction by ZEFSAII (Michael W. Deem and Ramdas Pophale) SiO2 
 PCOD9359496
Probable space group: A M M 2
;
_chemical_formula_sum "Si O2"
_cell_formula_units_Z 48
_cell_length_a 18.390213
_cell_length_b 8.483564
_cell_length_c 14.835498
_cell_angle_alpha 90.000000
_cell_angle_beta 90.000000
_cell_angle_gamma 90.000000
_cell_volume 2314.553529
_symmetry_space_group_name_H-M "A M M 2"
_symmetry_group_IT_number 38
_symmetry_cell_setting 'orthorhombic'
loop_
_space_group_symop_operation_xyz
x,y,z
-x,-y,z
-x,y,z
x,-y,z
x,1/2+y,1/2+z
-x,1/2-y,1/2+z
-x,1/2+y,1/2+z
x,1/2-y,1/2+z
loop_
_atom_site_type_symbol
_atom_site_label
_atom_site_fract_x
_atom_site_fract_y
_atom_site_fract_z
Si Si1 0.581166 0.190270 0.184020
Si Si2 0.581068 0.809799 0.885942
Si Si3 0.914025 0.332779 0.705563
Si Si4 0.691285 0.309203 0.535523
Si Si5 0.914244 0.000000 0.478527
Si Si6 0.088559 0.000000 0.694299
Si Si7 0.858921 0.179393 0.002722
O O1 0.500000 0.238092 0.151868
O O2 0.589425 0.248429 0.285322
O O3 0.646806 0.248715 0.122068
O O4 0.582186 0.000000 0.183281
O O5 0.500000 0.764025 0.918579
O O6 0.582897 0.000000 0.884884
O O7 0.645366 0.752555 0.949819
O O8 0.881920 0.500000 0.737021
O O9 0.883674 0.163791 0.735303
O O10 0.904406 0.330069 0.596408
O O11 0.000000 0.334751 0.725588
O O12 0.686521 0.500000 0.536878
O O13 0.776303 0.277590 0.529730
O O14 0.896325 0.000000 0.586572
O O15 0.886724 0.170957 0.445703
O O16 0.000000 0.000000 0.467447
O O17 0.000000 0.000000 0.701374
O O18 0.861101 0.000000 0.964354
#
# Coordination Sequence:
#
# PCOD9359496 Si02
#       7
#     8   8   8   8   4   4   8
#     4   9  17  31  50  71  96 131 174 214 253 305
#     4   9  17  31  50  71  96 131 174 214 253 305
#     4   8  12  18  30  48  72 103 137 176 220 268
#     4   9  17  30  48  69  99 137 167 209 259 316
#     4   9  16  26  40  62  95 129 163 205 250 302
#     4   7  10  16  26  40  62  95 129 163 205 250
#     4   9  16  26  40  62  93 130 161 203 256 309
#
# _framework density 20.738340000000001
#
# number of rings (size 3 to 8) (size 9 to 14) (size 15 to 20)
#    0.000    3.333    0.000    2.000    0.000    3.000 
#    3.000    0.000    0.000    4.000    0.000    0.000 
#    0.000    5.333    3.333    0.000    0.000    0.000 
#
# Total GULP energy -133626.247537 kJ/mol
# GULP energy per Si atom -5567.760314 kJ/mol
# Density = 2.069114 g / cm^3
# Si number density = 20.738340 Si / 1000 Ang^3
#
#
#
# Elastic Constant Matrix: (Units=GPa)
#
#
# Indices 1 2 3 4 5 6 
#
# 1 57.6716 13.3569 16.8196 0.0000 0.0000 0.0000
# 2 13.3569 129.2103 5.8687 0.0000 0.0000 0.0000
# 3 16.8196 5.8687 35.5557 0.0000 0.0000 0.0000
# 4 0.0000 0.0000 0.0000 14.8753 0.0000 0.0000
# 5 0.0000 0.0000 0.0000 0.0000 -21.3584 0.0000
# 6 0.0000 0.0000 0.0000 0.0000 0.0000 19.6002
#
#
#
# Elastic Compliance Matrix: (Units=1/GPa)
#
#
# Indices 1 2 3 4 5 6 
#
# 1 0.020474 -0.001689 -0.009406 0.000000 0.000000 0.000000
# 2 -0.001689 0.007937 -0.000511 0.000000 0.000000 0.000000
# 3 -0.009406 -0.000511 0.032659 0.000000 0.000000 0.000000
# 4 0.000000 0.000000 0.000000 0.067225 0.000000 0.000000
# 5 0.000000 0.000000 0.000000 0.000000 -0.046820 0.000000
# 6 0.000000 0.000000 0.000000 0.000000 0.000000 0.051020
#
#
# Mechanical properties :
#
#
# Convention : Reuss Voigt Hill
#
# Bulk Modulus (GPa) = 26.41531 32.72535 29.57033
# Shear Modulus (GPa) = 29.70395 15.04959 22.37677
#
# Velocity S-wave (km/s) = 3.78871 2.69678 3.28838
# Velocity P-wave (km/s) = 5.64838 5.05086 5.35796
#
# Compressibility (1/GPa) = 0.03785683
#
# Stress axis : x y z
#
# Youngs Moduli (GPa) = 48.84216 125.98982 30.61952
#
# Poissons Ratio (x) = 0.21283 0.28802
# Poissons Ratio (y) = 0.08251 0.01565
# Poissons Ratio (z) = 0.45943 0.06438
#
# Static dielectric constant tensor:
#      x y z
#    x 1.721500 0.000000 0.000000 
#    y 0.000000 1.824590 0.000000 
#    z 0.000000 0.000000 1.727390 
# 
# From -- ./inp_files/15075.got.cif
#   From: 2010.05.17/outbox.cif.g08.bks.cpg/sg38_8_cif.got.tgz:15075.got - 2010.06.03 18:07:57.
