data_PCOD9359193
_publ_section_title
;
Structure prediction by ZEFSAII (Michael W. Deem and Ramdas Pophale) SiO2 
 PCOD9359193
Probable space group: A M M 2
;
_chemical_formula_sum "Si O2"
_cell_formula_units_Z 56
_cell_length_a 22.872197
_cell_length_b 7.736374
_cell_length_c 15.318917
_cell_angle_alpha 90.000000
_cell_angle_beta 90.000000
_cell_angle_gamma 90.000000
_cell_volume 2710.649737
_symmetry_space_group_name_H-M "A M M 2"
_symmetry_group_IT_number 38
_symmetry_cell_setting 'orthorhombic'
loop_
_space_group_symop_operation_xyz
x,y,z
-x,-y,z
-x,y,z
x,-y,z
x,1/2+y,1/2+z
-x,1/2-y,1/2+z
-x,1/2+y,1/2+z
x,1/2-y,1/2+z
loop_
_atom_site_type_symbol
_atom_site_label
_atom_site_fract_x
_atom_site_fract_y
_atom_site_fract_z
Si Si1 0.152833 0.297816 0.517600
Si Si2 0.372406 0.707359 0.881637
Si Si3 0.287442 0.793883 0.529833
Si Si4 0.627224 0.791099 0.677844
Si Si5 0.500000 0.300525 0.165075
Si Si6 0.934193 0.208826 0.670462
Si Si7 0.500000 0.710696 0.867942
Si Si8 0.934015 0.711379 0.371049
O O1 0.157959 0.500000 0.500499
O O2 0.218547 0.233739 0.527043
O O3 0.114597 0.271221 0.604239
O O4 0.114691 0.222844 0.437659
O O5 0.371909 0.500000 0.887689
O O6 0.322112 0.775444 0.945199
O O7 0.364404 0.748738 0.779587
O O8 0.438158 0.762420 0.909203
O O9 0.320448 0.728350 0.616438
O O10 0.295656 0.000000 0.530409
O O11 0.563795 0.725120 0.643849
O O12 0.624074 0.000000 0.673421
O O13 0.500000 0.500000 0.134312
O O14 0.500000 0.290685 0.270926
O O15 0.933930 0.500000 0.168979
O O16 0.923735 0.262578 0.770678
O O17 0.000000 0.266144 0.645359
O O18 0.500000 0.500000 0.859539
O O19 0.933890 0.500000 0.372753
O O20 0.000000 0.764927 0.396188
#
# Coordination Sequence:
#
# PCOD9359193 Si02
#       8
#     8   8   8   8   4   8   4   8
#     4  11  22  35  53  77 106 139 174 213 251 292
#     4   9  18  33  53  75 101 131 166 213 262 308
#     4  10  22  37  50  70 102 140 177 209 249 304
#     4   9  18  33  53  74  99 131 167 211 260 310
#     4   8  14  27  49  75  96 120 162 211 257 305
#     4   9  18  35  59  83 106 134 167 204 250 303
#     4   8  14  27  49  75  98 124 160 205 263 315
#     4   8  16  33  56  79 102 130 164 201 246 299
#
# _framework density 20.659253
#
# number of rings (size 3 to 8) (size 9 to 14) (size 15 to 20)
#    0.000    2.857    0.000    1.714    0.000    3.714 
#    0.000    8.571    0.000    1.714    0.000   11.000 
#    0.000    0.000    0.000    0.000    0.000    0.000 
#
# Total GULP energy -156146.907218 kJ/mol
# GULP energy per Si atom -5576.675258 kJ/mol
# Density = 2.061223 g / cm^3
# Si number density = 20.659253 Si / 1000 Ang^3
#
#
#
# Elastic Constant Matrix: (Units=GPa)
#
#
# Indices 1 2 3 4 5 6 
#
# 1 203.9735 3.9712 107.4082 0.0000 0.0000 0.0000
# 2 3.9712 29.3419 -1.3590 0.0000 0.0000 0.0000
# 3 107.4082 -1.3590 109.0781 0.0000 0.0000 0.0000
# 4 0.0000 0.0000 0.0000 15.7239 0.0000 0.0000
# 5 0.0000 0.0000 0.0000 0.0000 -13.7869 0.0000
# 6 0.0000 0.0000 0.0000 0.0000 0.0000 10.7791
#
#
#
# Elastic Compliance Matrix: (Units=1/GPa)
#
#
# Indices 1 2 3 4 5 6 
#
# 1 0.010283 -0.001862 -0.010149 0.000000 0.000000 0.000000
# 2 -0.001862 0.034438 0.002262 0.000000 0.000000 0.000000
# 3 -0.010149 0.002262 0.019189 0.000000 0.000000 0.000000
# 4 0.000000 0.000000 0.000000 0.063597 0.000000 0.000000
# 5 0.000000 0.000000 0.000000 0.000000 -0.072533 0.000000
# 6 0.000000 0.000000 0.000000 0.000000 0.000000 0.092772
#
#
# Mechanical properties :
#
#
# Convention : Reuss Voigt Hill
#
# Bulk Modulus (GPa) = 22.51560 62.49267 42.50414
# Shear Modulus (GPa) = 27.46535 18.03477 22.75006
#
# Velocity S-wave (km/s) = 3.65011 2.95780 3.32204
# Velocity P-wave (km/s) = 5.35599 6.47917 5.94417
#
# Compressibility (1/GPa) = 0.04441365
#
# Stress axis : x y z
#
# Youngs Moduli (GPa) = 97.24834 29.03793 52.11241
#
# Poissons Ratio (x) = 0.05406 0.52887
# Poissons Ratio (y) = 0.18105 -0.11790
# Poissons Ratio (z) = 0.98695 -0.06569
#
# Static dielectric constant tensor:
#      x y z
#    x 1.754660 0.000000 0.000000 
#    y 0.000000 1.774660 0.000000 
#    z 0.000000 0.000000 1.732380 
# 
# From -- ./inp_files/15527.got.cif
#   From: 2010.05.17/outbox.cif.g08.bks.cpg/sg38_8_cif.got.tgz:15527.got - 2010.06.03 18:07:57.
