data_PCOD9359731
_publ_section_title
;
Structure prediction by ZEFSAII (Michael W. Deem and Ramdas Pophale) SiO2 
 PCOD9359731
Probable space group: A B M 2
;
_chemical_formula_sum "Si O2"
_cell_formula_units_Z 56
_cell_length_a 20.321393
_cell_length_b 8.564369
_cell_length_c 15.391051
_cell_angle_alpha 90.000000
_cell_angle_beta 90.000000
_cell_angle_gamma 90.000000
_cell_volume 2678.657104
_symmetry_space_group_name_H-M "A B M 2"
_symmetry_group_IT_number 39
_symmetry_cell_setting 'orthorhombic'
loop_
_space_group_symop_operation_xyz
x,y,z
-x,-y,z
-x,1/2+y,z
x,1/2-y,z
x,1/2+y,1/2+z
-x,1/2-y,1/2+z
-x,y,1/2+z
x,-y,1/2+z
loop_
_atom_site_type_symbol
_atom_site_label
_atom_site_fract_x
_atom_site_fract_y
_atom_site_fract_z
Si Si1 0.205672 0.435642 0.023120
Si Si2 0.347572 0.065768 0.793106
Si Si3 0.068367 0.436640 0.229024
Si Si4 0.932210 0.063381 0.029718
Si Si5 0.344310 0.932204 0.973889
Si Si6 0.203989 0.936194 0.219105
Si Si7 0.573290 0.434508 0.630582
O O1 0.207515 0.250000 0.012457
O O2 0.135870 0.501887 0.990482
O O3 0.210342 0.479734 0.125595
O O4 0.268586 0.513755 0.979509
O O5 0.354158 0.250000 0.810673
O O6 0.270917 0.034762 0.770883
O O7 0.368186 0.969339 0.877268
O O8 0.390012 0.018311 0.710121
O O9 0.068349 0.250000 0.230264
O O10 0.068572 0.497244 0.128755
O O11 0.137365 0.502471 0.264049
O O12 0.000000 0.500000 0.267815
O O13 0.933067 0.250000 0.031980
O O14 0.000000 0.000000 0.989697
O O15 0.349251 0.750000 0.994867
O O16 0.385409 0.027861 0.044306
O O17 0.197878 0.750000 0.204110
O O18 0.500000 0.500000 0.621578
O O19 0.571894 0.250000 0.645860
#
# Coordination Sequence:
#
# PCOD9359731 Si02
#       7
#     8   8   8   8   8   8   8
#     4  11  20  33  56  85 120 163 213 263 321 381
#     4  11  24  43  68  99 134 172 216 264 319 381
#     4  10  17  26  43  71 110 153 205 259 316 375
#     4  10  17  27  44  72 111 154 205 261 320 378
#     4  12  25  43  67  98 134 173 218 266 319 379
#     4  10  19  33  56  84 120 161 208 261 319 378
#     4  12  26  47  74 103 136 172 212 259 315 379
#
# _framework density 20.905998
#
# number of rings (size 3 to 8) (size 9 to 14) (size 15 to 20)
#    0.000    1.143    1.429    9.857    0.000    2.286 
#    0.000    2.857    0.000    0.857    0.000    2.000 
#    0.000    0.000    0.000    0.000    0.000    0.000 
#
# Total GULP energy -156632.353024 kJ/mol
# GULP energy per Si atom -5594.012608 kJ/mol
# Density = 2.085842 g / cm^3
# Si number density = 20.905998 Si / 1000 Ang^3
#
#
#
# Elastic Constant Matrix: (Units=GPa)
#
#
# Indices 1 2 3 4 5 6 
#
# 1 113.2035 5.3359 7.9181 0.0000 0.0000 0.0000
# 2 5.3359 85.5054 -21.6694 0.0000 0.0000 0.0000
# 3 7.9181 -21.6694 47.2620 0.0000 0.0000 0.0000
# 4 0.0000 0.0000 0.0000 19.8327 0.0000 0.0000
# 5 0.0000 0.0000 0.0000 0.0000 -20.0428 0.0000
# 6 0.0000 0.0000 0.0000 0.0000 0.0000 34.1088
#
#
#
# Elastic Compliance Matrix: (Units=1/GPa)
#
#
# Indices 1 2 3 4 5 6 
#
# 1 0.009024 -0.001071 -0.002003 0.000000 0.000000 0.000000
# 2 -0.001071 0.013360 0.006305 0.000000 0.000000 0.000000
# 3 -0.002003 0.006305 0.024385 0.000000 0.000000 0.000000
# 4 0.000000 0.000000 0.000000 0.050422 0.000000 0.000000
# 5 0.000000 0.000000 0.000000 0.000000 -0.049893 0.000000
# 6 0.000000 0.000000 0.000000 0.000000 0.000000 0.029318
#
#
# Mechanical properties :
#
#
# Convention : Reuss Voigt Hill
#
# Bulk Modulus (GPa) = 18.78589 25.46002 22.12296
# Shear Modulus (GPa) = 56.88495 23.73882 40.31189
#
# Velocity S-wave (km/s) = 5.22197 3.37338 4.39594
# Velocity P-wave (km/s) = 6.73528 5.23237 6.03082
#
# Compressibility (1/GPa) = 0.05323144
#
# Stress axis : x y z
#
# Youngs Moduli (GPa) = 110.81305 74.85149 41.00895
#
# Poissons Ratio (x) = 0.08014 0.08213
# Poissons Ratio (y) = 0.11865 -0.25855
# Poissons Ratio (z) = 0.22194 -0.47192
#
# Static dielectric constant tensor:
#      x y z
#    x 1.777000 0.000000 0.000000 
#    y 0.000000 1.689720 0.000000 
#    z 0.000000 0.000000 1.822680 
# 
# From -- ./inp_files/10353.got.cif
#   From: 2010.05.17/outbox.cif.g08.bks.cpg/sg39_6_cif.got.tgz:10353.got - 2010.06.03 18:22:40.
