data_PCOD9359062
_publ_section_title
;
Structure prediction by ZEFSAII (Michael W. Deem and Ramdas Pophale) SiO2 
 PCOD9359062
Probable space group: A M M 2
;
_chemical_formula_sum "Si O2"
_cell_formula_units_Z 64
_cell_length_a 8.784041
_cell_length_b 15.827156
_cell_length_c 24.325987
_cell_angle_alpha 90.000000
_cell_angle_beta 90.000000
_cell_angle_gamma 90.000000
_cell_volume 3381.954088
_symmetry_space_group_name_H-M "A M M 2"
_symmetry_group_IT_number 38
_symmetry_cell_setting 'orthorhombic'
loop_
_space_group_symop_operation_xyz
x,y,z
-x,-y,z
-x,y,z
x,-y,z
x,1/2+y,1/2+z
-x,1/2-y,1/2+z
-x,1/2+y,1/2+z
x,1/2-y,1/2+z
loop_
_atom_site_type_symbol
_atom_site_label
_atom_site_fract_x
_atom_site_fract_y
_atom_site_fract_z
Si Si1 0.818416 0.349528 0.822520
Si Si2 0.682756 0.404366 0.445143
Si Si3 0.681915 0.904557 0.206823
Si Si4 0.681413 0.662206 0.323802
Si Si5 0.816335 0.752224 0.136898
Si Si6 0.182923 0.094672 0.712781
Si Si7 0.681846 0.095217 0.437513
Si Si8 0.182343 0.746383 0.009306
O O1 0.752547 0.389471 0.766966
O O2 0.766172 0.251927 0.823746
O O3 0.751282 0.392232 0.876959
O O4 0.000000 0.355126 0.822472
O O5 0.500000 0.398113 0.452494
O O6 0.729936 0.500000 0.458747
O O7 0.713671 0.385138 0.380947
O O8 0.761670 0.332546 0.481017
O O9 0.500000 0.896140 0.210803
O O10 0.745962 0.833635 0.166266
O O11 0.718018 0.000000 0.188414
O O12 0.500000 0.676659 0.320572
O O13 0.737380 0.611152 0.270947
O O14 0.771505 0.668395 0.170739
O O15 0.772307 0.745587 0.073247
O O16 0.000000 0.758922 0.139651
O O17 0.000000 0.100725 0.720440
O O18 0.217520 0.000000 0.692882
O O19 0.500000 0.105033 0.433806
O O20 0.747738 0.167360 0.476743
O O21 0.716321 0.000000 0.456927
O O22 0.000000 0.741309 0.005782
#
# Coordination Sequence:
#
# PCOD9359062 Si02
#       8
#     8   8   8   8   8   8   8   8
#     4  12  23  37  62  94 126 160 198 245 307 368
#     4  10  22  40  62  88 122 163 202 246 305 366
#     4  11  24  41  63  92 124 161 203 249 303 361
#     4  11  21  36  61  91 123 159 197 242 300 363
#     4  10  23  42  62  87 121 162 206 252 302 357
#     4  10  21  38  61  89 121 158 199 247 301 357
#     4  11  24  42  64  91 124 162 204 251 304 365
#     4  11  24  41  63  90 121 161 208 257 307 359
#
# _framework density 18.923971000000002
#
# number of rings (size 3 to 8) (size 9 to 14) (size 15 to 20)
#    0.000    1.250    2.500    3.375    0.000    7.000 
#    0.000    3.750    0.000    0.000    0.000    0.000 
#    0.000    0.000    0.000    0.000    0.000    0.000 
#
# Total GULP energy -178937.114470 kJ/mol
# GULP energy per Si atom -5591.784827 kJ/mol
# Density = 1.888090 g / cm^3
# Si number density = 18.923971 Si / 1000 Ang^3
#
#
#
# Elastic Constant Matrix: (Units=GPa)
#
#
# Indices 1 2 3 4 5 6 
#
# 1 49.9792 57.2799 51.3405 0.0000 0.0000 0.0000
# 2 57.2799 171.0197 80.0496 0.0000 0.0000 0.0000
# 3 51.3405 80.0496 146.0983 0.0000 0.0000 0.0000
# 4 0.0000 0.0000 0.0000 -4.1249 0.0000 0.0000
# 5 0.0000 0.0000 0.0000 0.0000 56.5676 0.0000
# 6 0.0000 0.0000 0.0000 0.0000 0.0000 18.8945
#
#
#
# Elastic Compliance Matrix: (Units=1/GPa)
#
#
# Indices 1 2 3 4 5 6 
#
# 1 0.039595 -0.009077 -0.008941 0.000000 0.000000 0.000000
# 2 -0.009077 0.009945 -0.002259 0.000000 0.000000 0.000000
# 3 -0.008941 -0.002259 0.011225 0.000000 0.000000 0.000000
# 4 0.000000 0.000000 0.000000 -0.242429 0.000000 0.000000
# 5 0.000000 0.000000 0.000000 0.000000 0.017678 0.000000
# 6 0.000000 0.000000 0.000000 0.000000 0.000000 0.052926
#
#
# Mechanical properties :
#
#
# Convention : Reuss Voigt Hill
#
# Bulk Modulus (GPa) = 49.47834 82.71524 66.09679
# Shear Modulus (GPa) = -78.40726 26.16258 -26.12234
#
# Velocity S-wave (km/s) = -6.44381 3.72225 -3.71938
# Velocity P-wave (km/s) = 5.40009 7.89162 4.06919
#
# Compressibility (1/GPa) = 0.02021087
#
# Stress axis : x y z
#
# Youngs Moduli (GPa) = 25.25543 100.55426 89.09031
#
# Poissons Ratio (x) = 0.91271 0.79655
# Poissons Ratio (y) = 0.22924 0.20128
# Poissons Ratio (z) = 0.22581 0.22718
#
# Static dielectric constant tensor:
#      x y z
#    x 1.634610 0.000000 0.000000 
#    y 0.000000 1.652590 0.000000 
#    z 0.000000 0.000000 1.625260 
# 
# From -- ./inp_files/22154.got.cif
#   From: 2010.05.17/outbox.cif.g08.bks.cpg/sg38_12_cif.got.tgz:22154.got - 2010.06.03 18:07:57.
