data_PCOD9359495
_publ_section_title
;
Structure prediction by ZEFSAII (Michael W. Deem and Ramdas Pophale) SiO2 
 PCOD9359495
Probable space group: A M M 2
;
_chemical_formula_sum "Si O2"
_cell_formula_units_Z 48
_cell_length_a 7.376496
_cell_length_b 34.036163
_cell_length_c 7.111920
_cell_angle_alpha 90.000000
_cell_angle_beta 90.000000
_cell_angle_gamma 90.000000
_cell_volume 1785.572830
_symmetry_space_group_name_H-M "A M M 2"
_symmetry_group_IT_number 38
_symmetry_cell_setting 'orthorhombic'
loop_
_space_group_symop_operation_xyz
x,y,z
-x,-y,z
-x,y,z
x,-y,z
x,1/2+y,1/2+z
-x,1/2-y,1/2+z
-x,1/2+y,1/2+z
x,1/2-y,1/2+z
loop_
_atom_site_type_symbol
_atom_site_label
_atom_site_fract_x
_atom_site_fract_y
_atom_site_fract_z
Si Si1 0.707912 0.798208 0.961960
Si Si2 0.276913 0.128699 0.438162
Si Si3 0.785366 0.041205 0.798551
Si Si4 0.284648 0.622439 0.374159
Si Si5 0.292989 0.456166 0.861144
Si Si6 0.291260 0.712817 0.015455
O O1 0.500000 0.797671 0.035083
O O2 0.788410 0.841476 0.995761
O O3 0.702974 0.797741 0.734670
O O4 0.793313 0.756236 0.009466
O O5 0.500000 0.128902 0.428405
O O6 0.220278 0.123314 0.657472
O O7 0.216795 0.088625 0.333769
O O8 0.221086 0.174456 0.404924
O O9 0.743843 0.077774 0.928961
O O10 0.700970 0.043492 0.591216
O O11 0.000000 0.041013 0.768620
O O12 0.728167 0.000000 0.884470
O O13 0.500000 0.628632 0.369473
O O14 0.500000 0.455944 0.792816
O O15 0.213155 0.500000 0.814340
O O16 0.500000 0.718237 0.951685
#
# Coordination Sequence:
#
# PCOD9359495 Si02
#       6
#     8   8   8   8   8   8
#     4   8  13  20  31  47  66  87 112 142 171 199
#     4   7  10  16  26  40  58  79 103 132 163 191
#     4   9  15  20  27  42  63  85 108 134 165 201
#     4   8  13  21  31  43  60  84 112 137 163 198
#     4   8  12  18  28  41  59  85 113 137 162 196
#     4   8  12  18  28  44  66  87 108 139 174 201
#
# _framework density 26.882131000000001
#
# number of rings (size 3 to 8) (size 9 to 14) (size 15 to 20)
#    0.000    4.000    0.000    3.500    0.000    1.000 
#    0.000    0.000    0.000    0.000    0.000   10.500 
#    0.000    1.333    0.000   14.000    0.000   68.000 
#
# Total GULP energy -133681.827522 kJ/mol
# GULP energy per Si atom -5570.076147 kJ/mol
# Density = 2.682095 g / cm^3
# Si number density = 26.882131 Si / 1000 Ang^3
#
#
#
# Elastic Constant Matrix: (Units=GPa)
#
#
# Indices 1 2 3 4 5 6 
#
# 1 96.3372 9.5172 -6.5213 0.0000 0.0000 0.0000
# 2 9.5172 293.0203 -46.6424 0.0000 0.0000 0.0000
# 3 -6.5213 -46.6424 58.4837 0.0000 0.0000 0.0000
# 4 0.0000 0.0000 0.0000 11.2145 0.0000 0.0000
# 5 0.0000 0.0000 0.0000 0.0000 -5.8341 0.0000
# 6 0.0000 0.0000 0.0000 0.0000 0.0000 64.3140
#
#
#
# Elastic Compliance Matrix: (Units=1/GPa)
#
#
# Indices 1 2 3 4 5 6 
#
# 1 0.010467 -0.000177 0.001026 0.000000 0.000000 0.000000
# 2 -0.000177 0.003912 0.003100 0.000000 0.000000 0.000000
# 3 0.001026 0.003100 0.019686 0.000000 0.000000 0.000000
# 4 0.000000 0.000000 0.000000 0.089170 0.000000 0.000000
# 5 0.000000 0.000000 0.000000 0.000000 -0.171406 0.000000
# 6 0.000000 0.000000 0.000000 0.000000 0.000000 0.015549
#
#
# Mechanical properties :
#
#
# Convention : Reuss Voigt Hill
#
# Bulk Modulus (GPa) = 23.82961 40.06091 31.94526
# Shear Modulus (GPa) = -188.43551 46.70473 -70.86539
#
# Velocity S-wave (km/s) = -8.38147 4.17272 -5.13992
# Velocity P-wave (km/s) = 9.20770 6.17659 4.82864
#
# Compressibility (1/GPa) = 0.04196460
#
# Stress axis : x y z
#
# Youngs Moduli (GPa) = 95.53718 255.62686 50.79825
#
# Poissons Ratio (x) = 0.04514 -0.05213
# Poissons Ratio (y) = 0.01687 -0.15748
# Poissons Ratio (z) = -0.09805 -0.79249
#
# Static dielectric constant tensor:
#      x y z
#    x 2.096670 0.000000 0.000000 
#    y 0.000000 2.323400 0.000000 
#    z 0.000000 0.000000 2.081360 
# 
# From -- ./inp_files/8385.got.cif
#   From: 2010.05.17/outbox.cif.g08.bks.cpg/sg38_5_cif.got.tgz:8385.got - 2010.06.03 18:07:57.
