data_PCOD9359314
_publ_section_title
;
Structure prediction by ZEFSAII (Michael W. Deem and Ramdas Pophale) SiO2 
 PCOD9359314
Probable space group: A M M 2
;
_chemical_formula_sum "Si O2"
_cell_formula_units_Z 40
_cell_length_a 13.415594
_cell_length_b 15.092851
_cell_length_c 8.868512
_cell_angle_alpha 90.000000
_cell_angle_beta 90.000000
_cell_angle_gamma 90.000000
_cell_volume 1795.692419
_symmetry_space_group_name_H-M "A M M 2"
_symmetry_group_IT_number 38
_symmetry_cell_setting 'orthorhombic'
loop_
_space_group_symop_operation_xyz
x,y,z
-x,-y,z
-x,y,z
x,-y,z
x,1/2+y,1/2+z
-x,1/2-y,1/2+z
-x,1/2+y,1/2+z
x,1/2-y,1/2+z
loop_
_atom_site_type_symbol
_atom_site_label
_atom_site_fract_x
_atom_site_fract_y
_atom_site_fract_z
Si Si1 0.117273 0.330521 0.547460
Si Si2 0.878877 0.000000 0.238766
Si Si3 0.118661 0.000000 0.581075
Si Si4 0.380700 0.775976 0.533303
Si Si5 0.795211 0.828004 0.727195
Si Si6 0.619467 0.893453 0.231081
O O1 0.149128 0.413940 0.646243
O O2 0.137944 0.246957 0.649994
O O3 0.184751 0.320412 0.402122
O O4 0.000000 0.338347 0.507377
O O5 0.844185 0.000000 0.409600
O O6 0.000000 0.000000 0.244692
O O7 0.158203 0.917392 0.669619
O O8 0.000000 0.000000 0.578133
O O9 0.500000 0.787192 0.544836
O O10 0.316620 0.822395 0.665043
O O11 0.350056 0.830664 0.378102
O O12 0.363368 0.670981 0.583171
O O13 0.500000 0.899355 0.243612
O O14 0.652089 0.000000 0.227889
#
# Coordination Sequence:
#
# PCOD9359314 Si02
#       6
#     8   4   4   8   8   8
#     4  11  22  40  62  91 131 166 212 272 332 402
#     4   9  21  41  65  91 124 166 208 267 333 391
#     4  11  23  41  64  93 128 168 219 273 332 411
#     4  10  22  42  65  96 135 174 227 286 335 412
#     4  12  24  39  64  98 125 174 221 266 342 405
#     4   9  19  39  67  93 129 180 224 279 349 400
#
# _framework density 22.27553
#
# number of rings (size 3 to 8) (size 9 to 14) (size 15 to 20)
#    0.000    1.600    0.000    4.800    1.400    2.400 
#    1.800    1.000    0.000    6.000    0.000    0.000 
#    0.000    0.000    0.000    0.000    0.000    0.000 
#
# Total GULP energy -111597.753455 kJ/mol
# GULP energy per Si atom -5579.887673 kJ/mol
# Density = 2.222483 g / cm^3
# Si number density = 22.275530 Si / 1000 Ang^3
#
#
#
# Elastic Constant Matrix: (Units=GPa)
#
#
# Indices 1 2 3 4 5 6 
#
# 1 89.0337 29.0547 23.1864 0.0000 0.0000 0.0000
# 2 29.0547 209.2009 61.2694 0.0000 0.0000 0.0000
# 3 23.1864 61.2694 114.5202 0.0000 0.0000 0.0000
# 4 0.0000 0.0000 0.0000 35.5557 0.0000 0.0000
# 5 0.0000 0.0000 0.0000 0.0000 36.5350 0.0000
# 6 0.0000 0.0000 0.0000 0.0000 0.0000 19.6054
#
#
#
# Elastic Compliance Matrix: (Units=1/GPa)
#
#
# Indices 1 2 3 4 5 6 
#
# 1 0.012082 -0.001140 -0.001836 0.000000 0.000000 0.000000
# 2 -0.001140 0.005776 -0.002859 0.000000 0.000000 0.000000
# 3 -0.001836 -0.002859 0.010634 0.000000 0.000000 0.000000
# 4 0.000000 0.000000 0.000000 0.028125 0.000000 0.000000
# 5 0.000000 0.000000 0.000000 0.000000 0.027371 0.000000
# 6 0.000000 0.000000 0.000000 0.000000 0.000000 0.051006
#
#
# Mechanical properties :
#
#
# Convention : Reuss Voigt Hill
#
# Bulk Modulus (GPa) = 59.45270 71.08618 65.26944
# Shear Modulus (GPa) = 32.83607 38.28886 35.56247
#
# Velocity S-wave (km/s) = 3.84355 4.15043 3.99993
# Velocity P-wave (km/s) = 6.81504 7.41280 7.12020
#
# Compressibility (1/GPa) = 0.01682009
#
# Stress axis : x y z
#
# Youngs Moduli (GPa) = 82.76791 173.13439 94.04171
#
# Poissons Ratio (x) = 0.19741 0.17267
# Poissons Ratio (y) = 0.09437 0.26889
# Poissons Ratio (z) = 0.15197 0.49504
#
# Static dielectric constant tensor:
#      x y z
#    x 1.861620 0.000000 0.000000 
#    y 0.000000 1.812410 0.000000 
#    z 0.000000 0.000000 1.799060 
# 
# From -- ./inp_files/5265.got.cif
#   From: 2010.05.17/outbox.cif.g08.bks.cpg/sg38_3_cif.got.tgz:5265.got - 2010.06.03 18:07:57.
