data_PCOD9359015
_publ_section_title
;
Structure prediction by ZEFSAII (Michael W. Deem and Ramdas Pophale) SiO2 
 PCOD9359015
Probable space group: A M M 2
;
_chemical_formula_sum "Si O2"
_cell_formula_units_Z 64
_cell_length_a 8.901727
_cell_length_b 33.039834
_cell_length_c 11.943110
_cell_angle_alpha 90.000000
_cell_angle_beta 90.000000
_cell_angle_gamma 90.000000
_cell_volume 3512.606981
_symmetry_space_group_name_H-M "A M M 2"
_symmetry_group_IT_number 38
_symmetry_cell_setting 'orthorhombic'
loop_
_space_group_symop_operation_xyz
x,y,z
-x,-y,z
-x,y,z
x,-y,z
x,1/2+y,1/2+z
-x,1/2-y,1/2+z
-x,1/2+y,1/2+z
x,1/2-y,1/2+z
loop_
_atom_site_type_symbol
_atom_site_label
_atom_site_fract_x
_atom_site_fract_y
_atom_site_fract_z
Si Si1 0.328128 0.548309 0.532360
Si Si2 0.676280 0.726418 0.285280
Si Si3 0.179595 0.878844 0.416079
Si Si4 0.176040 0.898413 0.859057
Si Si5 0.320296 0.356145 0.153848
Si Si6 0.177755 0.810481 0.230803
Si Si7 0.324954 0.327634 0.495533
Si Si8 0.681947 0.452497 0.783942
O O1 0.500000 0.562937 0.518359
O O2 0.332136 0.500000 0.535740
O O3 0.230653 0.563069 0.428873
O O4 0.273731 0.560589 0.656851
O O5 0.500000 0.735936 0.264030
O O6 0.717755 0.688331 0.205194
O O7 0.776652 0.765552 0.268416
O O8 0.689328 0.710458 0.412355
O O9 0.247403 0.865369 0.534711
O O10 0.213224 0.843697 0.325471
O O11 0.248233 0.920971 0.370774
O O12 0.000000 0.882695 0.425171
O O13 0.263185 0.888686 0.744831
O O14 0.221953 0.862089 0.942168
O O15 0.000000 0.899205 0.837451
O O16 0.500000 0.357887 0.146180
O O17 0.000000 0.812664 0.207223
O O18 0.272106 0.819227 0.119735
O O19 0.500000 0.339817 0.491253
O O20 0.500000 0.450717 0.788200
O O21 0.723749 0.500000 0.800936
#
# Coordination Sequence:
#
# PCOD9359015 Si02
#       8
#     8   8   8   8   8   8   8   8
#     4   9  18  34  58  87 118 152 191 235 283 341
#     4   9  21  39  58  81 107 144 192 239 286 339
#     4  11  24  39  56  86 120 154 194 239 295 355
#     4  11  21  35  57  84 115 147 182 232 290 343
#     4  10  22  41  62  81 108 153 200 242 287 342
#     4  11  24  37  55  85 118 149 184 235 293 345
#     4  10  21  38  58  80 107 145 192 232 272 332
#     4   9  19  37  61  88 117 153 196 241 290 343
#
# _framework density 18.220085000000001
#
# number of rings (size 3 to 8) (size 9 to 14) (size 15 to 20)
#    0.000    2.000    0.000    4.875    1.750    8.000 
#    0.000    1.875    0.000    3.750    0.000    0.000 
#    0.000    0.000    0.000    0.000    0.000    0.000 
#
# Total GULP energy -178647.806772 kJ/mol
# GULP energy per Si atom -5582.743962 kJ/mol
# Density = 1.817862 g / cm^3
# Si number density = 18.220085 Si / 1000 Ang^3
#
#
#
# Elastic Constant Matrix: (Units=GPa)
#
#
# Indices 1 2 3 4 5 6 
#
# 1 51.6427 30.8809 45.4539 0.0000 0.0000 0.0000
# 2 30.8809 71.7706 57.2965 0.0000 0.0000 0.0000
# 3 45.4539 57.2965 132.9944 0.0000 0.0000 0.0000
# 4 0.0000 0.0000 0.0000 7.9322 0.0000 0.0000
# 5 0.0000 0.0000 0.0000 0.0000 29.7182 0.0000
# 6 0.0000 0.0000 0.0000 0.0000 0.0000 30.8845
#
#
#
# Elastic Compliance Matrix: (Units=1/GPa)
#
#
# Indices 1 2 3 4 5 6 
#
# 1 0.029943 -0.007185 -0.007138 0.000000 0.000000 0.000000
# 2 -0.007185 0.022962 -0.007437 0.000000 0.000000 0.000000
# 3 -0.007138 -0.007437 0.013163 0.000000 0.000000 0.000000
# 4 0.000000 0.000000 0.000000 0.126069 0.000000 0.000000
# 5 0.000000 0.000000 0.000000 0.000000 0.033649 0.000000
# 6 0.000000 0.000000 0.000000 0.000000 0.000000 0.032379
#
#
# Mechanical properties :
#
#
# Convention : Reuss Voigt Hill
#
# Bulk Modulus (GPa) = 44.35085 58.18559 51.26822
# Shear Modulus (GPa) = 16.17076 21.89207 19.03142
#
# Velocity S-wave (km/s) = 2.98237 3.47008 3.23542
# Velocity P-wave (km/s) = 6.02112 6.93249 6.49282
#
# Compressibility (1/GPa) = 0.02254748
#
# Stress axis : x y z
#
# Youngs Moduli (GPa) = 33.39667 43.55068 75.97242
#
# Poissons Ratio (x) = 0.31291 0.54231
# Poissons Ratio (y) = 0.23996 0.56499
# Poissons Ratio (z) = 0.23840 0.32387
#
# Static dielectric constant tensor:
#      x y z
#    x 1.609250 0.000000 0.000000 
#    y 0.000000 1.632590 0.000000 
#    z 0.000000 0.000000 1.613210 
# 
# From -- ./inp_files/8580.got.cif
#   From: 2010.05.17/outbox.cif.g08.bks.cpg/sg38_5_cif.got.tgz:8580.got - 2010.06.03 18:07:57.
