data_PCOD9359766
_publ_section_title
;
Structure prediction by ZEFSAII (Michael W. Deem and Ramdas Pophale) SiO2 
 PCOD9359766
Probable space group: A B M 2
;
_chemical_formula_sum "Si O2"
_cell_formula_units_Z 56
_cell_length_a 20.440627
_cell_length_b 9.009774
_cell_length_c 15.732872
_cell_angle_alpha 90.000000
_cell_angle_beta 90.000000
_cell_angle_gamma 90.000000
_cell_volume 2897.451132
_symmetry_space_group_name_H-M "A B M 2"
_symmetry_group_IT_number 39
_symmetry_cell_setting 'orthorhombic'
loop_
_space_group_symop_operation_xyz
x,y,z
-x,-y,z
-x,1/2+y,z
x,1/2-y,z
x,1/2+y,1/2+z
-x,1/2-y,1/2+z
-x,y,1/2+z
x,-y,1/2+z
loop_
_atom_site_type_symbol
_atom_site_label
_atom_site_fract_x
_atom_site_fract_y
_atom_site_fract_z
Si Si1 0.428714 0.071572 0.620650
Si Si2 0.065721 0.579494 0.731236
Si Si3 0.648880 0.427081 0.774022
Si Si4 0.340618 0.930186 0.961005
Si Si5 0.799416 0.428076 0.025087
Si Si6 0.066542 0.421826 0.023171
Si Si7 0.206185 0.428116 0.210180
O O1 0.433211 0.250000 0.620890
O O2 0.385399 0.023307 0.539486
O O3 0.500000 0.000000 0.616606
O O4 0.391230 0.015065 0.703976
O O5 0.060539 0.750000 0.756672
O O6 0.066533 0.571396 0.627298
O O7 0.138376 0.524512 0.755457
O O8 0.000000 0.500000 0.760771
O O9 0.636366 0.250000 0.764777
O O10 0.632924 0.476266 0.869528
O O11 0.726660 0.449034 0.760137
O O12 0.339661 0.750000 0.960874
O O13 0.265399 0.976118 0.974774
O O14 0.804056 0.250000 0.023893
O O15 0.867590 0.496897 0.994295
O O16 0.789084 0.485144 0.121469
O O17 0.067238 0.250000 0.999299
O O18 0.000000 0.500000 0.994370
O O19 0.199656 0.250000 0.192976
#
# Coordination Sequence:
#
# PCOD9359766 Si02
#       7
#     8   8   8   8   8   8   8
#     4  11  23  42  63  89 119 149 184 228 279 338
#     4   8  14  23  36  62  96 132 174 223 270 320
#     4  10  20  38  62  87 115 152 192 235 283 335
#     4   9  20  37  59  86 118 151 190 233 281 337
#     4  10  17  29  50  75 107 147 186 232 284 335
#     4   9  16  26  41  68 103 141 188 238 285 338
#     4   9  17  29  49  75 105 141 187 234 282 333
#
# _framework density 19.327331999999998
#
# number of rings (size 3 to 8) (size 9 to 14) (size 15 to 20)
#    0.000    2.571    1.429    2.143    0.000    4.000 
#    0.000    4.286    0.000    0.857    0.000    2.000 
#    0.000    0.000    0.000    0.000    0.000    0.000 
#
# Total GULP energy -156200.857509 kJ/mol
# GULP energy per Si atom -5578.602054 kJ/mol
# Density = 1.928334 g / cm^3
# Si number density = 19.327332 Si / 1000 Ang^3
#
#
#
# Elastic Constant Matrix: (Units=GPa)
#
#
# Indices 1 2 3 4 5 6 
#
# 1 158.8312 55.6321 61.0206 0.0000 0.0000 0.0000
# 2 55.6321 60.3738 33.4371 0.0000 0.0000 0.0000
# 3 61.0206 33.4371 94.8428 0.0000 0.0000 0.0000
# 4 0.0000 0.0000 0.0000 13.5522 0.0000 0.0000
# 5 0.0000 0.0000 0.0000 0.0000 -7.8122 0.0000
# 6 0.0000 0.0000 0.0000 0.0000 0.0000 31.8520
#
#
#
# Elastic Compliance Matrix: (Units=1/GPa)
#
#
# Indices 1 2 3 4 5 6 
#
# 1 0.010459 -0.007345 -0.004140 0.000000 0.000000 0.000000
# 2 -0.007345 0.025740 -0.004349 0.000000 0.000000 0.000000
# 3 -0.004140 -0.004349 0.014741 0.000000 0.000000 0.000000
# 4 0.000000 0.000000 0.000000 0.073789 0.000000 0.000000
# 5 0.000000 0.000000 0.000000 0.000000 -0.128004 0.000000
# 6 0.000000 0.000000 0.000000 0.000000 0.000000 0.031395
#
#
# Mechanical properties :
#
#
# Convention : Reuss Voigt Hill
#
# Bulk Modulus (GPa) = 51.88829 68.24749 60.06789
# Shear Modulus (GPa) = 75.51568 18.44892 46.98230
#
# Velocity S-wave (km/s) = 6.25754 3.09293 4.93574
# Velocity P-wave (km/s) = 8.89463 6.93852 7.97676
#
# Compressibility (1/GPa) = 0.01927217
#
# Stress axis : x y z
#
# Youngs Moduli (GPa) = 95.61126 38.84975 67.84006
#
# Poissons Ratio (x) = 0.28535 0.28084
# Poissons Ratio (y) = 0.70225 0.29505
# Poissons Ratio (z) = 0.39581 0.16897
#
# Static dielectric constant tensor:
#      x y z
#    x 1.681050 0.000000 0.000000 
#    y 0.000000 1.651190 0.000000 
#    z 0.000000 0.000000 1.695510 
# 
# From -- ./inp_files/10376.got.cif
#   From: 2010.05.17/outbox.cif.g08.bks.cpg/sg39_6_cif.got.tgz:10376.got - 2010.06.03 18:22:40.
