data_PCOD9359263
_publ_section_title
;
Structure prediction by ZEFSAII (Michael W. Deem and Ramdas Pophale) SiO2 
 PCOD9359263
Probable space group: A M M 2
;
_chemical_formula_sum "Si O2"
_cell_formula_units_Z 48
_cell_length_a 7.673588
_cell_length_b 27.641253
_cell_length_c 9.807388
_cell_angle_alpha 90.000000
_cell_angle_beta 90.000000
_cell_angle_gamma 90.000000
_cell_volume 2080.221407
_symmetry_space_group_name_H-M "A M M 2"
_symmetry_group_IT_number 38
_symmetry_cell_setting 'orthorhombic'
loop_
_space_group_symop_operation_xyz
x,y,z
-x,-y,z
-x,y,z
x,-y,z
x,1/2+y,1/2+z
-x,1/2-y,1/2+z
-x,1/2+y,1/2+z
x,1/2-y,1/2+z
loop_
_atom_site_type_symbol
_atom_site_label
_atom_site_fract_x
_atom_site_fract_y
_atom_site_fract_z
Si Si1 0.700580 0.947578 0.024910
Si Si2 0.213375 0.053902 0.618956
Si Si3 0.298699 0.227174 0.980893
Si Si4 0.203705 0.919575 0.316562
Si Si5 0.713300 0.307729 0.776696
Si Si6 0.197656 0.632904 0.330380
O O1 0.500000 0.943879 0.979896
O O2 0.704917 0.942763 0.187002
O O3 0.771902 0.000000 0.985199
O O4 0.801680 0.903489 0.958671
O O5 0.266259 0.062547 0.463205
O O6 0.272902 0.098921 0.711163
O O7 0.000000 0.054704 0.625530
O O8 0.268842 0.000000 0.663090
O O9 0.500000 0.239355 0.007296
O O10 0.224612 0.272365 0.897419
O O11 0.291154 0.181161 0.879611
O O12 0.225712 0.211655 0.128199
O O13 0.226147 0.862007 0.303473
O O14 0.000000 0.932155 0.306715
O O15 0.500000 0.308350 0.774126
O O16 0.000000 0.646525 0.294307
#
# Coordination Sequence:
#
# PCOD9359263 Si02
#       6
#     8   8   8   8   8   8
#     4  11  23  39  60  87 120 157 198 247 300 359
#     4   9  20  38  58  85 122 159 196 239 290 351
#     4  10  22  40  61  86 119 159 199 243 297 357
#     4  11  22  38  62  90 120 157 199 247 301 354
#     4  10  22  40  61  86 119 159 199 243 297 357
#     4  11  22  38  62  90 120 157 199 247 301 354
#
# _framework density 23.074463999999999
#
# number of rings (size 3 to 8) (size 9 to 14) (size 15 to 20)
#    0.000    1.667    1.667    2.500    2.333    3.333 
#    0.000    2.500    0.000    6.000    0.000    0.000 
#    0.000    0.000    0.000    0.000    0.000    0.000 
#
# Total GULP energy -134185.549227 kJ/mol
# GULP energy per Si atom -5591.064551 kJ/mol
# Density = 2.302195 g / cm^3
# Si number density = 23.074464 Si / 1000 Ang^3
#
#
#
# Elastic Constant Matrix: (Units=GPa)
#
#
# Indices 1 2 3 4 5 6 
#
# 1 49.6231 -12.6892 -6.6224 0.0000 0.0000 0.0000
# 2 -12.6892 94.0027 4.4795 0.0000 0.0000 0.0000
# 3 -6.6224 4.4795 94.0692 0.0000 0.0000 0.0000
# 4 0.0000 0.0000 0.0000 47.2418 0.0000 0.0000
# 5 0.0000 0.0000 0.0000 0.0000 14.3475 0.0000
# 6 0.0000 0.0000 0.0000 0.0000 0.0000 117.8363
#
#
#
# Elastic Compliance Matrix: (Units=1/GPa)
#
#
# Indices 1 2 3 4 5 6 
#
# 1 0.021042 0.002776 0.001349 0.000000 0.000000 0.000000
# 2 0.002776 0.011028 -0.000330 0.000000 0.000000 0.000000
# 3 0.001349 -0.000330 0.010741 0.000000 0.000000 0.000000
# 4 0.000000 0.000000 0.000000 0.021168 0.000000 0.000000
# 5 0.000000 0.000000 0.000000 0.000000 0.069698 0.000000
# 6 0.000000 0.000000 0.000000 0.000000 0.000000 0.008486
#
#
# Mechanical properties :
#
#
# Convention : Reuss Voigt Hill
#
# Bulk Modulus (GPa) = 19.84032 23.11455 21.47744
# Shear Modulus (GPa) = 33.03084 52.72026 42.87555
#
# Velocity S-wave (km/s) = 3.78761 4.78513 4.31529
# Velocity P-wave (km/s) = 5.26735 6.36939 5.84440
#
# Compressibility (1/GPa) = 0.05040240
#
# Stress axis : x y z
#
# Youngs Moduli (GPa) = 47.52438 90.67461 93.09994
#
# Poissons Ratio (x) = -0.25172 -0.12560
# Poissons Ratio (y) = -0.13193 0.03070
# Poissons Ratio (z) = -0.06412 0.02990
#
# Static dielectric constant tensor:
#      x y z
#    x 1.866610 0.000000 0.000000 
#    y 0.000000 1.816810 0.000000 
#    z 0.000000 0.000000 1.865660 
# 
# From -- ./inp_files/3751.got.cif
#   From: 2010.05.17/outbox.cif.g08.bks.cpg/sg38_2_cif.got.tgz:3751.got - 2010.06.03 18:07:57.
