data_PCOD9359509
_publ_section_title
;
Structure prediction by ZEFSAII (Michael W. Deem and Ramdas Pophale) SiO2 
 PCOD9359509
Probable space group: A M M 2
;
_chemical_formula_sum "Si O2"
_cell_formula_units_Z 48
_cell_length_a 9.625880
_cell_length_b 7.333185
_cell_length_c 32.100940
_cell_angle_alpha 90.000000
_cell_angle_beta 90.000000
_cell_angle_gamma 90.000000
_cell_volume 2265.952671
_symmetry_space_group_name_H-M "A M M 2"
_symmetry_group_IT_number 38
_symmetry_cell_setting 'orthorhombic'
loop_
_space_group_symop_operation_xyz
x,y,z
-x,-y,z
-x,y,z
x,-y,z
x,1/2+y,1/2+z
-x,1/2-y,1/2+z
-x,1/2+y,1/2+z
x,1/2-y,1/2+z
loop_
_atom_site_type_symbol
_atom_site_label
_atom_site_fract_x
_atom_site_fract_y
_atom_site_fract_z
Si Si1 0.660029 0.222801 0.142720
Si Si2 0.842281 0.281737 0.971602
Si Si3 0.158766 0.783286 0.065140
Si Si4 0.660078 0.277842 0.894691
Si Si5 0.660794 0.778010 0.301448
Si Si6 0.839926 0.777498 0.222721
O O1 0.500000 0.281590 0.144701
O O2 0.739261 0.284491 0.101010
O O3 0.749516 0.278251 0.182842
O O4 0.658016 0.000000 0.142613
O O5 0.848114 0.500000 0.967464
O O6 0.788383 0.245693 0.018152
O O7 0.000000 0.211592 0.969901
O O8 0.752052 0.213242 0.933122
O O9 0.000000 0.711196 0.067986
O O10 0.148990 0.000000 0.071262
O O11 0.500000 0.224328 0.900217
O O12 0.663302 0.500000 0.894906
O O13 0.703840 0.221778 0.848112
O O14 0.500000 0.723202 0.294455
O O15 0.762490 0.718380 0.264853
O O16 0.660758 0.000000 0.301005
O O17 0.000000 0.719003 0.220330
O O18 0.841023 0.000000 0.222839
#
# Coordination Sequence:
#
# PCOD9359509 Si02
#       6
#     8   8   8   8   8   8
#     4   9  16  25  37  53  74 101 132 165 200 237
#     4   9  17  28  42  60  81 105 134 168 203 237
#     4   9  17  29  43  58  79 107 136 166 201 239
#     4   8  14  24  37  53  75 104 134 163 198 238
#     4   8  13  21  32  47  70 100 131 160 191 231
#     4   9  15  21  31  49  73 101 131 161 195 237
#
# _framework density 21.183142
#
# number of rings (size 3 to 8) (size 9 to 14) (size 15 to 20)
#    0.000    3.333    0.000    2.000    0.000    5.333 
#    0.000    3.333    0.000    0.000    0.000    0.000 
#    0.000    1.333    0.000   13.000    0.000   15.667 
#
# Total GULP energy -133945.121533 kJ/mol
# GULP energy per Si atom -5581.046731 kJ/mol
# Density = 2.113493 g / cm^3
# Si number density = 21.183142 Si / 1000 Ang^3
#
#
#
# Elastic Constant Matrix: (Units=GPa)
#
#
# Indices 1 2 3 4 5 6 
#
# 1 154.4765 5.4840 153.9792 0.0000 0.0000 0.0000
# 2 5.4840 82.2832 2.8505 0.0000 0.0000 0.0000
# 3 153.9792 2.8505 256.3073 0.0000 0.0000 0.0000
# 4 0.0000 0.0000 0.0000 7.4901 0.0000 0.0000
# 5 0.0000 0.0000 0.0000 0.0000 46.7047 0.0000
# 6 0.0000 0.0000 0.0000 0.0000 0.0000 -10.7838
#
#
#
# Elastic Compliance Matrix: (Units=1/GPa)
#
#
# Indices 1 2 3 4 5 6 
#
# 1 0.016181 -0.000742 -0.009713 0.000000 0.000000 0.000000
# 2 -0.000742 0.012192 0.000310 0.000000 0.000000 0.000000
# 3 -0.009713 0.000310 0.009733 0.000000 0.000000 0.000000
# 4 0.000000 0.000000 0.000000 0.133510 0.000000 0.000000
# 5 0.000000 0.000000 0.000000 0.000000 0.021411 0.000000
# 6 0.000000 0.000000 0.000000 0.000000 0.000000 -0.092732
#
#
# Mechanical properties :
#
#
# Convention : Reuss Voigt Hill
#
# Bulk Modulus (GPa) = 56.12585 90.85490 73.49038
# Shear Modulus (GPa) = 39.51791 30.73241 35.12516
#
# Velocity S-wave (km/s) = 4.32387 3.81306 4.07648
# Velocity P-wave (km/s) = 7.17502 7.89742 7.54487
#
# Compressibility (1/GPa) = 0.01781710
#
# Stress axis : x y z
#
# Youngs Moduli (GPa) = 61.79899 82.02193 102.74044
#
# Poissons Ratio (x) = 0.06086 0.99791
# Poissons Ratio (y) = 0.04585 -0.03187
# Poissons Ratio (z) = 0.60025 -0.02544
#
# Static dielectric constant tensor:
#      x y z
#    x 1.716660 0.000000 0.000000 
#    y 0.000000 1.906940 0.000000 
#    z 0.000000 0.000000 1.733380 
# 
# From -- ./inp_files/21881.got.cif
#   From: 2010.05.17/outbox.cif.g08.bks.cpg/sg38_11_cif.got.tgz:21881.got - 2010.06.03 18:07:57.
