data_PCOD9359757
_publ_section_title
;
Structure prediction by ZEFSAII (Michael W. Deem and Ramdas Pophale) SiO2 
 PCOD9359757
Probable space group: A B M 2
;
_chemical_formula_sum "Si O2"
_cell_formula_units_Z 64
_cell_length_a 15.275979
_cell_length_b 31.703732
_cell_length_c 5.467551
_cell_angle_alpha 90.000000
_cell_angle_beta 90.000000
_cell_angle_gamma 90.000000
_cell_volume 2647.965263
_symmetry_space_group_name_H-M "A B M 2"
_symmetry_group_IT_number 39
_symmetry_cell_setting 'orthorhombic'
loop_
_space_group_symop_operation_xyz
x,y,z
-x,-y,z
-x,1/2+y,z
x,1/2-y,z
x,1/2+y,1/2+z
-x,1/2-y,1/2+z
-x,y,1/2+z
x,-y,1/2+z
loop_
_atom_site_type_symbol
_atom_site_label
_atom_site_fract_x
_atom_site_fract_y
_atom_site_fract_z
Si Si1 0.183456 0.106874 0.261620
Si Si2 0.183471 0.865112 0.261561
Si Si3 0.442507 0.203378 0.860285
Si Si4 0.950941 0.800014 0.710228
Si Si5 0.557461 0.391323 0.341525
Si Si6 0.990918 0.422272 0.288696
Si Si7 0.181269 0.986421 0.554813
Si Si8 0.378282 0.517320 0.450737
O O1 0.228816 0.116266 0.520366
O O2 0.077120 0.108647 0.294695
O O3 0.192785 0.059421 0.170797
O O4 0.217532 0.134628 0.037206
O O5 0.144394 0.820280 0.189719
O O6 0.096518 0.894886 0.286753
O O7 0.396113 0.250000 0.853656
O O8 0.496130 0.203509 0.116904
O O9 0.400568 0.156131 0.850002
O O10 0.945164 0.750000 0.707098
O O11 0.008120 0.812152 0.473119
O O12 0.507771 0.393826 0.078677
O O13 0.616395 0.433405 0.375594
O O14 0.997342 0.446676 0.539384
O O15 0.280073 0.999936 0.491528
O O16 0.142311 0.986947 0.280106
O O17 0.414949 0.489916 0.224464
#
# Coordination Sequence:
#
# PCOD9359757 Si02
#       8
#     8   8   8   8   8   8   8   8
#     4  10  18  29  49  66  82 114 153 187 225 273
#     4  10  17  28  45  67  91 115 147 185 228 279
#     4   8  14  25  41  64  96 128 155 187 225 264
#     4  10  18  27  41  65  97 127 151 181 227 284
#     4  10  19  30  48  75 102 129 162 195 234 290
#     4   8  14  23  39  59  81 103 131 170 214 259
#     4  10  21  37  52  67  89 117 155 199 236 272
#     4  10  21  35  50  69  98 131 160 199 243 280
#
# _framework density 24.169499999999999
#
# number of rings (size 3 to 8) (size 9 to 14) (size 15 to 20)
#    0.000    2.500    0.000    4.500    0.000    1.500 
#    0.000    0.000    0.000   20.250    0.000    1.750 
#    0.000    2.000    0.000    0.000    0.000    0.000 
#
# Total GULP energy -178289.729355 kJ/mol
# GULP energy per Si atom -5571.554042 kJ/mol
# Density = 2.411449 g / cm^3
# Si number density = 24.169500 Si / 1000 Ang^3
#
#
#
# Elastic Constant Matrix: (Units=GPa)
#
#
# Indices 1 2 3 4 5 6 
#
# 1 25.5674 -6.1116 9.4378 0.0000 0.0000 0.0000
# 2 -6.1116 116.9182 23.4891 0.0000 0.0000 0.0000
# 3 9.4378 23.4891 222.1492 0.0000 0.0000 0.0000
# 4 0.0000 0.0000 0.0000 40.6790 0.0000 0.0000
# 5 0.0000 0.0000 0.0000 0.0000 -14.4536 0.0000
# 6 0.0000 0.0000 0.0000 0.0000 0.0000 12.3029
#
#
#
# Elastic Compliance Matrix: (Units=1/GPa)
#
#
# Indices 1 2 3 4 5 6 
#
# 1 0.040445 0.002513 -0.001984 0.000000 0.000000 0.000000
# 2 0.002513 0.008895 -0.001047 0.000000 0.000000 0.000000
# 3 -0.001984 -0.001047 0.004696 0.000000 0.000000 0.000000
# 4 0.000000 0.000000 0.000000 0.024583 0.000000 0.000000
# 5 0.000000 0.000000 0.000000 0.000000 -0.069187 0.000000
# 6 0.000000 0.000000 0.000000 0.000000 0.000000 0.081281
#
#
# Mechanical properties :
#
#
# Convention : Reuss Voigt Hill
#
# Bulk Modulus (GPa) = 18.86805 46.47393 32.67099
# Shear Modulus (GPa) = 45.69666 30.22697 37.96181
#
# Velocity S-wave (km/s) = 4.35291 3.54025 3.96744
# Velocity P-wave (km/s) = 5.75215 5.99844 5.87658
#
# Compressibility (1/GPa) = 0.05299964
#
# Stress axis : x y z
#
# Youngs Moduli (GPa) = 24.72474 112.42616 212.92462
#
# Poissons Ratio (x) = -0.28250 0.42244
# Poissons Ratio (y) = -0.06213 0.22298
# Poissons Ratio (z) = 0.04905 0.11774
#
# Static dielectric constant tensor:
#      x y z
#    x 2.007240 0.000000 0.000000 
#    y 0.000000 1.946960 0.000000 
#    z 0.000000 0.000000 2.061300 
# 
# From -- ./inp_files/915.got.cif
#   From: 2010.05.17/outbox.cif.g08.bks.cpg/sg39_1_cif.got.tgz:915.got - 2010.06.03 18:22:40.
