data_PCOD9359013
_publ_section_title
;
Structure prediction by ZEFSAII (Michael W. Deem and Ramdas Pophale) SiO2 
 PCOD9359013
Probable space group: A M M 2
;
_chemical_formula_sum "Si O2"
_cell_formula_units_Z 64
_cell_length_a 14.480337
_cell_length_b 7.587597
_cell_length_c 27.015363
_cell_angle_alpha 90.000000
_cell_angle_beta 90.000000
_cell_angle_gamma 90.000000
_cell_volume 2968.203910
_symmetry_space_group_name_H-M "A M M 2"
_symmetry_group_IT_number 38
_symmetry_cell_setting 'orthorhombic'
loop_
_space_group_symop_operation_xyz
x,y,z
-x,-y,z
-x,y,z
x,-y,z
x,1/2+y,1/2+z
-x,1/2-y,1/2+z
-x,1/2+y,1/2+z
x,1/2-y,1/2+z
loop_
_atom_site_type_symbol
_atom_site_label
_atom_site_fract_x
_atom_site_fract_y
_atom_site_fract_z
Si Si1 0.897064 0.794663 0.973000
Si Si2 0.112325 0.703771 0.863370
Si Si3 0.608493 0.714602 0.305972
Si Si4 0.288434 0.217153 0.013053
Si Si5 0.604124 0.291635 0.609509
Si Si6 0.392128 0.785765 0.914172
Si Si7 0.288364 0.291787 0.208784
Si Si8 0.105028 0.712130 0.755976
O O1 0.863156 0.788053 0.915734
O O2 0.000000 0.715203 0.975558
O O3 0.905718 0.000000 0.985362
O O4 0.817138 0.721227 0.007682
O O5 0.139960 0.500000 0.866389
O O6 0.139983 0.780130 0.809941
O O7 0.000000 0.710315 0.861075
O O8 0.500000 0.760452 0.301986
O O9 0.612888 0.500000 0.305894
O O10 0.643332 0.773279 0.360165
O O11 0.662962 0.781979 0.258362
O O12 0.341506 0.278903 0.061778
O O13 0.287796 0.000000 0.013240
O O14 0.339880 0.274039 0.962942
O O15 0.500000 0.219425 0.614906
O O16 0.595079 0.500000 0.600632
O O17 0.663163 0.272262 0.659208
O O18 0.500000 0.737531 0.917269
O O19 0.388255 0.000000 0.914169
O O20 0.302142 0.500000 0.209331
O O21 0.179780 0.255825 0.214701
O O22 0.100981 0.500000 0.760631
O O23 0.000000 0.773610 0.746879
#
# Coordination Sequence:
#
# PCOD9359013 Si02
#       8
#     8   8   8   8   8   8   8   8
#     4   9  17  28  45  73 107 137 168 214 268 318
#     4   8  15  29  48  70 101 142 179 209 249 308
#     4   8  15  27  43  69 105 137 165 205 265 328
#     4   9  17  29  48  72 100 133 176 224 267 314
#     4  10  21  38  58  78 101 136 185 235 279 327
#     4   8  13  23  41  66  96 127 160 206 262 313
#     4  11  22  34  54  81 109 141 179 223 275 330
#     4   9  19  36  55  76 107 146 185 223 264 315
#
# _framework density 21.561861
#
# number of rings (size 3 to 8) (size 9 to 14) (size 15 to 20)
#    0.000    3.000    0.000    2.625    1.750    3.000 
#    0.000    2.500    0.000    2.250    0.000    0.000 
#    0.000    0.000    0.000    0.000    0.000    0.000 
#
# Total GULP energy -178554.020497 kJ/mol
# GULP energy per Si atom -5579.813141 kJ/mol
# Density = 2.151278 g / cm^3
# Si number density = 21.561861 Si / 1000 Ang^3
#
#
#
# Elastic Constant Matrix: (Units=GPa)
#
#
# Indices 1 2 3 4 5 6 
#
# 1 136.0538 0.6614 104.6346 0.0000 0.0000 0.0000
# 2 0.6614 46.8940 1.9414 0.0000 0.0000 0.0000
# 3 104.6346 1.9414 163.7461 0.0000 0.0000 0.0000
# 4 0.0000 0.0000 0.0000 13.2179 0.0000 0.0000
# 5 0.0000 0.0000 0.0000 0.0000 29.4196 0.0000
# 6 0.0000 0.0000 0.0000 0.0000 0.0000 2.8571
#
#
#
# Elastic Compliance Matrix: (Units=1/GPa)
#
#
# Indices 1 2 3 4 5 6 
#
# 1 0.014454 0.000179 -0.009238 0.000000 0.000000 0.000000
# 2 0.000179 0.021337 -0.000367 0.000000 0.000000 0.000000
# 3 -0.009238 -0.000367 0.012015 0.000000 0.000000 0.000000
# 4 0.000000 0.000000 0.000000 0.075655 0.000000 0.000000
# 5 0.000000 0.000000 0.000000 0.000000 0.033991 0.000000
# 6 0.000000 0.000000 0.000000 0.000000 0.000000 0.350009
#
#
# Mechanical properties :
#
#
# Convention : Reuss Voigt Hill
#
# Bulk Modulus (GPa) = 34.53940 62.35209 48.44575
# Shear Modulus (GPa) = 9.32895 25.06268 17.19581
#
# Velocity S-wave (km/s) = 2.08230 3.41304 2.82709
# Velocity P-wave (km/s) = 4.67278 6.67176 5.75965
#
# Compressibility (1/GPa) = 0.02895244
#
# Stress axis : x y z
#
# Youngs Moduli (GPa) = 69.18456 46.86615 83.23117
#
# Poissons Ratio (x) = -0.00837 0.76892
# Poissons Ratio (y) = -0.01236 0.03056
# Poissons Ratio (z) = 0.63915 0.01721
#
# Static dielectric constant tensor:
#      x y z
#    x 1.820380 0.000000 0.000000 
#    y 0.000000 1.821800 0.000000 
#    z 0.000000 0.000000 1.770500 
# 
# From -- ./inp_files/22916.got.cif
#   From: 2010.05.17/outbox.cif.g08.bks.cpg/sg38_12_cif.got.tgz:22916.got - 2010.06.03 18:07:57.
