data_PCOD9359823
_publ_section_title
;
Structure prediction by ZEFSAII (Michael W. Deem and Ramdas Pophale) SiO2 
 PCOD9359823
Probable space group: A B M 2
;
_chemical_formula_sum "Si O2"
_cell_formula_units_Z 48
_cell_length_a 8.985277
_cell_length_b 15.841664
_cell_length_c 16.970790
_cell_angle_alpha 90.000000
_cell_angle_beta 90.000000
_cell_angle_gamma 90.000000
_cell_volume 2415.651764
_symmetry_space_group_name_H-M "A B M 2"
_symmetry_group_IT_number 39
_symmetry_cell_setting 'orthorhombic'
loop_
_space_group_symop_operation_xyz
x,y,z
-x,-y,z
-x,1/2+y,z
x,1/2-y,z
x,1/2+y,1/2+z
-x,1/2-y,1/2+z
-x,y,1/2+z
x,-y,1/2+z
loop_
_atom_site_type_symbol
_atom_site_label
_atom_site_fract_x
_atom_site_fract_y
_atom_site_fract_z
Si Si1 0.156478 0.647031 0.196420
Si Si2 0.869305 0.650787 0.281228
Si Si3 0.956621 0.097535 0.435638
Si Si4 0.219060 0.349016 0.525277
Si Si5 0.306645 0.845431 0.356948
Si Si6 0.606680 0.582189 0.375790
O O1 0.154887 0.750000 0.194200
O O2 0.230648 0.619678 0.114774
O O3 0.254194 0.620781 0.271868
O O4 0.983815 0.622318 0.212751
O O5 0.829012 0.750000 0.271056
O O6 0.727622 0.594307 0.305885
O O7 0.973192 0.642242 0.358713
O O8 0.780731 0.105268 0.425345
O O9 0.043018 0.141176 0.506423
O O10 0.000000 0.000000 0.434353
O O11 0.259832 0.250000 0.518974
O O12 0.307727 0.400598 0.458219
O O13 0.253187 0.750000 0.363114
O O14 0.481787 0.846972 0.365475
O O15 0.500000 0.500000 0.373501
#
# Coordination Sequence:
#
# PCOD9359823 Si02
#       6
#     8   8   8   8   8   8
#     4   8  17  33  56  78 100 132 184 235 269 309
#     4   9  17  34  56  77  99 138 185 225 265 318
#     4  10  18  30  49  75 104 135 177 225 267 315
#     4  10  19  36  56  76 103 144 185 225 272 323
#     4  10  18  32  52  76 101 135 177 221 265 322
#     4  11  21  33  52  80 113 144 174 215 269 329
#
# _framework density 19.870415000000001
#
# number of rings (size 3 to 8) (size 9 to 14) (size 15 to 20)
#    0.000    2.333    0.000    7.000    0.000    0.000 
#    0.000    7.500    0.000    4.000    0.000    0.000 
#    0.000    0.000    0.000    0.000    0.000    0.000 
#
# Total GULP energy -133623.371698 kJ/mol
# GULP energy per Si atom -5567.640487 kJ/mol
# Density = 1.982519 g / cm^3
# Si number density = 19.870415 Si / 1000 Ang^3
#
#
#
# Elastic Constant Matrix: (Units=GPa)
#
#
# Indices 1 2 3 4 5 6 
#
# 1 112.2045 14.7897 31.3545 0.0000 0.0000 0.0000
# 2 14.7897 77.0399 15.0176 0.0000 0.0000 0.0000
# 3 31.3545 15.0176 69.6111 0.0000 0.0000 0.0000
# 4 0.0000 0.0000 0.0000 -34.0086 0.0000 0.0000
# 5 0.0000 0.0000 0.0000 0.0000 23.8726 0.0000
# 6 0.0000 0.0000 0.0000 0.0000 0.0000 3.9321
#
#
#
# Elastic Compliance Matrix: (Units=1/GPa)
#
#
# Indices 1 2 3 4 5 6 
#
# 1 0.010287 -0.001119 -0.004392 0.000000 0.000000 0.000000
# 2 -0.001119 0.013672 -0.002446 0.000000 0.000000 0.000000
# 3 -0.004392 -0.002446 0.016871 0.000000 0.000000 0.000000
# 4 0.000000 0.000000 0.000000 -0.029404 0.000000 0.000000
# 5 0.000000 0.000000 0.000000 0.000000 0.041889 0.000000
# 6 0.000000 0.000000 0.000000 0.000000 0.000000 0.254316
#
#
# Mechanical properties :
#
#
# Convention : Reuss Voigt Hill
#
# Bulk Modulus (GPa) = 40.13266 42.35323 41.24295
# Shear Modulus (GPa) = 15.06705 11.93879 13.50292
#
# Velocity S-wave (km/s) = 2.75665 2.45385 2.60964
# Velocity P-wave (km/s) = 5.51119 5.42121 5.46638
#
# Compressibility (1/GPa) = 0.02491736
#
# Stress axis : x y z
#
# Youngs Moduli (GPa) = 97.20891 73.14336 59.27160
#
# Poissons Ratio (x) = 0.08182 0.26033
# Poissons Ratio (y) = 0.10875 0.14496
# Poissons Ratio (z) = 0.42696 0.17888
#
# Static dielectric constant tensor:
#      x y z
#    x 1.754700 0.000000 0.000000 
#    y 0.000000 1.802130 0.000000 
#    z 0.000000 0.000000 1.708240 
# 
# From -- ./inp_files/11596.got.cif
#   From: 2010.05.17/outbox.cif.g08.bks.cpg/sg39_6_cif.got.tgz:11596.got - 2010.06.03 18:22:40.
