data_PCOD9359218
_publ_section_title
;
Structure prediction by ZEFSAII (Michael W. Deem and Ramdas Pophale) SiO2 
 PCOD9359218
Probable space group: A M M 2
;
_chemical_formula_sum "Si O2"
_cell_formula_units_Z 48
_cell_length_a 10.509590
_cell_length_b 8.630248
_cell_length_c 29.050244
_cell_angle_alpha 90.000000
_cell_angle_beta 90.000000
_cell_angle_gamma 90.000000
_cell_volume 2634.867824
_symmetry_space_group_name_H-M "A M M 2"
_symmetry_group_IT_number 38
_symmetry_cell_setting 'orthorhombic'
loop_
_space_group_symop_operation_xyz
x,y,z
-x,-y,z
-x,y,z
x,-y,z
x,1/2+y,1/2+z
-x,1/2-y,1/2+z
-x,1/2+y,1/2+z
x,1/2-y,1/2+z
loop_
_atom_site_type_symbol
_atom_site_label
_atom_site_fract_x
_atom_site_fract_y
_atom_site_fract_z
Si Si1 0.500000 0.815500 0.017780
Si Si2 0.248824 0.813540 0.468484
Si Si3 0.246536 0.815043 0.676754
Si Si4 0.350696 0.313186 0.769031
Si Si5 0.500000 0.313133 0.120073
Si Si6 0.000000 0.314514 0.625524
Si Si7 0.000000 0.814048 0.018776
Si Si8 0.646976 0.811569 0.372521
O O1 0.500000 0.770402 0.071298
O O2 0.500000 0.000000 0.012059
O O3 0.625219 0.743582 0.994616
O O4 0.124885 0.746625 0.492902
O O5 0.266104 0.763424 0.415163
O O6 0.244083 0.000000 0.470012
O O7 0.266819 0.757608 0.728746
O O8 0.374172 0.771520 0.648730
O O9 0.124717 0.744493 0.651778
O O10 0.236120 0.000000 0.676379
O O11 0.500000 0.271339 0.762126
O O12 0.342948 0.500000 0.766874
O O13 0.315421 0.263205 0.820983
O O14 0.500000 0.500000 0.113150
O O15 0.000000 0.500000 0.625569
O O16 0.000000 0.261644 0.572191
O O17 0.000000 0.000000 0.018419
O O18 0.500000 0.763045 0.380649
O O19 0.645715 0.000000 0.372242
#
# Coordination Sequence:
#
# PCOD9359218 Si02
#       8
#     4   8   8   8   4   4   4   8
#     4  12  24  36  55  86 119 149 190 247 299 340
#     4  11  21  38  63  87 115 155 200 239 285 348
#     4  11  22  38  59  86 117 148 189 241 293 345
#     4   9  17  32  58  88 118 153 192 234 282 338
#     4  10  22  38  57  82 113 149 192 239 287 350
#     4  11  25  43  60  79 110 157 200 237 288 351
#     4  11  25  43  60  85 120 153 194 247 300 351
#     4   8  15  31  57  88 117 149 194 238 274 332
#
# _framework density 18.217231999999999
#
# number of rings (size 3 to 8) (size 9 to 14) (size 15 to 20)
#    0.000    1.833    1.667    4.250    0.000    5.333 
#    0.000    2.500    0.000    2.000    0.000    0.000 
#    0.000    0.000    0.000    0.000    0.000    0.000 
#
# Total GULP energy -134035.333161 kJ/mol
# GULP energy per Si atom -5584.805548 kJ/mol
# Density = 1.817577 g / cm^3
# Si number density = 18.217232 Si / 1000 Ang^3
#
#
#
# Elastic Constant Matrix: (Units=GPa)
#
#
# Indices 1 2 3 4 5 6 
#
# 1 155.1258 43.3452 102.0674 0.0000 0.0000 0.0000
# 2 43.3452 40.7119 47.7142 0.0000 0.0000 0.0000
# 3 102.0674 47.7142 200.7124 0.0000 0.0000 0.0000
# 4 0.0000 0.0000 0.0000 26.8772 0.0000 0.0000
# 5 0.0000 0.0000 0.0000 0.0000 28.9346 0.0000
# 6 0.0000 0.0000 0.0000 0.0000 0.0000 27.4921
#
#
#
# Elastic Compliance Matrix: (Units=1/GPa)
#
#
# Indices 1 2 3 4 5 6 
#
# 1 0.011010 -0.007153 -0.003898 0.000000 0.000000 0.000000
# 2 -0.007153 0.038697 -0.005562 0.000000 0.000000 0.000000
# 3 -0.003898 -0.005562 0.008287 0.000000 0.000000 0.000000
# 4 0.000000 0.000000 0.000000 0.037206 0.000000 0.000000
# 5 0.000000 0.000000 0.000000 0.000000 0.034561 0.000000
# 6 0.000000 0.000000 0.000000 0.000000 0.000000 0.036374
#
#
# Mechanical properties :
#
#
# Convention : Reuss Voigt Hill
#
# Bulk Modulus (GPa) = 40.37582 86.97819 63.67700
# Shear Modulus (GPa) = 24.08273 30.22234 27.15254
#
# Velocity S-wave (km/s) = 3.63984 4.07750 3.86487
# Velocity P-wave (km/s) = 6.31476 8.36759 7.41259
#
# Compressibility (1/GPa) = 0.02476730
#
# Stress axis : x y z
#
# Youngs Moduli (GPa) = 90.82468 25.84178 120.67366
#
# Poissons Ratio (x) = 0.18486 0.47044
# Poissons Ratio (y) = 0.64971 0.67113
# Poissons Ratio (z) = 0.35407 0.14372
#
# Static dielectric constant tensor:
#      x y z
#    x 1.589640 0.000000 0.000000 
#    y 0.000000 1.616790 0.000000 
#    z 0.000000 0.000000 1.633130 
# 
# From -- ./inp_files/24489.got.cif
#   From: 2010.05.17/outbox.cif.g08.bks.cpg/sg38_13_cif.got.tgz:24489.got - 2010.06.03 18:07:57.
