data_PCOD9359449
_publ_section_title
;
Structure prediction by ZEFSAII (Michael W. Deem and Ramdas Pophale) SiO2 
 PCOD9359449
Probable space group: A M M 2
;
_chemical_formula_sum "Si O2"
_cell_formula_units_Z 64
_cell_length_a 24.862366
_cell_length_b 7.752762
_cell_length_c 15.684450
_cell_angle_alpha 90.000000
_cell_angle_beta 90.000000
_cell_angle_gamma 90.000000
_cell_volume 3023.209206
_symmetry_space_group_name_H-M "A M M 2"
_symmetry_group_IT_number 38
_symmetry_cell_setting 'orthorhombic'
loop_
_space_group_symop_operation_xyz
x,y,z
-x,-y,z
-x,y,z
x,-y,z
x,1/2+y,1/2+z
-x,1/2-y,1/2+z
-x,1/2+y,1/2+z
x,1/2-y,1/2+z
loop_
_atom_site_type_symbol
_atom_site_label
_atom_site_fract_x
_atom_site_fract_y
_atom_site_fract_z
Si Si1 0.441486 0.709372 0.280880
Si Si2 0.325109 0.700177 0.327710
Si Si3 0.329846 0.299446 0.008955
Si Si4 0.938914 0.792786 0.329494
Si Si5 0.741659 0.699818 0.666722
Si Si6 0.441231 0.209872 0.579805
Si Si7 0.938983 0.207250 0.023279
Si Si8 0.863628 0.788156 0.176701
O O1 0.500000 0.772684 0.311926
O O2 0.442765 0.500000 0.286990
O O3 0.386611 0.769183 0.324487
O O4 0.437039 0.752656 0.180273
O O5 0.327078 0.500000 0.302299
O O6 0.305745 0.715034 0.424533
O O7 0.288281 0.787740 0.257191
O O8 0.336049 0.500000 0.988280
O O9 0.293805 0.285071 0.093058
O O10 0.388891 0.224825 0.031099
O O11 0.923876 0.750856 0.426507
O O12 0.896471 0.730173 0.259987
O O13 0.000000 0.727739 0.314544
O O14 0.941053 0.000000 0.321697
O O15 0.745470 0.500000 0.641985
O O16 0.802048 0.770293 0.674200
O O17 0.500000 0.268090 0.548687
O O18 0.440333 0.000000 0.576020
O O19 0.896953 0.268022 0.093638
O O20 0.000000 0.272184 0.038335
O O21 0.940985 0.000000 0.030349
O O22 0.862833 0.000000 0.178240
#
# Coordination Sequence:
#
# PCOD9359449 Si02
#       8
#     8   8   8   8   8   8   8   8
#     4   8  14  28  53  81 107 137 173 218 274 332
#     4  11  22  38  59  83 110 145 185 228 278 333
#     4  11  22  38  59  83 110 145 185 228 278 333
#     4   9  17  32  55  82 111 141 174 215 264 318
#     4  11  23  40  58  79 110 147 190 237 276 320
#     4   8  14  28  53  81 107 137 173 218 274 332
#     4   9  17  32  55  82 111 141 174 215 264 318
#     4   9  19  35  56  79 105 142 184 221 264 318
#
# _framework density 21.169557000000001
#
# number of rings (size 3 to 8) (size 9 to 14) (size 15 to 20)
#    0.000    2.500    1.250    2.250    0.000    3.000 
#    0.000    5.625    0.000    6.000    0.000    0.000 
#    0.000    0.000    0.000    0.000    0.000    0.000 
#
# Total GULP energy -178645.859208 kJ/mol
# GULP energy per Si atom -5582.683100 kJ/mol
# Density = 2.112137 g / cm^3
# Si number density = 21.169557 Si / 1000 Ang^3
#
#
#
# Elastic Constant Matrix: (Units=GPa)
#
#
# Indices 1 2 3 4 5 6 
#
# 1 147.8339 3.2681 87.6695 0.0000 0.0000 0.0000
# 2 3.2681 33.5280 -6.8952 0.0000 0.0000 0.0000
# 3 87.6695 -6.8952 119.5304 0.0000 0.0000 0.0000
# 4 0.0000 0.0000 0.0000 22.5648 0.0000 0.0000
# 5 0.0000 0.0000 0.0000 0.0000 9.9814 0.0000
# 6 0.0000 0.0000 0.0000 0.0000 0.0000 12.0868
#
#
#
# Elastic Compliance Matrix: (Units=1/GPa)
#
#
# Indices 1 2 3 4 5 6 
#
# 1 0.012279 -0.003086 -0.009184 0.000000 0.000000 0.000000
# 2 -0.003086 0.030959 0.004049 0.000000 0.000000 0.000000
# 3 -0.009184 0.004049 0.015336 0.000000 0.000000 0.000000
# 4 0.000000 0.000000 0.000000 0.044317 0.000000 0.000000
# 5 0.000000 0.000000 0.000000 0.000000 0.100186 0.000000
# 6 0.000000 0.000000 0.000000 0.000000 0.000000 0.082735
#
#
# Mechanical properties :
#
#
# Convention : Reuss Voigt Hill
#
# Bulk Modulus (GPa) = 23.73451 52.10858 37.92155
# Shear Modulus (GPa) = 15.80795 23.38326 19.59560
#
# Velocity S-wave (km/s) = 2.73560 3.32711 3.04575
# Velocity P-wave (km/s) = 4.60586 6.27916 5.50644
#
# Compressibility (1/GPa) = 0.04213274
#
# Stress axis : x y z
#
# Youngs Moduli (GPa) = 81.44062 32.30051 65.20776
#
# Poissons Ratio (x) = 0.09967 0.59886
# Poissons Ratio (y) = 0.25129 -0.26403
# Poissons Ratio (z) = 0.74795 -0.13079
#
# Static dielectric constant tensor:
#      x y z
#    x 1.768720 0.000000 0.000000 
#    y 0.000000 1.788380 0.000000 
#    z 0.000000 0.000000 1.729290 
# 
# From -- ./inp_files/15755.got.cif
#   From: 2010.05.17/outbox.cif.g08.bks.cpg/sg38_8_cif.got.tgz:15755.got - 2010.06.03 18:07:57.
