data_PCOD9359091
_publ_section_title
;
Structure prediction by ZEFSAII (Michael W. Deem and Ramdas Pophale) SiO2 
 PCOD9359091
Probable space group: A M M 2
;
_chemical_formula_sum "Si O2"
_cell_formula_units_Z 64
_cell_length_a 33.245130
_cell_length_b 16.415987
_cell_length_c 5.305459
_cell_angle_alpha 90.000000
_cell_angle_beta 90.000000
_cell_angle_gamma 90.000000
_cell_volume 2895.462854
_symmetry_space_group_name_H-M "A M M 2"
_symmetry_group_IT_number 38
_symmetry_cell_setting 'orthorhombic'
loop_
_space_group_symop_operation_xyz
x,y,z
-x,-y,z
-x,y,z
x,-y,z
x,1/2+y,1/2+z
-x,1/2-y,1/2+z
-x,1/2+y,1/2+z
x,1/2-y,1/2+z
loop_
_atom_site_type_symbol
_atom_site_label
_atom_site_fract_x
_atom_site_fract_y
_atom_site_fract_z
Si Si1 0.873948 0.593934 0.659680
Si Si2 0.455083 0.804201 0.344694
Si Si3 0.794946 0.156465 0.393037
Si Si4 0.237932 0.342807 0.392506
Si Si5 0.092794 0.303535 0.290815
Si Si6 0.956165 0.593401 0.979452
Si Si7 0.674934 0.901101 0.775299
Si Si8 0.625652 0.402716 0.776622
O O1 0.862141 0.500000 0.675073
O O2 0.840483 0.647212 0.801770
O O3 0.877678 0.623144 0.369572
O O4 0.918269 0.600907 0.789682
O O5 0.500000 0.841594 0.327460
O O6 0.452248 0.739798 0.115246
O O7 0.417975 0.864261 0.311629
O O8 0.779535 0.250380 0.419752
O O9 0.769135 0.118808 0.165642
O O10 0.786727 0.118260 0.663449
O O11 0.284054 0.351577 0.316097
O O12 0.097398 0.250808 0.543184
O O13 0.051602 0.348946 0.218808
O O14 0.955919 0.500000 0.064764
O O15 0.000000 0.611184 0.865467
O O16 0.654349 0.879146 0.510344
O O17 0.682530 0.000000 0.778753
O O18 0.645569 0.881355 0.008744
O O19 0.622157 0.500000 0.784825
#
# Coordination Sequence:
#
# PCOD9359091 Si02
#       8
#     8   8   8   8   8   8   8   8
#     4  11  26  47  75 109 143 186 233 277 337 407
#     4  10  21  39  59  91 133 175 226 280 336 399
#     4  10  24  40  64  93 131 172 219 277 322 400
#     4  10  22  42  62  91 131 171 223 276 340 394
#     4  12  26  45  73 103 140 177 220 274 328 387
#     4  10  24  49  77 106 144 187 230 276 331 400
#     4  10  21  39  63  90 130 171 221 285 342 405
#     4  10  21  39  63  95 130 173 224 278 341 403
#
# _framework density 22.103549000000001
#
# number of rings (size 3 to 8) (size 9 to 14) (size 15 to 20)
#    0.000    1.625    1.250    1.875    5.250    2.250 
#   13.500    1.250    0.000    4.500    0.000    0.000 
#    0.000    0.000    0.000    0.000    0.000    0.000 
#
# Total GULP energy -178593.365772 kJ/mol
# GULP energy per Si atom -5581.042680 kJ/mol
# Density = 2.205324 g / cm^3
# Si number density = 22.103549 Si / 1000 Ang^3
#
#
#
# Elastic Constant Matrix: (Units=GPa)
#
#
# Indices 1 2 3 4 5 6 
#
# 1 113.4193 28.7346 -13.8503 0.0000 0.0000 0.0000
# 2 28.7346 50.5437 8.6028 0.0000 0.0000 0.0000
# 3 -13.8503 8.6028 92.7100 0.0000 0.0000 0.0000
# 4 0.0000 0.0000 0.0000 19.2976 0.0000 0.0000
# 5 0.0000 0.0000 0.0000 0.0000 34.9670 0.0000
# 6 0.0000 0.0000 0.0000 0.0000 0.0000 33.2126
#
#
#
# Elastic Compliance Matrix: (Units=1/GPa)
#
#
# Indices 1 2 3 4 5 6 
#
# 1 0.010726 -0.006473 0.002203 0.000000 0.000000 0.000000
# 2 -0.006473 0.024008 -0.003195 0.000000 0.000000 0.000000
# 3 0.002203 -0.003195 0.011412 0.000000 0.000000 0.000000
# 4 0.000000 0.000000 0.000000 0.051820 0.000000 0.000000
# 5 0.000000 0.000000 0.000000 0.000000 0.028598 0.000000
# 6 0.000000 0.000000 0.000000 0.000000 0.000000 0.030109
#
#
# Mechanical properties :
#
#
# Convention : Reuss Voigt Hill
#
# Bulk Modulus (GPa) = 32.03370 33.73856 32.88613
# Shear Modulus (GPa) = 27.47134 33.04117 30.25626
#
# Velocity S-wave (km/s) = 3.52923 3.87050 3.70380
# Velocity P-wave (km/s) = 5.57954 5.93897 5.76206
#
# Compressibility (1/GPa) = 0.03121712
#
# Stress axis : x y z
#
# Youngs Moduli (GPa) = 93.23412 41.65210 87.62795
#
# Poissons Ratio (x) = 0.26960 -0.19304
# Poissons Ratio (y) = 0.60347 0.27995
# Poissons Ratio (z) = -0.20539 0.13307
#
# Static dielectric constant tensor:
#      x y z
#    x 1.823510 0.000000 0.000000 
#    y 0.000000 1.800380 0.000000 
#    z 0.000000 0.000000 1.880410 
# 
# From -- ./inp_files/2309.got.cif
#   From: 2010.05.17/outbox.cif.g08.bks.cpg/sg38_2_cif.got.tgz:2309.got - 2010.06.03 18:07:57.
