data_PCOD9359327
_publ_section_title
;
Structure prediction by ZEFSAII (Michael W. Deem and Ramdas Pophale) SiO2 
 PCOD9359327
Probable space group: A M M 2
;
_chemical_formula_sum "Si O2"
_cell_formula_units_Z 48
_cell_length_a 8.688101
_cell_length_b 31.342492
_cell_length_c 9.303700
_cell_angle_alpha 90.000000
_cell_angle_beta 90.000000
_cell_angle_gamma 90.000000
_cell_volume 2533.460181
_symmetry_space_group_name_H-M "A M M 2"
_symmetry_group_IT_number 38
_symmetry_cell_setting 'orthorhombic'
loop_
_space_group_symop_operation_xyz
x,y,z
-x,-y,z
-x,y,z
x,-y,z
x,1/2+y,1/2+z
-x,1/2-y,1/2+z
-x,1/2+y,1/2+z
x,1/2-y,1/2+z
loop_
_atom_site_type_symbol
_atom_site_label
_atom_site_fract_x
_atom_site_fract_y
_atom_site_fract_z
Si Si1 0.184962 0.049383 0.454430
Si Si2 0.316035 0.129015 0.292982
Si Si3 0.685377 0.211963 0.785271
Si Si4 0.314760 0.372346 0.461017
Si Si5 0.183522 0.708729 0.964204
Si Si6 0.185400 0.451639 0.289344
O O1 0.270025 0.083053 0.355106
O O2 0.226356 0.056560 0.622177
O O3 0.000000 0.054861 0.441660
O O4 0.220012 0.000000 0.420084
O O5 0.500000 0.134954 0.301034
O O6 0.235288 0.165067 0.388100
O O7 0.267039 0.132603 0.126702
O O8 0.500000 0.214641 0.785565
O O9 0.732621 0.168612 0.867366
O O10 0.752945 0.252216 0.869787
O O11 0.745347 0.211157 0.622986
O O12 0.500000 0.374073 0.458758
O O13 0.251974 0.415439 0.390775
O O14 0.000000 0.710756 0.973107
O O15 0.235406 0.500000 0.325819
O O16 0.000000 0.450758 0.297146
#
# Coordination Sequence:
#
# PCOD9359327 Si02
#       6
#     8   8   8   8   8   8
#     4   9  19  37  59  84 115 151 194 245 298 352
#     4  11  23  39  58  84 119 157 197 241 292 351
#     4  11  23  42  65  88 118 157 197 239 294 355
#     4  10  23  39  57  83 115 152 193 237 285 342
#     4  12  25  41  63  92 121 152 195 245 295 348
#     4   9  19  36  58  83 112 148 190 237 290 346
#
# _framework density 18.946418000000001
#
# number of rings (size 3 to 8) (size 9 to 14) (size 15 to 20)
#    0.000    1.667    0.000    5.500    0.000    8.667 
#    0.000    5.000    0.000    0.000    0.000    0.000 
#    0.000    0.000    0.000    0.000    0.000    0.000 
#
# Total GULP energy -134178.849332 kJ/mol
# GULP energy per Si atom -5590.785389 kJ/mol
# Density = 1.890330 g / cm^3
# Si number density = 18.946418 Si / 1000 Ang^3
#
#
#
# Elastic Constant Matrix: (Units=GPa)
#
#
# Indices 1 2 3 4 5 6 
#
# 1 51.7736 32.1637 35.1655 0.0000 0.0000 0.0000
# 2 32.1637 107.1778 73.7597 0.0000 0.0000 0.0000
# 3 35.1655 73.7597 136.0641 0.0000 0.0000 0.0000
# 4 0.0000 0.0000 0.0000 41.8555 0.0000 0.0000
# 5 0.0000 0.0000 0.0000 0.0000 28.0590 0.0000
# 6 0.0000 0.0000 0.0000 0.0000 0.0000 39.1679
#
#
#
# Elastic Compliance Matrix: (Units=1/GPa)
#
#
# Indices 1 2 3 4 5 6 
#
# 1 0.024918 -0.004858 -0.003806 0.000000 0.000000 0.000000
# 2 -0.004858 0.015830 -0.007326 0.000000 0.000000 0.000000
# 3 -0.003806 -0.007326 0.012304 0.000000 0.000000 0.000000
# 4 0.000000 0.000000 0.000000 0.023892 0.000000 0.000000
# 5 0.000000 0.000000 0.000000 0.000000 0.035639 0.000000
# 6 0.000000 0.000000 0.000000 0.000000 0.000000 0.025531
#
#
# Mechanical properties :
#
#
# Convention : Reuss Voigt Hill
#
# Bulk Modulus (GPa) = 47.45673 64.13258 55.79466
# Shear Modulus (GPa) = 28.22957 32.07827 30.15392
#
# Velocity S-wave (km/s) = 3.86420 4.11920 3.99373
# Velocity P-wave (km/s) = 6.70907 7.51975 7.12595
#
# Compressibility (1/GPa) = 0.02107183
#
# Stress axis : x y z
#
# Youngs Moduli (GPa) = 40.13093 63.17222 81.27167
#
# Poissons Ratio (x) = 0.30691 0.30935
# Poissons Ratio (y) = 0.19497 0.59536
# Poissons Ratio (z) = 0.15276 0.46277
#
# Static dielectric constant tensor:
#      x y z
#    x 1.640780 0.000000 0.000000 
#    y 0.000000 1.633460 0.000000 
#    z 0.000000 0.000000 1.631600 
# 
# From -- ./inp_files/3749.got.cif
#   From: 2010.05.17/outbox.cif.g08.bks.cpg/sg38_2_cif.got.tgz:3749.got - 2010.06.03 18:07:57.
