data_PCOD9359527
_publ_section_title
;
Structure prediction by ZEFSAII (Michael W. Deem and Ramdas Pophale) SiO2 
 PCOD9359527
Probable space group: A M M 2
;
_chemical_formula_sum "Si O2"
_cell_formula_units_Z 48
_cell_length_a 7.658213
_cell_length_b 9.840384
_cell_length_c 32.250526
_cell_angle_alpha 90.000000
_cell_angle_beta 90.000000
_cell_angle_gamma 90.000000
_cell_volume 2430.391792
_symmetry_space_group_name_H-M "A M M 2"
_symmetry_group_IT_number 38
_symmetry_cell_setting 'orthorhombic'
loop_
_space_group_symop_operation_xyz
x,y,z
-x,-y,z
-x,y,z
x,-y,z
x,1/2+y,1/2+z
-x,1/2-y,1/2+z
-x,1/2+y,1/2+z
x,1/2-y,1/2+z
loop_
_atom_site_type_symbol
_atom_site_label
_atom_site_fract_x
_atom_site_fract_y
_atom_site_fract_z
Si Si1 0.790648 0.345922 0.589290
Si Si2 0.712924 0.156564 0.758790
Si Si3 0.714315 0.343821 0.834759
Si Si4 0.295173 0.153891 0.908519
Si Si5 0.797074 0.664774 0.500083
Si Si6 0.709968 0.346368 0.165648
O O1 0.724942 0.500000 0.595741
O O2 0.723894 0.290192 0.544769
O O3 0.756500 0.253716 0.628756
O O4 0.000000 0.354466 0.584319
O O5 0.500000 0.157218 0.759185
O O6 0.769978 0.260754 0.793967
O O7 0.769668 0.193022 0.712013
O O8 0.765198 0.000000 0.767288
O O9 0.500000 0.345891 0.834894
O O10 0.771543 0.500000 0.834848
O O11 0.775174 0.259317 0.874970
O O12 0.500000 0.141106 0.899084
O O13 0.281967 0.203553 0.955979
O O14 0.219905 0.000000 0.905866
O O15 0.785623 0.500000 0.502050
O O16 0.000000 0.703106 0.497611
O O17 0.500000 0.350831 0.167464
O O18 0.772660 0.500000 0.157412
#
# Coordination Sequence:
#
# PCOD9359527 Si02
#       6
#     8   8   8   8   8   8
#     4   9  18  32  49  69  93 122 156 192 231 276
#     4   8  14  26  43  62  87 118 149 181 217 260
#     4   9  16  25  39  62  91 118 143 175 218 265
#     4   9  16  26  43  66  88 112 145 182 218 257
#     4   8  15  29  47  65  86 114 149 186 220 259
#     4   9  18  31  47  70  97 122 152 192 234 273
#
# _framework density 19.749901999999999
#
# number of rings (size 3 to 8) (size 9 to 14) (size 15 to 20)
#    0.000    3.333    0.000    2.500    0.000    4.000 
#    0.000    4.167    0.000    4.500    0.000    2.333 
#    0.000    0.000    0.000    0.000    0.000    0.000 
#
# Total GULP energy -133695.633813 kJ/mol
# GULP energy per Si atom -5570.651409 kJ/mol
# Density = 1.970495 g / cm^3
# Si number density = 19.749902 Si / 1000 Ang^3
#
#
#
# Elastic Constant Matrix: (Units=GPa)
#
#
# Indices 1 2 3 4 5 6 
#
# 1 30.7370 5.6765 5.4078 0.0000 0.0000 0.0000
# 2 5.6765 114.7752 127.5484 0.0000 0.0000 0.0000
# 3 5.4078 127.5484 213.5191 0.0000 0.0000 0.0000
# 4 0.0000 0.0000 0.0000 32.8867 0.0000 0.0000
# 5 0.0000 0.0000 0.0000 0.0000 42.1842 0.0000
# 6 0.0000 0.0000 0.0000 0.0000 0.0000 1.7836
#
#
#
# Elastic Compliance Matrix: (Units=1/GPa)
#
#
# Indices 1 2 3 4 5 6 
#
# 1 0.032846 -0.002082 0.000412 0.000000 0.000000 0.000000
# 2 -0.002082 0.026051 -0.015509 0.000000 0.000000 0.000000
# 3 0.000412 -0.015509 0.013937 0.000000 0.000000 0.000000
# 4 0.000000 0.000000 0.000000 0.030407 0.000000 0.000000
# 5 0.000000 0.000000 0.000000 0.000000 0.023706 0.000000
# 6 0.000000 0.000000 0.000000 0.000000 0.000000 0.560671
#
#
# Mechanical properties :
#
#
# Convention : Reuss Voigt Hill
#
# Bulk Modulus (GPa) = 25.99048 70.69965 48.34507
# Shear Modulus (GPa) = 6.80455 30.06414 18.43435
#
# Velocity S-wave (km/s) = 1.85818 3.90583 3.05846
# Velocity P-wave (km/s) = 4.21808 7.49772 6.08309
#
# Compressibility (1/GPa) = 0.03847563
#
# Stress axis : x y z
#
# Youngs Moduli (GPa) = 30.44495 38.38694 71.74930
#
# Poissons Ratio (x) = 0.07994 -0.02957
# Poissons Ratio (y) = 0.06340 1.11275
# Poissons Ratio (z) = -0.01255 0.59534
#
# Static dielectric constant tensor:
#      x y z
#    x 1.740650 0.000000 0.000000 
#    y 0.000000 1.672030 0.000000 
#    z 0.000000 0.000000 1.711400 
# 
# From -- ./inp_files/22433.got.cif
#   From: 2010.05.17/outbox.cif.g08.bks.cpg/sg38_12_cif.got.tgz:22433.got - 2010.06.03 18:07:57.
