data_PCOD9359190
_publ_section_title
;
Structure prediction by ZEFSAII (Michael W. Deem and Ramdas Pophale) SiO2 
 PCOD9359190
Probable space group: A M M 2
;
_chemical_formula_sum "Si O2"
_cell_formula_units_Z 34
_cell_length_a 9.607179
_cell_length_b 12.985678
_cell_length_c 12.258557
_cell_angle_alpha 90.000000
_cell_angle_beta 90.000000
_cell_angle_gamma 90.000000
_cell_volume 1529.325264
_symmetry_space_group_name_H-M "A M M 2"
_symmetry_group_IT_number 38
_symmetry_cell_setting 'orthorhombic'
loop_
_space_group_symop_operation_xyz
x,y,z
-x,-y,z
-x,y,z
x,-y,z
x,1/2+y,1/2+z
-x,1/2-y,1/2+z
-x,1/2+y,1/2+z
x,1/2-y,1/2+z
loop_
_atom_site_type_symbol
_atom_site_label
_atom_site_fract_x
_atom_site_fract_y
_atom_site_fract_z
Si Si1 0.153980 0.334009 0.387330
Si Si2 0.233602 0.609054 0.954774
Si Si3 0.162225 0.384712 0.637462
Si Si4 0.500000 0.000000 0.379574
Si Si5 0.333673 0.815403 0.688456
O O1 0.161478 0.211267 0.411881
O O2 0.173447 0.383633 0.505898
O O3 0.269661 0.361140 0.298996
O O4 0.000000 0.360154 0.345817
O O5 0.155911 0.500000 0.946725
O O6 0.377470 0.588229 0.891459
O O7 0.277575 0.627307 0.080665
O O8 0.192034 0.500000 0.677620
O O9 0.267389 0.298736 0.678739
O O10 0.000000 0.359298 0.662753
O O11 0.500000 0.815186 0.687958
#
# Coordination Sequence:
#
# PCOD9359190 Si02
#       5
#     8   8   8   2   8
#     4  10  22  36  55  82 110 142 180 219 266 320
#     4   9  19  37  58  76 111 140 178 219 270 313
#     4   9  20  40  58  75 107 145 181 223 266 313
#     4   8  16  36  58  80 106 138 174 228 264 320
#     4  11  21  34  57  84 110 140 177 221 269 319
#
# _framework density 22.232025
#
# number of rings (size 3 to 8) (size 9 to 14) (size 15 to 20)
#    0.706    1.647    1.176    0.706    1.647    4.706 
#    0.000    0.000    0.000    0.000    0.000    0.000 
#    0.000    0.000    0.000    0.000    0.000    0.000 
#
# Total GULP energy -94691.157453 kJ/mol
# GULP energy per Si atom -5570.068085 kJ/mol
# Density = 2.218142 g / cm^3
# Si number density = 22.232025 Si / 1000 Ang^3
#
#
#
# Elastic Constant Matrix: (Units=GPa)
#
#
# Indices 1 2 3 4 5 6 
#
# 1 92.9874 4.6745 36.9801 0.0000 0.0000 0.0000
# 2 4.6745 84.5732 6.5965 0.0000 0.0000 0.0000
# 3 36.9801 6.5965 104.0267 0.0000 0.0000 0.0000
# 4 0.0000 0.0000 0.0000 -6.3037 0.0000 0.0000
# 5 0.0000 0.0000 0.0000 0.0000 6.6452 0.0000
# 6 0.0000 0.0000 0.0000 0.0000 0.0000-2156.5289
#
#
#
# Elastic Compliance Matrix: (Units=1/GPa)
#
#
# Indices 1 2 3 4 5 6 
#
# 1 0.012535 -0.000347 -0.004434 0.000000 0.000000 0.000000
# 2 -0.000347 0.011892 -0.000631 0.000000 0.000000 0.000000
# 3 -0.004434 -0.000631 0.011229 0.000000 0.000000 0.000000
# 4 0.000000 0.000000 0.000000 -0.158636 0.000000 0.000000
# 5 0.000000 0.000000 0.000000 0.000000 0.150484 0.000000
# 6 0.000000 0.000000 0.000000 0.000000 0.000000 -0.000464
#
#
# Mechanical properties :
#
#
# Convention : Reuss Voigt Hill
#
# Bulk Modulus (GPa) = 40.26896 42.00994 41.13945
# Shear Modulus (GPa) = 108.36146 -415.68174 -153.66014
#
# Velocity S-wave (km/s) = 6.98906 -13.68869 -8.32266
# Velocity P-wave (km/s) = 9.12588 15.19550 8.59132
#
# Compressibility (1/GPa) = 0.02483302
#
# Stress axis : x y z
#
# Youngs Moduli (GPa) = 79.77696 84.08696 89.05399
#
# Poissons Ratio (x) = 0.02918 0.39487
# Poissons Ratio (y) = 0.02768 0.05617
# Poissons Ratio (z) = 0.35373 0.05304
#
# Static dielectric constant tensor:
#      x y z
#    x 1.742740 0.000000 0.000000 
#    y 0.000000 1.848630 0.000000 
#    z 0.000000 0.000000 1.868010 
# 
# From -- ./inp_files/9013.got.cif
#   From: 2010.05.17/outbox.cif.g08.bks.cpg/sg38_5_cif.got.tgz:9013.got - 2010.06.03 18:07:57.
