data_PCOD9359558
_publ_section_title
;
Structure prediction by ZEFSAII (Michael W. Deem and Ramdas Pophale) SiO2 
 PCOD9359558
Probable space group: A M M 2
;
_chemical_formula_sum "Si O2"
_cell_formula_units_Z 24
_cell_length_a 15.000000
_cell_length_b 9.000000
_cell_length_c 18.000000
_cell_angle_alpha 90.000000
_cell_angle_beta 90.000000
_cell_angle_gamma 90.000000
_cell_volume 2430.000000
_symmetry_space_group_name_H-M "A M M 2"
_symmetry_group_IT_number 38
_symmetry_cell_setting 'orthorhombic'
loop_
_space_group_symop_operation_xyz
x,y,z
-x,-y,z
-x,y,z
x,-y,z
x,1/2+y,1/2+z
-x,1/2-y,1/2+z
-x,1/2+y,1/2+z
x,1/2-y,1/2+z
loop_
_atom_site_type_symbol
_atom_site_label
_atom_site_fract_x
_atom_site_fract_y
_atom_site_fract_z
Si Si1 0.855183 0.171576 0.934510
Si Si2 0.500000 0.324412 0.328563
Si Si3 0.000000 0.167399 0.174058
Si Si4 0.671294 0.167263 0.081609
Si Si5 0.000000 0.161902 0.810153
Si Si6 0.855168 0.326362 0.082597
Si Si7 0.664049 0.672352 0.411433
Si Si8 0.500000 0.828702 0.181514
O O1 0.917011 0.165354 0.864545
O O2 0.761311 0.240037 0.910289
O O3 0.841540 0.000000 0.960490
O O4 0.889230 0.262472 0.004160
O O5 0.500000 0.500000 0.347745
O O6 0.411436 0.255895 0.362850
O O7 0.500000 0.295511 0.243073
O O8 0.912937 0.248737 0.144754
O O9 0.000000 0.193703 0.260863
O O10 0.000000 0.000000 0.148753
O O11 0.752389 0.279310 0.089797
O O12 0.588437 0.190812 0.133904
O O13 0.706535 0.000000 0.094428
O O14 0.636594 0.172100 0.997197
O O15 0.000000 0.000000 0.769936
O O16 0.865944 0.500000 0.085703
O O17 0.675474 0.500000 0.386954
O O18 0.500000 0.000000 0.210035
#
# Coordination Sequence:
#
# PCOD9359558 Si02
#       8
#     8   4   4   8   4   8   8   4
#     4   9  18  35  58  81 108 143 181 221 272 331
#     4  10  19  31  49  75 107 142 178 218 268 324
#     4  12  25  40  57  79 113 153 187 224 277 334
#     4   9  18  36  59  80 105 142 188 230 272 323
#     4  10  21  36  55  81 111 143 181 224 269 324
#     4  11  22  37  59  86 113 142 185 235 277 324
#     4   8  15  30  53  76  97 132 181 221 254 308
#     4  10  21  35  53  79 111 146 182 224 274 330
#
# _framework density 9.8765429999999999
#
# number of rings (size 3 to 8) (size 9 to 14) (size 15 to 20)
#    0.000    2.333    0.000    4.250    0.000    5.333 
#    0.000    5.000    0.000    1.000    0.000    0.000 
#    0.000    0.000    0.000    0.000    0.000    0.000 
#
# Total GULP energy -133611.004956 kJ/mol
# GULP energy per Si atom -5567.125207 kJ/mol
# Density = 0.985406 g / cm^3
# Si number density = 9.876543 Si / 1000 Ang^3
#
#
#
# Elastic Constant Matrix: (Units=GPa)
#
#
# Indices 1 2 3 4 5 6 
#
# 1 53.3213 28.1511 46.5200 0.0000 0.0000 0.0000
# 2 28.1511 73.4871 19.0977 0.0000 0.0000 0.0000
# 3 46.5200 19.0977 33.6664 0.0000 0.0000 0.0000
# 4 0.0000 0.0000 0.0000 23.2416 0.0000 0.0000
# 5 0.0000 0.0000 0.0000 0.0000 37.1445 0.0000
# 6 0.0000 0.0000 0.0000 0.0000 0.0000 8.2202
#
#
#
# Elastic Compliance Matrix: (Units=1/GPa)
#
#
# Indices 1 2 3 4 5 6 
#
# 1 -0.090833 0.002554 0.124063 0.000000 0.000000 0.000000
# 2 0.002554 0.015889 -0.012543 0.000000 0.000000 0.000000
# 3 0.124063 -0.012543 -0.134611 0.000000 0.000000 0.000000
# 4 0.000000 0.000000 0.000000 0.043026 0.000000 0.000000
# 5 0.000000 0.000000 0.000000 0.000000 0.026922 0.000000
# 6 0.000000 0.000000 0.000000 0.000000 0.000000 0.121652
#
#
# Mechanical properties :
#
#
# Convention : Reuss Voigt Hill
#
# Bulk Modulus (GPa) = 53.78027 38.66805 46.22416
# Shear Modulus (GPa) = -20.84153 18.16832 -1.33661
#
# Velocity S-wave (km/s) = -3.25176 3.03606 -0.82348
# Velocity P-wave (km/s) = 3.63136 5.64876 4.74843
#
# Compressibility (1/GPa) = 0.01859418
#
# Stress axis : x y z
#
# Youngs Moduli (GPa) = -11.00924 62.93691 -7.42881
#
# Poissons Ratio (x) = -0.16077 0.92164
# Poissons Ratio (y) = 0.02812 -0.09318
# Poissons Ratio (z) = 1.36584 0.78941
#
# Static dielectric constant tensor:
#      x y z
#    x 1.721590 0.000000 0.000000 
#    y 0.000000 1.691340 0.000000 
#    z 0.000000 0.000000 1.686580 
# 
# From -- ./inp_files/18254.got.cif
#   From: 2010.05.17/outbox.ucp.g08.bks.cvg/sg38_10_cif.got.tgz:18254.got - 2010.06.11 10:39:43.
