data_PCOD9359721
_publ_section_title
;
Structure prediction by ZEFSAII (Michael W. Deem and Ramdas Pophale) SiO2 
 PCOD9359721
Probable space group: A B M 2
;
_chemical_formula_sum "Si O2"
_cell_formula_units_Z 64
_cell_length_a 20.062180
_cell_length_b 8.620968
_cell_length_c 20.959388
_cell_angle_alpha 90.000000
_cell_angle_beta 90.000000
_cell_angle_gamma 90.000000
_cell_volume 3625.039582
_symmetry_space_group_name_H-M "A B M 2"
_symmetry_group_IT_number 39
_symmetry_cell_setting 'orthorhombic'
loop_
_space_group_symop_operation_xyz
x,y,z
-x,-y,z
-x,1/2+y,z
x,1/2-y,z
x,1/2+y,1/2+z
-x,1/2-y,1/2+z
-x,y,1/2+z
x,-y,1/2+z
loop_
_atom_site_type_symbol
_atom_site_label
_atom_site_fract_x
_atom_site_fract_y
_atom_site_fract_z
Si Si1 0.575202 0.564349 0.487500
Si Si2 0.650944 0.437286 0.364656
Si Si3 0.931431 0.435286 0.808316
Si Si4 0.792111 0.565170 0.162692
Si Si5 0.791722 0.436581 0.307448
Si Si6 0.931516 0.935253 0.663080
Si Si7 0.574007 0.563256 0.737100
Si Si8 0.342155 0.937668 0.113000
O O1 0.500000 0.500000 0.486468
O O2 0.571034 0.750000 0.486982
O O3 0.617315 0.508141 0.426788
O O4 0.615288 0.516780 0.551185
O O5 0.647748 0.250000 0.369157
O O6 0.727636 0.478881 0.349801
O O7 0.609056 0.486810 0.302450
O O8 0.933184 0.250000 0.806854
O O9 0.860866 0.495345 0.834406
O O10 0.930764 0.500634 0.735805
O O11 0.000000 0.500000 0.838015
O O12 0.796720 0.750000 0.167254
O O13 0.781992 0.497981 0.234759
O O14 0.861747 0.497183 0.136373
O O15 0.730264 0.512764 0.119725
O O16 0.796275 0.250000 0.303636
O O17 0.932776 0.750000 0.664241
O O18 0.000000 0.000000 0.633540
O O19 0.500000 0.500000 0.732798
O O20 0.572143 0.750000 0.737201
O O21 0.617073 0.515375 0.676112
O O22 0.335054 0.750000 0.113181
#
# Coordination Sequence:
#
# PCOD9359721 Si02
#       8
#     8   8   8   8   8   8   8   8
#     4  11  24  40  60  80 107 141 178 225 270 324
#     4  10  21  37  57  78 106 142 177 220 269 323
#     4  10  17  26  41  67 102 140 179 218 261 314
#     4  11  20  30  49  78 107 138 177 223 268 317
#     4  10  18  32  51  73 105 143 177 219 269 317
#     4  10  17  27  43  66 102 143 179 217 261 314
#     4  10  20  35  54  77 102 133 171 213 264 319
#     4  10  21  39  56  75 105 142 179 217 270 322
#
# _framework density 17.654979999999998
#
# number of rings (size 3 to 8) (size 9 to 14) (size 15 to 20)
#    0.000    1.750    1.250    7.125    0.000    4.000 
#    0.000    0.000    0.000    0.000    0.000    0.875 
#    0.000    2.000    0.000    0.000    0.000    0.000 
#
# Total GULP energy -178594.246697 kJ/mol
# GULP energy per Si atom -5581.070209 kJ/mol
# Density = 1.761480 g / cm^3
# Si number density = 17.654980 Si / 1000 Ang^3
#
#
#
# Elastic Constant Matrix: (Units=GPa)
#
#
# Indices 1 2 3 4 5 6 
#
# 1 199.9813 64.2489 57.8815 0.0000 0.0000 0.0000
# 2 64.2489 93.7856 30.3261 0.0000 0.0000 0.0000
# 3 57.8815 30.3261 85.7642 0.0000 0.0000 0.0000
# 4 0.0000 0.0000 0.0000 16.1740 0.0000 0.0000
# 5 0.0000 0.0000 0.0000 0.0000 16.5763 0.0000
# 6 0.0000 0.0000 0.0000 0.0000 0.0000 36.2939
#
#
#
# Elastic Compliance Matrix: (Units=1/GPa)
#
#
# Indices 1 2 3 4 5 6 
#
# 1 0.007255 -0.003824 -0.003544 0.000000 0.000000 0.000000
# 2 -0.003824 0.014055 -0.002389 0.000000 0.000000 0.000000
# 3 -0.003544 -0.002389 0.014896 0.000000 0.000000 0.000000
# 4 0.000000 0.000000 0.000000 0.061828 0.000000 0.000000
# 5 0.000000 0.000000 0.000000 0.000000 0.060327 0.000000
# 6 0.000000 0.000000 0.000000 0.000000 0.000000 0.027553
#
#
# Mechanical properties :
#
#
# Convention : Reuss Voigt Hill
#
# Bulk Modulus (GPa) = 59.90888 76.04934 67.97911
# Shear Modulus (GPa) = 23.69761 28.94715 26.32238
#
# Velocity S-wave (km/s) = 3.66766 4.05359 3.86545
# Velocity P-wave (km/s) = 7.20711 8.06707 7.64919
#
# Compressibility (1/GPa) = 0.01669202
#
# Stress axis : x y z
#
# Youngs Moduli (GPa) = 137.84021 71.15023 67.13015
#
# Poissons Ratio (x) = 0.27208 0.23791
# Poissons Ratio (y) = 0.52710 0.16037
# Poissons Ratio (z) = 0.48851 0.16998
#
# Static dielectric constant tensor:
#      x y z
#    x 1.642660 0.000000 0.000000 
#    y 0.000000 1.594610 0.000000 
#    z 0.000000 0.000000 1.587360 
# 
# From -- ./inp_files/13204.got.cif
#   From: 2010.05.17/outbox.cif.g08.bks.cpg/sg39_7_cif.got.tgz:13204.got - 2010.06.03 18:22:40.
