data_PCOD9359065
_publ_section_title
;
Structure prediction by ZEFSAII (Michael W. Deem and Ramdas Pophale) SiO2 
 PCOD9359065
Probable space group: A M M 2
;
_chemical_formula_sum "Si O2"
_cell_formula_units_Z 64
_cell_length_a 18.035616
_cell_length_b 30.067483
_cell_length_c 4.938690
_cell_angle_alpha 90.000000
_cell_angle_beta 90.000000
_cell_angle_gamma 90.000000
_cell_volume 2678.180359
_symmetry_space_group_name_H-M "A M M 2"
_symmetry_group_IT_number 38
_symmetry_cell_setting 'orthorhombic'
loop_
_space_group_symop_operation_xyz
x,y,z
-x,-y,z
-x,y,z
x,-y,z
x,1/2+y,1/2+z
-x,1/2-y,1/2+z
-x,1/2+y,1/2+z
x,1/2-y,1/2+z
loop_
_atom_site_type_symbol
_atom_site_label
_atom_site_fract_x
_atom_site_fract_y
_atom_site_fract_z
Si Si1 0.579701 0.451518 0.566750
Si Si2 0.677996 0.781589 0.770399
Si Si3 0.916660 0.778679 0.154770
Si Si4 0.194202 0.836855 0.486841
Si Si5 0.916353 0.897563 0.839709
Si Si6 0.288547 0.916101 0.360535
Si Si7 0.868574 0.549695 0.867531
Si Si8 0.582089 0.631647 0.190154
O O1 0.500000 0.453721 0.728347
O O2 0.578576 0.500000 0.415617
O O3 0.663603 0.448239 0.673175
O O4 0.574206 0.402653 0.437069
O O5 0.673382 0.739536 0.567263
O O6 0.752784 0.806096 0.669902
O O7 0.615233 0.819694 0.745904
O O8 0.909821 0.765441 0.842654
O O9 0.855811 0.810513 0.275840
O O10 0.000000 0.795373 0.206717
O O11 0.140988 0.864295 0.691025
O O12 0.246457 0.869353 0.304914
O O13 0.915684 0.938484 0.629996
O O14 0.000000 0.879500 0.860299
O O15 0.889187 0.916033 0.127838
O O16 0.217590 0.944022 0.456526
O O17 0.355928 0.896316 0.533248
O O18 0.880856 0.500000 0.770559
O O19 0.500000 0.636343 0.066734
#
# Coordination Sequence:
#
# PCOD9359065 Si02
#       8
#     8   8   8   8   8   8   8   8
#     4  10  22  41  69 103 140 184 235 291 356 425
#     4  11  26  44  70 103 141 189 239 294 357 422
#     4  10  21  38  61  91 126 168 218 277 341 408
#     4  10  23  41  65  94 135 173 232 285 357 420
#     4  11  25  44  67  97 133 181 235 292 361 428
#     4  10  23  40  64  96 135 178 229 291 352 422
#     4  11  25  42  66  98 134 182 235 293 356 427
#     4  10  24  44  70 101 144 190 240 298 358 430
#
# _framework density 23.896820000000002
#
# number of rings (size 3 to 8) (size 9 to 14) (size 15 to 20)
#    0.000    1.625    0.000    2.625    8.750    6.000 
#    0.000    5.000    0.000    0.000    0.000    0.000 
#    0.000    0.000    0.000    0.000    0.000    0.000 
#
# Total GULP energy -178368.623238 kJ/mol
# GULP energy per Si atom -5574.019476 kJ/mol
# Density = 2.384243 g / cm^3
# Si number density = 23.896820 Si / 1000 Ang^3
#
#
#
# Elastic Constant Matrix: (Units=GPa)
#
#
# Indices 1 2 3 4 5 6 
#
# 1 167.5599 44.9192 31.1951 0.0000 0.0000 0.0000
# 2 44.9192 114.0775 10.6383 0.0000 0.0000 0.0000
# 3 31.1951 10.6383 46.8186 0.0000 0.0000 0.0000
# 4 0.0000 0.0000 0.0000 23.0379 0.0000 0.0000
# 5 0.0000 0.0000 0.0000 0.0000 28.1318 0.0000
# 6 0.0000 0.0000 0.0000 0.0000 0.0000 32.1532
#
#
#
# Elastic Compliance Matrix: (Units=1/GPa)
#
#
# Indices 1 2 3 4 5 6 
#
# 1 0.007465 -0.002529 -0.004399 0.000000 0.000000 0.000000
# 2 -0.002529 0.009813 -0.000544 0.000000 0.000000 0.000000
# 3 -0.004399 -0.000544 0.024414 0.000000 0.000000 0.000000
# 4 0.000000 0.000000 0.000000 0.043407 0.000000 0.000000
# 5 0.000000 0.000000 0.000000 0.000000 0.035547 0.000000
# 6 0.000000 0.000000 0.000000 0.000000 0.000000 0.031101
#
#
# Mechanical properties :
#
#
# Convention : Reuss Voigt Hill
#
# Bulk Modulus (GPa) = 37.38904 55.77347 46.58125
# Shear Modulus (GPa) = 28.47259 32.77815 30.62537
#
# Velocity S-wave (km/s) = 3.45553 3.70760 3.58378
# Velocity P-wave (km/s) = 5.62147 6.45898 6.05472
#
# Compressibility (1/GPa) = 0.02674581
#
# Stress axis : x y z
#
# Youngs Moduli (GPa) = 133.95750 101.90937 40.96021
#
# Poissons Ratio (x) = 0.25775 0.18019
# Poissons Ratio (y) = 0.33880 0.02230
# Poissons Ratio (z) = 0.58931 0.05549
#
# Static dielectric constant tensor:
#      x y z
#    x 1.942130 0.000000 0.000000 
#    y 0.000000 1.965280 0.000000 
#    z 0.000000 0.000000 1.988420 
# 
# From -- ./inp_files/1743.got.cif
#   From: 2010.05.17/outbox.cif.g08.bks.cpg/sg38_1_cif.got.tgz:1743.got - 2010.06.03 18:07:57.
