data_PCOD9359139
_publ_section_title
;
Structure prediction by ZEFSAII (Michael W. Deem and Ramdas Pophale) SiO2 
 PCOD9359139
Probable space group: A M M 2
;
_chemical_formula_sum "Si O2"
_cell_formula_units_Z 40
_cell_length_a 11.886451
_cell_length_b 17.605015
_cell_length_c 10.047563
_cell_angle_alpha 90.000000
_cell_angle_beta 90.000000
_cell_angle_gamma 90.000000
_cell_volume 2102.564570
_symmetry_space_group_name_H-M "A M M 2"
_symmetry_group_IT_number 38
_symmetry_cell_setting 'orthorhombic'
loop_
_space_group_symop_operation_xyz
x,y,z
-x,-y,z
-x,y,z
x,-y,z
x,1/2+y,1/2+z
-x,1/2-y,1/2+z
-x,1/2+y,1/2+z
x,1/2-y,1/2+z
loop_
_atom_site_type_symbol
_atom_site_label
_atom_site_fract_x
_atom_site_fract_y
_atom_site_fract_z
Si Si1 0.000000 0.203014 0.472430
Si Si2 0.632579 0.414607 0.255192
Si Si3 0.634076 0.804519 0.999194
Si Si4 0.757121 0.587251 0.702820
Si Si5 0.244555 0.358110 0.999422
Si Si6 0.000000 0.840512 0.171717
O O1 0.112186 0.158349 0.513182
O O2 0.000000 0.283387 0.547419
O O3 0.000000 0.206805 0.311193
O O4 0.500000 0.406425 0.222366
O O5 0.649046 0.500000 0.308428
O O6 0.660167 0.351872 0.365489
O O7 0.705090 0.402380 0.123855
O O8 0.500000 0.794955 0.009428
O O9 0.694433 0.723652 0.995398
O O10 0.680278 0.854695 0.120614
O O11 0.735474 0.500000 0.666913
O O12 0.737314 0.599985 0.859626
O O13 0.886800 0.609819 0.673565
#
# Coordination Sequence:
#
# PCOD9359139 Si02
#       6
#     4   8   8   8   8   4
#     4  10  22  36  62  90 118 150 194 250 292 340
#     4  10  22  40  60  85 121 158 193 241 297 348
#     4  11  23  39  60  88 119 156 202 246 290 347
#     4  11  23  39  62  90 122 156 194 246 300 354
#     4  11  22  39  62  89 117 155 201 241 293 353
#     4  10  21  40  60  90 119 154 194 242 295 354
#
# _framework density 19.024386
#
# number of rings (size 3 to 8) (size 9 to 14) (size 15 to 20)
#    0.000    1.400    2.000    3.300    2.800    4.400 
#    0.000    1.500    0.000    0.000    0.000    0.000 
#    0.000    0.000    0.000    0.000    0.000    0.000 
#
# Total GULP energy -111804.639958 kJ/mol
# GULP energy per Si atom -5590.231998 kJ/mol
# Density = 1.898109 g / cm^3
# Si number density = 19.024386 Si / 1000 Ang^3
#
#
#
# Elastic Constant Matrix: (Units=GPa)
#
#
# Indices 1 2 3 4 5 6 
#
# 1 64.9764 11.5430 28.3500 0.0000 0.0000 0.0000
# 2 11.5430 77.1709 3.8959 0.0000 0.0000 0.0000
# 3 28.3500 3.8959 48.6228 0.0000 0.0000 0.0000
# 4 0.0000 0.0000 0.0000 39.8716 0.0000 0.0000
# 5 0.0000 0.0000 0.0000 0.0000 27.5834 0.0000
# 6 0.0000 0.0000 0.0000 0.0000 0.0000 56.6694
#
#
#
# Elastic Compliance Matrix: (Units=1/GPa)
#
#
# Indices 1 2 3 4 5 6 
#
# 1 0.021129 -0.002549 -0.012115 0.000000 0.000000 0.000000
# 2 -0.002549 0.013318 0.000419 0.000000 0.000000 0.000000
# 3 -0.012115 0.000419 0.027597 0.000000 0.000000 0.000000
# 4 0.000000 0.000000 0.000000 0.025081 0.000000 0.000000
# 5 0.000000 0.000000 0.000000 0.000000 0.036254 0.000000
# 6 0.000000 0.000000 0.000000 0.000000 0.000000 0.017646
#
#
# Mechanical properties :
#
#
# Convention : Reuss Voigt Hill
#
# Bulk Modulus (GPa) = 29.80269 30.92755 30.36512
# Shear Modulus (GPa) = 27.67023 34.62361 31.14692
#
# Velocity S-wave (km/s) = 3.81788 4.27073 4.05064
# Velocity P-wave (km/s) = 5.92743 6.37267 6.15408
#
# Compressibility (1/GPa) = 0.03355402
#
# Stress axis : x y z
#
# Youngs Moduli (GPa) = 47.32825 75.08441 36.23598
#
# Poissons Ratio (x) = 0.19137 0.43901
# Poissons Ratio (y) = 0.12063 -0.01518
# Poissons Ratio (z) = 0.57340 -0.03146
#
# Static dielectric constant tensor:
#      x y z
#    x 1.638810 0.000000 0.000000 
#    y 0.000000 1.607910 0.000000 
#    z 0.000000 0.000000 1.645330 
# 
# From -- ./inp_files/4324.got.cif
#   From: 2010.05.17/outbox.cif.g08.bks.cpg/sg38_3_cif.got.tgz:4324.got - 2010.06.03 18:07:57.
