data_PCOD9359359
_publ_section_title
;
Structure prediction by ZEFSAII (Michael W. Deem and Ramdas Pophale) SiO2 
 PCOD9359359
Probable space group: A M M 2
;
_chemical_formula_sum "Si O2"
_cell_formula_units_Z 40
_cell_length_a 13.205032
_cell_length_b 10.166464
_cell_length_c 10.254124
_cell_angle_alpha 90.000000
_cell_angle_beta 90.000000
_cell_angle_gamma 90.000000
_cell_volume 1376.600586
_symmetry_space_group_name_H-M "A M M 2"
_symmetry_group_IT_number 38
_symmetry_cell_setting 'orthorhombic'
loop_
_space_group_symop_operation_xyz
x,y,z
-x,-y,z
-x,y,z
x,-y,z
x,1/2+y,1/2+z
-x,1/2-y,1/2+z
-x,1/2+y,1/2+z
x,1/2-y,1/2+z
loop_
_atom_site_type_symbol
_atom_site_label
_atom_site_fract_x
_atom_site_fract_y
_atom_site_fract_z
Si Si1 0.377374 0.000000 0.750000
Si Si2 0.121992 0.000000 0.213278
Si Si3 0.621548 0.167512 0.259127
Si Si4 0.624544 0.500000 0.552949
Si Si5 0.120774 0.000000 0.920707
Si Si6 0.880336 0.782737 0.710484
Si Si7 0.689954 0.829946 0.560260
O O1 0.353155 0.167651 0.722019
O O2 0.500000 0.000000 0.738606
O O3 0.340171 0.000000 0.900766
O O4 0.153028 0.140406 0.261948
O O5 0.162642 0.000000 0.064770
O O6 0.000000 0.000000 0.221621
O O7 0.500000 0.173398 0.265009
O O8 0.658058 0.167153 0.409889
O O9 0.639492 0.000000 0.226024
O O10 0.500000 0.500000 0.539888
O O11 0.650725 0.664989 0.588571
O O12 0.138776 0.878541 0.828393
O O13 0.000000 0.000000 0.946563
O O14 0.811456 0.818470 0.588090
O O15 0.000000 0.783900 0.677216
O O16 0.670213 0.000000 0.591003
#
# Coordination Sequence:
#
# PCOD9359359 Si02
#       7
#     4   4   8   4   4   8   8
#     4  11  22  42  69 102 142 194 256 314 387 472
#     4   9  20  42  73  99 140 199 250 314 394 456
#     4  11  23  42  64  97 139 179 234 307 380 461
#     4   9  21  42  70  97 134 182 234 308 386 457
#     4   9  19  40  71 100 140 187 241 318 394 453
#     4  10  23  44  70 107 149 202 263 326 390 474
#     4  12  25  40  68 103 136 193 248 306 386 467
#
# _framework density 29.057082999999999
#
# number of rings (size 3 to 8) (size 9 to 14) (size 15 to 20)
#    0.000    1.600    0.000    4.200    2.800    3.200 
#    3.600    1.000    0.000    6.000    0.000    2.800 
#    0.000    0.000    0.000    0.000    0.000    0.000 
#
# Total GULP energy -111953.309506 kJ/mol
# GULP energy per Si atom -5597.665475 kJ/mol
# Density = 2.899095 g / cm^3
# Si number density = 29.057083 Si / 1000 Ang^3
#
#
#
# Elastic Constant Matrix: (Units=GPa)
#
#
# Indices 1 2 3 4 5 6 
#
# 1 176.8287 39.9575 100.1769 0.0000 0.0000 0.0000
# 2 39.9575 334.7404 196.5878 0.0000 0.0000 0.0000
# 3 100.1769 196.5878 274.1367 0.0000 0.0000 0.0000
# 4 0.0000 0.0000 0.0000 91.1072 0.0000 0.0000
# 5 0.0000 0.0000 0.0000 0.0000 44.8087 0.0000
# 6 0.0000 0.0000 0.0000 0.0000 0.0000 54.2606
#
#
#
# Elastic Compliance Matrix: (Units=1/GPa)
#
#
# Indices 1 2 3 4 5 6 
#
# 1 0.007409 0.001219 -0.003582 0.000000 0.000000 0.000000
# 2 0.001219 0.005361 -0.004290 0.000000 0.000000 0.000000
# 3 -0.003582 -0.004290 0.008033 0.000000 0.000000 0.000000
# 4 0.000000 0.000000 0.000000 0.010976 0.000000 0.000000
# 5 0.000000 0.000000 0.000000 0.000000 0.022317 0.000000
# 6 0.000000 0.000000 0.000000 0.000000 0.000000 0.018430
#
#
# Mechanical properties :
#
#
# Convention : Reuss Voigt Hill
#
# Bulk Modulus (GPa) = 133.37107 162.12778 147.74943
# Shear Modulus (GPa) = 56.60527 67.96754 62.28641
#
# Velocity S-wave (km/s) = 4.41848 4.84168 4.63491
# Velocity P-wave (km/s) = 8.48705 9.33666 8.92197
#
# Compressibility (1/GPa) = 0.00749788
#
# Stress axis : x y z
#
# Youngs Moduli (GPa) = 134.97582 186.51576 124.48338
#
# Poissons Ratio (x) = -0.22736 0.44584
# Poissons Ratio (y) = -0.16453 0.53407
# Poissons Ratio (z) = 0.48342 0.80020
#
# Static dielectric constant tensor:
#      x y z
#    x 2.154500 0.000000 0.000000 
#    y 0.000000 2.599840 0.000000 
#    z 0.000000 0.000000 2.062050 
# 
# From -- ./inp_files/20513.got.cif
#   From: 2010.05.17/outbox.cif.g08.bks.cpg/sg38_11_cif.got.tgz:20513.got - 2010.06.03 18:07:57.
