data_PCOD9359007
_publ_section_title
;
Structure prediction by ZEFSAII (Michael W. Deem and Ramdas Pophale) SiO2 
 PCOD9359007
Probable space group: A M M 2
;
_chemical_formula_sum "Si O2"
_cell_formula_units_Z 64
_cell_length_a 19.991610
_cell_length_b 8.405599
_cell_length_c 21.091970
_cell_angle_alpha 90.000000
_cell_angle_beta 90.000000
_cell_angle_gamma 90.000000
_cell_volume 3544.325370
_symmetry_space_group_name_H-M "A M M 2"
_symmetry_group_IT_number 38
_symmetry_cell_setting 'orthorhombic'
loop_
_space_group_symop_operation_xyz
x,y,z
-x,-y,z
-x,y,z
x,-y,z
x,1/2+y,1/2+z
-x,1/2-y,1/2+z
-x,1/2+y,1/2+z
x,1/2-y,1/2+z
loop_
_atom_site_type_symbol
_atom_site_label
_atom_site_fract_x
_atom_site_fract_y
_atom_site_fract_z
Si Si1 0.284543 0.692724 0.927320
Si Si2 0.923529 0.308103 0.752999
Si Si3 0.788907 0.810538 0.553906
Si Si4 0.574400 0.693712 0.731305
Si Si5 0.788656 0.688055 0.301581
Si Si6 0.074994 0.808357 0.105497
Si Si7 0.712546 0.309842 0.677391
Si Si8 0.425433 0.193730 0.378971
O O1 0.285408 0.500000 0.928376
O O2 0.244078 0.745875 0.865402
O O3 0.361582 0.747200 0.919128
O O4 0.248277 0.750413 0.990944
O O5 0.916980 0.500000 0.755976
O O6 0.866844 0.230180 0.795503
O O7 0.913197 0.260675 0.679104
O O8 0.000000 0.267566 0.769878
O O9 0.864474 0.750393 0.562826
O O10 0.747655 0.761947 0.616169
O O11 0.791026 0.000000 0.550328
O O12 0.500000 0.745943 0.711823
O O13 0.574827 0.500000 0.730502
O O14 0.636512 0.747296 0.689133
O O15 0.584671 0.739439 0.805067
O O16 0.778974 0.500000 0.298330
O O17 0.753198 0.766985 0.240778
O O18 0.000000 0.754801 0.087528
O O19 0.075132 0.000000 0.105016
O O20 0.712666 0.500000 0.670597
O O21 0.500000 0.246740 0.398553
O O22 0.425986 0.000000 0.380134
#
# Coordination Sequence:
#
# PCOD9359007 Si02
#       8
#     8   8   8   8   8   8   8   8
#     4  10  21  38  56  77 110 149 186 225 273 326
#     4   9  18  34  57  83 109 140 179 222 271 325
#     4  11  23  36  53  82 115 145 183 227 269 322
#     4   8  14  26  50  82 105 130 180 233 269 315
#     4  12  23  34  54  84 113 139 178 226 270 321
#     4   9  18  34  57  81 105 140 184 224 267 324
#     4  11  20  34  57  79 108 146 181 220 272 327
#     4   8  13  26  52  80 101 131 183 233 267 314
#
# _framework density 18.057032
#
# number of rings (size 3 to 8) (size 9 to 14) (size 15 to 20)
#    0.000    2.250    2.500    3.375    0.000    1.500 
#    0.000    2.500    0.000    4.125    0.000    0.000 
#    0.000    0.000    0.000    0.000    0.000    0.000 
#
# Total GULP energy -178506.622101 kJ/mol
# GULP energy per Si atom -5578.331941 kJ/mol
# Density = 1.801593 g / cm^3
# Si number density = 18.057032 Si / 1000 Ang^3
#
#
#
# Elastic Constant Matrix: (Units=GPa)
#
#
# Indices 1 2 3 4 5 6 
#
# 1 176.2631 14.5201 74.6205 0.0000 0.0000 0.0000
# 2 14.5201 9.6081 4.3462 0.0000 0.0000 0.0000
# 3 74.6205 4.3462 99.4310 0.0000 0.0000 0.0000
# 4 0.0000 0.0000 0.0000 19.7186 0.0000 0.0000
# 5 0.0000 0.0000 0.0000 0.0000 27.8233 0.0000
# 6 0.0000 0.0000 0.0000 0.0000 0.0000 9.0106
#
#
#
# Elastic Compliance Matrix: (Units=1/GPa)
#
#
# Indices 1 2 3 4 5 6 
#
# 1 0.009363 -0.011192 -0.006537 0.000000 0.000000 0.000000
# 2 -0.011192 0.119557 0.003174 0.000000 0.000000 0.000000
# 3 -0.006537 0.003174 0.014825 0.000000 0.000000 0.000000
# 4 0.000000 0.000000 0.000000 0.050713 0.000000 0.000000
# 5 0.000000 0.000000 0.000000 0.000000 0.035941 0.000000
# 6 0.000000 0.000000 0.000000 0.000000 0.000000 0.110980
#
#
# Mechanical properties :
#
#
# Convention : Reuss Voigt Hill
#
# Bulk Modulus (GPa) = 8.72351 52.47508 30.59930
# Shear Modulus (GPa) = 12.23382 24.09820 18.16601
#
# Velocity S-wave (km/s) = 2.60573 3.65713 3.17525
# Velocity P-wave (km/s) = 3.72755 6.85249 5.51594
#
# Compressibility (1/GPa) = 0.11463281
#
# Stress axis : x y z
#
# Youngs Moduli (GPa) = 106.80404 8.36419 67.45509
#
# Poissons Ratio (x) = 0.09362 0.44098
# Poissons Ratio (y) = 1.19539 -0.21409
# Poissons Ratio (z) = 0.69822 -0.02655
#
# Static dielectric constant tensor:
#      x y z
#    x 1.654370 0.000000 0.000000 
#    y 0.000000 1.618320 0.000000 
#    z 0.000000 0.000000 1.586850 
# 
# From -- ./inp_files/18899.got.cif
#   From: 2010.05.17/outbox.cif.g08.bks.cpg/sg38_10_cif.got.tgz:18899.got - 2010.06.03 18:07:57.
