data_PCOD9359372
_publ_section_title
;
Structure prediction by ZEFSAII (Michael W. Deem and Ramdas Pophale) SiO2 
 PCOD9359372
Probable space group: A M M 2
;
_chemical_formula_sum "Si O2"
_cell_formula_units_Z 64
_cell_length_a 8.913371
_cell_length_b 19.227371
_cell_length_c 18.660286
_cell_angle_alpha 90.000000
_cell_angle_beta 90.000000
_cell_angle_gamma 90.000000
_cell_volume 3198.012710
_symmetry_space_group_name_H-M "A M M 2"
_symmetry_group_IT_number 38
_symmetry_cell_setting 'orthorhombic'
loop_
_space_group_symop_operation_xyz
x,y,z
-x,-y,z
-x,y,z
x,-y,z
x,1/2+y,1/2+z
-x,1/2-y,1/2+z
-x,1/2+y,1/2+z
x,1/2-y,1/2+z
loop_
_atom_site_type_symbol
_atom_site_label
_atom_site_fract_x
_atom_site_fract_y
_atom_site_fract_z
Si Si1 0.681504 0.081760 0.425440
Si Si2 0.826876 0.173481 0.827663
Si Si3 0.320836 0.080403 0.704099
Si Si4 0.180906 0.648356 0.067814
Si Si5 0.678690 0.810567 0.306269
Si Si6 0.329775 0.578062 0.594073
Si Si7 0.176494 0.210567 0.150336
Si Si8 0.336315 0.578983 0.422997
O O1 0.500000 0.084708 0.432259
O O2 0.752499 0.124923 0.491425
O O3 0.721532 0.120067 0.350334
O O4 0.725083 0.000000 0.427176
O O5 0.750035 0.133830 0.760914
O O6 0.743311 0.244198 0.847795
O O7 0.800293 0.122115 0.893404
O O8 0.000000 0.186080 0.812030
O O9 0.500000 0.090779 0.700153
O O10 0.245777 0.096141 0.627700
O O11 0.292739 0.000000 0.724116
O O12 0.225080 0.724924 0.099366
O O13 0.000000 0.645535 0.064843
O O14 0.500000 0.808635 0.302282
O O15 0.744141 0.796670 0.227292
O O16 0.500000 0.594091 0.620250
O O17 0.291489 0.500000 0.618977
O O18 0.215580 0.637406 0.614639
O O19 0.336921 0.576966 0.508253
O O20 0.000000 0.219384 0.161915
O O21 0.500000 0.607308 0.398694
O O22 0.327836 0.500000 0.396802
#
# Coordination Sequence:
#
# PCOD9359372 Si02
#       8
#     8   8   8   8   8   8   8   8
#     4  10  24  46  70  97 127 164 217 274 324 383
#     4  12  24  37  56  87 126 164 205 255 310 375
#     4  11  23  39  62  90 122 164 212 259 311 376
#     4  11  24  41  63  95 133 169 208 260 322 387
#     4  11  24  43  67  92 122 164 212 262 315 373
#     4   9  20  39  63  90 120 160 210 259 308 369
#     4  11  24  41  62  94 131 167 208 261 324 386
#     4   9  19  37  59  85 119 158 203 249 295 358
#
# _framework density 20.012426999999999
#
# number of rings (size 3 to 8) (size 9 to 14) (size 15 to 20)
#    0.000    1.500    1.250    4.125    1.750    8.250 
#    0.000    2.500    0.000    0.000    0.000    0.000 
#    0.000    0.000    0.000    0.000    0.000    0.000 
#
# Total GULP energy -178641.885613 kJ/mol
# GULP energy per Si atom -5582.558925 kJ/mol
# Density = 1.996688 g / cm^3
# Si number density = 20.012427 Si / 1000 Ang^3
#
#
#
# Elastic Constant Matrix: (Units=GPa)
#
#
# Indices 1 2 3 4 5 6 
#
# 1 61.5727 48.9316 33.3669 0.0000 0.0000 0.0000
# 2 48.9316 126.1693 56.1713 0.0000 0.0000 0.0000
# 3 33.3669 56.1713 58.4025 0.0000 0.0000 0.0000
# 4 0.0000 0.0000 0.0000 43.8975 0.0000 0.0000
# 5 0.0000 0.0000 0.0000 0.0000 462.0791 0.0000
# 6 0.0000 0.0000 0.0000 0.0000 0.0000 19.3131
#
#
#
# Elastic Compliance Matrix: (Units=1/GPa)
#
#
# Indices 1 2 3 4 5 6 
#
# 1 0.025921 -0.006050 -0.008990 0.000000 0.000000 0.000000
# 2 -0.006050 0.015273 -0.011233 0.000000 0.000000 0.000000
# 3 -0.008990 -0.011233 0.033063 0.000000 0.000000 0.000000
# 4 0.000000 0.000000 0.000000 0.022780 0.000000 0.000000
# 5 0.000000 0.000000 0.000000 0.000000 0.002164 0.000000
# 6 0.000000 0.000000 0.000000 0.000000 0.000000 0.051778
#
#
# Mechanical properties :
#
#
# Convention : Reuss Voigt Hill
#
# Bulk Modulus (GPa) = 46.06181 58.12044 52.09113
# Shear Modulus (GPa) = 23.72319 112.23625 67.97972
#
# Velocity S-wave (km/s) = 3.44673 7.49700 5.83459
# Velocity P-wave (km/s) = 6.23751 10.20026 8.45434
#
# Compressibility (1/GPa) = 0.02170996
#
# Stress axis : x y z
#
# Youngs Moduli (GPa) = 38.57874 65.47331 30.24534
#
# Poissons Ratio (x) = 0.39613 0.27191
# Poissons Ratio (y) = 0.23341 0.33975
# Poissons Ratio (z) = 0.34683 0.73547
#
# Static dielectric constant tensor:
#      x y z
#    x 1.505750 0.000000 0.000000 
#    y 0.000000 1.699600 0.000000 
#    z 0.000000 0.000000 1.744990 
# 
# From -- ./inp_files/20084.got.cif
#   From: 2010.05.17/outbox.cif.g08.bks.cpg/sg38_11_cif.got.tgz:20084.got - 2010.06.03 18:07:57.
