data_PCOD9359530
_publ_section_title
;
Structure prediction by ZEFSAII (Michael W. Deem and Ramdas Pophale) SiO2 
 PCOD9359530
Probable space group: A M M 2
;
_chemical_formula_sum "Si O2"
_cell_formula_units_Z 48
_cell_length_a 7.761114
_cell_length_b 7.796911
_cell_length_c 36.817637
_cell_angle_alpha 90.000000
_cell_angle_beta 90.000000
_cell_angle_gamma 90.000000
_cell_volume 2227.935179
_symmetry_space_group_name_H-M "A M M 2"
_symmetry_group_IT_number 38
_symmetry_cell_setting 'orthorhombic'
loop_
_space_group_symop_operation_xyz
x,y,z
-x,-y,z
-x,y,z
x,-y,z
x,1/2+y,1/2+z
-x,1/2-y,1/2+z
-x,1/2+y,1/2+z
x,1/2-y,1/2+z
loop_
_atom_site_type_symbol
_atom_site_label
_atom_site_fract_x
_atom_site_fract_y
_atom_site_fract_z
Si Si1 0.200038 0.209231 0.177180
Si Si2 0.711542 0.698226 0.943398
Si Si3 0.712389 0.500000 0.306760
Si Si4 0.702303 0.693154 0.756993
Si Si5 0.205021 0.307321 0.600251
Si Si6 0.308037 0.296585 0.021496
Si Si7 0.289653 0.000000 0.890299
O O1 0.283579 0.256023 0.215318
O O2 0.271393 0.272219 0.138182
O O3 0.000000 0.258753 0.180439
O O4 0.209329 0.000000 0.174816
O O5 0.500000 0.698679 0.945086
O O6 0.763618 0.500000 0.937013
O O7 0.764281 0.830552 0.912399
O O8 0.772344 0.762257 0.983376
O O9 0.500000 0.500000 0.306019
O O10 0.772917 0.332099 0.284914
O O11 0.765895 0.500000 0.348598
O O12 0.500000 0.678370 0.765011
O O13 0.777445 0.500000 0.759150
O O14 0.275438 0.500000 0.597178
O O15 0.227984 0.226640 0.560931
O O16 0.000000 0.317276 0.606136
O O17 0.500000 0.222037 0.024089
O O18 0.320297 0.500000 0.015861
O O19 0.500000 0.000000 0.890284
#
# Coordination Sequence:
#
# PCOD9359530 Si02
#       7
#     8   8   4   8   8   8   4
#     4   8  15  30  49  67  90 121 159 198 233 277
#     4   8  15  27  42  64  94 124 157 196 232 279
#     4   9  18  30  43  69 101 123 155 199 237 289
#     4   9  17  30  48  68  94 127 156 190 240 288
#     4   9  18  31  47  69  95 123 159 202 242 285
#     4   9  18  31  45  66  96 126 160 200 240 283
#     4   9  16  26  44  67  93 127 157 187 241 291
#
# _framework density 21.544612999999998
#
# number of rings (size 3 to 8) (size 9 to 14) (size 15 to 20)
#    0.000    3.333    0.000    2.000    1.167    2.000 
#    1.500    5.417    0.000    0.000    0.000    2.333 
#    0.000    2.667    0.000    0.000    0.000    0.000 
#
# Total GULP energy -133652.407880 kJ/mol
# GULP energy per Si atom -5568.850328 kJ/mol
# Density = 2.149558 g / cm^3
# Si number density = 21.544613 Si / 1000 Ang^3
#
#
#
# Elastic Constant Matrix: (Units=GPa)
#
#
# Indices 1 2 3 4 5 6 
#
# 1 23.6821 4.9692 7.0813 0.0000 0.0000 0.0000
# 2 4.9692 87.8992 91.0944 0.0000 0.0000 0.0000
# 3 7.0813 91.0944 234.5791 0.0000 0.0000 0.0000
# 4 0.0000 0.0000 0.0000 49.4190 0.0000 0.0000
# 5 0.0000 0.0000 0.0000 0.0000 43.8373 0.0000
# 6 0.0000 0.0000 0.0000 0.0000 0.0000 6.0244
#
#
#
# Elastic Compliance Matrix: (Units=1/GPa)
#
#
# Indices 1 2 3 4 5 6 
#
# 1 0.042781 -0.001808 -0.000590 0.000000 0.000000 0.000000
# 2 -0.001808 0.019115 -0.007368 0.000000 0.000000 0.000000
# 3 -0.000590 -0.007368 0.007142 0.000000 0.000000 0.000000
# 4 0.000000 0.000000 0.000000 0.020235 0.000000 0.000000
# 5 0.000000 0.000000 0.000000 0.000000 0.022812 0.000000
# 6 0.000000 0.000000 0.000000 0.000000 0.000000 0.165993
#
#
# Mechanical properties :
#
#
# Convention : Reuss Voigt Hill
#
# Bulk Modulus (GPa) = 20.19889 61.38335 40.79112
# Shear Modulus (GPa) = 15.91789 36.05718 25.98754
#
# Velocity S-wave (km/s) = 2.72110 4.09541 3.47684
# Velocity P-wave (km/s) = 4.38956 7.13557 5.92387
#
# Compressibility (1/GPa) = 0.04950766
#
# Stress axis : x y z
#
# Youngs Moduli (GPa) = 23.37460 52.31449 140.01384
#
# Poissons Ratio (x) = 0.09456 0.08254
# Poissons Ratio (y) = 0.04225 1.03169
# Poissons Ratio (z) = 0.01378 0.38548
#
# Static dielectric constant tensor:
#      x y z
#    x 1.798000 0.000000 0.000000 
#    y 0.000000 1.793930 0.000000 
#    z 0.000000 0.000000 1.806440 
# 
# From -- ./inp_files/24396.got.cif
#   From: 2010.05.17/outbox.cif.g08.bks.cpg/sg38_13_cif.got.tgz:24396.got - 2010.06.03 18:07:57.
