data_PCOD9359819
_publ_section_title
;
Structure prediction by ZEFSAII (Michael W. Deem and Ramdas Pophale) SiO2 
 PCOD9359819
Probable space group: A B M 2
;
_chemical_formula_sum "Si O2"
_cell_formula_units_Z 64
_cell_length_a 16.869657
_cell_length_b 19.543114
_cell_length_c 9.417265
_cell_angle_alpha 90.000000
_cell_angle_beta 90.000000
_cell_angle_gamma 90.000000
_cell_volume 3104.736943
_symmetry_space_group_name_H-M "A B M 2"
_symmetry_group_IT_number 39
_symmetry_cell_setting 'orthorhombic'
loop_
_space_group_symop_operation_xyz
x,y,z
-x,-y,z
-x,1/2+y,z
x,1/2-y,z
x,1/2+y,1/2+z
-x,1/2-y,1/2+z
-x,y,1/2+z
x,-y,1/2+z
loop_
_atom_site_type_symbol
_atom_site_label
_atom_site_fract_x
_atom_site_fract_y
_atom_site_fract_z
Si Si1 0.612398 0.599351 0.546950
Si Si2 0.013460 0.667347 0.991600
Si Si3 0.182919 0.026780 0.930458
Si Si4 0.474161 0.077332 0.825485
Si Si5 0.079004 0.953445 0.166325
Si Si6 0.268697 0.609552 0.826880
Si Si7 0.894133 0.169092 0.714645
Si Si8 0.661735 0.941312 0.055107
O O1 0.562642 0.616402 0.689368
O O2 0.548229 0.600831 0.420357
O O3 0.688821 0.635049 0.472000
O O4 0.646371 0.522587 0.580226
O O5 0.024907 0.750000 0.004506
O O6 0.067182 0.619572 0.091242
O O7 0.926783 0.650500 0.058139
O O8 0.040592 0.646454 0.833293
O O9 0.121602 0.053619 0.816035
O O10 0.232074 0.965089 0.857667
O O11 0.252866 0.074106 0.986104
O O12 0.136565 0.995948 0.063243
O O13 0.500000 0.000000 0.777981
O O14 0.404597 0.075962 0.941665
O O15 0.000000 0.000000 0.178898
O O16 0.192339 0.648542 0.767356
O O17 0.333684 0.598461 0.703179
O O18 0.896092 0.250000 0.717243
#
# Coordination Sequence:
#
# PCOD9359819 Si02
#       8
#     8   8   8   8   8   8   8   8
#     4  10  19  30  50  77 115 148 185 221 272 345
#     4  10  23  41  60  80 107 149 202 253 301 357
#     4  11  22  34  49  79 112 146 186 233 293 354
#     4  10  18  30  48  77 112 157 186 216 266 345
#     4  12  24  36  55  79 113 150 194 246 305 364
#     4  11  20  35  51  78 113 148 183 236 291 348
#     4  10  22  40  60  81 106 145 199 255 307 355
#     4  10  20  30  48  73 113 148 181 224 277 345
#
# _framework density 20.613662000000001
#
# number of rings (size 3 to 8) (size 9 to 14) (size 15 to 20)
#    0.000    1.500    2.500    5.250    3.500    0.000 
#    0.000    0.000    0.000    0.000    0.000    3.500 
#    0.000    0.000    0.000    0.000    0.000    0.000 
#
# Total GULP energy -178340.344987 kJ/mol
# GULP energy per Si atom -5573.135781 kJ/mol
# Density = 2.056674 g / cm^3
# Si number density = 20.613662 Si / 1000 Ang^3
#
#
#
# Elastic Constant Matrix: (Units=GPa)
#
#
# Indices 1 2 3 4 5 6 
#
# 1 92.2691 11.0869 48.1804 0.0000 0.0000 0.0000
# 2 11.0869 17.4941 19.9389 0.0000 0.0000 0.0000
# 3 48.1804 19.9389 127.6964 0.0000 0.0000 0.0000
# 4 0.0000 0.0000 0.0000 17.0004 0.0000 0.0000
# 5 0.0000 0.0000 0.0000 0.0000 51.1917 0.0000
# 6 0.0000 0.0000 0.0000 0.0000 0.0000 15.2751
#
#
#
# Elastic Compliance Matrix: (Units=1/GPa)
#
#
# Indices 1 2 3 4 5 6 
#
# 1 0.013660 -0.003385 -0.004625 0.000000 0.000000 0.000000
# 2 -0.003385 0.070376 -0.009712 0.000000 0.000000 0.000000
# 3 -0.004625 -0.009712 0.011093 0.000000 0.000000 0.000000
# 4 0.000000 0.000000 0.000000 0.058822 0.000000 0.000000
# 5 0.000000 0.000000 0.000000 0.000000 0.019534 0.000000
# 6 0.000000 0.000000 0.000000 0.000000 0.000000 0.065466
#
#
# Mechanical properties :
#
#
# Convention : Reuss Voigt Hill
#
# Bulk Modulus (GPa) = 16.75473 43.98578 30.37026
# Shear Modulus (GPa) = 16.99005 27.24369 22.11687
#
# Velocity S-wave (km/s) = 2.87403 3.63937 3.27910
# Velocity P-wave (km/s) = 4.37710 6.24856 5.39460
#
# Compressibility (1/GPa) = 0.05968462
#
# Stress axis : x y z
#
# Youngs Moduli (GPa) = 73.20720 14.20934 90.14992
#
# Poissons Ratio (x) = 0.04810 0.41698
# Poissons Ratio (y) = 0.24782 0.87549
# Poissons Ratio (z) = 0.33861 0.13799
#
# Static dielectric constant tensor:
#      x y z
#    x 1.826250 0.000000 0.000000 
#    y 0.000000 1.752110 0.000000 
#    z 0.000000 0.000000 1.823930 
# 
# From -- ./inp_files/3860.got.cif
#   From: 2010.05.17/outbox.cif.g08.bks.cpg/sg39_2_cif.got.tgz:3860.got - 2010.06.03 18:22:40.
