data_PCOD9359110
_publ_section_title
;
Structure prediction by ZEFSAII (Michael W. Deem and Ramdas Pophale) SiO2 
 PCOD9359110
Probable space group: A M M 2
;
_chemical_formula_sum "Si O2"
_cell_formula_units_Z 42
_cell_length_a 23.526202
_cell_length_b 10.230362
_cell_length_c 10.116219
_cell_angle_alpha 90.000000
_cell_angle_beta 90.000000
_cell_angle_gamma 90.000000
_cell_volume 2434.787400
_symmetry_space_group_name_H-M "A M M 2"
_symmetry_group_IT_number 38
_symmetry_cell_setting 'orthorhombic'
loop_
_space_group_symop_operation_xyz
x,y,z
-x,-y,z
-x,y,z
x,-y,z
x,1/2+y,1/2+z
-x,1/2-y,1/2+z
-x,1/2+y,1/2+z
x,1/2-y,1/2+z
loop_
_atom_site_type_symbol
_atom_site_label
_atom_site_fract_x
_atom_site_fract_y
_atom_site_fract_z
Si Si1 0.836529 0.845865 0.233220
Si Si2 0.433479 0.000000 0.533005
Si Si3 0.295027 0.843998 0.166699
Si Si4 0.000000 0.500000 0.418756
Si Si5 0.566556 0.000000 0.851268
Si Si6 0.636661 0.255633 0.923962
Si Si7 0.117212 0.643085 0.444905
O O1 0.770618 0.818593 0.201235
O O2 0.858995 0.752293 0.347945
O O3 0.842045 0.000000 0.267859
O O4 0.871184 0.823444 0.097593
O O5 0.429178 0.000000 0.691956
O O6 0.402140 0.126472 0.475482
O O7 0.500000 0.000000 0.497427
O O8 0.334055 0.794241 0.286468
O O9 0.301926 0.000000 0.152407
O O10 0.315339 0.775205 0.032834
O O11 0.949035 0.388191 0.422193
O O12 0.598100 0.872207 0.905151
O O13 0.500000 0.000000 0.887091
O O14 0.146533 0.500000 0.422039
#
# Coordination Sequence:
#
# PCOD9359110 Si02
#       7
#     8   4   8   2   4   8   8
#     4  10  21  39  62  88 120 159 194 246 291 357
#     4  11  24  41  59  87 121 152 197 255 300 350
#     4  11  23  38  61  90 123 150 196 246 300 350
#     4   8  20  40  60  86 124 160 190 254 282 344
#     4  11  24  41  62  87 117 156 199 243 304 364
#     4  12  22  42  61  89 117 156 199 246 299 358
#     4   9  20  40  59  88 122 153 200 237 298 337
#
# _framework density 17.249966000000001
#
# number of rings (size 3 to 8) (size 9 to 14) (size 15 to 20)
#    0.571    0.952    3.810    1.714    0.000    1.524 
#    3.429    0.952    0.000    0.000    0.000    0.000 
#    0.000    0.000    0.000    0.000    0.000    0.000 
#
# Total GULP energy -116913.241765 kJ/mol
# GULP energy per Si atom -5567.297227 kJ/mol
# Density = 1.721070 g / cm^3
# Si number density = 17.249966 Si / 1000 Ang^3
#
#
#
# Elastic Constant Matrix: (Units=GPa)
#
#
# Indices 1 2 3 4 5 6 
#
# 1 48.9548 13.0938 -17.9126 0.0000 0.0000 0.0000
# 2 13.0938 82.2844 9.8349 0.0000 0.0000 0.0000
# 3 -17.9126 9.8349 33.4164 0.0000 0.0000 0.0000
# 4 0.0000 0.0000 0.0000 22.5991 0.0000 0.0000
# 5 0.0000 0.0000 0.0000 0.0000 6.9531 0.0000
# 6 0.0000 0.0000 0.0000 0.0000 0.0000 42.7914
#
#
#
# Elastic Compliance Matrix: (Units=1/GPa)
#
#
# Indices 1 2 3 4 5 6 
#
# 1 0.028487 -0.006590 0.017210 0.000000 0.000000 0.000000
# 2 -0.006590 0.014121 -0.007688 0.000000 0.000000 0.000000
# 3 0.017210 -0.007688 0.041413 0.000000 0.000000 0.000000
# 4 0.000000 0.000000 0.000000 0.044250 0.000000 0.000000
# 5 0.000000 0.000000 0.000000 0.000000 0.143822 0.000000
# 6 0.000000 0.000000 0.000000 0.000000 0.000000 0.023369
#
#
# Mechanical properties :
#
#
# Convention : Reuss Voigt Hill
#
# Bulk Modulus (GPa) = 11.12557 19.40973 15.26765
# Shear Modulus (GPa) = 15.64654 25.11135 20.37894
#
# Velocity S-wave (km/s) = 3.01499 3.81955 3.44086
# Velocity P-wave (km/s) = 4.31090 5.54332 4.96549
#
# Compressibility (1/GPa) = 0.08988305
#
# Stress axis : x y z
#
# Youngs Moduli (GPa) = 35.10416 70.81877 24.14683
#
# Poissons Ratio (x) = 0.46669 -0.41556
# Poissons Ratio (y) = 0.23134 0.18565
# Poissons Ratio (z) = -0.60413 0.54448
#
# Static dielectric constant tensor:
#      x y z
#    x 1.562010 0.000000 0.000000 
#    y 0.000000 1.574360 0.000000 
#    z 0.000000 0.000000 1.561020 
# 
# From -- ./inp_files/6913.got.cif
#   From: 2010.05.17/outbox.cif.g08.bks.cpg/sg38_4_cif.got.tgz:6913.got - 2010.06.03 18:07:57.
