data_PCOD9359040
_publ_section_title
;
Structure prediction by ZEFSAII (Michael W. Deem and Ramdas Pophale) SiO2 
 PCOD9359040
Probable space group: A M M 2
;
_chemical_formula_sum "Si O2"
_cell_formula_units_Z 64
_cell_length_a 8.962594
_cell_length_b 25.437199
_cell_length_c 15.109049
_cell_angle_alpha 90.000000
_cell_angle_beta 90.000000
_cell_angle_gamma 90.000000
_cell_volume 3444.610656
_symmetry_space_group_name_H-M "A M M 2"
_symmetry_group_IT_number 38
_symmetry_cell_setting 'orthorhombic'
loop_
_space_group_symop_operation_xyz
x,y,z
-x,-y,z
-x,y,z
x,-y,z
x,1/2+y,1/2+z
-x,1/2-y,1/2+z
-x,1/2+y,1/2+z
x,1/2-y,1/2+z
loop_
_atom_site_type_symbol
_atom_site_label
_atom_site_fract_x
_atom_site_fract_y
_atom_site_fract_z
Si Si1 0.323037 0.868973 0.389430
Si Si2 0.827778 0.714082 0.582582
Si Si3 0.825532 0.437152 0.741870
Si Si4 0.179549 0.334276 0.063152
Si Si5 0.179874 0.559447 0.391590
Si Si6 0.323200 0.606269 0.563947
Si Si7 0.181385 0.345650 0.266286
Si Si8 0.174150 0.228875 0.295446
O O1 0.500000 0.873705 0.387882
O O2 0.248107 0.913779 0.329708
O O3 0.259993 0.867716 0.488595
O O4 0.271227 0.814086 0.344888
O O5 0.788463 0.772172 0.548759
O O6 0.725751 0.666771 0.550861
O O7 0.821519 0.717953 0.689741
O O8 0.000000 0.702783 0.557918
O O9 0.814122 0.500000 0.738816
O O10 0.744836 0.412521 0.656973
O O11 0.000000 0.422095 0.739276
O O12 0.226525 0.347707 0.163432
O O13 0.000000 0.340255 0.057103
O O14 0.215948 0.500000 0.363375
O O15 0.252615 0.572125 0.485645
O O16 0.229120 0.604303 0.322761
O O17 0.000000 0.563047 0.400325
O O18 0.500000 0.601226 0.565301
O O19 0.225462 0.289172 0.306788
O O20 0.000000 0.344385 0.265564
O O21 0.000000 0.224124 0.323396
#
# Coordination Sequence:
#
# PCOD9359040 Si02
#       8
#     8   8   8   8   8   8   8   8
#     4  12  24  36  55  88 125 157 190 236 296 357
#     4   9  18  34  57  82 112 154 198 237 280 338
#     4  11  24  43  65  85 110 152 205 251 289 342
#     4   9  19  37  60  84 115 156 199 243 287 342
#     4  10  21  38  60  85 114 151 199 249 291 342
#     4  12  24  36  55  86 123 157 188 236 298 358
#     4   8  17  36  61  86 109 146 201 251 292 331
#     4   9  17  33  57  82 110 149 195 239 285 341
#
# _framework density 18.579747999999999
#
# number of rings (size 3 to 8) (size 9 to 14) (size 15 to 20)
#    0.000    2.000    1.250    4.500    1.750    3.250 
#    0.000    3.125    0.000    2.250    0.000    0.000 
#    0.000    0.000    0.000    0.000    0.000    0.000 
#
# Total GULP energy -178780.996049 kJ/mol
# GULP energy per Si atom -5586.906127 kJ/mol
# Density = 1.853746 g / cm^3
# Si number density = 18.579748 Si / 1000 Ang^3
#
#
#
# Elastic Constant Matrix: (Units=GPa)
#
#
# Indices 1 2 3 4 5 6 
#
# 1 55.2361 33.1533 16.8414 0.0000 0.0000 0.0000
# 2 33.1533 77.4388 16.0606 0.0000 0.0000 0.0000
# 3 16.8414 16.0606 41.4850 0.0000 0.0000 0.0000
# 4 0.0000 0.0000 0.0000 29.2520 0.0000 0.0000
# 5 0.0000 0.0000 0.0000 0.0000 -4.4244 0.0000
# 6 0.0000 0.0000 0.0000 0.0000 0.0000 -12.8942
#
#
#
# Elastic Compliance Matrix: (Units=1/GPa)
#
#
# Indices 1 2 3 4 5 6 
#
# 1 0.026015 -0.009728 -0.006795 0.000000 0.000000 0.000000
# 2 -0.009728 0.017679 -0.002895 0.000000 0.000000 0.000000
# 3 -0.006795 -0.002895 0.027984 0.000000 0.000000 0.000000
# 4 0.000000 0.000000 0.000000 0.034186 0.000000 0.000000
# 5 0.000000 0.000000 0.000000 0.000000 -0.226018 0.000000
# 6 0.000000 0.000000 0.000000 0.000000 0.000000 -0.077554
#
#
# Mechanical properties :
#
#
# Convention : Reuss Voigt Hill
#
# Bulk Modulus (GPa) = 30.44895 34.03005 32.23950
# Shear Modulus (GPa) = -33.80088 9.59364 -12.10362
#
# Velocity S-wave (km/s) = -4.26987 2.27480 -2.55510
# Velocity P-wave (km/s) = 2.80807 5.02544 2.94701
#
# Compressibility (1/GPa) = 0.03284185
#
# Stress axis : x y z
#
# Youngs Moduli (GPa) = 38.43953 56.56515 35.73439
#
# Poissons Ratio (x) = 0.55028 0.24281
# Poissons Ratio (y) = 0.37395 0.10345
# Poissons Ratio (z) = 0.26119 0.16375
#
# Static dielectric constant tensor:
#      x y z
#    x 1.614950 0.000000 0.000000 
#    y 0.000000 1.639950 0.000000 
#    z 0.000000 0.000000 1.643030 
# 
# From -- ./inp_files/12815.got.cif
#   From: 2010.05.17/outbox.cif.g08.bks.cpg/sg38_7_cif.got.tgz:12815.got - 2010.06.03 18:07:57.
