data_PCOD9359006
_publ_section_title
;
Structure prediction by ZEFSAII (Michael W. Deem and Ramdas Pophale) SiO2 
 PCOD9359006
Probable space group: A M M 2
;
_chemical_formula_sum "Si O2"
_cell_formula_units_Z 44
_cell_length_a 32.123023
_cell_length_b 13.141974
_cell_length_c 5.056501
_cell_angle_alpha 90.000000
_cell_angle_beta 90.000000
_cell_angle_gamma 90.000000
_cell_volume 2134.652124
_symmetry_space_group_name_H-M "A M M 2"
_symmetry_group_IT_number 38
_symmetry_cell_setting 'orthorhombic'
loop_
_space_group_symop_operation_xyz
x,y,z
-x,-y,z
-x,y,z
x,-y,z
x,1/2+y,1/2+z
-x,1/2-y,1/2+z
-x,1/2+y,1/2+z
x,1/2-y,1/2+z
loop_
_atom_site_type_symbol
_atom_site_label
_atom_site_fract_x
_atom_site_fract_y
_atom_site_fract_z
Si Si1 0.669037 0.000000 0.170161
Si Si2 0.388923 0.500000 0.170298
Si Si3 0.000000 0.679056 0.758256
Si Si4 0.824649 0.680386 0.762121
Si Si5 0.547500 0.181731 0.640034
Si Si6 0.912226 0.179044 0.135671
Si Si7 0.265653 0.179020 0.156655
O O1 0.698294 0.901769 0.199435
O O2 0.633029 0.000000 0.386980
O O3 0.647151 0.000000 0.886665
O O4 0.418490 0.402570 0.197995
O O5 0.956109 0.625648 0.696981
O O6 0.000000 0.775346 0.553317
O O7 0.824953 0.777728 0.560921
O O8 0.868225 0.626088 0.696611
O O9 0.780276 0.630692 0.700980
O O10 0.500000 0.142810 0.670213
O O11 0.552195 0.225942 0.346188
O O12 0.912283 0.275225 0.340886
O O13 0.268408 0.270459 0.368514
#
# Coordination Sequence:
#
# PCOD9359006 Si02
#       7
#     4   4   4   8   8   8   8
#     4  12  26  38  57  86 112 149 190 222 274 332
#     4  12  25  40  60  88 120 150 184 229 272 318
#     4   8  12  16  24  42  72 103 132 179 234 288
#     4   8  14  25  42  60  81 117 160 202 251 302
#     4  10  22  41  65  91 119 153 190 226 267 316
#     4   8  12  18  29  48  73 104 143 184 236 296
#     4  10  21  38  56  75 105 141 180 229 273 316
#
# _framework density 20.612257
#
# number of rings (size 3 to 8) (size 9 to 14) (size 15 to 20)
#    0.000    2.545    0.000    2.455    0.000    4.364 
#    0.000    3.636    0.000    0.000    0.000    0.000 
#    0.000    0.727    0.000    0.182    0.000  238.909 
#
# Total GULP energy -122685.325084 kJ/mol
# GULP energy per Si atom -5576.605686 kJ/mol
# Density = 2.056534 g / cm^3
# Si number density = 20.612257 Si / 1000 Ang^3
#
#
#
# Elastic Constant Matrix: (Units=GPa)
#
#
# Indices 1 2 3 4 5 6 
#
# 1 102.2222 35.5039 -26.0636 0.0000 0.0000 0.0000
# 2 35.5039 39.1648 -9.1559 0.0000 0.0000 0.0000
# 3 -26.0636 -9.1559 75.0784 0.0000 0.0000 0.0000
# 4 0.0000 0.0000 0.0000 6.6597 0.0000 0.0000
# 5 0.0000 0.0000 0.0000 0.0000 38.4630 0.0000
# 6 0.0000 0.0000 0.0000 0.0000 0.0000 -44.5165
#
#
#
# Elastic Compliance Matrix: (Units=1/GPa)
#
#
# Indices 1 2 3 4 5 6 
#
# 1 0.015218 -0.012929 0.003706 0.000000 0.000000 0.000000
# 2 -0.012929 0.037267 0.000056 0.000000 0.000000 0.000000
# 3 0.003706 0.000056 0.014613 0.000000 0.000000 0.000000
# 4 0.000000 0.000000 0.000000 0.150157 0.000000 0.000000
# 5 0.000000 0.000000 0.000000 0.000000 0.025999 0.000000
# 6 0.000000 0.000000 0.000000 0.000000 0.000000 -0.022464
#
#
# Mechanical properties :
#
#
# Convention : Reuss Voigt Hill
#
# Bulk Modulus (GPa) = 20.50656 24.11491 22.31074
# Shear Modulus (GPa) = 19.57873 14.53330 17.05602
#
# Velocity S-wave (km/s) = 3.08532 2.65822 2.87970
# Velocity P-wave (km/s) = 4.76053 4.59850 4.68021
#
# Compressibility (1/GPa) = 0.04876488
#
# Stress axis : x y z
#
# Youngs Moduli (GPa) = 65.71082 26.83343 68.43257
#
# Poissons Ratio (x) = 0.34694 -0.25363
# Poissons Ratio (y) = 0.84959 -0.00385
# Poissons Ratio (z) = -0.24354 -0.00151
#
# Static dielectric constant tensor:
#      x y z
#    x 1.805880 0.000000 0.000000 
#    y 0.000000 1.751040 0.000000 
#    z 0.000000 0.000000 1.688190 
# 
# From -- ./inp_files/2268.got.cif
#   From: 2010.05.17/outbox.cif.g08.bks.cpg/sg38_2_cif.got.tgz:2268.got - 2010.06.03 18:07:57.
