data_PCOD9359743
_publ_section_title
;
Structure prediction by ZEFSAII (Michael W. Deem and Ramdas Pophale) SiO2 
 PCOD9359743
Probable space group: A B M 2
;
_chemical_formula_sum "Si O2"
_cell_formula_units_Z 48
_cell_length_a 16.352875
_cell_length_b 8.570778
_cell_length_c 19.244749
_cell_angle_alpha 90.000000
_cell_angle_beta 90.000000
_cell_angle_gamma 90.000000
_cell_volume 2697.283616
_symmetry_space_group_name_H-M "A B M 2"
_symmetry_group_IT_number 39
_symmetry_cell_setting 'orthorhombic'
loop_
_space_group_symop_operation_xyz
x,y,z
-x,-y,z
-x,1/2+y,z
x,1/2-y,z
x,1/2+y,1/2+z
-x,1/2-y,1/2+z
-x,y,1/2+z
x,-y,1/2+z
loop_
_atom_site_type_symbol
_atom_site_label
_atom_site_fract_x
_atom_site_fract_y
_atom_site_fract_z
Si Si1 0.411552 0.562731 0.332490
Si Si2 0.738478 0.939726 0.086234
Si Si3 0.412556 0.061879 0.994474
Si Si4 0.916597 0.563277 0.087550
Si Si5 0.257386 0.437207 0.248149
Si Si6 0.084649 0.936038 0.245979
O O1 0.500000 0.500000 0.308406
O O2 0.411104 0.750000 0.328011
O O3 0.402884 0.516670 0.413698
O O4 0.335836 0.494562 0.290082
O O5 0.736526 0.750000 0.085345
O O6 0.828312 0.985253 0.058043
O O7 0.732569 0.986157 0.167106
O O8 0.662901 0.995890 0.040620
O O9 0.413908 0.250000 0.997124
O O10 0.500000 0.000000 0.019381
O O11 0.920731 0.750000 0.089313
O O12 0.914863 0.502291 0.167029
O O13 0.000000 0.500000 0.054573
O O14 0.251798 0.250000 0.249852
O O15 0.171441 0.506586 0.275700
O O16 0.081854 0.750000 0.244455
O O17 0.000000 0.000000 0.278256
#
# Coordination Sequence:
#
# PCOD9359743 Si02
#       6
#     8   8   8   8   8   8
#     4  10  20  34  52  71  93 125 162 199 241 291
#     4   8  16  30  48  70  95 124 155 193 240 281
#     4   9  18  34  52  69  91 122 160 196 235 285
#     4   9  15  25  42  65  94 126 158 192 234 281
#     4  10  19  32  50  73 101 128 159 200 242 284
#     4  10  17  27  44  68  98 129 162 196 236 284
#
# _framework density 17.795680999999998
#
# number of rings (size 3 to 8) (size 9 to 14) (size 15 to 20)
#    0.000    2.667    0.000    5.000    0.000    1.333 
#    0.000    6.667    0.000    1.000    0.000    2.333 
#    0.000    0.000    0.000    0.000    0.000    0.000 
#
# Total GULP energy -133707.611566 kJ/mol
# GULP energy per Si atom -5571.150482 kJ/mol
# Density = 1.775518 g / cm^3
# Si number density = 17.795681 Si / 1000 Ang^3
#
#
#
# Elastic Constant Matrix: (Units=GPa)
#
#
# Indices 1 2 3 4 5 6 
#
# 1 232.3442 49.1024 62.1437 0.0000 0.0000 0.0000
# 2 49.1024 61.9417 14.8864 0.0000 0.0000 0.0000
# 3 62.1437 14.8864 31.4715 0.0000 0.0000 0.0000
# 4 0.0000 0.0000 0.0000 9.6556 0.0000 0.0000
# 5 0.0000 0.0000 0.0000 0.0000 -14.6741 0.0000
# 6 0.0000 0.0000 0.0000 0.0000 0.0000 33.7076
#
#
#
# Elastic Compliance Matrix: (Units=1/GPa)
#
#
# Indices 1 2 3 4 5 6 
#
# 1 0.009750 -0.003500 -0.017597 0.000000 0.000000 0.000000
# 2 -0.003500 0.019471 -0.002299 0.000000 0.000000 0.000000
# 3 -0.017597 -0.002299 0.067610 0.000000 0.000000 0.000000
# 4 0.000000 0.000000 0.000000 0.103567 0.000000 0.000000
# 5 0.000000 0.000000 0.000000 0.000000 -0.068147 0.000000
# 6 0.000000 0.000000 0.000000 0.000000 0.000000 0.029667
#
#
# Mechanical properties :
#
#
# Convention : Reuss Voigt Hill
#
# Bulk Modulus (GPa) = 19.98445 64.22472 42.10459
# Shear Modulus (GPa) = 22.18372 19.04614 20.61493
#
# Velocity S-wave (km/s) = 3.53452 3.27504 3.40725
# Velocity P-wave (km/s) = 5.28313 7.10420 6.26024
#
# Compressibility (1/GPa) = 0.05003891
#
# Stress axis : x y z
#
# Youngs Moduli (GPa) = 102.56061 51.35767 14.79072
#
# Poissons Ratio (x) = 0.17976 0.26028
# Poissons Ratio (y) = 0.35897 0.03400
# Poissons Ratio (z) = 1.80480 0.11806
#
# Static dielectric constant tensor:
#      x y z
#    x 1.658990 0.000000 0.000000 
#    y 0.000000 1.602720 0.000000 
#    z 0.000000 0.000000 1.589950 
# 
# From -- ./inp_files/12664.got.cif
#   From: 2010.05.17/outbox.cif.g08.bks.cpg/sg39_7_cif.got.tgz:12664.got - 2010.06.03 18:22:40.
