data_PCOD9359080
_publ_section_title
;
Structure prediction by ZEFSAII (Michael W. Deem and Ramdas Pophale) SiO2 
 PCOD9359080
Probable space group: A M M 2
;
_chemical_formula_sum "Si O2"
_cell_formula_units_Z 64
_cell_length_a 8.965460
_cell_length_b 31.222932
_cell_length_c 12.128688
_cell_angle_alpha 90.000000
_cell_angle_beta 90.000000
_cell_angle_gamma 90.000000
_cell_volume 3395.158743
_symmetry_space_group_name_H-M "A M M 2"
_symmetry_group_IT_number 38
_symmetry_cell_setting 'orthorhombic'
loop_
_space_group_symop_operation_xyz
x,y,z
-x,-y,z
-x,y,z
x,-y,z
x,1/2+y,1/2+z
-x,1/2-y,1/2+z
-x,1/2+y,1/2+z
x,1/2-y,1/2+z
loop_
_atom_site_type_symbol
_atom_site_label
_atom_site_fract_x
_atom_site_fract_y
_atom_site_fract_z
Si Si1 0.322668 0.951719 0.925390
Si Si2 0.826679 0.568256 0.654505
Si Si3 0.677093 0.700553 0.433138
Si Si4 0.821986 0.125834 0.790296
Si Si5 0.322131 0.548201 0.887373
Si Si6 0.320782 0.125775 0.549907
Si Si7 0.322246 0.799391 0.379639
Si Si8 0.172737 0.671175 0.654805
O O1 0.500000 0.944029 0.922254
O O2 0.240440 0.915458 0.855275
O O3 0.293856 0.000000 0.883989
O O4 0.265619 0.948964 0.051017
O O5 0.760754 0.553955 0.771403
O O6 0.817940 0.619779 0.649757
O O7 0.000000 0.555716 0.644891
O O8 0.500000 0.693596 0.422860
O O9 0.760541 0.667942 0.352080
O O10 0.708913 0.750051 0.406639
O O11 0.730099 0.690332 0.556400
O O12 0.762008 0.125151 0.665819
O O13 0.000000 0.125665 0.793774
O O14 0.500000 0.552800 0.867600
O O15 0.294996 0.500000 0.929510
O O16 0.279396 0.585068 0.973702
O O17 0.500000 0.124220 0.568535
O O18 0.287062 0.168667 0.480356
O O19 0.500000 0.803853 0.358354
O O20 0.233570 0.813703 0.272049
O O21 0.000000 0.683440 0.640329
#
# Coordination Sequence:
#
# PCOD9359080 Si02
#       8
#     8   8   8   8   8   8   8   8
#     4  11  24  42  66  93 121 161 210 256 305 364
#     4  11  22  37  60  93 130 163 199 248 307 368
#     4  11  24  42  66  93 123 163 214 259 304 367
#     4  12  26  43  63  91 126 164 204 253 316 373
#     4  10  21  38  63  92 121 159 206 252 302 365
#     4  10  22  42  64  88 122 162 207 258 305 363
#     4  10  23  42  66  93 121 163 212 257 306 365
#     4  11  23  39  63  95 129 163 202 252 314 372
#
# _framework density 18.850370000000002
#
# number of rings (size 3 to 8) (size 9 to 14) (size 15 to 20)
#    0.000    1.250    2.500    3.000    1.750    6.250 
#    0.000    1.250    0.000    0.000    0.000    0.000 
#    0.000    0.000    0.000    0.000    0.000    0.000 
#
# Total GULP energy -178952.021735 kJ/mol
# GULP energy per Si atom -5592.250679 kJ/mol
# Density = 1.880747 g / cm^3
# Si number density = 18.850370 Si / 1000 Ang^3
#
#
#
# Elastic Constant Matrix: (Units=GPa)
#
#
# Indices 1 2 3 4 5 6 
#
# 1 90.5234 82.4080 68.9733 0.0000 0.0000 0.0000
# 2 82.4080 144.1147 72.2501 0.0000 0.0000 0.0000
# 3 68.9733 72.2501 132.5697 0.0000 0.0000 0.0000
# 4 0.0000 0.0000 0.0000 37.4394 0.0000 0.0000
# 5 0.0000 0.0000 0.0000 0.0000 163.0565 0.0000
# 6 0.0000 0.0000 0.0000 0.0000 0.0000 31.7747
#
#
#
# Elastic Compliance Matrix: (Units=1/GPa)
#
#
# Indices 1 2 3 4 5 6 
#
# 1 0.028200 -0.012067 -0.008096 0.000000 0.000000 0.000000
# 2 -0.012067 0.014711 -0.001739 0.000000 0.000000 0.000000
# 3 -0.008096 -0.001739 0.012703 0.000000 0.000000 0.000000
# 4 0.000000 0.000000 0.000000 0.026710 0.000000 0.000000
# 5 0.000000 0.000000 0.000000 0.000000 0.006133 0.000000
# 6 0.000000 0.000000 0.000000 0.000000 0.000000 0.031472
#
#
# Mechanical properties :
#
#
# Convention : Reuss Voigt Hill
#
# Bulk Modulus (GPa) = 84.66836 90.49674 87.58255
# Shear Modulus (GPa) = 29.82055 56.02589 42.92322
#
# Velocity S-wave (km/s) = 3.98170 5.45765 4.77702
# Velocity P-wave (km/s) = 8.13340 9.37159 8.77436
#
# Compressibility (1/GPa) = 0.01181079
#
# Stress axis : x y z
#
# Youngs Moduli (GPa) = 35.46040 67.97607 78.72096
#
# Poissons Ratio (x) = 0.82027 0.63730
# Poissons Ratio (y) = 0.42790 0.13692
# Poissons Ratio (z) = 0.28707 0.11823
#
# Static dielectric constant tensor:
#      x y z
#    x 1.629750 0.000000 0.000000 
#    y 0.000000 1.653560 0.000000 
#    z 0.000000 0.000000 1.605180 
# 
# From -- ./inp_files/8669.got.cif
#   From: 2010.05.17/outbox.cif.g08.bks.cpg/sg38_5_cif.got.tgz:8669.got - 2010.06.03 18:07:57.
