data_PCOD9359367
_publ_section_title
;
Structure prediction by ZEFSAII (Michael W. Deem and Ramdas Pophale) SiO2 
 PCOD9359367
Probable space group: A M M 2
;
_chemical_formula_sum "Si O2"
_cell_formula_units_Z 56
_cell_length_a 21.854012
_cell_length_b 8.714258
_cell_length_c 15.779782
_cell_angle_alpha 90.000000
_cell_angle_beta 90.000000
_cell_angle_gamma 90.000000
_cell_volume 3005.125336
_symmetry_space_group_name_H-M "A M M 2"
_symmetry_group_IT_number 38
_symmetry_cell_setting 'orthorhombic'
loop_
_space_group_symop_operation_xyz
x,y,z
-x,-y,z
-x,y,z
x,-y,z
x,1/2+y,1/2+z
-x,1/2-y,1/2+z
-x,1/2+y,1/2+z
x,1/2-y,1/2+z
loop_
_atom_site_type_symbol
_atom_site_label
_atom_site_fract_x
_atom_site_fract_y
_atom_site_fract_z
Si Si1 0.847334 0.316023 0.099670
Si Si2 0.071494 0.315106 0.749998
Si Si3 0.628834 0.816021 0.941139
Si Si4 0.930056 0.313227 0.943226
Si Si5 0.628825 0.184011 0.261309
Si Si6 0.711354 0.814824 0.101248
Si Si7 0.500000 0.182640 0.500140
Si Si8 0.500000 0.682624 0.202343
O O1 0.845958 0.500000 0.098494
O O2 0.885001 0.260355 0.181259
O O3 0.778859 0.252918 0.101118
O O4 0.883586 0.261579 0.015491
O O5 0.077307 0.500000 0.745201
O O6 0.085747 0.267682 0.846977
O O7 0.000000 0.277401 0.734038
O O8 0.649555 0.749738 0.851283
O O9 0.560999 0.754426 0.960955
O O10 0.627141 0.000000 0.937797
O O11 0.673161 0.768447 0.017979
O O12 0.930355 0.500000 0.943750
O O13 0.000000 0.264258 0.961451
O O14 0.673192 0.231697 0.184543
O O15 0.560999 0.245604 0.241537
O O16 0.627183 0.000000 0.264526
O O17 0.715121 0.000000 0.101536
O O18 0.500000 0.211699 0.601244
O O19 0.500000 0.000000 0.486084
O O20 0.500000 0.500000 0.216396
#
# Coordination Sequence:
#
# PCOD9359367 Si02
#       8
#     8   8   8   8   8   8   4   4
#     4  11  22  35  57  85 115 149 189 238 285 334
#     4   9  18  35  59  84 113 150 190 230 278 340
#     4  11  23  41  63  87 116 151 192 240 293 344
#     4   8  16  33  56  82 112 147 185 225 275 335
#     4  11  23  41  63  86 114 152 195 237 290 351
#     4  10  24  43  59  78 113 157 195 234 282 343
#     4  11  22  37  62  92 120 150 188 237 289 347
#     4  11  22  37  62  92 120 148 186 241 291 339
#
# _framework density 18.634830000000001
#
# number of rings (size 3 to 8) (size 9 to 14) (size 15 to 20)
#    0.000    1.857    1.429    3.429    0.000    4.857 
#    0.000    5.714    0.000    1.714    0.000    0.000 
#    0.000    0.000    0.000    0.000    0.000    0.000 
#
# Total GULP energy -156450.841526 kJ/mol
# GULP energy per Si atom -5587.530054 kJ/mol
# Density = 1.859242 g / cm^3
# Si number density = 18.634830 Si / 1000 Ang^3
#
#
#
# Elastic Constant Matrix: (Units=GPa)
#
#
# Indices 1 2 3 4 5 6 
#
# 1 157.5357 36.1477 117.2578 0.0000 0.0000 0.0000
# 2 36.1477 32.0114 50.3504 0.0000 0.0000 0.0000
# 3 117.2578 50.3504 188.6011 0.0000 0.0000 0.0000
# 4 0.0000 0.0000 0.0000 30.4523 0.0000 0.0000
# 5 0.0000 0.0000 0.0000 0.0000 -41.5365 0.0000
# 6 0.0000 0.0000 0.0000 0.0000 0.0000 18.3542
#
#
#
# Elastic Compliance Matrix: (Units=1/GPa)
#
#
# Indices 1 2 3 4 5 6 
#
# 1 0.011995 -0.003129 -0.006622 0.000000 0.000000 0.000000
# 2 -0.003129 0.054668 -0.012649 0.000000 0.000000 0.000000
# 3 -0.006622 -0.012649 0.012796 0.000000 0.000000 0.000000
# 4 0.000000 0.000000 0.000000 0.032838 0.000000 0.000000
# 5 0.000000 0.000000 0.000000 0.000000 -0.024075 0.000000
# 6 0.000000 0.000000 0.000000 0.000000 0.000000 0.054484
#
#
# Mechanical properties :
#
#
# Convention : Reuss Voigt Hill
#
# Bulk Modulus (GPa) = 28.85296 87.29555 58.07426
# Shear Modulus (GPa) = 25.11823 13.08015 19.09919
#
# Velocity S-wave (km/s) = 3.67538 2.65225 3.20491
# Velocity P-wave (km/s) = 5.79036 7.50509 6.70278
#
# Compressibility (1/GPa) = 0.03465849
#
# Stress axis : x y z
#
# Youngs Moduli (GPa) = 83.37036 18.29227 78.14767
#
# Poissons Ratio (x) = 0.05723 0.51750
# Poissons Ratio (y) = 0.26084 0.98852
# Poissons Ratio (z) = 0.55209 0.23139
#
# Static dielectric constant tensor:
#      x y z
#    x 1.602950 0.000000 0.000000 
#    y 0.000000 1.627950 0.000000 
#    z 0.000000 0.000000 1.648260 
# 
# From -- ./inp_files/15506.got.cif
#   From: 2010.05.17/outbox.cif.g08.bks.cpg/sg38_8_cif.got.tgz:15506.got - 2010.06.03 18:07:57.
