data_PCOD9359315
_publ_section_title
;
Structure prediction by ZEFSAII (Michael W. Deem and Ramdas Pophale) SiO2 
 PCOD9359315
Probable space group: A M M 2
;
_chemical_formula_sum "Si O2"
_cell_formula_units_Z 48
_cell_length_a 8.564740
_cell_length_b 18.723501
_cell_length_c 15.212493
_cell_angle_alpha 90.000000
_cell_angle_beta 90.000000
_cell_angle_gamma 90.000000
_cell_volume 2439.504554
_symmetry_space_group_name_H-M "A M M 2"
_symmetry_group_IT_number 38
_symmetry_cell_setting 'orthorhombic'
loop_
_space_group_symop_operation_xyz
x,y,z
-x,-y,z
-x,y,z
x,-y,z
x,1/2+y,1/2+z
-x,1/2-y,1/2+z
-x,1/2+y,1/2+z
x,1/2-y,1/2+z
loop_
_atom_site_type_symbol
_atom_site_label
_atom_site_fract_x
_atom_site_fract_y
_atom_site_fract_z
Si Si1 0.814206 0.422223 0.926520
Si Si2 0.686378 0.726306 0.857668
Si Si3 0.688176 0.500000 0.428987
Si Si4 0.683567 0.381960 0.110043
Si Si5 0.184843 0.000000 0.735037
Si Si6 0.817692 0.236700 0.164589
Si Si7 0.312123 0.344699 0.503685
O O1 0.781652 0.500000 0.883941
O O2 0.760664 0.350855 0.877596
O O3 0.000000 0.418348 0.941594
O O4 0.725680 0.420005 0.019321
O O5 0.500000 0.720551 0.866672
O O6 0.729802 0.743439 0.757364
O O7 0.738035 0.787906 0.927256
O O8 0.500000 0.500000 0.413078
O O9 0.777420 0.500000 0.337120
O O10 0.726482 0.574020 0.477867
O O11 0.500000 0.366132 0.114281
O O12 0.736138 0.431740 0.189765
O O13 0.781712 0.309818 0.113634
O O14 0.000000 0.000000 0.717700
O O15 0.000000 0.227904 0.182021
O O16 0.757740 0.176485 0.097784
O O17 0.500000 0.339000 0.509299
#
# Coordination Sequence:
#
# PCOD9359315 Si02
#       7
#     8   8   4   8   4   8   8
#     4  11  23  40  63  93 131 166 207 262 322 381
#     4  11  23  41  67  95 128 169 219 267 319 387
#     4  10  22  42  66  93 128 169 214 264 318 378
#     4  12  23  38  62  91 127 167 212 259 318 388
#     4  12  24  38  60  95 132 165 208 262 326 388
#     4  12  25  41  65  94 128 169 216 271 327 380
#     4  10  22  42  67  94 127 168 215 268 321 383
#
# _framework density 19.676126
#
# number of rings (size 3 to 8) (size 9 to 14) (size 15 to 20)
#    0.000    0.833    2.500    5.750    0.000    3.667 
#    1.500    0.000    0.000    0.000    0.000    0.000 
#    0.000    0.000    0.000    0.000    0.000    0.000 
#
# Total GULP energy -134152.090453 kJ/mol
# GULP energy per Si atom -5589.670436 kJ/mol
# Density = 1.963134 g / cm^3
# Si number density = 19.676126 Si / 1000 Ang^3
#
#
#
# Elastic Constant Matrix: (Units=GPa)
#
#
# Indices 1 2 3 4 5 6 
#
# 1 35.2744 11.5777 5.4705 0.0000 0.0000 0.0000
# 2 11.5777 112.8679 12.1421 0.0000 0.0000 0.0000
# 3 5.4705 12.1421 51.7559 0.0000 0.0000 0.0000
# 4 0.0000 0.0000 0.0000 182.2750 0.0000 0.0000
# 5 0.0000 0.0000 0.0000 0.0000 11.8579 0.0000
# 6 0.0000 0.0000 0.0000 0.0000 0.0000 18.6269
#
#
#
# Elastic Compliance Matrix: (Units=1/GPa)
#
#
# Indices 1 2 3 4 5 6 
#
# 1 0.029645 -0.002774 -0.002483 0.000000 0.000000 0.000000
# 2 -0.002774 0.009349 -0.001900 0.000000 0.000000 0.000000
# 3 -0.002483 -0.001900 0.020030 0.000000 0.000000 0.000000
# 4 0.000000 0.000000 0.000000 0.005486 0.000000 0.000000
# 5 0.000000 0.000000 0.000000 0.000000 0.084332 0.000000
# 6 0.000000 0.000000 0.000000 0.000000 0.000000 0.053686
#
#
# Mechanical properties :
#
#
# Convention : Reuss Voigt Hill
#
# Bulk Modulus (GPa) = 22.36631 28.69764 25.53198
# Shear Modulus (GPa) = 21.57555 53.93247 37.75401
#
# Velocity S-wave (km/s) = 3.31499 5.24115 4.38513
# Velocity P-wave (km/s) = 5.10334 7.15841 6.21639
#
# Compressibility (1/GPa) = 0.04471009
#
# Stress axis : x y z
#
# Youngs Moduli (GPa) = 33.73291 106.96504 49.92595
#
# Poissons Ratio (x) = 0.29670 0.12395
# Poissons Ratio (y) = 0.09357 0.09486
# Poissons Ratio (z) = 0.08375 0.20324
#
# Static dielectric constant tensor:
#      x y z
#    x 1.669970 0.000000 0.000000 
#    y 0.000000 1.638230 0.000000 
#    z 0.000000 0.000000 1.669320 
# 
# From -- ./inp_files/12100.got.cif
#   From: 2010.05.17/outbox.cif.g08.bks.cpg/sg38_7_cif.got.tgz:12100.got - 2010.06.03 18:07:57.
