data_PCOD9359805
_publ_section_title
;
Structure prediction by ZEFSAII (Michael W. Deem and Ramdas Pophale) SiO2 
 PCOD9359805
Probable space group: A B M 2
;
_chemical_formula_sum "Si O2"
_cell_formula_units_Z 64
_cell_length_a 9.520154
_cell_length_b 13.755146
_cell_length_c 24.398113
_cell_angle_alpha 90.000000
_cell_angle_beta 90.000000
_cell_angle_gamma 90.000000
_cell_volume 3194.959936
_symmetry_space_group_name_H-M "A B M 2"
_symmetry_group_IT_number 39
_symmetry_cell_setting 'orthorhombic'
loop_
_space_group_symop_operation_xyz
x,y,z
-x,-y,z
-x,1/2+y,z
x,1/2-y,z
x,1/2+y,1/2+z
-x,1/2-y,1/2+z
-x,y,1/2+z
x,-y,1/2+z
loop_
_atom_site_type_symbol
_atom_site_label
_atom_site_fract_x
_atom_site_fract_y
_atom_site_fract_z
Si Si1 0.695254 0.136088 0.471240
Si Si2 0.090715 0.863842 0.874143
Si Si3 0.971347 0.361692 0.986705
Si Si4 0.343709 0.471201 0.084496
Si Si5 0.167608 0.637229 0.668317
Si Si6 0.881398 0.866288 0.606049
Si Si7 0.168500 0.516621 0.773590
Si Si8 0.245138 0.136729 0.850202
O O1 0.646488 0.250000 0.478729
O O2 0.651148 0.063416 0.520309
O O3 0.674962 0.107952 0.406791
O O4 0.863819 0.139210 0.476823
O O5 0.123096 0.750000 0.874449
O O6 0.107010 0.908444 0.934988
O O7 0.176203 0.914868 0.826985
O O8 0.923759 0.872154 0.861598
O O9 0.923354 0.250000 0.986557
O O10 0.945109 0.395745 0.047171
O O11 0.500000 0.500000 0.100209
O O12 0.268706 0.383312 0.116927
O O13 0.251585 0.563603 0.105145
O O14 0.172784 0.750000 0.684331
O O15 0.212640 0.569352 0.718397
O O16 0.006098 0.616846 0.649626
O O17 0.850367 0.750000 0.607675
O O18 0.256740 0.423907 0.794080
O O19 0.000000 0.500000 0.766910
O O20 0.275334 0.250000 0.841646
#
# Coordination Sequence:
#
# PCOD9359805 Si02
#       8
#     8   8   8   8   8   8   8   8
#     4   9  17  33  57  84 117 158 195 236 291 353
#     4   8  14  24  41  74 113 146 180 228 290 347
#     4   8  14  27  50  80 112 144 181 231 291 345
#     4  12  25  38  58  87 119 161 206 251 304 362
#     4  11  23  41  62  86 118 157 199 251 305 361
#     4  10  21  37  57  85 119 154 197 249 302 356
#     4  10  18  29  50  83 120 152 190 238 300 351
#     4   8  16  29  48  79 116 150 189 233 287 352
#
# _framework density 20.031549999999999
#
# number of rings (size 3 to 8) (size 9 to 14) (size 15 to 20)
#    0.000    2.500    1.250    3.375    1.750    1.500 
#    0.000    0.625    0.000    0.750    0.000    1.750 
#    0.000    0.000    0.000    0.000    0.000    0.000 
#
# Total GULP energy -178153.337771 kJ/mol
# GULP energy per Si atom -5567.291805 kJ/mol
# Density = 1.998596 g / cm^3
# Si number density = 20.031550 Si / 1000 Ang^3
#
#
#
# Elastic Constant Matrix: (Units=GPa)
#
#
# Indices 1 2 3 4 5 6 
#
# 1 35.0832 17.8560 17.2094 0.0000 0.0000 0.0000
# 2 17.8560 99.4003 50.1014 0.0000 0.0000 0.0000
# 3 17.2094 50.1014 113.4956 0.0000 0.0000 0.0000
# 4 0.0000 0.0000 0.0000 26.1037 0.0000 0.0000
# 5 0.0000 0.0000 0.0000 0.0000 1.7654 0.0000
# 6 0.0000 0.0000 0.0000 0.0000 0.0000 -0.2729
#
#
#
# Elastic Compliance Matrix: (Units=1/GPa)
#
#
# Indices 1 2 3 4 5 6 
#
# 1 0.032142 -0.004267 -0.002990 0.000000 0.000000 0.000000
# 2 -0.004267 0.013506 -0.005315 0.000000 0.000000 0.000000
# 3 -0.002990 -0.005315 0.011611 0.000000 0.000000 0.000000
# 4 0.000000 0.000000 0.000000 0.038309 0.000000 0.000000
# 5 0.000000 0.000000 0.000000 0.000000 0.566445 0.000000
# 6 0.000000 0.000000 0.000000 0.000000 0.000000 -3.664413
#
#
# Mechanical properties :
#
#
# Convention : Reuss Voigt Hill
#
# Bulk Modulus (GPa) = 31.13858 46.47919 38.80888
# Shear Modulus (GPa) = -1.68546 16.37339 7.34396
#
# Velocity S-wave (km/s) = -0.91827 2.86209 1.91681
# Velocity P-wave (km/s) = 3.80187 5.84597 4.93101
#
# Compressibility (1/GPa) = 0.03211450
#
# Stress axis : x y z
#
# Youngs Moduli (GPa) = 31.11185 74.04245 86.12836
#
# Poissons Ratio (x) = 0.31592 0.25754
# Poissons Ratio (y) = 0.13275 0.45777
# Poissons Ratio (z) = 0.09303 0.39354
#
# Static dielectric constant tensor:
#      x y z
#    x 1.682210 0.000000 0.000000 
#    y 0.000000 1.837760 0.000000 
#    z 0.000000 0.000000 1.770970 
# 
# From -- ./inp_files/15676.got.cif
#   From: 2010.05.17/outbox.cif.g08.bks.cpg/sg39_8_cif.got.tgz:15676.got - 2010.06.03 18:22:40.
