data_PCOD9359593
_publ_section_title
;
Structure prediction by ZEFSAII (Michael W. Deem and Ramdas Pophale) SiO2 
 PCOD9359593
Probable space group: A M M 2
;
_chemical_formula_sum "Si O2"
_cell_formula_units_Z 32
_cell_length_a 9.000000
_cell_length_b 30.000000
_cell_length_c 12.000000
_cell_angle_alpha 90.000000
_cell_angle_beta 90.000000
_cell_angle_gamma 90.000000
_cell_volume 3240.000000
_symmetry_space_group_name_H-M "A M M 2"
_symmetry_group_IT_number 38
_symmetry_cell_setting 'orthorhombic'
loop_
_space_group_symop_operation_xyz
x,y,z
-x,-y,z
-x,y,z
x,-y,z
x,1/2+y,1/2+z
-x,1/2-y,1/2+z
-x,1/2+y,1/2+z
x,1/2-y,1/2+z
loop_
_atom_site_type_symbol
_atom_site_label
_atom_site_fract_x
_atom_site_fract_y
_atom_site_fract_z
Si Si1 0.177023 0.371092 0.093360
Si Si2 0.832512 0.176997 0.818481
Si Si3 0.822421 0.449654 0.231795
Si Si4 0.834816 0.776722 0.231835
Si Si5 0.323127 0.148546 0.366146
Si Si6 0.671463 0.553290 0.456014
Si Si7 0.331765 0.903856 0.171049
Si Si8 0.335504 0.310431 0.540530
O O1 0.219449 0.347156 0.207622
O O2 0.211722 0.422116 0.121819
O O3 0.000000 0.365013 0.077838
O O4 0.263191 0.353767 0.988970
O O5 0.841145 0.228328 0.783190
O O6 0.000000 0.161215 0.845951
O O7 0.727809 0.174399 0.923579
O O8 0.770110 0.500000 0.220428
O O9 0.754027 0.430691 0.345748
O O10 0.000000 0.449006 0.245344
O O11 0.731937 0.806452 0.309374
O O12 0.770974 0.777095 0.106919
O O13 0.000000 0.796511 0.229112
O O14 0.500000 0.146596 0.362302
O O15 0.264317 0.107006 0.290874
O O16 0.500000 0.569304 0.453070
O O17 0.670329 0.500000 0.452938
O O18 0.741346 0.567615 0.573680
O O19 0.500000 0.921731 0.187163
O O20 0.341775 0.854821 0.115722
O O21 0.500000 0.291497 0.530060
#
# Coordination Sequence:
#
# PCOD9359593 Si02
#       8
#     8   8   8   8   8   8   8   8
#     4  10  21  37  55  78 107 144 186 224 268 326
#     4  10  22  36  53  76 103 136 174 218 265 320
#     4   9  18  33  53  78 110 143 175 219 271 319
#     4  10  21  37  55  74 102 139 176 217 269 325
#     4  10  21  37  55  76 104 140 181 226 273 322
#     4   9  16  28  51  79 104 133 170 213 263 319
#     4   8  16  32  50  71 102 133 163 206 259 311
#     4  10  20  34  53  76 102 132 170 215 262 311
#
# _framework density 9.8765429999999999
#
# number of rings (size 3 to 8) (size 9 to 14) (size 15 to 20)
#    0.000    2.500    0.000    2.625    1.750    2.000 
#    0.000    3.750    0.000    0.750    0.000    0.000 
#    0.000    0.000    0.000    0.000    0.000    0.000 
#
# Total GULP energy -178177.936756 kJ/mol
# GULP energy per Si atom -5568.060524 kJ/mol
# Density = 0.985406 g / cm^3
# Si number density = 9.876543 Si / 1000 Ang^3
#
#
#
# Elastic Constant Matrix: (Units=GPa)
#
#
# Indices 1 2 3 4 5 6 
#
# 1 22.7631 13.2968 61.0735 0.0000 0.0000 0.0000
# 2 13.2968 38.4934 31.5777 0.0000 0.0000 0.0000
# 3 61.0735 31.5777 77.1415 0.0000 0.0000 0.0000
# 4 0.0000 0.0000 0.0000 -2.8932 0.0000 0.0000
# 5 0.0000 0.0000 0.0000 0.0000 28.8998 0.0000
# 6 0.0000 0.0000 0.0000 0.0000 0.0000 12.1463
#
#
#
# Elastic Compliance Matrix: (Units=1/GPa)
#
#
# Indices 1 2 3 4 5 6 
#
# 1 -0.032314 -0.014792 0.031638 0.000000 0.000000 0.000000
# 2 -0.014792 0.032342 -0.001528 0.000000 0.000000 0.000000
# 3 0.031638 -0.001528 -0.011459 0.000000 0.000000 0.000000
# 4 0.000000 0.000000 0.000000 -0.345633 0.000000 0.000000
# 5 0.000000 0.000000 0.000000 0.000000 0.034602 0.000000
# 6 0.000000 0.000000 0.000000 0.000000 0.000000 0.082329
#
#
# Mechanical properties :
#
#
# Convention : Reuss Voigt Hill
#
# Bulk Modulus (GPa) = 52.07071 38.92154 45.49613
# Shear Modulus (GPa) = -18.91308 9.79392 -4.55958
#
# Velocity S-wave (km/s) = -3.09767 2.22911 -1.52095
# Velocity P-wave (km/s) = 3.69107 5.13537 4.47191
#
# Compressibility (1/GPa) = 0.01920465
#
# Stress axis : x y z
#
# Youngs Moduli (GPa) = -30.94662 30.91989 -87.26558
#
# Poissons Ratio (x) = 0.45736 2.76091
# Poissons Ratio (y) = -0.45776 -0.13336
# Poissons Ratio (z) = 0.97909 0.04725
#
# Static dielectric constant tensor:
#      x y z
#    x 1.708630 0.000000 0.000000 
#    y 0.000000 1.754100 0.000000 
#    z 0.000000 0.000000 1.726370 
# 
# From -- ./inp_files/8583.got.cif
#   From: 2010.05.17/outbox.ucp.g08.bks.cvg/sg38_5_cif.got.tgz:8583.got - 2010.06.11 10:39:43.
