data_PCOD9359642
_publ_section_title
;
Structure prediction by ZEFSAII (Michael W. Deem and Ramdas Pophale) SiO2 
 PCOD9359642
Probable space group: A M M 2
;
_chemical_formula_sum "Si O2"
_cell_formula_units_Z 24
_cell_length_a 18.000000
_cell_length_b 9.000000
_cell_length_c 15.000000
_cell_angle_alpha 90.000000
_cell_angle_beta 90.000000
_cell_angle_gamma 90.000000
_cell_volume 2430.000000
_symmetry_space_group_name_H-M "A M M 2"
_symmetry_group_IT_number 38
_symmetry_cell_setting 'orthorhombic'
loop_
_space_group_symop_operation_xyz
x,y,z
-x,-y,z
-x,y,z
x,-y,z
x,1/2+y,1/2+z
-x,1/2-y,1/2+z
-x,1/2+y,1/2+z
x,1/2-y,1/2+z
loop_
_atom_site_type_symbol
_atom_site_label
_atom_site_fract_x
_atom_site_fract_y
_atom_site_fract_z
Si Si1 0.584905 0.321226 0.451440
Si Si2 0.000000 0.669346 0.595860
Si Si3 0.845922 0.675998 0.352328
Si Si4 0.000000 0.334540 0.807141
Si Si5 0.687384 0.820734 0.793294
Si Si6 0.151888 0.324210 0.036716
Si Si7 0.684534 0.672984 0.096746
O O1 0.500000 0.266939 0.458995
O O2 0.581583 0.500000 0.446616
O O3 0.629202 0.263943 0.365028
O O4 0.638775 0.273947 0.530688
O O5 0.000000 0.653963 0.701364
O O6 0.074083 0.760355 0.571781
O O7 0.000000 0.500000 0.556630
O O8 0.853619 0.500000 0.338591
O O9 0.924559 0.751022 0.331916
O O10 0.772290 0.733837 0.302581
O O11 0.829536 0.720983 0.453169
O O12 0.000000 0.500000 0.847473
O O13 0.658184 0.793807 0.695544
O O14 0.693376 0.000000 0.805013
O O15 0.143700 0.500000 0.015190
O O16 0.225782 0.310624 0.096175
O O17 0.670809 0.500000 0.074192
#
# Coordination Sequence:
#
# PCOD9359642 Si02
#       7
#     8   4   8   4   8   8   8
#     4  10  21  39  62  88 120 155 193 242 298 356
#     4  11  24  39  56  81 115 159 204 244 295 356
#     4  11  21  37  61  84 113 155 203 244 292 357
#     4  11  24  39  54  81 119 153 196 250 301 348
#     4   9  19  37  61  88 117 155 199 240 288 352
#     4  11  22  37  58  85 119 154 197 251 300 345
#     4  10  21  38  62  90 119 155 198 244 296 352
#
# _framework density 9.8765429999999999
#
# number of rings (size 3 to 8) (size 9 to 14) (size 15 to 20)
#    0.000    1.667    1.667    3.000    0.000    4.333 
#    0.000    4.167    0.000    0.000    0.000    0.000 
#    0.000    0.000    0.000    0.000    0.000    0.000 
#
# Total GULP energy -133785.863006 kJ/mol
# GULP energy per Si atom -5574.410959 kJ/mol
# Density = 0.985406 g / cm^3
# Si number density = 9.876543 Si / 1000 Ang^3
#
#
#
# Elastic Constant Matrix: (Units=GPa)
#
#
# Indices 1 2 3 4 5 6 
#
# 1 128.3580 35.6891 31.0605 0.0000 0.0000 0.0000
# 2 35.6891 41.8963 -5.9547 0.0000 0.0000 0.0000
# 3 31.0605 -5.9547 4.1184 0.0000 0.0000 0.0000
# 4 0.0000 0.0000 0.0000 5.0670 0.0000 0.0000
# 5 0.0000 0.0000 0.0000 0.0000 6.0122 0.0000
# 6 0.0000 0.0000 0.0000 0.0000 0.0000 24.0699
#
#
#
# Elastic Compliance Matrix: (Units=1/GPa)
#
#
# Indices 1 2 3 4 5 6 
#
# 1 -0.003322 0.008043 0.036680 0.000000 0.000000 0.000000
# 2 0.008043 0.010567 -0.045379 0.000000 0.000000 0.000000
# 3 0.036680 -0.045379 -0.099440 0.000000 0.000000 0.000000
# 4 0.000000 0.000000 0.000000 0.197355 0.000000 0.000000
# 5 0.000000 0.000000 0.000000 0.000000 0.166330 0.000000
# 6 0.000000 0.000000 0.000000 0.000000 0.000000 0.041546
#
#
# Mechanical properties :
#
#
# Convention : Reuss Voigt Hill
#
# Bulk Modulus (GPa) = -10.69449 32.88473 11.09512
# Shear Modulus (GPa) = 17.65658 14.60166 16.12912
#
# Velocity S-wave (km/s) = 2.99300 2.72179 2.86061
# Velocity P-wave (km/s) = 2.55308 5.15379 4.06693
#
# Compressibility (1/GPa) = -0.09350613
#
# Stress axis : x y z
#
# Youngs Moduli (GPa) = -301.06448 94.63018 -10.05636
#
# Poissons Ratio (x) = -0.76109 0.36887
# Poissons Ratio (y) = 2.42141 -0.45635
# Poissons Ratio (z) = 11.04309 4.29424
#
# Static dielectric constant tensor:
#      x y z
#    x 1.872670 0.000000 0.000000 
#    y 0.000000 1.698320 0.000000 
#    z 0.000000 0.000000 1.738130 
# 
# From -- ./inp_files/14998.got.cif
#   From: 2010.05.17/outbox.ucp.g08.bks.cvg/sg38_8_cif.got.tgz:14998.got - 2010.06.11 10:39:43.
