data_PCOD9359788
_publ_section_title
;
Structure prediction by ZEFSAII (Michael W. Deem and Ramdas Pophale) SiO2 
 PCOD9359788
Probable space group: A B M 2
;
_chemical_formula_sum "Si O2"
_cell_formula_units_Z 44
_cell_length_a 7.432203
_cell_length_b 7.418111
_cell_length_c 30.964696
_cell_angle_alpha 90.000000
_cell_angle_beta 90.000000
_cell_angle_gamma 90.000000
_cell_volume 1707.173700
_symmetry_space_group_name_H-M "A B M 2"
_symmetry_group_IT_number 39
_symmetry_cell_setting 'orthorhombic'
loop_
_space_group_symop_operation_xyz
x,y,z
-x,-y,z
-x,1/2+y,z
x,1/2-y,z
x,1/2+y,1/2+z
-x,1/2-y,1/2+z
-x,y,1/2+z
x,-y,1/2+z
loop_
_atom_site_type_symbol
_atom_site_label
_atom_site_fract_x
_atom_site_fract_y
_atom_site_fract_z
Si Si1 0.782800 0.533581 0.005130
Si Si2 0.295874 0.036797 0.287783
Si Si3 0.198612 0.552520 0.378542
Si Si4 0.654074 0.250000 0.933628
Si Si5 0.214960 0.535278 0.600513
Si Si6 0.212961 0.535047 0.692710
O O1 0.752994 0.750000 0.999541
O O2 0.722528 0.474804 0.053457
O O3 0.000000 0.500000 0.002178
O O4 0.687060 0.409764 0.970172
O O5 0.254859 0.250000 0.287328
O O6 0.275063 0.964224 0.239050
O O7 0.500000 0.000000 0.299816
O O8 0.188217 0.948891 0.326761
O O9 0.247688 0.750000 0.394657
O O10 0.330393 0.403739 0.395635
O O11 0.000000 0.500000 0.395483
O O12 0.240441 0.750000 0.601015
O O13 0.284902 0.463147 0.646644
O O14 0.000000 0.500000 0.600657
O O15 0.246139 0.750000 0.693058
O O16 0.000000 0.500000 0.692168
#
# Coordination Sequence:
#
# PCOD9359788 Si02
#       6
#     8   8   8   4   8   8
#     4  10  18  27  46  74 115 156 190 230 289 341
#     4  11  23  41  60  84 116 154 198 247 296 354
#     4  12  24  39  59  86 122 155 196 244 300 351
#     4  12  22  34  52  80 118 156 196 244 288 352
#     4   8  15  27  43  74 111 150 183 223 280 346
#     4   9  18  33  57  83 118 151 189 232 289 346
#
# _framework density 25.773593000000002
#
# number of rings (size 3 to 8) (size 9 to 14) (size 15 to 20)
#    0.000    1.818    2.727    2.182    1.273    2.909 
#    0.000    0.000    0.000    0.000    0.000    1.273 
#    5.455    0.000    0.000    0.000    0.000    0.000 
#
# Total GULP energy -122584.352183 kJ/mol
# GULP energy per Si atom -5572.016008 kJ/mol
# Density = 2.571493 g / cm^3
# Si number density = 25.773593 Si / 1000 Ang^3
#
#
#
# Elastic Constant Matrix: (Units=GPa)
#
#
# Indices 1 2 3 4 5 6 
#
# 1 72.1001 4.2295 -0.1690 0.0000 0.0000 0.0000
# 2 4.2295 196.3713 46.8951 0.0000 0.0000 0.0000
# 3 -0.1690 46.8951 234.0369 0.0000 0.0000 0.0000
# 4 0.0000 0.0000 0.0000 64.6941 0.0000 0.0000
# 5 0.0000 0.0000 0.0000 0.0000 -109.8200 0.0000
# 6 0.0000 0.0000 0.0000 0.0000 0.0000 13.2091
#
#
#
# Elastic Compliance Matrix: (Units=1/GPa)
#
#
# Indices 1 2 3 4 5 6 
#
# 1 0.013888 -0.000317 0.000073 0.000000 0.000000 0.000000
# 2 -0.000317 0.005356 -0.001073 0.000000 0.000000 0.000000
# 3 0.000073 -0.001073 0.004488 0.000000 0.000000 0.000000
# 4 0.000000 0.000000 0.000000 0.015457 0.000000 0.000000
# 5 0.000000 0.000000 0.000000 0.000000 -0.009106 0.000000
# 6 0.000000 0.000000 0.000000 0.000000 0.000000 0.075706
#
#
# Mechanical properties :
#
#
# Convention : Reuss Voigt Hill
#
# Bulk Modulus (GPa) = 47.39613 67.15772 57.27693
# Shear Modulus (GPa) = 43.30692 23.72014 33.51353
#
# Velocity S-wave (km/s) = 4.10357 3.03698 3.60989
# Velocity P-wave (km/s) = 6.39388 6.19766 6.29654
#
# Compressibility (1/GPa) = 0.02109877
#
# Stress axis : x y z
#
# Youngs Moduli (GPa) = 72.00276 186.72255 222.81860
#
# Poissons Ratio (x) = 0.05913 -0.01637
# Poissons Ratio (y) = 0.02280 0.23916
# Poissons Ratio (z) = -0.00529 0.20042
#
# Static dielectric constant tensor:
#      x y z
#    x 2.062340 0.000000 0.000000 
#    y 0.000000 1.895550 0.000000 
#    z 0.000000 0.000000 2.063790 
# 
# From -- ./inp_files/17480.got.cif
#   From: 2010.05.17/outbox.cif.g08.bks.cpg/sg39_9_cif.got.tgz:17480.got - 2010.06.03 18:22:40.
