data_PCOD9359987
_publ_section_title
;
Structure prediction by ZEFSAII (Michael W. Deem and Ramdas Pophale) SiO2 
 PCOD9359987
Probable space group: A B M 2
;
_chemical_formula_sum "Si O2"
_cell_formula_units_Z 32
_cell_length_a 8.045399
_cell_length_b 5.639769
_cell_length_c 28.604359
_cell_angle_alpha 90.000000
_cell_angle_beta 90.000000
_cell_angle_gamma 90.000000
_cell_volume 1297.899674
_symmetry_space_group_name_H-M "A B M 2"
_symmetry_group_IT_number 39
_symmetry_cell_setting 'orthorhombic'
loop_
_space_group_symop_operation_xyz
x,y,z
-x,-y,z
-x,1/2+y,z
x,1/2-y,z
x,1/2+y,1/2+z
-x,1/2-y,1/2+z
-x,y,1/2+z
x,-y,1/2+z
loop_
_atom_site_type_symbol
_atom_site_label
_atom_site_fract_x
_atom_site_fract_y
_atom_site_fract_z
Si Si1 0.586576 0.750000 0.626740
Si Si2 0.314951 0.750000 0.757816
Si Si3 0.244131 0.750000 0.497381
Si Si4 0.975090 0.250000 0.582021
Si Si5 0.216663 0.750000 0.864376
Si Si6 0.158801 0.750000 0.397938
Si Si7 0.702797 0.250000 0.021207
Si Si8 0.704614 0.750000 0.722150
O O1 0.500000 0.500000 0.636743
O O2 0.618278 0.750000 0.571799
O O3 0.726933 0.750000 0.666319
O O4 0.298149 0.750000 0.813488
O O5 0.505921 0.750000 0.737816
O O6 0.233997 0.502587 0.741067
O O7 0.194561 0.750000 0.552850
O O8 0.118815 0.750000 0.453415
O O9 0.326750 0.492755 0.494316
O O10 0.000000 0.500000 0.606625
O O11 0.104110 0.250000 0.538247
O O12 0.255577 0.493342 0.886891
O O13 0.013108 0.750000 0.868587
#
# Coordination Sequence:
#
# PCOD9359987 Si02
#       8
#     4   4   4   4   4   4   4   4
#     4  12  21  38  58  90 111 137 199 240 280 321
#     4  10  18  35  55  89 109 140 184 226 309 325
#     4  10  19  34  54  82 115 150 190 223 271 331
#     4   8  16  27  47  73 101 141 173 218 257 315
#     4  10  21  31  53  89 117 142 183 244 271 336
#     4  10  21  33  53  87 116 146 191 227 264 333
#     4  10  21  31  53  87 108 151 181 238 276 319
#     4  10  19  35  61  83 107 141 185 238 274 360
#
# _framework density 24.655218999999999
#
# number of rings (size 3 to 8) (size 9 to 14) (size 15 to 20)
#    0.000    2.000    2.500    2.250   10.500    0.000 
#    0.000    0.000    0.000    0.000  123.500    0.000 
#    0.000    0.000    0.000    0.000    0.000    0.000 
#
# Total GULP energy -89125.624144 kJ/mol
# GULP energy per Si atom -5570.351509 kJ/mol
# Density = 2.459910 g / cm^3
# Si number density = 24.655219 Si / 1000 Ang^3
#
#
#
# Elastic Constant Matrix: (Units=GPa)
#
#
# Indices 1 2 3 4 5 6 
#
# 1 38.6104 9.6604 9.5154 0.0000 0.0000 0.0000
# 2 9.6604 334.3961 51.9148 0.0000 0.0000 0.0000
# 3 9.5154 51.9148 100.5797 0.0000 0.0000 0.0000
# 4 0.0000 0.0000 0.0000 83.9774 0.0000 0.0000
# 5 0.0000 0.0000 0.0000 0.0000 0.6436 0.0000
# 6 0.0000 0.0000 0.0000 0.0000 0.0000 -10.3519
#
#
#
# Elastic Compliance Matrix: (Units=1/GPa)
#
#
# Indices 1 2 3 4 5 6 
#
# 1 0.026570 -0.000410 -0.002302 0.000000 0.000000 0.000000
# 2 -0.000410 0.003257 -0.001642 0.000000 0.000000 0.000000
# 3 -0.002302 -0.001642 0.011008 0.000000 0.000000 0.000000
# 4 0.000000 0.000000 0.000000 0.011908 0.000000 0.000000
# 5 0.000000 0.000000 0.000000 0.000000 1.553867 0.000000
# 6 0.000000 0.000000 0.000000 0.000000 0.000000 -0.096600
#
#
# Mechanical properties :
#
#
# Convention : Reuss Voigt Hill
#
# Bulk Modulus (GPa) = 31.12767 68.41859 49.77313
# Shear Modulus (GPa) = 3.26920 41.68684 22.47802
#
# Velocity S-wave (km/s) = 1.15276 4.11638 3.02270
# Velocity P-wave (km/s) = 3.79795 7.09952 5.69331
#
# Compressibility (1/GPa) = 0.03212575
#
# Stress axis : x y z
#
# Youngs Moduli (GPa) = 37.63687 307.00186 90.84381
#
# Poissons Ratio (x) = 0.12593 0.20911
# Poissons Ratio (y) = 0.01544 0.14921
# Poissons Ratio (z) = 0.08664 0.50424
#
# Static dielectric constant tensor:
#      x y z
#    x 2.069990 0.000000 0.000000 
#    y 0.000000 1.990210 0.000000 
#    z 0.000000 0.000000 1.862690 
# 
# From -- ./inp_files/14316.got.cif
#   From: 2010.05.17/outbox.cif.g08.bks.cpg/sg39_8_cif.got.tgz:14316.got - 2010.06.03 18:22:40.
