data_PCOD9359799
_publ_section_title
;
Structure prediction by ZEFSAII (Michael W. Deem and Ramdas Pophale) SiO2 
 PCOD9359799
Probable space group: A B M 2
;
_chemical_formula_sum "Si O2"
_cell_formula_units_Z 56
_cell_length_a 24.652747
_cell_length_b 24.004051
_cell_length_c 5.011522
_cell_angle_alpha 90.000000
_cell_angle_beta 90.000000
_cell_angle_gamma 90.000000
_cell_volume 2965.647307
_symmetry_space_group_name_H-M "A B M 2"
_symmetry_group_IT_number 39
_symmetry_cell_setting 'orthorhombic'
loop_
_space_group_symop_operation_xyz
x,y,z
-x,-y,z
-x,1/2+y,z
x,1/2-y,z
x,1/2+y,1/2+z
-x,1/2-y,1/2+z
-x,y,1/2+z
x,-y,1/2+z
loop_
_atom_site_type_symbol
_atom_site_label
_atom_site_fract_x
_atom_site_fract_y
_atom_site_fract_z
Si Si1 0.350105 0.967991 0.168240
Si Si2 0.967226 0.182227 0.385219
Si Si3 0.850941 0.817792 0.670253
Si Si4 0.213893 0.182865 0.168926
Si Si5 0.671013 0.648955 0.403066
Si Si6 0.535485 0.081358 0.280841
Si Si7 0.394681 0.686239 0.386409
O O1 0.414620 0.957121 0.192928
O O2 0.334442 0.981899 0.470536
O O3 0.328764 0.912487 0.028986
O O4 0.965016 0.250000 0.386152
O O5 0.909088 0.162963 0.277965
O O6 0.985499 0.165595 0.679386
O O7 0.852832 0.750000 0.672420
O O8 0.833688 0.833969 0.374052
O O9 0.803715 0.835331 0.874966
O O10 0.216429 0.250000 0.166395
O O11 0.270897 0.162806 0.280654
O O12 0.651529 0.685430 0.656361
O O13 0.628901 0.659429 0.159406
O O14 0.513267 0.072585 0.576314
O O15 0.559020 0.144616 0.277508
O O16 0.411540 0.750000 0.433791
#
# Coordination Sequence:
#
# PCOD9359799 Si02
#       7
#     8   8   8   8   8   8   8
#     4  11  23  40  59  78 101 129 164 209 253 300
#     4   9  15  23  35  51  78 119 166 210 243 276
#     4   9  17  26  38  61  89 122 166 209 247 285
#     4  10  18  29  46  67  95 126 161 207 249 290
#     4  11  22  37  55  78 102 133 175 208 251 308
#     4  11  23  38  56  81 104 126 161 197 238 294
#     4  11  22  37  56  78 108 139 167 201 241 297
#
# _framework density 18.882891000000001
#
# number of rings (size 3 to 8) (size 9 to 14) (size 15 to 20)
#    0.000    1.714    0.000    7.286    0.000    6.857 
#    0.000    0.000    0.000    0.000    0.000    0.000 
#    0.000    0.000    0.000    0.000    0.000   50.000 
#
# Total GULP energy -156271.737496 kJ/mol
# GULP energy per Si atom -5581.133482 kJ/mol
# Density = 1.883991 g / cm^3
# Si number density = 18.882891 Si / 1000 Ang^3
#
#
#
# Elastic Constant Matrix: (Units=GPa)
#
#
# Indices 1 2 3 4 5 6 
#
# 1 31.7395 -3.3535 -4.2509 0.0000 0.0000 0.0000
# 2 -3.3535 45.1496 16.3222 0.0000 0.0000 0.0000
# 3 -4.2509 16.3222 76.6407 0.0000 0.0000 0.0000
# 4 0.0000 0.0000 0.0000 13.1361 0.0000 0.0000
# 5 0.0000 0.0000 0.0000 0.0000 23.7158 0.0000
# 6 0.0000 0.0000 0.0000 0.0000 0.0000 7.6604
#
#
#
# Elastic Compliance Matrix: (Units=1/GPa)
#
#
# Indices 1 2 3 4 5 6 
#
# 1 0.031888 0.001873 0.001370 0.000000 0.000000 0.000000
# 2 0.001873 0.024106 -0.005030 0.000000 0.000000 0.000000
# 3 0.001370 -0.005030 0.014195 0.000000 0.000000 0.000000
# 4 0.000000 0.000000 0.000000 0.076126 0.000000 0.000000
# 5 0.000000 0.000000 0.000000 0.000000 0.042166 0.000000
# 6 0.000000 0.000000 0.000000 0.000000 0.000000 0.130541
#
#
# Mechanical properties :
#
#
# Convention : Reuss Voigt Hill
#
# Bulk Modulus (GPa) = 15.01161 18.99616 17.00389
# Shear Modulus (GPa) = 14.50110 18.55659 16.52885
#
# Velocity S-wave (km/s) = 2.77420 3.13824 2.96181
# Velocity P-wave (km/s) = 4.26950 4.81801 4.55202
#
# Compressibility (1/GPa) = 0.06661513
#
# Stress axis : x y z
#
# Youngs Moduli (GPa) = 31.35993 41.48324 70.44680
#
# Poissons Ratio (x) = -0.07771 -0.09649
# Poissons Ratio (y) = -0.05875 0.35435
# Poissons Ratio (z) = -0.04295 0.20866
#
# Static dielectric constant tensor:
#      x y z
#    x 1.669400 0.000000 0.000000 
#    y 0.000000 1.664150 0.000000 
#    z 0.000000 0.000000 1.666390 
# 
# From -- ./inp_files/1094.got.cif
#   From: 2010.05.17/outbox.cif.g08.bks.cpg/sg39_1_cif.got.tgz:1094.got - 2010.06.03 18:22:40.
