data_PCOD9359368
_publ_section_title
;
Structure prediction by ZEFSAII (Michael W. Deem and Ramdas Pophale) SiO2 
 PCOD9359368
Probable space group: A M M 2
;
_chemical_formula_sum "Si O2"
_cell_formula_units_Z 64
_cell_length_a 24.376410
_cell_length_b 8.913681
_cell_length_c 15.812312
_cell_angle_alpha 90.000000
_cell_angle_beta 90.000000
_cell_angle_gamma 90.000000
_cell_volume 3435.755169
_symmetry_space_group_name_H-M "A M M 2"
_symmetry_group_IT_number 38
_symmetry_cell_setting 'orthorhombic'
loop_
_space_group_symop_operation_xyz
x,y,z
-x,-y,z
-x,y,z
x,-y,z
x,1/2+y,1/2+z
-x,1/2-y,1/2+z
-x,1/2+y,1/2+z
x,1/2-y,1/2+z
loop_
_atom_site_type_symbol
_atom_site_label
_atom_site_fract_x
_atom_site_fract_y
_atom_site_fract_z
Si Si1 0.062722 0.682438 0.602010
Si Si2 0.255946 0.818846 0.440880
Si Si3 0.064953 0.820290 0.294484
Si Si4 0.672405 0.321069 0.778141
Si Si5 0.561649 0.321743 0.542497
Si Si6 0.327639 0.821132 0.603691
Si Si7 0.561636 0.821730 0.839300
Si Si8 0.864402 0.680174 0.443620
O O1 0.062005 0.500000 0.601797
O O2 0.077866 0.726441 0.697757
O O3 0.103802 0.731045 0.528749
O O4 0.000000 0.731452 0.584824
O O5 0.290304 0.774853 0.357697
O O6 0.290508 0.775210 0.523903
O O7 0.196384 0.746335 0.441315
O O8 0.251015 0.000000 0.440533
O O9 0.101137 0.737109 0.363383
O O10 0.000000 0.792553 0.307906
O O11 0.073587 0.000000 0.301146
O O12 0.673078 0.500000 0.772331
O O13 0.692378 0.250453 0.690780
O O14 0.610608 0.265696 0.795531
O O15 0.500000 0.276055 0.568250
O O16 0.567429 0.500000 0.558459
O O17 0.610532 0.234066 0.586315
O O18 0.565695 0.300269 0.440899
O O19 0.326952 0.000000 0.609849
O O20 0.500000 0.775809 0.813552
O O21 0.567320 0.000000 0.823341
O O22 0.862383 0.500000 0.443557
#
# Coordination Sequence:
#
# PCOD9359368 Si02
#       8
#     8   8   8   8   8   8   8   8
#     4   8  16  33  56  83 116 151 185 222 269 329
#     4  10  24  44  59  77 112 151 192 238 284 339
#     4   9  18  35  59  85 117 156 191 226 275 333
#     4  11  23  40  61  84 110 148 193 237 288 346
#     4   9  18  34  58  87 117 148 183 228 283 344
#     4  11  23  40  61  85 112 147 190 239 291 342
#     4   9  18  34  58  87 117 147 181 229 286 341
#     4  11  22  35  58  87 114 148 191 238 284 330
#
# _framework density 18.627635999999999
#
# number of rings (size 3 to 8) (size 9 to 14) (size 15 to 20)
#    0.000    2.250    1.250    3.000    0.000    4.750 
#    0.000    6.250    0.000    1.500    0.000    0.000 
#    0.000    0.000    0.000    0.000    0.000    0.000 
#
# Total GULP energy -178690.875765 kJ/mol
# GULP energy per Si atom -5584.089868 kJ/mol
# Density = 1.858524 g / cm^3
# Si number density = 18.627636 Si / 1000 Ang^3
#
#
#
# Elastic Constant Matrix: (Units=GPa)
#
#
# Indices 1 2 3 4 5 6 
#
# 1 127.3033 43.7197 100.1362 0.0000 0.0000 0.0000
# 2 43.7197 30.0024 50.6881 0.0000 0.0000 0.0000
# 3 100.1362 50.6881 160.5900 0.0000 0.0000 0.0000
# 4 0.0000 0.0000 0.0000 28.7872 0.0000 0.0000
# 5 0.0000 0.0000 0.0000 0.0000 -4.0085 0.0000
# 6 0.0000 0.0000 0.0000 0.0000 0.0000 26.4528
#
#
#
# Elastic Compliance Matrix: (Units=1/GPa)
#
#
# Indices 1 2 3 4 5 6 
#
# 1 0.018387 -0.015905 -0.006445 0.000000 0.000000 0.000000
# 2 -0.015905 0.085169 -0.016965 0.000000 0.000000 0.000000
# 3 -0.006445 -0.016965 0.015601 0.000000 0.000000 0.000000
# 4 0.000000 0.000000 0.000000 0.034738 0.000000 0.000000
# 5 0.000000 0.000000 0.000000 0.000000 -0.249468 0.000000
# 6 0.000000 0.000000 0.000000 0.000000 0.000000 0.037803
#
#
# Mechanical properties :
#
#
# Convention : Reuss Voigt Hill
#
# Bulk Modulus (GPa) = 24.67501 78.55373 51.61437
# Shear Modulus (GPa) = 145.48074 18.46976 81.97525
#
# Velocity S-wave (km/s) = 8.84697 3.15226 6.64100
# Velocity P-wave (km/s) = 10.84591 7.45058 9.30443
#
# Compressibility (1/GPa) = 0.04052683
#
# Stress axis : x y z
#
# Youngs Moduli (GPa) = 54.38530 11.74134 64.09989
#
# Poissons Ratio (x) = 0.18675 0.41314
# Poissons Ratio (y) = 0.86501 1.08744
# Poissons Ratio (z) = 0.35052 0.19919
#
# Static dielectric constant tensor:
#      x y z
#    x 1.613620 0.000000 0.000000 
#    y 0.000000 1.621630 0.000000 
#    z 0.000000 0.000000 1.653810 
# 
# From -- ./inp_files/15866.got.cif
#   From: 2010.05.17/outbox.cif.g08.bks.cpg/sg38_8_cif.got.tgz:15866.got - 2010.06.03 18:07:57.
