data_PCOD9359318
_publ_section_title
;
Structure prediction by ZEFSAII (Michael W. Deem and Ramdas Pophale) SiO2 
 PCOD9359318
Probable space group: A M M 2
;
_chemical_formula_sum "Si O2"
_cell_formula_units_Z 40
_cell_length_a 15.417969
_cell_length_b 14.495288
_cell_length_c 10.143729
_cell_angle_alpha 90.000000
_cell_angle_beta 90.000000
_cell_angle_gamma 90.000000
_cell_volume 2267.000703
_symmetry_space_group_name_H-M "A M M 2"
_symmetry_group_IT_number 38
_symmetry_cell_setting 'orthorhombic'
loop_
_space_group_symop_operation_xyz
x,y,z
-x,-y,z
-x,y,z
x,-y,z
x,1/2+y,1/2+z
-x,1/2-y,1/2+z
-x,1/2+y,1/2+z
x,1/2-y,1/2+z
loop_
_atom_site_type_symbol
_atom_site_label
_atom_site_fract_x
_atom_site_fract_y
_atom_site_fract_z
Si Si1 0.144211 0.750229 0.721510
Si Si2 0.000000 0.610062 0.821210
Si Si3 0.266028 0.259438 0.471136
Si Si4 0.402642 0.609949 0.586043
Si Si5 0.000000 0.108953 0.639774
Si Si6 0.399336 0.390133 0.897776
O O1 0.195489 0.737093 0.586325
O O2 0.214314 0.763864 0.835492
O O3 0.083177 0.663400 0.761016
O O4 0.082248 0.838415 0.701213
O O5 0.000000 0.500000 0.794410
O O6 0.000000 0.622319 0.980428
O O7 0.332197 0.342325 0.496049
O O8 0.327152 0.168615 0.472959
O O9 0.500000 0.640117 0.550791
O O10 0.398565 0.500000 0.574738
O O11 0.389228 0.631361 0.741376
O O12 0.000000 0.000000 0.665591
O O13 0.500000 0.369329 0.933173
O O14 0.387123 0.500000 0.914350
#
# Coordination Sequence:
#
# PCOD9359318 Si02
#       6
#     8   4   8   8   4   8
#     4  11  24  38  60  92 116 145 191 241 286 352
#     4  10  22  43  66  83 112 155 191 230 290 358
#     4  12  21  37  59  89 122 147 190 242 291 335
#     4   9  19  36  57  83 118 160 200 236 281 337
#     4  10  22  43  64  83 116 153 185 236 300 348
#     4   9  19  36  58  84 116 159 203 235 276 340
#
# _framework density 17.644458
#
# number of rings (size 3 to 8) (size 9 to 14) (size 15 to 20)
#    0.000    1.800    4.000    1.800    0.000    3.200 
#    0.000    1.000    0.000    2.400    0.000    0.000 
#    0.000    0.000    0.000    0.000    0.000    0.000 
#
# Total GULP energy -111592.537233 kJ/mol
# GULP energy per Si atom -5579.626862 kJ/mol
# Density = 1.760430 g / cm^3
# Si number density = 17.644458 Si / 1000 Ang^3
#
#
#
# Elastic Constant Matrix: (Units=GPa)
#
#
# Indices 1 2 3 4 5 6 
#
# 1 90.7483 50.6967 6.7232 0.0000 0.0000 0.0000
# 2 50.6967 98.4011 23.9097 0.0000 0.0000 0.0000
# 3 6.7232 23.9097 25.5872 0.0000 0.0000 0.0000
# 4 0.0000 0.0000 0.0000 25.5609 0.0000 0.0000
# 5 0.0000 0.0000 0.0000 0.0000 27.4422 0.0000
# 6 0.0000 0.0000 0.0000 0.0000 0.0000 32.8101
#
#
#
# Elastic Compliance Matrix: (Units=1/GPa)
#
#
# Indices 1 2 3 4 5 6 
#
# 1 0.015861 -0.009262 0.004487 0.000000 0.000000 0.000000
# 2 -0.009262 0.018556 -0.014906 0.000000 0.000000 0.000000
# 3 0.004487 -0.014906 0.051832 0.000000 0.000000 0.000000
# 4 0.000000 0.000000 0.000000 0.039122 0.000000 0.000000
# 5 0.000000 0.000000 0.000000 0.000000 0.036440 0.000000
# 6 0.000000 0.000000 0.000000 0.000000 0.000000 0.030478
#
#
# Mechanical properties :
#
#
# Convention : Reuss Voigt Hill
#
# Bulk Modulus (GPa) = 21.32762 41.93287 31.63024
# Shear Modulus (GPa) = 20.21988 26.05646 23.13817
#
# Velocity S-wave (km/s) = 3.38888 3.84702 3.62519
# Velocity P-wave (km/s) = 5.23702 6.59923 5.95719
#
# Compressibility (1/GPa) = 0.04688756
#
# Stress axis : x y z
#
# Youngs Moduli (GPa) = 63.04614 53.88995 19.29318
#
# Poissons Ratio (x) = 0.49914 -0.08657
# Poissons Ratio (y) = 0.58395 0.28759
# Poissons Ratio (z) = -0.28291 0.80329
#
# Static dielectric constant tensor:
#      x y z
#    x 1.609810 0.000000 0.000000 
#    y 0.000000 1.582300 0.000000 
#    z 0.000000 0.000000 1.578580 
# 
# From -- ./inp_files/5248.got.cif
#   From: 2010.05.17/outbox.cif.g08.bks.cpg/sg38_3_cif.got.tgz:5248.got - 2010.06.03 18:07:57.
