data_PCOD9359676
_publ_section_title
;
Structure prediction by ZEFSAII (Michael W. Deem and Ramdas Pophale) SiO2 
 PCOD9359676
Probable space group: A B M 2
;
_chemical_formula_sum "Si O2"
_cell_formula_units_Z 64
_cell_length_a 35.004813
_cell_length_b 14.141982
_cell_length_c 5.346713
_cell_angle_alpha 90.000000
_cell_angle_beta 90.000000
_cell_angle_gamma 90.000000
_cell_volume 2646.823091
_symmetry_space_group_name_H-M "A B M 2"
_symmetry_group_IT_number 39
_symmetry_cell_setting 'orthorhombic'
loop_
_space_group_symop_operation_xyz
x,y,z
-x,-y,z
-x,1/2+y,z
x,1/2-y,z
x,1/2+y,1/2+z
-x,1/2-y,1/2+z
-x,y,1/2+z
x,-y,1/2+z
loop_
_atom_site_type_symbol
_atom_site_label
_atom_site_fract_x
_atom_site_fract_y
_atom_site_fract_z
Si Si1 0.515011 0.891948 0.596600
Si Si2 0.151876 0.134620 0.742097
Si Si3 0.978092 0.365334 0.643645
Si Si4 0.717944 0.635366 0.142462
Si Si5 0.398279 0.609546 0.276075
Si Si6 0.367526 0.102606 0.277086
Si Si7 0.108034 0.365326 0.242141
Si Si8 0.762113 0.865043 0.643225
O O1 0.510363 0.851515 0.320509
O O2 0.558135 0.885458 0.691453
O O3 0.500000 0.000000 0.564177
O O4 0.152964 0.250000 0.742240
O O5 0.124759 0.107087 0.511074
O O6 0.194911 0.100963 0.693006
O O7 0.135138 0.107147 0.011057
O O8 0.977044 0.250000 0.643294
O O9 0.935029 0.398639 0.692939
O O10 0.994795 0.392920 0.374647
O O11 0.714136 0.750000 0.143826
O O12 0.676244 0.594779 0.196675
O O13 0.745821 0.609406 0.371679
O O14 0.734868 0.607533 0.873909
O O15 0.386549 0.500008 0.310979
O O16 0.389765 0.650005 0.548215
O O17 0.372403 0.647232 0.049939
O O18 0.106979 0.250000 0.242532
O O19 0.763410 0.750000 0.646748
#
# Coordination Sequence:
#
# PCOD9359676 Si02
#       8
#     8   8   8   8   8   8   8   8
#     4  10  16  25  41  63  91 110 129 161 199 243
#     4   9  15  23  34  46  61  80 107 147 190 233
#     4   9  15  21  27  36  53  75  99 131 172 224
#     4  10  19  30  44  61  81 107 138 168 202 247
#     4  10  19  30  45  67  92 114 136 165 203 242
#     4  10  18  30  44  61  88 114 137 166 200 243
#     4   9  15  21  30  43  56  76 106 138 181 235
#     4   9  17  28  40  55  74  96 125 164 206 243
#
# _framework density 24.179932000000001
#
# number of rings (size 3 to 8) (size 9 to 14) (size 15 to 20)
#    0.000    2.500    0.000    6.000    0.000    6.000 
#    0.000    0.000    0.000    0.000    0.000    0.000 
#    0.000   37.000    0.000    0.000    0.000    0.000 
#
# Total GULP energy -179007.865742 kJ/mol
# GULP energy per Si atom -5593.995804 kJ/mol
# Density = 2.412490 g / cm^3
# Si number density = 24.179932 Si / 1000 Ang^3
#
#
#
# Elastic Constant Matrix: (Units=GPa)
#
#
# Indices 1 2 3 4 5 6 
#
# 1 65.4475 -11.2618 -38.2793 0.0000 0.0000 0.0000
# 2 -11.2618 94.6545 -10.6287 0.0000 0.0000 0.0000
# 3 -38.2793 -10.6287 111.9282 0.0000 0.0000 0.0000
# 4 0.0000 0.0000 0.0000 -26.8850 0.0000 0.0000
# 5 0.0000 0.0000 0.0000 0.0000 50.4362 0.0000
# 6 0.0000 0.0000 0.0000 0.0000 0.0000 12.0567
#
#
#
# Elastic Compliance Matrix: (Units=1/GPa)
#
#
# Indices 1 2 3 4 5 6 
#
# 1 0.020005 0.003182 0.007144 0.000000 0.000000 0.000000
# 2 0.003182 0.011185 0.002150 0.000000 0.000000 0.000000
# 3 0.007144 0.002150 0.011582 0.000000 0.000000 0.000000
# 4 0.000000 0.000000 0.000000 -0.037195 0.000000 0.000000
# 5 0.000000 0.000000 0.000000 0.000000 0.019827 0.000000
# 6 0.000000 0.000000 0.000000 0.000000 0.000000 0.082942
#
#
# Mechanical properties :
#
#
# Convention : Reuss Voigt Hill
#
# Bulk Modulus (GPa) = 14.76537 16.85451 15.80994
# Shear Modulus (GPa) = 47.18459 29.26824 38.22641
#
# Velocity S-wave (km/s) = 4.42225 3.48291 3.98039
# Velocity P-wave (km/s) = 5.67405 4.81246 5.26092
#
# Compressibility (1/GPa) = 0.06772603
#
# Stress axis : x y z
#
# Youngs Moduli (GPa) = 49.98627 89.40661 86.34261
#
# Poissons Ratio (x) = -0.28453 -0.61684
# Poissons Ratio (y) = -0.15908 -0.18568
# Poissons Ratio (z) = -0.35710 -0.19227
#
# Static dielectric constant tensor:
#      x y z
#    x 1.846700 0.000000 0.000000 
#    y 0.000000 1.825950 0.000000 
#    z 0.000000 0.000000 1.922410 
# 
# From -- ./inp_files/1459.got.cif
#   From: 2010.05.17/outbox.cif.g08.bks.cpg/sg39_1_cif.got.tgz:1459.got - 2010.06.03 18:22:40.
