data_PCOD9359954
_publ_section_title
;
Structure prediction by ZEFSAII (Michael W. Deem and Ramdas Pophale) SiO2 
 PCOD9359954
Probable space group: A B M 2
;
_chemical_formula_sum "Si O2"
_cell_formula_units_Z 64
_cell_length_a 16.807557
_cell_length_b 21.606396
_cell_length_c 8.971690
_cell_angle_alpha 90.000000
_cell_angle_beta 90.000000
_cell_angle_gamma 90.000000
_cell_volume 3258.075794
_symmetry_space_group_name_H-M "A B M 2"
_symmetry_group_IT_number 39
_symmetry_cell_setting 'orthorhombic'
loop_
_space_group_symop_operation_xyz
x,y,z
-x,-y,z
-x,1/2+y,z
x,1/2-y,z
x,1/2+y,1/2+z
-x,1/2-y,1/2+z
-x,y,1/2+z
x,-y,1/2+z
loop_
_atom_site_type_symbol
_atom_site_label
_atom_site_fract_x
_atom_site_fract_y
_atom_site_fract_z
Si Si1 0.902031 0.324349 0.505790
Si Si2 0.254074 0.138382 0.842842
Si Si3 0.496819 0.107353 0.524134
Si Si4 0.338258 0.459429 0.051818
Si Si5 0.211591 0.175067 0.525182
Si Si6 0.667866 0.082814 0.887816
Si Si7 0.944951 0.675244 0.332491
Si Si8 0.424991 0.182415 0.789624
O O1 0.908363 0.250000 0.508936
O O2 0.813324 0.338912 0.455239
O O3 0.922287 0.348600 0.669793
O O4 0.970509 0.347324 0.393655
O O5 0.212199 0.139277 0.682208
O O6 0.330461 0.180589 0.808076
O O7 0.294139 0.079706 0.923032
O O8 0.566712 0.056404 0.540107
O O9 0.426458 0.091823 0.409321
O O10 0.453601 0.129571 0.674780
O O11 0.540563 0.165950 0.450833
O O12 0.315251 0.439432 0.219372
O O13 0.316995 0.529521 0.010761
O O14 0.220743 0.250000 0.542498
O O15 0.282658 0.144137 0.429095
O O16 0.127767 0.163663 0.444151
O O17 0.951176 0.750000 0.320809
O O18 0.450931 0.250000 0.738426
#
# Coordination Sequence:
#
# PCOD9359954 Si02
#       8
#     8   8   8   8   8   8   8   8
#     4  10  18  33  56  86 126 167 211 259 310 375
#     4  11  22  37  59  89 122 164 208 257 314 371
#     4  11  23  39  60  85 117 160 209 262 310 373
#     4  11  26  42  62  89 117 162 213 264 316 366
#     4  11  22  38  62  93 128 164 204 254 319 379
#     4  12  24  42  64  85 119 158 210 264 311 373
#     4   9  19  33  55  88 126 168 208 254 312 374
#     4  11  22  38  57  87 126 166 206 255 323 381
#
# _framework density 19.643497
#
# number of rings (size 3 to 8) (size 9 to 14) (size 15 to 20)
#    0.000    1.250    2.500    4.125    1.750    3.500 
#    0.000    1.250    0.000    0.750    0.000    5.250 
#    0.000    0.000    0.000    0.000    0.000    0.000 
#
# Total GULP energy -178455.144433 kJ/mol
# GULP energy per Si atom -5576.723264 kJ/mol
# Density = 1.959879 g / cm^3
# Si number density = 19.643497 Si / 1000 Ang^3
#
#
#
# Elastic Constant Matrix: (Units=GPa)
#
#
# Indices 1 2 3 4 5 6 
#
# 1 96.2092 16.8068 40.9957 0.0000 0.0000 0.0000
# 2 16.8068 47.6949 9.5721 0.0000 0.0000 0.0000
# 3 40.9957 9.5721 83.6791 0.0000 0.0000 0.0000
# 4 0.0000 0.0000 0.0000 20.7684 0.0000 0.0000
# 5 0.0000 0.0000 0.0000 0.0000 32.6579 0.0000
# 6 0.0000 0.0000 0.0000 0.0000 0.0000 14.3977
#
#
#
# Elastic Compliance Matrix: (Units=1/GPa)
#
#
# Indices 1 2 3 4 5 6 
#
# 1 0.013704 -0.003563 -0.006306 0.000000 0.000000 0.000000
# 2 -0.003563 0.022386 -0.000815 0.000000 0.000000 0.000000
# 3 -0.006306 -0.000815 0.015133 0.000000 0.000000 0.000000
# 4 0.000000 0.000000 0.000000 0.048150 0.000000 0.000000
# 5 0.000000 0.000000 0.000000 0.000000 0.030620 0.000000
# 6 0.000000 0.000000 0.000000 0.000000 0.000000 0.069456
#
#
# Mechanical properties :
#
#
# Convention : Reuss Voigt Hill
#
# Bulk Modulus (GPa) = 33.49653 40.25916 36.87785
# Shear Modulus (GPa) = 21.66675 24.24538 22.95607
#
# Velocity S-wave (km/s) = 3.32475 3.51703 3.42224
# Velocity P-wave (km/s) = 5.64161 6.08540 5.86770
#
# Compressibility (1/GPa) = 0.02985384
#
# Stress axis : x y z
#
# Youngs Moduli (GPa) = 72.97397 44.67116 66.08058
#
# Poissons Ratio (x) = 0.15918 0.41670
# Poissons Ratio (y) = 0.26003 0.05386
# Poissons Ratio (z) = 0.46017 0.03641
#
# Static dielectric constant tensor:
#      x y z
#    x 1.704940 0.000000 0.000000 
#    y 0.000000 1.690210 0.000000 
#    z 0.000000 0.000000 1.739990 
# 
# From -- ./inp_files/3536.got.cif
#   From: 2010.05.17/outbox.cif.g08.bks.cpg/sg39_2_cif.got.tgz:3536.got - 2010.06.03 18:22:40.
