data_PCOD9359171
_publ_section_title
;
Structure prediction by ZEFSAII (Michael W. Deem and Ramdas Pophale) SiO2 
 PCOD9359171
Probable space group: A M M 2
;
_chemical_formula_sum "Si O2"
_cell_formula_units_Z 58
_cell_length_a 17.471696
_cell_length_b 20.631335
_cell_length_c 7.421457
_cell_angle_alpha 90.000000
_cell_angle_beta 90.000000
_cell_angle_gamma 90.000000
_cell_volume 2675.171143
_symmetry_space_group_name_H-M "A M M 2"
_symmetry_group_IT_number 38
_symmetry_cell_setting 'orthorhombic'
loop_
_space_group_symop_operation_xyz
x,y,z
-x,-y,z
-x,y,z
x,-y,z
x,1/2+y,1/2+z
-x,1/2-y,1/2+z
-x,1/2+y,1/2+z
x,1/2-y,1/2+z
loop_
_atom_site_type_symbol
_atom_site_label
_atom_site_fract_x
_atom_site_fract_y
_atom_site_fract_z
Si Si1 0.500000 0.000000 0.688221
Si Si2 0.210798 0.074361 0.653584
Si Si3 0.913491 0.673433 0.595366
Si Si4 0.785276 0.075198 0.091088
Si Si5 0.087606 0.820158 0.664857
Si Si6 0.384826 0.108712 0.573841
Si Si7 0.637543 0.154027 0.213752
Si Si8 0.586856 0.220203 0.850856
O O1 0.566607 0.944395 0.676500
O O2 0.146710 0.126197 0.594779
O O3 0.294575 0.093721 0.583572
O O4 0.192758 0.000000 0.603101
O O5 0.215586 0.076456 0.872391
O O6 0.858770 0.615705 0.655400
O O7 0.885203 0.746186 0.637077
O O8 0.916760 0.669412 0.379096
O O9 0.000000 0.668019 0.665938
O O10 0.712142 0.114590 0.159320
O O11 0.784728 0.000000 0.146864
O O12 0.000000 0.824921 0.594353
O O13 0.406535 0.111425 0.362567
O O14 0.402714 0.174702 0.678324
O O15 0.598541 0.177420 0.029259
O O16 0.647072 0.221583 0.323724
O O17 0.500000 0.246463 0.851008
#
# Coordination Sequence:
#
# PCOD9359171 Si02
#       8
#     2   8   8   8   8   8   8   8
#     4  12  28  48  70 100 130 186 226 264 350 412
#     4  10  21  41  64  90 137 179 221 280 337 401
#     4   9  19  36  60  91 130 173 221 277 328 387
#     4  10  23  40  62  97 134 177 228 271 333 410
#     4   9  19  35  60  94 129 172 225 275 331 395
#     4  12  26  46  68  97 136 173 223 279 335 408
#     4  12  27  43  71 100 132 171 221 281 339 401
#     4  12  26  46  69  98 130 167 220 282 339 397
#
# _framework density 21.680857
#
# number of rings (size 3 to 8) (size 9 to 14) (size 15 to 20)
#    0.000    1.379    4.138    0.414    4.828    1.655 
#    0.000    3.448    0.000    0.000    0.000    5.793 
#    0.000    0.000    0.000    0.000    0.000    0.000 
#
# Total GULP energy -161743.493678 kJ/mol
# GULP energy per Si atom -5577.361851 kJ/mol
# Density = 2.163151 g / cm^3
# Si number density = 21.680857 Si / 1000 Ang^3
#
#
#
# Elastic Constant Matrix: (Units=GPa)
#
#
# Indices 1 2 3 4 5 6 
#
# 1 112.2571 94.6301 10.6468 0.0000 0.0000 0.0000
# 2 94.6301 168.2001 10.3570 0.0000 0.0000 0.0000
# 3 10.6468 10.3570 96.0613 0.0000 0.0000 0.0000
# 4 0.0000 0.0000 0.0000 10.4548 0.0000 0.0000
# 5 0.0000 0.0000 0.0000 0.0000 -12.7014 0.0000
# 6 0.0000 0.0000 0.0000 0.0000 0.0000 45.7561
#
#
#
# Elastic Compliance Matrix: (Units=1/GPa)
#
#
# Indices 1 2 3 4 5 6 
#
# 1 0.017014 -0.009519 -0.000859 0.000000 0.000000 0.000000
# 2 -0.009519 0.011311 -0.000164 0.000000 0.000000 0.000000
# 3 -0.000859 -0.000164 0.010523 0.000000 0.000000 0.000000
# 4 0.000000 0.000000 0.000000 0.095650 0.000000 0.000000
# 5 0.000000 0.000000 0.000000 0.000000 -0.078731 0.000000
# 6 0.000000 0.000000 0.000000 0.000000 0.000000 0.021855
#
#
# Mechanical properties :
#
#
# Convention : Reuss Voigt Hill
#
# Bulk Modulus (GPa) = 56.30043 67.53180 61.91612
# Shear Modulus (GPa) = 47.78775 26.09419 36.94097
#
# Velocity S-wave (km/s) = 4.69993 3.47300 4.13225
# Velocity P-wave (km/s) = 7.44826 6.87736 7.16849
#
# Compressibility (1/GPa) = 0.01776185
#
# Stress axis : x y z
#
# Youngs Moduli (GPa) = 58.77440 88.40909 95.02997
#
# Poissons Ratio (x) = 0.84160 0.08167
# Poissons Ratio (y) = 0.55949 0.01563
# Poissons Ratio (z) = 0.05051 0.01454
#
# Static dielectric constant tensor:
#      x y z
#    x 1.774700 0.000000 0.000000 
#    y 0.000000 1.798030 0.000000 
#    z 0.000000 0.000000 1.849520 
# 
# From -- ./inp_files/6396.got.cif
#   From: 2010.05.17/outbox.cif.g08.bks.cpg/sg38_4_cif.got.tgz:6396.got - 2010.06.03 18:07:57.
