data_PCOD9359376
_publ_section_title
;
Structure prediction by ZEFSAII (Michael W. Deem and Ramdas Pophale) SiO2 
 PCOD9359376
Probable space group: A M M 2
;
_chemical_formula_sum "Si O2"
_cell_formula_units_Z 40
_cell_length_a 8.823877
_cell_length_b 21.686271
_cell_length_c 12.962552
_cell_angle_alpha 90.000000
_cell_angle_beta 90.000000
_cell_angle_gamma 90.000000
_cell_volume 2480.474906
_symmetry_space_group_name_H-M "A M M 2"
_symmetry_group_IT_number 38
_symmetry_cell_setting 'orthorhombic'
loop_
_space_group_symop_operation_xyz
x,y,z
-x,-y,z
-x,y,z
x,-y,z
x,1/2+y,1/2+z
-x,1/2-y,1/2+z
-x,1/2+y,1/2+z
x,1/2-y,1/2+z
loop_
_atom_site_type_symbol
_atom_site_label
_atom_site_fract_x
_atom_site_fract_y
_atom_site_fract_z
Si Si1 0.684736 0.070375 0.644610
Si Si2 0.317709 0.837597 0.465319
Si Si3 0.681074 0.199238 0.041876
Si Si4 0.682982 0.667099 0.315927
Si Si5 0.820201 0.299205 0.757081
O O1 0.500000 0.069453 0.644172
O O2 0.730684 0.108652 0.543129
O O3 0.729526 0.109971 0.744943
O O4 0.737785 0.000000 0.645659
O O5 0.500000 0.839607 0.453816
O O6 0.282107 0.771009 0.516546
O O7 0.243596 0.838320 0.352977
O O8 0.500000 0.195745 0.057730
O O9 0.763620 0.179127 0.145416
O O10 0.720397 0.162766 0.937132
O O11 0.500000 0.673941 0.308735
O O12 0.754092 0.730259 0.273765
O O13 0.000000 0.297396 0.761077
#
# Coordination Sequence:
#
# PCOD9359376 Si02
#       5
#     8   8   8   8   8
#     4   9  16  29  52  77  97 120 156 199 238 282
#     4   9  17  30  48  69  96 126 156 190 237 288
#     4   9  16  28  47  67  93 127 156 189 239 289
#     4   9  17  31  48  69  96 125 156 191 239 289
#     4  11  20  28  44  69  98 126 157 199 237 277
#
# _framework density 16.125942999999999
#
# number of rings (size 3 to 8) (size 9 to 14) (size 15 to 20)
#    0.000    2.600    2.000    3.000    0.000    3.200 
#    0.000    0.000    0.000    3.600    0.000    5.600 
#    0.000    0.000    0.000    0.000    0.000    0.000 
#
# Total GULP energy -111467.601598 kJ/mol
# GULP energy per Si atom -5573.380080 kJ/mol
# Density = 1.608924 g / cm^3
# Si number density = 16.125943 Si / 1000 Ang^3
#
#
#
# Elastic Constant Matrix: (Units=GPa)
#
#
# Indices 1 2 3 4 5 6 
#
# 1 23.6561 19.0396 46.9307 0.0000 0.0000 0.0000
# 2 19.0396 95.7172 73.5247 0.0000 0.0000 0.0000
# 3 46.9307 73.5247 180.4841 0.0000 0.0000 0.0000
# 4 0.0000 0.0000 0.0000 19.3741 0.0000 0.0000
# 5 0.0000 0.0000 0.0000 0.0000 -4.4896 0.0000
# 6 0.0000 0.0000 0.0000 0.0000 0.0000 3.4836
#
#
#
# Elastic Compliance Matrix: (Units=1/GPa)
#
#
# Indices 1 2 3 4 5 6 
#
# 1 0.087315 0.000105 -0.022747 0.000000 0.000000 0.000000
# 2 0.000105 0.015206 -0.006222 0.000000 0.000000 0.000000
# 3 -0.022747 -0.006222 0.013990 0.000000 0.000000 0.000000
# 4 0.000000 0.000000 0.000000 0.051615 0.000000 0.000000
# 5 0.000000 0.000000 0.000000 0.000000 -0.222736 0.000000
# 6 0.000000 0.000000 0.000000 0.000000 0.000000 0.287060
#
#
# Mechanical properties :
#
#
# Convention : Reuss Voigt Hill
#
# Bulk Modulus (GPa) = 17.01171 64.31637 40.66404
# Shear Modulus (GPa) = 16.14093 14.36444 15.25268
#
# Velocity S-wave (km/s) = 3.16718 2.98781 3.07880
# Velocity P-wave (km/s) = 4.89355 7.20229 6.15711
#
# Compressibility (1/GPa) = 0.05878304
#
# Stress axis : x y z
#
# Youngs Moduli (GPa) = 11.45278 65.76453 71.47958
#
# Poissons Ratio (x) = -0.00688 1.62594
# Poissons Ratio (y) = -0.00120 0.44472
# Poissons Ratio (z) = 0.26052 0.40916
#
# Static dielectric constant tensor:
#      x y z
#    x 1.528760 0.000000 0.000000 
#    y 0.000000 1.517600 0.000000 
#    z 0.000000 0.000000 1.561830 
# 
# From -- ./inp_files/7947.got.cif
#   From: 2010.05.17/outbox.cif.g08.bks.cpg/sg38_4_cif.got.tgz:7947.got - 2010.06.03 18:07:57.
