data_PCOD9359826
_publ_section_title
;
Structure prediction by ZEFSAII (Michael W. Deem and Ramdas Pophale) SiO2 
 PCOD9359826
Probable space group: A B M 2
;
_chemical_formula_sum "Si O2"
_cell_formula_units_Z 64
_cell_length_a 18.877575
_cell_length_b 8.081709
_cell_length_c 21.910746
_cell_angle_alpha 90.000000
_cell_angle_beta 90.000000
_cell_angle_gamma 90.000000
_cell_volume 3342.770627
_symmetry_space_group_name_H-M "A B M 2"
_symmetry_group_IT_number 39
_symmetry_cell_setting 'orthorhombic'
loop_
_space_group_symop_operation_xyz
x,y,z
-x,-y,z
-x,1/2+y,z
x,1/2-y,z
x,1/2+y,1/2+z
-x,1/2-y,1/2+z
-x,y,1/2+z
x,-y,1/2+z
loop_
_atom_site_type_symbol
_atom_site_label
_atom_site_fract_x
_atom_site_fract_y
_atom_site_fract_z
Si Si1 0.917495 0.449341 0.149370
Si Si2 0.582459 0.447293 0.643725
Si Si3 0.082274 0.450372 0.516350
Si Si4 0.417822 0.050088 0.276892
Si Si5 0.668396 0.453383 0.895229
Si Si6 0.082246 0.948322 0.282276
Si Si7 0.830158 0.551375 0.400021
Si Si8 0.418004 0.446315 0.512701
O O1 0.912545 0.250000 0.149564
O O2 0.890342 0.507984 0.215450
O O3 0.000000 0.500000 0.149235
O O4 0.890266 0.507387 0.083251
O O5 0.500000 0.500000 0.642924
O O6 0.586064 0.250000 0.642968
O O7 0.609118 0.507214 0.709926
O O8 0.612432 0.507832 0.579325
O O9 0.084402 0.250000 0.516183
O O10 0.127891 0.512513 0.459410
O O11 0.000000 0.500000 0.509714
O O12 0.415670 0.250000 0.276629
O O13 0.371868 0.991652 0.333998
O O14 0.500000 0.000000 0.283788
O O15 0.667775 0.250000 0.895128
O O16 0.749584 0.508805 0.896610
O O17 0.626644 0.510707 0.955484
O O18 0.084622 0.750000 0.282803
O O19 0.127394 0.012344 0.338620
O O20 0.000000 0.000000 0.288598
O O21 0.827115 0.750000 0.405969
O O22 0.500000 0.500000 0.508588
O O23 0.417768 0.250000 0.509101
#
# Coordination Sequence:
#
# PCOD9359826 Si02
#       8
#     8   8   8   8   8   8   8   8
#     4   8  15  28  46  69  94 117 147 188 231 273
#     4   9  16  27  46  71  96 120 150 193 240 283
#     4   9  17  30  50  72  92 119 154 191 230 272
#     4   9  17  31  51  72  94 122 158 198 238 283
#     4   9  19  34  49  67  94 129 164 195 233 282
#     4  10  19  32  51  74  98 124 156 195 237 281
#     4  10  20  34  50  68  95 130 163 195 234 281
#     4  10  18  30  50  73  96 123 157 197 239 285
#
# _framework density 19.145795
#
# number of rings (size 3 to 8) (size 9 to 14) (size 15 to 20)
#    0.000    2.750    0.000    2.625    0.000    2.500 
#    0.000    3.750    0.000    1.500    0.000    0.000 
#    0.000    0.000    0.000    0.000    0.000    0.000 
#
# Total GULP energy -178285.761477 kJ/mol
# GULP energy per Si atom -5571.430046 kJ/mol
# Density = 1.910222 g / cm^3
# Si number density = 19.145795 Si / 1000 Ang^3
#
#
#
# Elastic Constant Matrix: (Units=GPa)
#
#
# Indices 1 2 3 4 5 6 
#
# 1 82.1880 4.3670 91.9528 0.0000 0.0000 0.0000
# 2 4.3670 14.9244 12.0599 0.0000 0.0000 0.0000
# 3 91.9528 12.0599 245.9954 0.0000 0.0000 0.0000
# 4 0.0000 0.0000 0.0000 33.8758 0.0000 0.0000
# 5 0.0000 0.0000 0.0000 0.0000 -5.0449 0.0000
# 6 0.0000 0.0000 0.0000 0.0000 0.0000 12.3417
#
#
#
# Elastic Compliance Matrix: (Units=1/GPa)
#
#
# Indices 1 2 3 4 5 6 
#
# 1 0.020914 0.000206 -0.007828 0.000000 0.000000 0.000000
# 2 0.000206 0.069770 -0.003497 0.000000 0.000000 0.000000
# 3 -0.007828 -0.003497 0.007163 0.000000 0.000000 0.000000
# 4 0.000000 0.000000 0.000000 0.029520 0.000000 0.000000
# 5 0.000000 0.000000 0.000000 0.000000 -0.198222 0.000000
# 6 0.000000 0.000000 0.000000 0.000000 0.000000 0.081026
#
#
# Mechanical properties :
#
#
# Convention : Reuss Voigt Hill
#
# Bulk Modulus (GPa) = 13.22611 62.20746 37.71678
# Shear Modulus (GPa) = 86.78736 23.88308 55.33522
#
# Velocity S-wave (km/s) = 6.74004 3.53573 5.38189
# Velocity P-wave (km/s) = 8.21547 7.01645 7.63952
#
# Compressibility (1/GPa) = 0.07560801
#
# Stress axis : x y z
#
# Youngs Moduli (GPa) = 47.81482 14.33279 139.61477
#
# Poissons Ratio (x) = -0.00295 1.09287
# Poissons Ratio (y) = -0.00984 0.48829
# Poissons Ratio (z) = 0.37428 0.05013
#
# Static dielectric constant tensor:
#      x y z
#    x 1.617120 0.000000 0.000000 
#    y 0.000000 1.681480 0.000000 
#    z 0.000000 0.000000 1.732890 
# 
# From -- ./inp_files/15042.got.cif
#   From: 2010.05.17/outbox.cif.g08.bks.cpg/sg39_8_cif.got.tgz:15042.got - 2010.06.03 18:22:40.
