data_PCOD9359051
_publ_section_title
;
Structure prediction by ZEFSAII (Michael W. Deem and Ramdas Pophale) SiO2 
 PCOD9359051
Probable space group: A M M 2
;
_chemical_formula_sum "Si O2"
_cell_formula_units_Z 64
_cell_length_a 18.830546
_cell_length_b 8.972165
_cell_length_c 20.140925
_cell_angle_alpha 90.000000
_cell_angle_beta 90.000000
_cell_angle_gamma 90.000000
_cell_volume 3402.824702
_symmetry_space_group_name_H-M "A M M 2"
_symmetry_group_IT_number 38
_symmetry_cell_setting 'orthorhombic'
loop_
_space_group_symop_operation_xyz
x,y,z
-x,-y,z
-x,y,z
x,-y,z
x,1/2+y,1/2+z
-x,1/2-y,1/2+z
-x,1/2+y,1/2+z
x,1/2-y,1/2+z
loop_
_atom_site_type_symbol
_atom_site_label
_atom_site_fract_x
_atom_site_fract_y
_atom_site_fract_z
Si Si1 0.670362 0.824564 0.826020
Si Si2 0.644404 0.176070 0.589359
Si Si3 0.914821 0.673260 0.385176
Si Si4 0.813372 0.322690 0.783121
Si Si5 0.416848 0.328227 0.712877
Si Si6 0.916908 0.320901 0.025410
Si Si7 0.804077 0.321565 0.137809
Si Si8 0.583890 0.323360 0.943323
O O1 0.744097 0.736902 0.821665
O O2 0.627705 0.779169 0.759961
O O3 0.623006 0.770578 0.887285
O O4 0.683465 0.000000 0.827993
O O5 0.597972 0.276349 0.638272
O O6 0.726985 0.207246 0.605158
O O7 0.621662 0.201945 0.513837
O O8 0.631825 0.000000 0.603339
O O9 0.879437 0.760559 0.324766
O O10 0.895154 0.743838 0.456428
O O11 0.000000 0.682096 0.380436
O O12 0.813674 0.000000 0.281164
O O13 0.810715 0.258599 0.708449
O O14 0.893665 0.000000 0.882824
O O15 0.500000 0.317880 0.728561
O O16 0.394320 0.500000 0.722776
O O17 0.911564 0.500000 0.017146
O O18 0.865778 0.277936 0.086072
O O19 0.000000 0.285267 0.038522
O O20 0.809133 0.500000 0.148903
O O21 0.500000 0.289136 0.947383
O O22 0.590176 0.500000 0.927259
#
# Coordination Sequence:
#
# PCOD9359051 Si02
#       8
#     8   8   8   8   8   8   8   8
#     4  12  25  41  61  88 120 157 204 253 304 363
#     4  10  21  38  61  88 120 158 201 248 300 361
#     4  10  22  41  65  94 128 163 202 249 298 351
#     4  12  25  41  63  90 124 163 205 252 303 359
#     4  11  23  39  61  88 119 156 199 248 303 360
#     4   9  19  37  62  93 128 165 203 243 293 354
#     4  10  21  38  60  90 125 162 205 249 298 357
#     4  10  22  40  61  88 122 159 202 251 307 368
#
# _framework density 18.807904000000001
#
# number of rings (size 3 to 8) (size 9 to 14) (size 15 to 20)
#    0.000    1.500    1.250    3.750    1.750    5.500 
#    0.000    1.250    0.000    0.000    0.000    0.000 
#    0.000    0.000    0.000    0.000    0.000    0.000 
#
# Total GULP energy -178870.919409 kJ/mol
# GULP energy per Si atom -5589.716232 kJ/mol
# Density = 1.876510 g / cm^3
# Si number density = 18.807904 Si / 1000 Ang^3
#
#
#
# Elastic Constant Matrix: (Units=GPa)
#
#
# Indices 1 2 3 4 5 6 
#
# 1 60.7974 40.8506 39.3039 0.0000 0.0000 0.0000
# 2 40.8506 79.3933 53.7536 0.0000 0.0000 0.0000
# 3 39.3039 53.7536 90.7959 0.0000 0.0000 0.0000
# 4 0.0000 0.0000 0.0000 37.2999 0.0000 0.0000
# 5 0.0000 0.0000 0.0000 0.0000 41.9819 0.0000
# 6 0.0000 0.0000 0.0000 0.0000 0.0000 25.5240
#
#
#
# Elastic Compliance Matrix: (Units=1/GPa)
#
#
# Indices 1 2 3 4 5 6 
#
# 1 0.026820 -0.009913 -0.005741 0.000000 0.000000 0.000000
# 2 -0.009913 0.024685 -0.010323 0.000000 0.000000 0.000000
# 3 -0.005741 -0.010323 0.019611 0.000000 0.000000 0.000000
# 4 0.000000 0.000000 0.000000 0.026810 0.000000 0.000000
# 5 0.000000 0.000000 0.000000 0.000000 0.023820 0.000000
# 6 0.000000 0.000000 0.000000 0.000000 0.000000 0.039179
#
#
# Mechanical properties :
#
#
# Convention : Reuss Voigt Hill
#
# Bulk Modulus (GPa) = 52.18813 55.42252 53.80533
# Shear Modulus (GPa) = 22.80324 27.43306 25.11815
#
# Velocity S-wave (km/s) = 3.48577 3.82330 3.65843
# Velocity P-wave (km/s) = 6.63393 7.00155 6.82022
#
# Compressibility (1/GPa) = 0.01916144
#
# Stress axis : x y z
#
# Youngs Moduli (GPa) = 37.28531 40.50966 50.99226
#
# Poissons Ratio (x) = 0.40156 0.29277
# Poissons Ratio (y) = 0.36960 0.52642
# Poissons Ratio (z) = 0.21407 0.41820
#
# Static dielectric constant tensor:
#      x y z
#    x 1.635520 0.000000 0.000000 
#    y 0.000000 1.633840 0.000000 
#    z 0.000000 0.000000 1.622060 
# 
# From -- ./inp_files/18986.got.cif
#   From: 2010.05.17/outbox.cif.g08.bks.cpg/sg38_10_cif.got.tgz:18986.got - 2010.06.03 18:07:57.
