data_PCOD9359261
_publ_section_title
;
Structure prediction by ZEFSAII (Michael W. Deem and Ramdas Pophale) SiO2 
 PCOD9359261
Probable space group: A M M 2
;
_chemical_formula_sum "Si O2"
_cell_formula_units_Z 58
_cell_length_a 20.321207
_cell_length_b 15.287152
_cell_length_c 9.720486
_cell_angle_alpha 90.000000
_cell_angle_beta 90.000000
_cell_angle_gamma 90.000000
_cell_volume 3019.701833
_symmetry_space_group_name_H-M "A M M 2"
_symmetry_group_IT_number 38
_symmetry_cell_setting 'orthorhombic'
loop_
_space_group_symop_operation_xyz
x,y,z
-x,-y,z
-x,y,z
x,-y,z
x,1/2+y,1/2+z
-x,1/2-y,1/2+z
-x,1/2+y,1/2+z
x,1/2-y,1/2+z
loop_
_atom_site_type_symbol
_atom_site_label
_atom_site_fract_x
_atom_site_fract_y
_atom_site_fract_z
Si Si1 0.667138 0.346108 0.656850
Si Si2 0.217400 0.902913 0.350356
Si Si3 0.309079 0.144709 0.600401
Si Si4 0.151227 0.729486 0.387375
Si Si5 0.000000 0.500000 0.070217
Si Si6 0.072481 0.821501 0.629508
Si Si7 0.574826 0.895602 0.390071
Si Si8 0.271233 0.904156 0.898847
O O1 0.722167 0.396899 0.744683
O O2 0.689313 0.246510 0.638443
O O3 0.602542 0.352622 0.750173
O O4 0.669741 0.386194 0.505466
O O5 0.249472 0.881808 0.499323
O O6 0.171126 0.821771 0.317586
O O7 0.188847 0.000000 0.347524
O O8 0.375071 0.125251 0.514134
O O9 0.298839 0.098318 0.745005
O O10 0.112851 0.762336 0.522221
O O11 0.108272 0.677328 0.276352
O O12 0.215951 0.671053 0.416017
O O13 0.056676 0.420276 0.077358
O O14 0.000000 0.780693 0.648682
O O15 0.500000 0.868852 0.419210
O O16 0.576582 0.000000 0.369702
O O17 0.242458 0.000000 0.927352
#
# Coordination Sequence:
#
# PCOD9359261 Si02
#       8
#     8   8   8   8   2   8   8   8
#     4  11  20  39  56  86 125 155 196 254 318 370
#     4  11  22  37  61  87 123 163 201 246 307 376
#     4  11  20  39  58  88 122 158 203 259 311 370
#     4  12  22  40  64  97 122 163 206 258 296 370
#     4   8  24  44  68  90 114 180 212 242 306 352
#     4  10  24  42  64  87 125 159 212 247 299 350
#     4  10  22  40  61  81 113 167 220 252 297 377
#     4  12  23  35  60  93 126 157 194 256 326 369
#
# _framework density 19.207193
#
# number of rings (size 3 to 8) (size 9 to 14) (size 15 to 20)
#    0.414    0.690    2.759    6.207    1.931    0.552 
#    0.000    0.690    0.000    4.138    0.000    0.000 
#    0.000    0.000    0.000    0.000    0.000    0.000 
#
# Total GULP energy -161522.434628 kJ/mol
# GULP energy per Si atom -5569.739125 kJ/mol
# Density = 1.916348 g / cm^3
# Si number density = 19.207193 Si / 1000 Ang^3
#
#
#
# Elastic Constant Matrix: (Units=GPa)
#
#
# Indices 1 2 3 4 5 6 
#
# 1 75.8847 12.5301 23.3665 0.0000 0.0000 0.0000
# 2 12.5301 127.0770 9.3841 0.0000 0.0000 0.0000
# 3 23.3665 9.3841 97.9460 0.0000 0.0000 0.0000
# 4 0.0000 0.0000 0.0000 13.4053 0.0000 0.0000
# 5 0.0000 0.0000 0.0000 0.0000 21.3901 0.0000
# 6 0.0000 0.0000 0.0000 0.0000 0.0000 89.0449
#
#
#
# Elastic Compliance Matrix: (Units=1/GPa)
#
#
# Indices 1 2 3 4 5 6 
#
# 1 0.014395 -0.001174 -0.003322 0.000000 0.000000 0.000000
# 2 -0.001174 0.008021 -0.000488 0.000000 0.000000 0.000000
# 3 -0.003322 -0.000488 0.011049 0.000000 0.000000 0.000000
# 4 0.000000 0.000000 0.000000 0.074598 0.000000 0.000000
# 5 0.000000 0.000000 0.000000 0.000000 0.046751 0.000000
# 6 0.000000 0.000000 0.000000 0.000000 0.000000 0.011230
#
#
# Mechanical properties :
#
#
# Convention : Reuss Voigt Hill
#
# Bulk Modulus (GPa) = 42.55952 43.49656 43.02804
# Shear Modulus (GPa) = 27.19711 41.80987 34.50349
#
# Velocity S-wave (km/s) = 3.76704 4.67066 4.24297
# Velocity P-wave (km/s) = 6.41303 7.19596 6.81575
#
# Compressibility (1/GPa) = 0.02349650
#
# Stress axis : x y z
#
# Youngs Moduli (GPa) = 69.47091 124.67162 90.50668
#
# Poissons Ratio (x) = 0.14637 0.30062
# Poissons Ratio (y) = 0.08156 0.04420
# Poissons Ratio (z) = 0.23075 0.06089
#
# Static dielectric constant tensor:
#      x y z
#    x 1.695170 0.000000 0.000000 
#    y 0.000000 1.685560 0.000000 
#    z 0.000000 0.000000 1.701550 
# 
# From -- ./inp_files/6961.got.cif
#   From: 2010.05.17/outbox.cif.g08.bks.cpg/sg38_4_cif.got.tgz:6961.got - 2010.06.03 18:07:57.
