data_PCOD9359471
_publ_section_title
;
Structure prediction by ZEFSAII (Michael W. Deem and Ramdas Pophale) SiO2 
 PCOD9359471
Probable space group: A M M 2
;
_chemical_formula_sum "Si O2"
_cell_formula_units_Z 48
_cell_length_a 14.136271
_cell_length_b 7.975477
_cell_length_c 20.974090
_cell_angle_alpha 90.000000
_cell_angle_beta 90.000000
_cell_angle_gamma 90.000000
_cell_volume 2364.692405
_symmetry_space_group_name_H-M "A M M 2"
_symmetry_group_IT_number 38
_symmetry_cell_setting 'orthorhombic'
loop_
_space_group_symop_operation_xyz
x,y,z
-x,-y,z
-x,y,z
x,-y,z
x,1/2+y,1/2+z
-x,1/2-y,1/2+z
-x,1/2+y,1/2+z
x,1/2-y,1/2+z
loop_
_atom_site_type_symbol
_atom_site_label
_atom_site_fract_x
_atom_site_fract_y
_atom_site_fract_z
Si Si1 0.761984 0.685728 0.261610
Si Si2 0.610762 0.798646 0.013843
Si Si3 0.886429 0.500000 0.728222
Si Si4 0.886816 0.809214 0.493511
Si Si5 0.610680 0.796603 0.157771
Si Si6 0.264139 0.306739 0.895157
Si Si7 0.114647 0.500000 0.579756
O O1 0.801553 0.500000 0.250806
O O2 0.680723 0.722163 0.209870
O O3 0.719555 0.698260 0.332766
O O4 0.839835 0.832486 0.256644
O O5 0.500000 0.760356 0.005744
O O6 0.636748 0.743506 0.085568
O O7 0.621776 0.000000 0.012193
O O8 0.668609 0.725060 0.955382
O O9 0.858574 0.500000 0.653249
O O10 0.000000 0.500000 0.734185
O O11 0.839482 0.776505 0.425269
O O12 0.853862 0.666352 0.542465
O O13 0.000000 0.801271 0.489617
O O14 0.860615 0.000000 0.512454
O O15 0.500000 0.752947 0.168456
O O16 0.616531 0.000000 0.160478
O O17 0.272884 0.500000 0.875903
O O18 0.000000 0.500000 0.578342
#
# Coordination Sequence:
#
# PCOD9359471 Si02
#       7
#     8   8   4   8   8   8   4
#     4  12  26  43  65  95 129 175 228 268 327 395
#     4   9  20  38  63  95 128 166 211 261 322 385
#     4  11  26  48  67  91 135 172 216 279 330 391
#     4   9  20  37  59  92 125 154 201 256 311 378
#     4   9  19  40  68  96 132 175 216 266 329 392
#     4  11  23  39  60  89 126 167 210 263 319 375
#     4   9  20  38  64  91 117 160 199 249 321 371
#
# _framework density 20.298622999999999
#
# number of rings (size 3 to 8) (size 9 to 14) (size 15 to 20)
#    0.000    2.000    1.667    1.500    4.667    3.667 
#    0.000    3.333    0.000    0.000    0.000    0.000 
#    0.000    0.000    0.000    0.000    0.000    0.000 
#
# Total GULP energy -134079.332157 kJ/mol
# GULP energy per Si atom -5586.638840 kJ/mol
# Density = 2.025242 g / cm^3
# Si number density = 20.298623 Si / 1000 Ang^3
#
#
#
# Elastic Constant Matrix: (Units=GPa)
#
#
# Indices 1 2 3 4 5 6 
#
# 1 84.1193 41.0620 44.2405 0.0000 0.0000 0.0000
# 2 41.0620 100.9340 58.2322 0.0000 0.0000 0.0000
# 3 44.2405 58.2322 125.6813 0.0000 0.0000 0.0000
# 4 0.0000 0.0000 0.0000 27.8684 0.0000 0.0000
# 5 0.0000 0.0000 0.0000 0.0000 13.2111 0.0000
# 6 0.0000 0.0000 0.0000 0.0000 0.0000 8.7562
#
#
#
# Elastic Compliance Matrix: (Units=1/GPa)
#
#
# Indices 1 2 3 4 5 6 
#
# 1 0.015916 -0.004426 -0.003552 0.000000 0.000000 0.000000
# 2 -0.004426 0.014753 -0.005278 0.000000 0.000000 0.000000
# 3 -0.003552 -0.005278 0.011652 0.000000 0.000000 0.000000
# 4 0.000000 0.000000 0.000000 0.035883 0.000000 0.000000
# 5 0.000000 0.000000 0.000000 0.000000 0.075694 0.000000
# 6 0.000000 0.000000 0.000000 0.000000 0.000000 0.114204
#
#
# Mechanical properties :
#
#
# Convention : Reuss Voigt Hill
#
# Bulk Modulus (GPa) = 63.24862 66.42268 64.83565
# Shear Modulus (GPa) = 16.67314 21.11381 18.89347
#
# Velocity S-wave (km/s) = 2.86910 3.22865 3.05417
# Velocity P-wave (km/s) = 6.49634 6.83321 6.66690
#
# Compressibility (1/GPa) = 0.01581062
#
# Stress axis : x y z
#
# Youngs Moduli (GPa) = 62.82821 67.78396 85.82064
#
# Poissons Ratio (x) = 0.30000 0.30484
# Poissons Ratio (y) = 0.27807 0.45292
# Poissons Ratio (z) = 0.22317 0.35773
#
# Static dielectric constant tensor:
#      x y z
#    x 1.721740 0.000000 0.000000 
#    y 0.000000 1.727290 0.000000 
#    z 0.000000 0.000000 1.703440 
# 
# From -- ./inp_files/18176.got.cif
#   From: 2010.05.17/outbox.cif.g08.bks.cpg/sg38_10_cif.got.tgz:18176.got - 2010.06.03 18:07:57.
