data_PCOD9359492
_publ_section_title
;
Structure prediction by ZEFSAII (Michael W. Deem and Ramdas Pophale) SiO2 
 PCOD9359492
Probable space group: A M M 2
;
_chemical_formula_sum "Si O2"
_cell_formula_units_Z 56
_cell_length_a 20.619140
_cell_length_b 15.229966
_cell_length_c 9.481959
_cell_angle_alpha 90.000000
_cell_angle_beta 90.000000
_cell_angle_gamma 90.000000
_cell_volume 2977.608217
_symmetry_space_group_name_H-M "A M M 2"
_symmetry_group_IT_number 38
_symmetry_cell_setting 'orthorhombic'
loop_
_space_group_symop_operation_xyz
x,y,z
-x,-y,z
-x,y,z
x,-y,z
x,1/2+y,1/2+z
-x,1/2-y,1/2+z
-x,1/2+y,1/2+z
x,1/2-y,1/2+z
loop_
_atom_site_type_symbol
_atom_site_label
_atom_site_fract_x
_atom_site_fract_y
_atom_site_fract_z
Si Si1 0.573981 0.397508 0.305760
Si Si2 0.857161 0.396837 0.063603
Si Si3 0.760009 0.751793 0.674802
Si Si4 0.000000 0.393150 0.056986
Si Si5 0.000000 0.106767 0.232022
Si Si6 0.141625 0.897371 0.220172
Si Si7 0.330588 0.755089 0.924998
Si Si8 0.574807 0.102049 0.465368
O O1 0.500000 0.373537 0.344010
O O2 0.583769 0.500000 0.339073
O O3 0.624791 0.336565 0.383739
O O4 0.579287 0.389337 0.135783
O O5 0.847283 0.500000 0.097243
O O6 0.802056 0.335528 0.127881
O O7 0.929429 0.368904 0.116459
O O8 0.857342 0.390866 0.892052
O O9 0.804473 0.666217 0.659149
O O10 0.734748 0.757397 0.833645
O O11 0.694807 0.744839 0.583796
O O12 0.000000 0.500000 0.054299
O O13 0.000000 0.362864 0.894362
O O14 0.069531 0.131101 0.169545
O O15 0.000000 0.000000 0.236502
O O16 0.151495 0.000000 0.185887
O O17 0.373372 0.667987 0.900226
O O18 0.500000 0.122453 0.426258
O O19 0.587253 0.000000 0.430704
#
# Coordination Sequence:
#
# PCOD9359492 Si02
#       8
#     8   8   8   4   4   8   8   8
#     4   9  19  38  63  86 109 143 185 228 277 328
#     4   9  18  35  57  79 108 146 190 234 276 329
#     4  12  24  35  54  83 116 154 185 218 271 338
#     4   7  12  27  54  81 100 133 188 241 277 312
#     4   7  12  27  54  79 100 137 186 235 283 322
#     4   9  18  35  56  79 109 145 189 236 278 327
#     4  12  23  38  55  84 119 148 183 222 273 327
#     4   9  19  38  64  87 107 142 189 229 270 325
#
# _framework density 18.807041000000002
#
# number of rings (size 3 to 8) (size 9 to 14) (size 15 to 20)
#    0.000    2.429    2.857    3.000    0.000    2.857 
#    0.000    0.000    0.000    1.714    0.000    3.000 
#    0.000    0.000    0.000    0.000    0.000    0.000 
#
# Total GULP energy -156075.167981 kJ/mol
# GULP energy per Si atom -5574.113142 kJ/mol
# Density = 1.876424 g / cm^3
# Si number density = 18.807041 Si / 1000 Ang^3
#
#
#
# Elastic Constant Matrix: (Units=GPa)
#
#
# Indices 1 2 3 4 5 6 
#
# 1 109.4813 67.7876 1.2137 0.0000 0.0000 0.0000
# 2 67.7876 89.0772 6.5709 0.0000 0.0000 0.0000
# 3 1.2137 6.5709 8.2003 0.0000 0.0000 0.0000
# 4 0.0000 0.0000 0.0000 21.6391 0.0000 0.0000
# 5 0.0000 0.0000 0.0000 0.0000 17.4061 0.0000
# 6 0.0000 0.0000 0.0000 0.0000 0.0000 1.2565
#
#
#
# Elastic Compliance Matrix: (Units=1/GPa)
#
#
# Indices 1 2 3 4 5 6 
#
# 1 0.017845 -0.014226 0.008758 0.000000 0.000000 0.000000
# 2 -0.014226 0.023273 -0.016543 0.000000 0.000000 0.000000
# 3 0.008758 -0.016543 0.133906 0.000000 0.000000 0.000000
# 4 0.000000 0.000000 0.000000 0.046213 0.000000 0.000000
# 5 0.000000 0.000000 0.000000 0.000000 0.057451 0.000000
# 6 0.000000 0.000000 0.000000 0.000000 0.000000 0.795841
#
#
# Mechanical properties :
#
#
# Convention : Reuss Voigt Hill
#
# Bulk Modulus (GPa) = 7.63347 39.76703 23.70025
# Shear Modulus (GPa) = 4.30212 16.80613 10.55412
#
# Velocity S-wave (km/s) = 1.51409 2.99257 2.37149
# Velocity P-wave (km/s) = 2.66913 5.75598 4.48640
#
# Compressibility (1/GPa) = 0.13100206
#
# Stress axis : x y z
#
# Youngs Moduli (GPa) = 56.03659 42.96862 7.46795
#
# Poissons Ratio (x) = 0.61129 -0.06541
# Poissons Ratio (y) = 0.79720 0.12354
# Poissons Ratio (z) = -0.49079 0.71082
#
# Static dielectric constant tensor:
#      x y z
#    x 1.671270 0.000000 0.000000 
#    y 0.000000 1.628340 0.000000 
#    z 0.000000 0.000000 1.622440 
# 
# From -- ./inp_files/6764.got.cif
#   From: 2010.05.17/outbox.cif.g08.bks.cpg/sg38_4_cif.got.tgz:6764.got - 2010.06.03 18:07:57.
