data_PCOD9359912
_publ_section_title
;
Structure prediction by ZEFSAII (Michael W. Deem and Ramdas Pophale) SiO2 
 PCOD9359912
Probable space group: A B M 2
;
_chemical_formula_sum "Si O2"
_cell_formula_units_Z 64
_cell_length_a 19.690393
_cell_length_b 18.513535
_cell_length_c 9.588180
_cell_angle_alpha 90.000000
_cell_angle_beta 90.000000
_cell_angle_gamma 90.000000
_cell_volume 3495.263439
_symmetry_space_group_name_H-M "A B M 2"
_symmetry_group_IT_number 39
_symmetry_cell_setting 'orthorhombic'
loop_
_space_group_symop_operation_xyz
x,y,z
-x,-y,z
-x,1/2+y,z
x,1/2-y,z
x,1/2+y,1/2+z
-x,1/2-y,1/2+z
-x,y,1/2+z
x,-y,1/2+z
loop_
_atom_site_type_symbol
_atom_site_label
_atom_site_fract_x
_atom_site_fract_y
_atom_site_fract_z
Si Si1 0.076525 0.913796 0.364380
Si Si2 0.432705 0.424027 0.234279
Si Si3 0.831377 0.413875 0.603656
Si Si4 0.298226 0.333535 0.572657
Si Si5 0.295942 0.334125 0.238731
Si Si6 0.565952 0.576184 0.573708
Si Si7 0.075278 0.414237 0.362686
Si Si8 0.832800 0.415565 0.103269
O O1 0.136445 0.884803 0.461477
O O2 0.105207 0.908587 0.209966
O O3 0.000480 0.884268 0.379957
O O4 0.071926 0.999862 0.395976
O O5 0.366955 0.374590 0.212068
O O6 0.443181 0.432288 0.403874
O O7 0.421332 0.500288 0.154192
O O8 0.499100 0.394174 0.153276
O O9 0.766169 0.372661 0.660538
O O10 0.895078 0.407952 0.708825
O O11 0.814383 0.499386 0.591127
O O12 0.301907 0.250000 0.611937
O O13 0.285527 0.338657 0.405804
O O14 0.369114 0.373568 0.597452
O O15 0.234744 0.373255 0.643222
O O16 0.299790 0.250000 0.200511
O O17 0.134219 0.385384 0.462010
#
# Coordination Sequence:
#
# PCOD9359912 Si02
#       8
#     8   8   8   8   8   8   8   8
#     4   9  18  28  49  81 110 131 174 233 277 320
#     4  10  20  37  61  88 113 140 176 220 266 316
#     4  10  18  32  53  79 106 139 181 225 273 320
#     4  10  21  37  56  77 108 150 187 217 258 319
#     4  10  21  37  56  77 108 150 187 217 258 319
#     4  10  20  37  61  88 113 140 176 220 266 316
#     4   9  16  30  51  77 106 141 174 221 279 326
#     4  10  18  32  53  79 106 139 181 225 273 320
#
# _framework density 18.310495
#
# number of rings (size 3 to 8) (size 9 to 14) (size 15 to 20)
#    0.000    2.250    1.250    3.000    0.000    3.500 
#    4.500    0.625    0.000    4.500    0.000    0.000 
#    0.000    0.000    0.000    0.000    0.000    0.000 
#
# Total GULP energy -178228.665450 kJ/mol
# GULP energy per Si atom -5569.645795 kJ/mol
# Density = 1.826882 g / cm^3
# Si number density = 18.310495 Si / 1000 Ang^3
#
#
#
# Elastic Constant Matrix: (Units=GPa)
#
#
# Indices 1 2 3 4 5 6 
#
# 1 147.6493 58.8360 18.5402 0.0000 0.0000 0.0000
# 2 58.8360 55.0314 15.1692 0.0000 0.0000 0.0000
# 3 18.5402 15.1692 49.4994 0.0000 0.0000 0.0000
# 4 0.0000 0.0000 0.0000 13.7302 0.0000 0.0000
# 5 0.0000 0.0000 0.0000 0.0000 153.1238 0.0000
# 6 0.0000 0.0000 0.0000 0.0000 0.0000 -5.8357
#
#
#
# Elastic Compliance Matrix: (Units=1/GPa)
#
#
# Indices 1 2 3 4 5 6 
#
# 1 0.011817 -0.012467 -0.000606 0.000000 0.000000 0.000000
# 2 -0.012467 0.033000 -0.005444 0.000000 0.000000 0.000000
# 3 -0.000606 -0.005444 0.022097 0.000000 0.000000 0.000000
# 4 0.000000 0.000000 0.000000 0.072832 0.000000 0.000000
# 5 0.000000 0.000000 0.000000 0.000000 0.006531 0.000000
# 6 0.000000 0.000000 0.000000 0.000000 0.000000 -0.171358
#
#
# Mechanical properties :
#
#
# Convention : Reuss Voigt Hill
#
# Bulk Modulus (GPa) = 33.46409 48.58566 41.02487
# Shear Modulus (GPa) = 228.19183 42.84597 135.51890
#
# Velocity S-wave (km/s) = 11.17560 4.84257 8.61233
# Velocity P-wave (km/s) = 13.59562 7.60653 11.01590
#
# Compressibility (1/GPa) = 0.02988278
#
# Stress axis : x y z
#
# Youngs Moduli (GPa) = 84.62667 30.30260 45.25443
#
# Poissons Ratio (x) = 0.37777 0.02740
# Poissons Ratio (y) = 1.05501 0.24635
# Poissons Ratio (z) = 0.05124 0.16496
#
# Static dielectric constant tensor:
#      x y z
#    x 1.576590 0.000000 0.000000 
#    y 0.000000 1.612790 0.000000 
#    z 0.000000 0.000000 1.681140 
# 
# From -- ./inp_files/3838.got.cif
#   From: 2010.05.17/outbox.cif.g08.bks.cpg/sg39_2_cif.got.tgz:3838.got - 2010.06.03 18:22:40.
