data_PCOD9359931
_publ_section_title
;
Structure prediction by ZEFSAII (Michael W. Deem and Ramdas Pophale) SiO2 
 PCOD9359931
Probable space group: A B M 2
;
_chemical_formula_sum "Si O2"
_cell_formula_units_Z 52
_cell_length_a 5.495364
_cell_length_b 18.325507
_cell_length_c 25.307881
_cell_angle_alpha 90.000000
_cell_angle_beta 90.000000
_cell_angle_gamma 90.000000
_cell_volume 2548.638544
_symmetry_space_group_name_H-M "A B M 2"
_symmetry_group_IT_number 39
_symmetry_cell_setting 'orthorhombic'
loop_
_space_group_symop_operation_xyz
x,y,z
-x,-y,z
-x,1/2+y,z
x,1/2-y,z
x,1/2+y,1/2+z
-x,1/2-y,1/2+z
-x,y,1/2+z
x,-y,1/2+z
loop_
_atom_site_type_symbol
_atom_site_label
_atom_site_fract_x
_atom_site_fract_y
_atom_site_fract_z
Si Si1 0.147763 0.388234 0.187240
Si Si2 0.633445 0.250000 0.104018
Si Si3 0.743328 0.542166 0.950377
Si Si4 0.646736 0.088808 0.146253
Si Si5 0.739097 0.162251 0.366423
Si Si6 0.760773 0.837682 0.306037
Si Si7 0.866506 0.250000 0.607453
Si Si8 0.500000 0.500000 0.551407
O O1 0.884452 0.424561 0.180925
O O2 0.133910 0.319422 0.146690
O O3 0.382168 0.432499 0.168046
O O4 0.206442 0.365152 0.246526
O O5 0.633978 0.177100 0.139364
O O6 0.887681 0.250000 0.074138
O O7 0.379372 0.250000 0.074206
O O8 0.500000 0.500000 0.929214
O O9 0.745263 0.619152 0.921326
O O10 0.000000 0.500000 0.942443
O O11 0.679770 0.544303 0.012754
O O12 0.655684 0.053611 0.088278
O O13 0.733135 0.250000 0.372504
O O14 0.495110 0.140425 0.333471
O O15 0.992136 0.142094 0.337140
O O16 0.754752 0.750000 0.303870
#
# Coordination Sequence:
#
# PCOD9359931 Si02
#       8
#     8   4   8   8   8   8   4   4
#     4  10  18  32  55  87 119 160 187 237 278 364
#     4   8  16  30  48  80 102 145 183 240 278 322
#     4  10  23  43  69  87 115 171 208 264 329 388
#     4  10  21  34  59  81 121 154 203 240 290 356
#     4  10  21  38  65  98 124 152 206 268 310 368
#     4  10  19  33  61  95 128 162 195 241 315 381
#     4   8  14  26  46  74 112 141 185 210 274 326
#     4  10  26  42  64  82 112 166 214 248 324 370
#
# _framework density 20.40305
#
# number of rings (size 3 to 8) (size 9 to 14) (size 15 to 20)
#    0.462    1.846    0.769    1.846    2.154    0.000 
#    1.385    0.000   18.615    0.000    0.000    0.000 
#    0.000    0.000    0.000    0.000    0.000    0.000 
#
# Total GULP energy -144783.375960 kJ/mol
# GULP energy per Si atom -5568.591383 kJ/mol
# Density = 2.035661 g / cm^3
# Si number density = 20.403050 Si / 1000 Ang^3
#
#
#
# Elastic Constant Matrix: (Units=GPa)
#
#
# Indices 1 2 3 4 5 6 
#
# 1 204.4311 14.4703 33.9408 0.0000 0.0000 0.0000
# 2 14.4703 34.8253 14.2340 0.0000 0.0000 0.0000
# 3 33.9408 14.2340 83.7714 0.0000 0.0000 0.0000
# 4 0.0000 0.0000 0.0000 49.6275 0.0000 0.0000
# 5 0.0000 0.0000 0.0000 0.0000 26.9807 0.0000
# 6 0.0000 0.0000 0.0000 0.0000 0.0000 21.6231
#
#
#
# Elastic Compliance Matrix: (Units=1/GPa)
#
#
# Indices 1 2 3 4 5 6 
#
# 1 0.005309 -0.001426 -0.001909 0.000000 0.000000 0.000000
# 2 -0.001426 0.031241 -0.004731 0.000000 0.000000 0.000000
# 3 -0.001909 -0.004731 0.013514 0.000000 0.000000 0.000000
# 4 0.000000 0.000000 0.000000 0.020150 0.000000 0.000000
# 5 0.000000 0.000000 0.000000 0.000000 0.037064 0.000000
# 6 0.000000 0.000000 0.000000 0.000000 0.000000 0.046247
#
#
# Mechanical properties :
#
#
# Convention : Reuss Voigt Hill
#
# Bulk Modulus (GPa) = 29.46902 49.81312 39.64107
# Shear Modulus (GPa) = 27.62930 37.00510 32.31720
#
# Velocity S-wave (km/s) = 3.68390 4.26338 3.98419
# Velocity P-wave (km/s) = 5.70698 6.97874 6.37465
#
# Compressibility (1/GPa) = 0.03393394
#
# Stress axis : x y z
#
# Youngs Moduli (GPa) = 188.34229 32.00945 73.99490
#
# Poissons Ratio (x) = 0.04564 0.14125
# Poissons Ratio (y) = 0.26856 0.35004
# Poissons Ratio (z) = 0.35953 0.15142
#
# Static dielectric constant tensor:
#      x y z
#    x 1.806230 0.000000 0.000000 
#    y 0.000000 1.773610 0.000000 
#    z 0.000000 0.000000 1.688530 
# 
# From -- ./inp_files/13563.got.cif
#   From: 2010.05.17/outbox.cif.g08.bks.cpg/sg39_7_cif.got.tgz:13563.got - 2010.06.03 18:22:40.
