data_PCOD9359226
_publ_section_title
;
Structure prediction by ZEFSAII (Michael W. Deem and Ramdas Pophale) SiO2 
 PCOD9359226
Probable space group: A M M 2
;
_chemical_formula_sum "Si O2"
_cell_formula_units_Z 48
_cell_length_a 14.252641
_cell_length_b 16.468785
_cell_length_c 9.329579
_cell_angle_alpha 90.000000
_cell_angle_beta 90.000000
_cell_angle_gamma 90.000000
_cell_volume 2189.873119
_symmetry_space_group_name_H-M "A M M 2"
_symmetry_group_IT_number 38
_symmetry_cell_setting 'orthorhombic'
loop_
_space_group_symop_operation_xyz
x,y,z
-x,-y,z
-x,y,z
x,-y,z
x,1/2+y,1/2+z
-x,1/2-y,1/2+z
-x,1/2+y,1/2+z
x,1/2-y,1/2+z
loop_
_atom_site_type_symbol
_atom_site_label
_atom_site_fract_x
_atom_site_fract_y
_atom_site_fract_z
Si Si1 0.681061 0.592182 0.963280
Si Si2 0.500000 0.099327 0.956508
Si Si3 0.202601 0.619620 0.692266
Si Si4 0.000000 0.140500 0.185679
Si Si5 0.705232 0.592371 0.401468
Si Si6 0.000000 0.692588 0.023079
Si Si7 0.500000 0.900959 0.287499
Si Si8 0.193921 0.314187 0.176310
O O1 0.662595 0.500000 0.014294
O O2 0.761774 0.590302 0.844101
O O3 0.590715 0.623709 0.878056
O O4 0.719665 0.650621 0.084818
O O5 0.598394 0.123412 0.883840
O O6 0.500000 0.000000 0.957052
O O7 0.500000 0.126767 0.122820
O O8 0.096310 0.593446 0.666504
O O9 0.273498 0.591598 0.570310
O O10 0.198972 0.717681 0.690296
O O11 0.000000 0.176235 0.351519
O O12 0.000000 0.212507 0.067570
O O13 0.711663 0.500000 0.347655
O O14 0.785964 0.646467 0.330283
O O15 0.095917 0.661839 0.099599
O O16 0.500000 0.000000 0.281989
#
# Coordination Sequence:
#
# PCOD9359226 Si02
#       8
#     8   4   8   4   8   4   4   8
#     4  11  21  39  63  89 119 159 204 248 299 359
#     4   9  18  37  62  86 117 164 206 240 297 374
#     4  11  22  40  64  89 118 160 206 248 294 364
#     4  10  22  38  63  90 122 164 208 242 298 376
#     4  11  23  41  64  90 123 162 205 251 303 363
#     4  10  22  40  63  88 122 168 202 242 302 378
#     4   9  18  35  62  88 117 162 208 242 293 372
#     4  11  24  40  61  92 126 156 199 254 310 356
#
# _framework density 21.919077999999999
#
# number of rings (size 3 to 8) (size 9 to 14) (size 15 to 20)
#    0.000    1.500    3.333    2.000    7.000    0.667 
#    0.000   12.500    0.000    0.000    0.000    0.000 
#    0.000    0.000    0.000    0.000    0.000    0.000 
#
# Total GULP energy -134075.808829 kJ/mol
# GULP energy per Si atom -5586.492035 kJ/mol
# Density = 2.186919 g / cm^3
# Si number density = 21.919078 Si / 1000 Ang^3
#
#
#
# Elastic Constant Matrix: (Units=GPa)
#
#
# Indices 1 2 3 4 5 6 
#
# 1 115.4102 16.6498 -11.0332 0.0000 0.0000 0.0000
# 2 16.6498 75.6549 13.6593 0.0000 0.0000 0.0000
# 3 -11.0332 13.6593 56.4332 0.0000 0.0000 0.0000
# 4 0.0000 0.0000 0.0000 31.4236 0.0000 0.0000
# 5 0.0000 0.0000 0.0000 0.0000 41.1141 0.0000
# 6 0.0000 0.0000 0.0000 0.0000 0.0000 13.5782
#
#
#
# Elastic Compliance Matrix: (Units=1/GPa)
#
#
# Indices 1 2 3 4 5 6 
#
# 1 0.009251 -0.002470 0.002407 0.000000 0.000000 0.000000
# 2 -0.002470 0.014482 -0.003988 0.000000 0.000000 0.000000
# 3 0.002407 -0.003988 0.019156 0.000000 0.000000 0.000000
# 4 0.000000 0.000000 0.000000 0.031823 0.000000 0.000000
# 5 0.000000 0.000000 0.000000 0.000000 0.024323 0.000000
# 6 0.000000 0.000000 0.000000 0.000000 0.000000 0.073648
#
#
# Mechanical properties :
#
#
# Convention : Reuss Voigt Hill
#
# Bulk Modulus (GPa) = 28.74823 31.78336 30.26580
# Shear Modulus (GPa) = 25.99006 32.43799 29.21402
#
# Velocity S-wave (km/s) = 3.44718 3.85112 3.65473
# Velocity P-wave (km/s) = 5.38406 5.85718 5.62560
#
# Compressibility (1/GPa) = 0.03478475
#
# Stress axis : x y z
#
# Youngs Moduli (GPa) = 108.09374 69.05279 52.20322
#
# Poissons Ratio (x) = 0.17059 -0.12564
# Poissons Ratio (y) = 0.26704 0.20820
# Poissons Ratio (z) = -0.26015 0.27540
#
# Static dielectric constant tensor:
#      x y z
#    x 1.812270 0.000000 0.000000 
#    y 0.000000 1.804340 0.000000 
#    z 0.000000 0.000000 1.794670 
# 
# From -- ./inp_files/5544.got.cif
#   From: 2010.05.17/outbox.cif.g08.bks.cpg/sg38_3_cif.got.tgz:5544.got - 2010.06.03 18:07:57.
