data_PCOD9359893
_publ_section_title
;
Structure prediction by ZEFSAII (Michael W. Deem and Ramdas Pophale) SiO2 
 PCOD9359893
Probable space group: A B M 2
;
_chemical_formula_sum "Si O2"
_cell_formula_units_Z 64
_cell_length_a 14.707938
_cell_length_b 8.465110
_cell_length_c 32.419889
_cell_angle_alpha 90.000000
_cell_angle_beta 90.000000
_cell_angle_gamma 90.000000
_cell_volume 4036.416009
_symmetry_space_group_name_H-M "A B M 2"
_symmetry_group_IT_number 39
_symmetry_cell_setting 'orthorhombic'
loop_
_space_group_symop_operation_xyz
x,y,z
-x,-y,z
-x,1/2+y,z
x,1/2-y,z
x,1/2+y,1/2+z
-x,1/2-y,1/2+z
-x,y,1/2+z
x,-y,1/2+z
loop_
_atom_site_type_symbol
_atom_site_label
_atom_site_fract_x
_atom_site_fract_y
_atom_site_fract_z
Si Si1 0.103536 0.559722 0.433240
Si Si2 0.102694 0.059269 0.185239
Si Si3 0.782635 0.439348 0.765381
Si Si4 0.896147 0.058542 0.523423
Si Si5 0.895974 0.059870 0.342665
Si Si6 0.401378 0.060727 0.139019
Si Si7 0.401624 0.062296 0.732364
Si Si8 0.212048 0.942849 0.603742
O O1 0.104296 0.750000 0.433166
O O2 0.140247 0.508677 0.478031
O O3 0.139604 0.509795 0.388338
O O4 0.000000 0.500000 0.433447
O O5 0.102063 0.250000 0.185260
O O6 0.159284 0.007177 0.225338
O O7 0.152425 0.007150 0.143257
O O8 0.000000 0.000000 0.186932
O O9 0.778221 0.250000 0.764447
O O10 0.834150 0.494221 0.806257
O O11 0.681635 0.506734 0.760371
O O12 0.898405 0.250000 0.524300
O O13 0.834351 0.003517 0.561398
O O14 0.000000 0.000000 0.528161
O O15 0.897320 0.250000 0.340700
O O16 0.000000 0.000000 0.338165
O O17 0.403015 0.250000 0.139535
O O18 0.315862 0.007344 0.111699
O O19 0.500000 0.000000 0.125485
O O20 0.386520 0.004590 0.186099
O O21 0.404425 0.250000 0.729942
O O22 0.500000 0.000000 0.746304
O O23 0.211732 0.750000 0.603385
#
# Coordination Sequence:
#
# PCOD9359893 Si02
#       8
#     8   8   8   8   8   8   8   8
#     4   8  15  27  44  65  90 118 154 195 233 276
#     4  10  20  32  43  60  90 125 156 188 222 265
#     4  11  21  34  49  67  94 126 160 196 235 276
#     4   9  16  28  46  67  91 123 156 189 231 275
#     4  10  19  31  46  68  96 126 160 198 238 282
#     4  10  18  32  49  67  91 120 155 196 238 277
#     4  11  21  34  52  72  93 120 155 196 239 282
#     4   9  17  30  46  64  91 123 153 189 232 278
#
# _framework density 15.855650000000001
#
# number of rings (size 3 to 8) (size 9 to 14) (size 15 to 20)
#    0.000    2.250    1.250    3.750    0.000    2.500 
#    0.000    1.250    0.000    0.000    0.000    0.875 
#    0.000    2.000    0.000    0.000    0.000    0.000 
#
# Total GULP energy -178383.328921 kJ/mol
# GULP energy per Si atom -5574.479029 kJ/mol
# Density = 1.581956 g / cm^3
# Si number density = 15.855650 Si / 1000 Ang^3
#
#
#
# Elastic Constant Matrix: (Units=GPa)
#
#
# Indices 1 2 3 4 5 6 
#
# 1 121.0276 23.9204 76.8291 0.0000 0.0000 0.0000
# 2 23.9204 36.7936 23.6672 0.0000 0.0000 0.0000
# 3 76.8291 23.6672 149.7971 0.0000 0.0000 0.0000
# 4 0.0000 0.0000 0.0000 17.7196 0.0000 0.0000
# 5 0.0000 0.0000 0.0000 0.0000 9.4347 0.0000
# 6 0.0000 0.0000 0.0000 0.0000 0.0000 23.8467
#
#
#
# Elastic Compliance Matrix: (Units=1/GPa)
#
#
# Indices 1 2 3 4 5 6 
#
# 1 0.012916 -0.004604 -0.005897 0.000000 0.000000 0.000000
# 2 -0.004604 0.031894 -0.002678 0.000000 0.000000 0.000000
# 3 -0.005897 -0.002678 0.010123 0.000000 0.000000 0.000000
# 4 0.000000 0.000000 0.000000 0.056435 0.000000 0.000000
# 5 0.000000 0.000000 0.000000 0.000000 0.105992 0.000000
# 6 0.000000 0.000000 0.000000 0.000000 0.000000 0.041935
#
#
# Mechanical properties :
#
#
# Convention : Reuss Voigt Hill
#
# Bulk Modulus (GPa) = 34.99437 61.82795 48.41116
# Shear Modulus (GPa) = 16.93898 22.41364 19.67631
#
# Velocity S-wave (km/s) = 3.27207 3.76387 3.52656
# Velocity P-wave (km/s) = 6.03272 7.61367 6.86883
#
# Compressibility (1/GPa) = 0.02857602
#
# Stress axis : x y z
#
# Youngs Moduli (GPa) = 77.42341 31.35367 98.78166
#
# Poissons Ratio (x) = 0.14434 0.58252
# Poissons Ratio (y) = 0.35644 0.26453
# Poissons Ratio (z) = 0.45657 0.08396
#
# Static dielectric constant tensor:
#      x y z
#    x 1.506450 0.000000 0.000000 
#    y 0.000000 1.528820 0.000000 
#    z 0.000000 0.000000 1.553180 
# 
# From -- ./inp_files/17945.got.cif
#   From: 2010.05.17/outbox.cif.g08.bks.cpg/sg39_9_cif.got.tgz:17945.got - 2010.06.03 18:22:40.
