data_PCOD9359824
_publ_section_title
;
Structure prediction by ZEFSAII (Michael W. Deem and Ramdas Pophale) SiO2 
 PCOD9359824
Probable space group: A B M 2
;
_chemical_formula_sum "Si O2"
_cell_formula_units_Z 56
_cell_length_a 15.983982
_cell_length_b 8.409425
_cell_length_c 20.937397
_cell_angle_alpha 90.000000
_cell_angle_beta 90.000000
_cell_angle_gamma 90.000000
_cell_volume 2814.323203
_symmetry_space_group_name_H-M "A B M 2"
_symmetry_group_IT_number 39
_symmetry_cell_setting 'orthorhombic'
loop_
_space_group_symop_operation_xyz
x,y,z
-x,-y,z
-x,1/2+y,z
x,1/2-y,z
x,1/2+y,1/2+z
-x,1/2-y,1/2+z
-x,y,1/2+z
x,-y,1/2+z
loop_
_atom_site_type_symbol
_atom_site_label
_atom_site_fract_x
_atom_site_fract_y
_atom_site_fract_z
Si Si1 0.589147 0.941324 0.131210
Si Si2 0.772059 0.942400 0.086149
Si Si3 0.090697 0.439381 0.685605
Si Si4 0.631512 0.939723 0.274588
Si Si5 0.228925 0.556096 0.445647
Si Si6 0.814901 0.557012 0.807079
Si Si7 0.586780 0.563108 0.910486
O O1 0.588494 0.750000 0.128914
O O2 0.675714 0.994039 0.098025
O O3 0.597635 0.990603 0.205701
O O4 0.500000 0.000000 0.105672
O O5 0.771894 0.750000 0.088681
O O6 0.835216 0.002128 0.139770
O O7 0.800742 0.994052 0.015392
O O8 0.090172 0.250000 0.684107
O O9 0.112585 0.490487 0.758296
O O10 0.000000 0.500000 0.665816
O O11 0.620737 0.750000 0.281014
O O12 0.729261 0.983779 0.279642
O O13 0.590460 0.025141 0.335022
O O14 0.229899 0.750000 0.445546
O O15 0.180018 0.508037 0.381434
O O16 0.325284 0.500219 0.437449
O O17 0.806788 0.750000 0.805759
O O18 0.500000 0.500000 0.937551
O O19 0.587633 0.750000 0.920223
#
# Coordination Sequence:
#
# PCOD9359824 Si02
#       7
#     8   8   8   8   8   8   8
#     4  10  21  32  48  76 110 150 193 234 281 329
#     4  10  20  39  60  82 116 155 193 236 284 336
#     4  11  23  39  63  91 117 146 184 231 286 345
#     4  10  18  30  49  76 107 143 186 236 289 332
#     4   8  17  34  57  78 106 148 186 227 281 334
#     4   9  18  35  58  84 110 142 182 228 282 336
#     4  10  19  31  47  73 106 146 194 238 285 334
#
# _framework density 19.898212000000001
#
# number of rings (size 3 to 8) (size 9 to 14) (size 15 to 20)
#    0.000    2.286    1.429    2.571    0.000    4.000 
#    0.000    4.286    0.000    1.714    0.000    0.000 
#    0.000    0.000    0.000    0.000    0.000    0.000 
#
# Total GULP energy -156203.434752 kJ/mol
# GULP energy per Si atom -5578.694098 kJ/mol
# Density = 1.985292 g / cm^3
# Si number density = 19.898212 Si / 1000 Ang^3
#
#
#
# Elastic Constant Matrix: (Units=GPa)
#
#
# Indices 1 2 3 4 5 6 
#
# 1 95.0903 9.8845 45.8157 0.0000 0.0000 0.0000
# 2 9.8845 8.3262 12.9352 0.0000 0.0000 0.0000
# 3 45.8157 12.9352 127.5267 0.0000 0.0000 0.0000
# 4 0.0000 0.0000 0.0000 11.4030 0.0000 0.0000
# 5 0.0000 0.0000 0.0000 0.0000 -6.9550 0.0000
# 6 0.0000 0.0000 0.0000 0.0000 0.0000 26.2423
#
#
#
# Elastic Compliance Matrix: (Units=1/GPa)
#
#
# Indices 1 2 3 4 5 6 
#
# 1 0.013383 -0.009993 -0.003795 0.000000 0.000000 0.000000
# 2 -0.009993 0.150029 -0.011627 0.000000 0.000000 0.000000
# 3 -0.003795 -0.011627 0.010384 0.000000 0.000000 0.000000
# 4 0.000000 0.000000 0.000000 0.087696 0.000000 0.000000
# 5 0.000000 0.000000 0.000000 0.000000 -0.143782 0.000000
# 6 0.000000 0.000000 0.000000 0.000000 0.000000 0.038106
#
#
# Mechanical properties :
#
#
# Convention : Reuss Voigt Hill
#
# Bulk Modulus (GPa) = 8.13229 40.91268 24.52249
# Shear Modulus (GPa) = 20.19089 16.95859 18.57474
#
# Velocity S-wave (km/s) = 3.18890 2.92253 3.05862
# Velocity P-wave (km/s) = 4.20174 5.65631 4.98239
#
# Compressibility (1/GPa) = 0.12296654
#
# Stress axis : x y z
#
# Youngs Moduli (GPa) = 74.71972 6.66536 96.30090
#
# Poissons Ratio (x) = 0.06661 0.36542
# Poissons Ratio (y) = 0.74669 1.11974
# Poissons Ratio (z) = 0.28353 0.07750
#
# Static dielectric constant tensor:
#      x y z
#    x 1.698890 0.000000 0.000000 
#    y 0.000000 1.689420 0.000000 
#    z 0.000000 0.000000 1.730240 
# 
# From -- ./inp_files/14733.got.cif
#   From: 2010.05.17/outbox.cif.g08.bks.cpg/sg39_8_cif.got.tgz:14733.got - 2010.06.03 18:22:40.
