data_PCOD9359274
_publ_section_title
;
Structure prediction by ZEFSAII (Michael W. Deem and Ramdas Pophale) SiO2 
 PCOD9359274
Probable space group: A M M 2
;
_chemical_formula_sum "Si O2"
_cell_formula_units_Z 40
_cell_length_a 8.763494
_cell_length_b 11.666208
_cell_length_c 20.300100
_cell_angle_alpha 90.000000
_cell_angle_beta 90.000000
_cell_angle_gamma 90.000000
_cell_volume 2075.416123
_symmetry_space_group_name_H-M "A M M 2"
_symmetry_group_IT_number 38
_symmetry_cell_setting 'orthorhombic'
loop_
_space_group_symop_operation_xyz
x,y,z
-x,-y,z
-x,y,z
x,-y,z
x,1/2+y,1/2+z
-x,1/2-y,1/2+z
-x,1/2+y,1/2+z
x,1/2-y,1/2+z
loop_
_atom_site_type_symbol
_atom_site_label
_atom_site_fract_x
_atom_site_fract_y
_atom_site_fract_z
Si Si1 0.318226 0.224969 0.664210
Si Si2 0.819136 0.500000 0.232739
Si Si3 0.820068 0.135277 0.276666
Si Si4 0.680909 0.255211 0.906586
Si Si5 0.182146 0.366523 0.034548
Si Si6 0.680744 0.000000 0.875527
O O1 0.500000 0.228762 0.666638
O O2 0.248155 0.328319 0.706423
O O3 0.261046 0.211904 0.589628
O O4 0.255790 0.111498 0.700581
O O5 0.780873 0.500000 0.309761
O O6 0.000000 0.500000 0.220802
O O7 0.736639 0.204329 0.334770
O O8 0.000000 0.162983 0.278092
O O9 0.801279 0.000000 0.288130
O O10 0.500000 0.275312 0.912325
O O11 0.709229 0.118868 0.912980
O O12 0.767978 0.325269 0.962580
O O13 0.226902 0.500000 0.044385
O O14 0.000000 0.359636 0.041634
O O15 0.500000 0.000000 0.856622
#
# Coordination Sequence:
#
# PCOD9359274 Si02
#       6
#     8   4   8   8   8   4
#     4  12  24  40  65  94 125 161 207 258 310 369
#     4  12  22  36  64  96 126 159 200 253 312 366
#     4  11  24  42  64  92 127 165 208 256 310 371
#     4  11  23  40  64  92 126 164 208 257 308 369
#     4  11  24  42  64  90 124 164 208 257 310 370
#     4  10  22  40  62  92 126 163 204 253 308 364
#
# _framework density 19.273243999999998
#
# number of rings (size 3 to 8) (size 9 to 14) (size 15 to 20)
#    0.000    0.800    3.000    5.100    0.000    6.000 
#    1.800    0.000    0.000    0.000    0.000    0.000 
#    0.000    0.000    0.000    0.000    0.000    0.000 
#
# Total GULP energy -111873.934079 kJ/mol
# GULP energy per Si atom -5593.696704 kJ/mol
# Density = 1.922938 g / cm^3
# Si number density = 19.273244 Si / 1000 Ang^3
#
#
#
# Elastic Constant Matrix: (Units=GPa)
#
#
# Indices 1 2 3 4 5 6 
#
# 1 75.9037 30.3381 9.3822 0.0000 0.0000 0.0000
# 2 30.3381 61.4842 11.5543 0.0000 0.0000 0.0000
# 3 9.3822 11.5543 74.7608 0.0000 0.0000 0.0000
# 4 0.0000 0.0000 0.0000 33.5203 0.0000 0.0000
# 5 0.0000 0.0000 0.0000 0.0000 39.0186 0.0000
# 6 0.0000 0.0000 0.0000 0.0000 0.0000 27.2683
#
#
#
# Elastic Compliance Matrix: (Units=1/GPa)
#
#
# Indices 1 2 3 4 5 6 
#
# 1 0.016462 -0.007966 -0.000835 0.000000 0.000000 0.000000
# 2 -0.007966 0.020605 -0.002185 0.000000 0.000000 0.000000
# 3 -0.000835 -0.002185 0.013818 0.000000 0.000000 0.000000
# 4 0.000000 0.000000 0.000000 0.029833 0.000000 0.000000
# 5 0.000000 0.000000 0.000000 0.000000 0.025629 0.000000
# 6 0.000000 0.000000 0.000000 0.000000 0.000000 0.036673
#
#
# Mechanical properties :
#
#
# Convention : Reuss Voigt Hill
#
# Bulk Modulus (GPa) = 34.58455 34.96644 34.77549
# Shear Modulus (GPa) = 28.63216 30.68637 29.65926
#
# Velocity S-wave (km/s) = 3.85852 3.99453 3.92712
# Velocity P-wave (km/s) = 6.15095 6.28148 6.21655
#
# Compressibility (1/GPa) = 0.02891465
#
# Stress axis : x y z
#
# Youngs Moduli (GPa) = 60.74733 48.53075 72.36710
#
# Poissons Ratio (x) = 0.38659 0.06041
# Poissons Ratio (y) = 0.48390 0.15812
# Poissons Ratio (z) = 0.05071 0.10604
#
# Static dielectric constant tensor:
#      x y z
#    x 1.641710 0.000000 0.000000 
#    y 0.000000 1.700550 0.000000 
#    z 0.000000 0.000000 1.644940 
# 
# From -- ./inp_files/19517.got.cif
#   From: 2010.05.17/outbox.cif.g08.bks.cpg/sg38_10_cif.got.tgz:19517.got - 2010.06.03 18:07:57.
