data_PCOD9359337
_publ_section_title
;
Structure prediction by ZEFSAII (Michael W. Deem and Ramdas Pophale) SiO2 
 PCOD9359337
Probable space group: A M M 2
;
_chemical_formula_sum "Si O2"
_cell_formula_units_Z 56
_cell_length_a 21.853016
_cell_length_b 8.647241
_cell_length_c 15.794066
_cell_angle_alpha 90.000000
_cell_angle_beta 90.000000
_cell_angle_gamma 90.000000
_cell_volume 2984.577738
_symmetry_space_group_name_H-M "A M M 2"
_symmetry_group_IT_number 38
_symmetry_cell_setting 'orthorhombic'
loop_
_space_group_symop_operation_xyz
x,y,z
-x,-y,z
-x,y,z
x,-y,z
x,1/2+y,1/2+z
-x,1/2-y,1/2+z
-x,1/2+y,1/2+z
x,1/2-y,1/2+z
loop_
_atom_site_type_symbol
_atom_site_label
_atom_site_fract_x
_atom_site_fract_y
_atom_site_fract_z
Si Si1 0.847172 0.314644 0.105630
Si Si2 0.071388 0.313570 0.756563
Si Si3 0.625744 0.813820 0.952472
Si Si4 0.930007 0.311737 0.949545
Si Si5 0.629958 0.315231 0.261871
Si Si6 0.710698 0.814872 0.109831
Si Si7 0.500000 0.183253 0.518172
Si Si8 0.500000 0.815811 0.207109
O O1 0.845189 0.500000 0.103807
O O2 0.884978 0.261041 0.187554
O O3 0.778788 0.250694 0.107772
O O4 0.883620 0.259363 0.021821
O O5 0.076666 0.500000 0.752028
O O6 0.085825 0.265672 0.853393
O O7 0.000000 0.274372 0.740598
O O8 0.648555 0.777524 0.858145
O O9 0.560865 0.733647 0.969116
O O10 0.616880 0.000000 0.957632
O O11 0.672485 0.767383 0.026328
O O12 0.930240 0.500000 0.950171
O O13 0.000000 0.262595 0.967627
O O14 0.629992 0.500000 0.251759
O O15 0.674016 0.242865 0.191854
O O16 0.561357 0.253816 0.247067
O O17 0.712995 0.000000 0.111245
O O18 0.500000 0.270099 0.608214
O O19 0.500000 0.000000 0.532739
O O20 0.500000 0.000000 0.216052
#
# Coordination Sequence:
#
# PCOD9359337 Si02
#       8
#     8   8   8   8   8   8   4   4
#     4  11  22  36  57  84 116 152 193 241 286 339
#     4   9  18  35  59  86 116 150 189 234 285 345
#     4  10  23  42  63  86 119 154 189 241 302 353
#     4   8  16  33  57  84 114 149 188 232 284 340
#     4  11  23  41  64  91 118 151 194 244 296 348
#     4  11  24  42  60  81 115 160 198 239 290 349
#     4  12  23  36  63  94 120 152 195 243 288 347
#     4  12  23  38  61  90 124 158 191 237 296 347
#
# _framework density 18.763124000000001
#
# number of rings (size 3 to 8) (size 9 to 14) (size 15 to 20)
#    0.000    1.714    1.429    4.286    0.000    5.429 
#    0.000    4.286    0.000    1.714    0.000    0.000 
#    0.000    0.000    0.000    0.000    0.000    0.000 
#
# Total GULP energy -156463.287033 kJ/mol
# GULP energy per Si atom -5587.974537 kJ/mol
# Density = 1.872042 g / cm^3
# Si number density = 18.763124 Si / 1000 Ang^3
#
#
#
# Elastic Constant Matrix: (Units=GPa)
#
#
# Indices 1 2 3 4 5 6 
#
# 1 165.0370 47.9233 114.8468 0.0000 0.0000 0.0000
# 2 47.9233 41.2271 47.0478 0.0000 0.0000 0.0000
# 3 114.8468 47.0478 170.0998 0.0000 0.0000 0.0000
# 4 0.0000 0.0000 0.0000 26.2213 0.0000 0.0000
# 5 0.0000 0.0000 0.0000 0.0000 -5.0063 0.0000
# 6 0.0000 0.0000 0.0000 0.0000 0.0000 11.5716
#
#
#
# Elastic Compliance Matrix: (Units=1/GPa)
#
#
# Indices 1 2 3 4 5 6 
#
# 1 0.012781 -0.007319 -0.006605 0.000000 0.000000 0.000000
# 2 -0.007319 0.039635 -0.006021 0.000000 0.000000 0.000000
# 3 -0.006605 -0.006021 0.012004 0.000000 0.000000 0.000000
# 4 0.000000 0.000000 0.000000 0.038137 0.000000 0.000000
# 5 0.000000 0.000000 0.000000 0.000000 -0.199749 0.000000
# 6 0.000000 0.000000 0.000000 0.000000 0.000000 0.086419
#
#
# Mechanical properties :
#
#
# Convention : Reuss Voigt Hill
#
# Bulk Modulus (GPa) = 40.76734 88.44440 64.60587
# Shear Modulus (GPa) = 134.07521 17.66038 75.86779
#
# Velocity S-wave (km/s) = 8.46238 3.07127 6.36571
# Velocity P-wave (km/s) = 10.82853 7.73412 9.40940
#
# Compressibility (1/GPa) = 0.02452944
#
# Stress axis : x y z
#
# Youngs Moduli (GPa) = 78.24210 25.23026 83.30859
#
# Poissons Ratio (x) = 0.18467 0.55024
# Poissons Ratio (y) = 0.57269 0.50158
# Poissons Ratio (z) = 0.51677 0.15190
#
# Static dielectric constant tensor:
#      x y z
#    x 1.612500 0.000000 0.000000 
#    y 0.000000 1.632510 0.000000 
#    z 0.000000 0.000000 1.652980 
# 
# From -- ./inp_files/15563.got.cif
#   From: 2010.05.17/outbox.cif.g08.bks.cpg/sg38_8_cif.got.tgz:15563.got - 2010.06.03 18:07:57.
