data_PCOD9359379
_publ_section_title
;
Structure prediction by ZEFSAII (Michael W. Deem and Ramdas Pophale) SiO2 
 PCOD9359379
Probable space group: A M M 2
;
_chemical_formula_sum "Si O2"
_cell_formula_units_Z 64
_cell_length_a 14.250683
_cell_length_b 27.554153
_cell_length_c 9.775760
_cell_angle_alpha 90.000000
_cell_angle_beta 90.000000
_cell_angle_gamma 90.000000
_cell_volume 3838.603686
_symmetry_space_group_name_H-M "A M M 2"
_symmetry_group_IT_number 38
_symmetry_cell_setting 'orthorhombic'
loop_
_space_group_symop_operation_xyz
x,y,z
-x,-y,z
-x,y,z
x,-y,z
x,1/2+y,1/2+z
-x,1/2-y,1/2+z
-x,1/2+y,1/2+z
x,1/2-y,1/2+z
loop_
_atom_site_type_symbol
_atom_site_label
_atom_site_fract_x
_atom_site_fract_y
_atom_site_fract_z
Si Si1 0.209345 0.556792 0.818500
Si Si2 0.605080 0.059067 0.788988
Si Si3 0.395581 0.441150 0.972286
Si Si4 0.113908 0.693980 0.145361
Si Si5 0.890500 0.880263 0.090439
Si Si6 0.802980 0.554805 0.373091
Si Si7 0.114063 0.780360 0.953345
Si Si8 0.888633 0.918407 0.595819
O O1 0.212379 0.500000 0.775947
O O2 0.311487 0.572778 0.873140
O O3 0.170573 0.592142 0.702635
O O4 0.141994 0.561700 0.949697
O O5 0.500000 0.073777 0.833267
O O6 0.617939 0.074343 0.630358
O O7 0.695669 0.073824 0.876427
O O8 0.606921 0.000000 0.789699
O O9 0.500000 0.426029 0.928615
O O10 0.394145 0.500000 0.975669
O O11 0.146252 0.709744 0.297687
O O12 0.137309 0.638505 0.110815
O O13 0.000000 0.696263 0.147905
O O14 0.145641 0.731097 0.027313
O O15 0.000000 0.880648 0.130295
O O16 0.874105 0.910898 0.952490
O O17 0.862514 0.825596 0.051944
O O18 0.806602 0.500000 0.427458
O O19 0.833691 0.554562 0.215626
O O20 0.000000 0.779202 0.946661
O O21 0.000000 0.923494 0.614915
#
# Coordination Sequence:
#
# PCOD9359379 Si02
#       8
#     8   8   8   8   8   8   8   8
#     4  11  22  34  47  70 101 138 177 204 235 284
#     4   8  14  27  48  71  92 118 159 212 259 288
#     4   8  14  28  49  69  91 121 160 210 258 288
#     4   9  18  32  50  70  91 120 161 210 258 293
#     4  11  23  36  47  66 103 142 171 201 240 289
#     4  11  20  32  49  69  97 136 171 200 238 289
#     4   9  18  33  51  69  90 121 162 208 257 295
#     4  11  21  32  47  70  99 130 171 211 235 280
#
# _framework density 16.672729
#
# number of rings (size 3 to 8) (size 9 to 14) (size 15 to 20)
#    0.000    2.250    2.500    2.250    1.750    3.000 
#    0.000    0.625    0.000    3.000    0.000    0.000 
#    0.000    6.000    0.000    0.000    0.000    0.000 
#
# Total GULP energy -178341.697262 kJ/mol
# GULP energy per Si atom -5573.178039 kJ/mol
# Density = 1.663478 g / cm^3
# Si number density = 16.672729 Si / 1000 Ang^3
#
#
#
# Elastic Constant Matrix: (Units=GPa)
#
#
# Indices 1 2 3 4 5 6 
#
# 1 54.4227 6.9497 -9.1351 0.0000 0.0000 0.0000
# 2 6.9497 55.6940 3.3469 0.0000 0.0000 0.0000
# 3 -9.1351 3.3469 27.9472 0.0000 0.0000 0.0000
# 4 0.0000 0.0000 0.0000 20.6701 0.0000 0.0000
# 5 0.0000 0.0000 0.0000 0.0000 23.6915 0.0000
# 6 0.0000 0.0000 0.0000 0.0000 0.0000 -3.2813
#
#
#
# Elastic Compliance Matrix: (Units=1/GPa)
#
#
# Indices 1 2 3 4 5 6 
#
# 1 0.019894 -0.002894 0.006849 0.000000 0.000000 0.000000
# 2 -0.002894 0.018506 -0.003162 0.000000 0.000000 0.000000
# 3 0.006849 -0.003162 0.038399 0.000000 0.000000 0.000000
# 4 0.000000 0.000000 0.000000 0.048379 0.000000 0.000000
# 5 0.000000 0.000000 0.000000 0.000000 0.042209 0.000000
# 6 0.000000 0.000000 0.000000 0.000000 0.000000 -0.304755
#
#
# Mechanical properties :
#
#
# Convention : Reuss Voigt Hill
#
# Bulk Modulus (GPa) = 12.75742 15.59853 14.17798
# Shear Modulus (GPa) = -44.31662 17.34288 -13.48687
#
# Velocity S-wave (km/s) = -5.16120 3.22870 -2.84723
# Velocity P-wave (km/s) = 5.27722 4.82446 1.51223
#
# Compressibility (1/GPa) = 0.07838576
#
# Stress axis : x y z
#
# Youngs Moduli (GPa) = 50.26660 54.03529 26.04211
#
# Poissons Ratio (x) = 0.15638 -0.17837
# Poissons Ratio (y) = 0.14547 0.08235
# Poissons Ratio (z) = -0.34429 0.17087
#
# Static dielectric constant tensor:
#      x y z
#    x 1.573360 0.000000 0.000000 
#    y 0.000000 1.600170 0.000000 
#    z 0.000000 0.000000 1.577060 
# 
# From -- ./inp_files/6000.got.cif
#   From: 2010.05.17/outbox.cif.g08.bks.cpg/sg38_3_cif.got.tgz:6000.got - 2010.06.03 18:07:57.
