data_PCOD9359791
_publ_section_title
;
Structure prediction by ZEFSAII (Michael W. Deem and Ramdas Pophale) SiO2 
 PCOD9359791
Probable space group: A B M 2
;
_chemical_formula_sum "Si O2"
_cell_formula_units_Z 48
_cell_length_a 9.523322
_cell_length_b 14.736382
_cell_length_c 17.228905
_cell_angle_alpha 90.000000
_cell_angle_beta 90.000000
_cell_angle_gamma 90.000000
_cell_volume 2417.892655
_symmetry_space_group_name_H-M "A B M 2"
_symmetry_group_IT_number 39
_symmetry_cell_setting 'orthorhombic'
loop_
_space_group_symop_operation_xyz
x,y,z
-x,-y,z
-x,1/2+y,z
x,1/2-y,z
x,1/2+y,1/2+z
-x,1/2-y,1/2+z
-x,y,1/2+z
x,-y,1/2+z
loop_
_atom_site_type_symbol
_atom_site_label
_atom_site_fract_x
_atom_site_fract_y
_atom_site_fract_z
Si Si1 0.794279 0.355035 0.383570
Si Si2 0.633376 0.861855 0.730295
Si Si3 0.315424 0.140912 0.206057
Si Si4 0.150536 0.361893 0.051526
Si Si5 0.877640 0.148070 0.127141
Si Si6 0.039722 0.604620 0.781061
O O1 0.752180 0.250000 0.390552
O O2 0.701762 0.392329 0.312121
O O3 0.789607 0.395072 0.469534
O O4 0.955924 0.359348 0.354938
O O5 0.640401 0.750000 0.729516
O O6 0.473412 0.890488 0.720144
O O7 0.733787 0.893785 0.659600
O O8 0.320934 0.250000 0.203184
O O9 0.246765 0.111053 0.124416
O O10 0.205252 0.116200 0.273490
O O11 0.146305 0.250000 0.050443
O O12 0.989524 0.392412 0.067224
O O13 0.844320 0.250000 0.100241
O O14 0.971003 0.152584 0.206063
O O15 0.000000 0.500000 0.773677
#
# Coordination Sequence:
#
# PCOD9359791 Si02
#       6
#     8   8   8   8   8   8
#     4   9  16  29  45  63  87 117 146 180 221 264
#     4   8  14  25  45  67  89 114 144 179 221 264
#     4   9  16  29  47  68  89 113 144 184 224 264
#     4   8  14  25  45  66  86 112 144 177 217 261
#     4   8  14  28  46  64  85 113 144 177 213 261
#     4  10  18  28  43  64  85 113 152 183 214 258
#
# _framework density 19.851997999999998
#
# number of rings (size 3 to 8) (size 9 to 14) (size 15 to 20)
#    0.000    3.333    0.000    3.500    0.000    0.000 
#    0.000    8.333    0.000    8.000    0.000    9.333 
#    0.000    0.000    0.000    0.000    0.000    0.000 
#
# Total GULP energy -133608.144878 kJ/mol
# GULP energy per Si atom -5567.006037 kJ/mol
# Density = 1.980681 g / cm^3
# Si number density = 19.851998 Si / 1000 Ang^3
#
#
#
# Elastic Constant Matrix: (Units=GPa)
#
#
# Indices 1 2 3 4 5 6 
#
# 1 179.0050 -4.8367 48.3356 0.0000 0.0000 0.0000
# 2 -4.8367 34.8378 -9.0519 0.0000 0.0000 0.0000
# 3 48.3356 -9.0519 78.6641 0.0000 0.0000 0.0000
# 4 0.0000 0.0000 0.0000 -9.7838 0.0000 0.0000
# 5 0.0000 0.0000 0.0000 0.0000 17.2790 0.0000
# 6 0.0000 0.0000 0.0000 0.0000 0.0000 4.2638
#
#
#
# Elastic Compliance Matrix: (Units=1/GPa)
#
#
# Indices 1 2 3 4 5 6 
#
# 1 0.006698 -0.000144 -0.004132 0.000000 0.000000 0.000000
# 2 -0.000144 0.029592 0.003494 0.000000 0.000000 0.000000
# 3 -0.004132 0.003494 0.015653 0.000000 0.000000 0.000000
# 4 0.000000 0.000000 0.000000 -0.102209 0.000000 0.000000
# 5 0.000000 0.000000 0.000000 0.000000 0.057874 0.000000
# 6 0.000000 0.000000 0.000000 0.000000 0.000000 0.234533
#
#
# Mechanical properties :
#
#
# Convention : Reuss Voigt Hill
#
# Bulk Modulus (GPa) = 19.84962 40.15566 30.00264
# Shear Modulus (GPa) = 19.19391 19.55579 19.37485
#
# Velocity S-wave (km/s) = 3.11280 3.14200 3.12743
# Velocity P-wave (km/s) = 4.78955 5.78224 5.30915
#
# Compressibility (1/GPa) = 0.05037880
#
# Stress axis : x y z
#
# Youngs Moduli (GPa) = 149.28940 33.79265 63.88368
#
# Poissons Ratio (x) = 0.00486 0.26399
# Poissons Ratio (y) = 0.02146 -0.22318
# Poissons Ratio (z) = 0.61692 -0.11806
#
# Static dielectric constant tensor:
#      x y z
#    x 1.720770 0.000000 0.000000 
#    y 0.000000 1.750460 0.000000 
#    z 0.000000 0.000000 1.706470 
# 
# From -- ./inp_files/8345.got.cif
#   From: 2010.05.17/outbox.cif.g08.bks.cpg/sg39_5_cif.got.tgz:8345.got - 2010.06.03 18:22:40.
