data_PCOD9359644
_publ_section_title
;
Structure prediction by ZEFSAII (Michael W. Deem and Ramdas Pophale) SiO2 
 PCOD9359644
Probable space group: A M M 2
;
_chemical_formula_sum "Si O2"
_cell_formula_units_Z 24
_cell_length_a 9.000000
_cell_length_b 9.000000
_cell_length_c 30.000000
_cell_angle_alpha 90.000000
_cell_angle_beta 90.000000
_cell_angle_gamma 90.000000
_cell_volume 2430.000000
_symmetry_space_group_name_H-M "A M M 2"
_symmetry_group_IT_number 38
_symmetry_cell_setting 'orthorhombic'
loop_
_space_group_symop_operation_xyz
x,y,z
-x,-y,z
-x,y,z
x,-y,z
x,1/2+y,1/2+z
-x,1/2-y,1/2+z
-x,1/2+y,1/2+z
x,1/2-y,1/2+z
loop_
_atom_site_type_symbol
_atom_site_label
_atom_site_fract_x
_atom_site_fract_y
_atom_site_fract_z
Si Si1 0.323553 0.677569 0.373350
Si Si2 0.175735 0.322386 0.959927
Si Si3 0.330583 0.232745 0.052300
Si Si4 0.171128 0.000000 0.712932
Si Si5 0.172484 0.000000 0.113273
Si Si6 0.330205 0.230488 0.773308
Si Si7 0.341456 0.500000 0.121323
Si Si8 0.660095 0.000000 0.205578
O O1 0.500000 0.702010 0.380518
O O2 0.298097 0.500000 0.370268
O O3 0.237105 0.745675 0.415167
O O4 0.283965 0.746955 0.324918
O O5 0.196879 0.500000 0.956442
O O6 0.000000 0.292430 0.964788
O O7 0.261480 0.267749 0.004154
O O8 0.500000 0.178257 0.046190
O O9 0.228111 0.130754 0.082095
O O10 0.336177 0.368672 0.086284
O O11 0.223016 0.131191 0.744516
O O12 0.232969 0.000000 0.662822
O O13 0.000000 0.000000 0.707345
O O14 0.231757 0.000000 0.163817
O O15 0.000000 0.000000 0.117133
O O16 0.500000 0.170920 0.775815
O O17 0.334046 0.368821 0.740755
O O18 0.500000 0.500000 0.145338
O O19 0.500000 0.000000 0.182229
#
# Coordination Sequence:
#
# PCOD9359644 Si02
#       8
#     8   8   8   4   4   8   4   4
#     4  10  22  41  67  95 123 162 212 262 310 368
#     4  11  25  43  64  94 131 167 202 252 320 383
#     4  11  23  43  68  93 121 161 214 263 306 365
#     4  12  24  36  59  92 125 164 202 246 311 378
#     4  12  26  42  61  92 133 172 206 254 317 378
#     4  10  21  41  65  90 123 161 210 263 309 359
#     4  10  22  40  65  92 119 157 206 260 309 359
#     4  10  22  40  65  94 123 165 214 262 309 365
#
# _framework density 9.8765429999999999
#
# number of rings (size 3 to 8) (size 9 to 14) (size 15 to 20)
#    0.000    1.333    1.667    3.500    2.333    8.000 
#    0.000    0.000    0.000    0.000    0.000    0.000 
#    0.000    0.000    0.000    0.000    0.000    0.000 
#
# Total GULP energy -133618.721676 kJ/mol
# GULP energy per Si atom -5567.446736 kJ/mol
# Density = 0.985406 g / cm^3
# Si number density = 9.876543 Si / 1000 Ang^3
#
#
#
# Elastic Constant Matrix: (Units=GPa)
#
#
# Indices 1 2 3 4 5 6 
#
# 1 136.2551 104.5863 126.4833 0.0000 0.0000 0.0000
# 2 104.5863 -2.0578 15.2888 0.0000 0.0000 0.0000
# 3 126.4833 15.2888 203.6266 0.0000 0.0000 0.0000
# 4 0.0000 0.0000 0.0000 -15.8369 0.0000 0.0000
# 5 0.0000 0.0000 0.0000 0.0000 229.8762 0.0000
# 6 0.0000 0.0000 0.0000 0.0000 0.0000 14.6811
#
#
#
# Elastic Compliance Matrix: (Units=1/GPa)
#
#
# Indices 1 2 3 4 5 6 
#
# 1 0.000347 0.010306 -0.000990 0.000000 0.000000 0.000000
# 2 0.010306 -0.006252 -0.005932 0.000000 0.000000 0.000000
# 3 -0.000990 -0.005932 0.005971 0.000000 0.000000 0.000000
# 4 0.000000 0.000000 0.000000 -0.063144 0.000000 0.000000
# 5 0.000000 0.000000 0.000000 0.000000 0.004350 0.000000
# 6 0.000000 0.000000 0.000000 0.000000 0.000000 0.068115
#
#
# Mechanical properties :
#
#
# Convention : Reuss Voigt Hill
#
# Bulk Modulus (GPa) = 146.31901 92.28228 119.30065
# Shear Modulus (GPa) = 1020.93439 51.84178 536.38809
#
# Velocity S-wave (km/s) = 22.75896 5.12854 16.49654
# Velocity P-wave (km/s) = 27.65613 9.04923 20.57608
#
# Compressibility (1/GPa) = 0.00683438
#
# Stress axis : x y z
#
# Youngs Moduli (GPa) = 2878.26847 -159.94174 167.47578
#
# Poissons Ratio (x) = 1.64830 0.16573
# Poissons Ratio (y) = -29.66231 0.99345
# Poissons Ratio (z) = 2.84827 -0.94876
#
# Static dielectric constant tensor:
#      x y z
#    x 1.670660 0.000000 0.000000 
#    y 0.000000 1.470490 0.000000 
#    z 0.000000 0.000000 1.588680 
# 
# From -- ./inp_files/24449.got.cif
#   From: 2010.05.17/outbox.ucp.g08.bks.cvg/sg38_13_cif.got.tgz:24449.got - 2010.06.11 10:39:43.
