data_PCOD9359426
_publ_section_title
;
Structure prediction by ZEFSAII (Michael W. Deem and Ramdas Pophale) SiO2 
 PCOD9359426
Probable space group: A M M 2
;
_chemical_formula_sum "Si O2"
_cell_formula_units_Z 64
_cell_length_a 7.597378
_cell_length_b 29.447855
_cell_length_c 14.563498
_cell_angle_alpha 90.000000
_cell_angle_beta 90.000000
_cell_angle_gamma 90.000000
_cell_volume 3258.240227
_symmetry_space_group_name_H-M "A M M 2"
_symmetry_group_IT_number 38
_symmetry_cell_setting 'orthorhombic'
loop_
_space_group_symop_operation_xyz
x,y,z
-x,-y,z
-x,y,z
x,-y,z
x,1/2+y,1/2+z
-x,1/2-y,1/2+z
-x,1/2+y,1/2+z
x,1/2-y,1/2+z
loop_
_atom_site_type_symbol
_atom_site_label
_atom_site_fract_x
_atom_site_fract_y
_atom_site_fract_z
Si Si1 0.711581 0.551184 0.993990
Si Si2 0.287903 0.628074 0.650248
Si Si3 0.283810 0.121894 0.645756
Si Si4 0.201971 0.868437 0.363118
Si Si5 0.714758 0.377744 0.355654
Si Si6 0.715018 0.551853 0.510499
Si Si7 0.284718 0.801556 0.995758
Si Si8 0.701937 0.299865 0.013603
O O1 0.500000 0.548805 0.999683
O O2 0.779977 0.500000 0.988164
O O3 0.752757 0.582813 0.906939
O O4 0.771978 0.579126 0.083632
O O5 0.500000 0.627632 0.649522
O O6 0.231794 0.631794 0.754936
O O7 0.229517 0.582301 0.597658
O O8 0.232504 0.670293 0.586450
O O9 0.500000 0.122210 0.644668
O O10 0.226319 0.119791 0.750804
O O11 0.222510 0.167066 0.591995
O O12 0.300379 0.829679 0.420814
O O13 0.000000 0.859209 0.382819
O O14 0.500000 0.377867 0.354509
O O15 0.767965 0.420128 0.419640
O O16 0.770428 0.331971 0.408690
O O17 0.500000 0.551188 0.510895
O O18 0.775507 0.500000 0.512404
O O19 0.500000 0.801262 0.992652
O O20 0.220321 0.749922 0.998310
O O21 0.500000 0.291812 0.041920
#
# Coordination Sequence:
#
# PCOD9359426 Si02
#       8
#     8   8   8   8   8   8   8   8
#     4   9  18  33  51  70  93 123 159 198 241 288
#     4   9  17  31  49  70  96 125 160 199 236 278
#     4   8  14  24  40  64  92 118 146 187 236 284
#     4  11  22  34  48  69  97 128 161 197 239 285
#     4   8  13  22  38  66 100 123 146 187 236 281
#     4   8  14  24  40  65  96 125 150 182 230 284
#     4   8  15  27  46  71  96 124 158 197 238 279
#     4   9  17  31  49  69  94 125 162 200 238 280
#
# _framework density 19.642506000000001
#
# number of rings (size 3 to 8) (size 9 to 14) (size 15 to 20)
#    0.000    3.250    0.000    3.375    0.000    2.250 
#    0.000    8.125    0.000    0.000    0.000   14.000 
#    0.000    0.000    0.000    0.000    0.000    0.000 
#
# Total GULP energy -178387.898057 kJ/mol
# GULP energy per Si atom -5574.621814 kJ/mol
# Density = 1.959780 g / cm^3
# Si number density = 19.642506 Si / 1000 Ang^3
#
#
#
# Elastic Constant Matrix: (Units=GPa)
#
#
# Indices 1 2 3 4 5 6 
#
# 1 42.1192 0.5800 -6.3113 0.0000 0.0000 0.0000
# 2 0.5800 170.7543 69.3244 0.0000 0.0000 0.0000
# 3 -6.3113 69.3244 155.3755 0.0000 0.0000 0.0000
# 4 0.0000 0.0000 0.0000 4.6535 0.0000 0.0000
# 5 0.0000 0.0000 0.0000 0.0000 -30.0215 0.0000
# 6 0.0000 0.0000 0.0000 0.0000 0.0000 -16.0178
#
#
#
# Elastic Compliance Matrix: (Units=1/GPa)
#
#
# Indices 1 2 3 4 5 6 
#
# 1 0.023935 -0.000581 0.001232 0.000000 0.000000 0.000000
# 2 -0.000581 0.007166 -0.003221 0.000000 0.000000 0.000000
# 3 0.001232 -0.003221 0.007923 0.000000 0.000000 0.000000
# 4 0.000000 0.000000 0.000000 0.214892 0.000000 0.000000
# 5 0.000000 0.000000 0.000000 0.000000 -0.033310 0.000000
# 6 0.000000 0.000000 0.000000 0.000000 0.000000 -0.062431
#
#
# Mechanical properties :
#
#
# Convention : Reuss Voigt Hill
#
# Bulk Modulus (GPa) = 29.51372 55.04836 42.28104
# Shear Modulus (GPa) = 28.63512 12.03325 20.33418
#
# Velocity S-wave (km/s) = 3.82228 2.47779 3.22096
# Velocity P-wave (km/s) = 5.87688 6.02261 5.95019
#
# Compressibility (1/GPa) = 0.03388255
#
# Stress axis : x y z
#
# Youngs Moduli (GPa) = 41.78040 139.54810 126.21289
#
# Poissons Ratio (x) = 0.08112 -0.15544
# Poissons Ratio (y) = 0.02429 0.40652
# Poissons Ratio (z) = -0.05146 0.44947
#
# Static dielectric constant tensor:
#      x y z
#    x 1.723990 0.000000 0.000000 
#    y 0.000000 1.706200 0.000000 
#    z 0.000000 0.000000 1.653710 
# 
# From -- ./inp_files/13126.got.cif
#   From: 2010.05.17/outbox.cif.g08.bks.cpg/sg38_7_cif.got.tgz:13126.got - 2010.06.03 18:07:57.
