data_PCOD9359301
_publ_section_title
;
Structure prediction by ZEFSAII (Michael W. Deem and Ramdas Pophale) SiO2 
 PCOD9359301
Probable space group: A M M 2
;
_chemical_formula_sum "Si O2"
_cell_formula_units_Z 52
_cell_length_a 9.833062
_cell_length_b 19.407004
_cell_length_c 14.019198
_cell_angle_alpha 90.000000
_cell_angle_beta 90.000000
_cell_angle_gamma 90.000000
_cell_volume 2675.287390
_symmetry_space_group_name_H-M "A M M 2"
_symmetry_group_IT_number 38
_symmetry_cell_setting 'orthorhombic'
loop_
_space_group_symop_operation_xyz
x,y,z
-x,-y,z
-x,y,z
x,-y,z
x,1/2+y,1/2+z
-x,1/2-y,1/2+z
-x,1/2+y,1/2+z
x,1/2-y,1/2+z
loop_
_atom_site_type_symbol
_atom_site_label
_atom_site_fract_x
_atom_site_fract_y
_atom_site_fract_z
Si Si1 0.000000 0.596574 0.203960
Si Si2 0.500000 0.079233 0.622807
Si Si3 0.340490 0.076413 0.352001
Si Si4 0.216182 0.616761 0.045036
Si Si5 0.661621 0.290090 0.721785
Si Si6 0.150097 0.276107 0.544644
Si Si7 0.500000 0.577914 0.350580
Si Si8 0.772323 0.839201 0.844369
O O1 0.882175 0.582593 0.121870
O O2 0.879845 0.617277 0.282326
O O3 0.366024 0.118034 0.590113
O O4 0.500000 0.074795 0.735974
O O5 0.500000 0.000000 0.585658
O O6 0.500000 0.082741 0.383342
O O7 0.241469 0.082801 0.442617
O O8 0.316530 0.139724 0.281226
O O9 0.325762 0.000000 0.309241
O O10 0.162835 0.694021 0.031499
O O11 0.500000 0.278738 0.712228
O O12 0.735288 0.296213 0.620384
O O13 0.726205 0.225936 0.779478
O O14 0.165496 0.311308 0.442592
O O15 0.000000 0.290242 0.585687
O O16 0.500000 0.500000 0.388700
O O17 0.361913 0.618159 0.373489
#
# Coordination Sequence:
#
# PCOD9359301 Si02
#       8
#     4   4   8   8   8   8   4   8
#     4  12  24  38  63  94 135 168 210 272 324 398
#     4  11  22  37  60  87 127 171 207 258 327 402
#     4  10  22  41  64  96 137 175 211 267 338 395
#     4  12  21  37  62  97 129 169 213 264 329 395
#     4  11  23  39  67 100 128 169 224 278 318 391
#     4  12  25  40  66  96 129 173 220 275 333 386
#     4  11  24  43  64  89 124 167 213 274 336 390
#     4  12  23  43  65  94 129 169 222 273 335 391
#
# _framework density 19.437163000000002
#
# number of rings (size 3 to 8) (size 9 to 14) (size 15 to 20)
#    0.000    0.615    7.692    0.462    2.154    0.000 
#    1.385    4.231    0.000    0.923    0.000    0.000 
#    0.000    0.000    0.000    0.000    0.000    0.000 
#
# Total GULP energy -144740.240850 kJ/mol
# GULP energy per Si atom -5566.932340 kJ/mol
# Density = 1.939292 g / cm^3
# Si number density = 19.437163 Si / 1000 Ang^3
#
#
#
# Elastic Constant Matrix: (Units=GPa)
#
#
# Indices 1 2 3 4 5 6 
#
# 1 127.7847 17.8263 23.0373 0.0000 0.0000 0.0000
# 2 17.8263 67.5554 18.8936 0.0000 0.0000 0.0000
# 3 23.0373 18.8936 76.4184 0.0000 0.0000 0.0000
# 4 0.0000 0.0000 0.0000 5.4249 0.0000 0.0000
# 5 0.0000 0.0000 0.0000 0.0000 43.3734 0.0000
# 6 0.0000 0.0000 0.0000 0.0000 0.0000 -5.1127
#
#
#
# Elastic Compliance Matrix: (Units=1/GPa)
#
#
# Indices 1 2 3 4 5 6 
#
# 1 0.008439 -0.001628 -0.002142 0.000000 0.000000 0.000000
# 2 -0.001628 0.016216 -0.003519 0.000000 0.000000 0.000000
# 3 -0.002142 -0.003519 0.014601 0.000000 0.000000 0.000000
# 4 0.000000 0.000000 0.000000 0.184336 0.000000 0.000000
# 5 0.000000 0.000000 0.000000 0.000000 0.023056 0.000000
# 6 0.000000 0.000000 0.000000 0.000000 0.000000 -0.195593
#
#
# Mechanical properties :
#
#
# Convention : Reuss Voigt Hill
#
# Bulk Modulus (GPa) = 40.51768 43.47475 41.99621
# Shear Modulus (GPa) = 67.69768 22.87054 45.28411
#
# Velocity S-wave (km/s) = 5.90801 3.43394 4.83200
# Velocity P-wave (km/s) = 8.21159 6.17559 7.26527
#
# Compressibility (1/GPa) = 0.02468059
#
# Stress axis : x y z
#
# Youngs Moduli (GPa) = 118.49974 61.66647 68.48677
#
# Poissons Ratio (x) = 0.10039 0.14667
# Poissons Ratio (y) = 0.19290 0.24097
# Poissons Ratio (z) = 0.25377 0.21698
#
# Static dielectric constant tensor:
#      x y z
#    x 1.652210 0.000000 0.000000 
#    y 0.000000 1.733870 0.000000 
#    z 0.000000 0.000000 1.660730 
# 
# From -- ./inp_files/12342.got.cif
#   From: 2010.05.17/outbox.cif.g08.bks.cpg/sg38_7_cif.got.tgz:12342.got - 2010.06.03 18:07:57.
