data_PCOD9359152
_publ_section_title
;
Structure prediction by ZEFSAII (Michael W. Deem and Ramdas Pophale) SiO2 
 PCOD9359152
Probable space group: A M M 2
;
_chemical_formula_sum "Si O2"
_cell_formula_units_Z 40
_cell_length_a 8.266074
_cell_length_b 30.259463
_cell_length_c 7.426284
_cell_angle_alpha 90.000000
_cell_angle_beta 90.000000
_cell_angle_gamma 90.000000
_cell_volume 1857.513844
_symmetry_space_group_name_H-M "A M M 2"
_symmetry_group_IT_number 38
_symmetry_cell_setting 'orthorhombic'
loop_
_space_group_symop_operation_xyz
x,y,z
-x,-y,z
-x,y,z
x,-y,z
x,1/2+y,1/2+z
-x,1/2-y,1/2+z
-x,1/2+y,1/2+z
x,1/2-y,1/2+z
loop_
_atom_site_type_symbol
_atom_site_label
_atom_site_fract_x
_atom_site_fract_y
_atom_site_fract_z
Si Si1 0.691844 0.105193 0.553980
Si Si2 0.807074 0.624211 0.650012
Si Si3 0.314951 0.788614 0.265449
Si Si4 0.804584 0.549621 0.369816
Si Si5 0.183138 0.697505 0.142568
O O1 0.500000 0.106034 0.536138
O O2 0.766517 0.108715 0.354187
O O3 0.748172 0.063881 0.671549
O O4 0.749252 0.148474 0.666104
O O5 0.725937 0.672560 0.624252
O O6 0.748947 0.586533 0.512804
O O7 0.000000 0.629247 0.631121
O O8 0.500000 0.795107 0.325951
O O9 0.289411 0.738451 0.207817
O O10 0.191019 0.796739 0.426965
O O11 0.750423 0.500000 0.414636
O O12 0.000000 0.550199 0.372637
O O13 0.000000 0.700963 0.210229
#
# Coordination Sequence:
#
# PCOD9359152 Si02
#       5
#     8   8   8   8   8
#     4  11  23  40  62  91 128 164 203 256 316 374
#     4  10  21  40  64  90 123 163 210 258 309 372
#     4  11  22  37  57  86 122 159 201 252 309 365
#     4  10  23  43  67  93 121 161 213 262 312 373
#     4  11  22  38  59  85 119 162 208 249 298 369
#
# _framework density 21.534158999999999
#
# number of rings (size 3 to 8) (size 9 to 14) (size 15 to 20)
#    0.000    1.400    0.000    8.400    2.800    2.800 
#    0.000    2.000    0.000    0.000    0.000    0.000 
#    0.000    0.000    0.000    0.000    0.000    0.000 
#
# Total GULP energy -111763.729560 kJ/mol
# GULP energy per Si atom -5588.186478 kJ/mol
# Density = 2.148515 g / cm^3
# Si number density = 21.534159 Si / 1000 Ang^3
#
#
#
# Elastic Constant Matrix: (Units=GPa)
#
#
# Indices 1 2 3 4 5 6 
#
# 1 67.6454 10.0825 -7.5605 0.0000 0.0000 0.0000
# 2 10.0825 104.3743 25.2357 0.0000 0.0000 0.0000
# 3 -7.5605 25.2357 50.8811 0.0000 0.0000 0.0000
# 4 0.0000 0.0000 0.0000 36.6834 0.0000 0.0000
# 5 0.0000 0.0000 0.0000 0.0000 -3.2732 0.0000
# 6 0.0000 0.0000 0.0000 0.0000 0.0000 -53.7880
#
#
#
# Elastic Compliance Matrix: (Units=1/GPa)
#
#
# Indices 1 2 3 4 5 6 
#
# 1 0.015519 -0.002337 0.003465 0.000000 0.000000 0.000000
# 2 -0.002337 0.011238 -0.005921 0.000000 0.000000 0.000000
# 3 0.003465 -0.005921 0.023105 0.000000 0.000000 0.000000
# 4 0.000000 0.000000 0.000000 0.027260 0.000000 0.000000
# 5 0.000000 0.000000 0.000000 0.000000 -0.305511 0.000000
# 6 0.000000 0.000000 0.000000 0.000000 0.000000 -0.018591
#
#
# Mechanical properties :
#
#
# Convention : Reuss Voigt Hill
#
# Bulk Modulus (GPa) = 24.82869 30.93513 27.88191
# Shear Modulus (GPa) = -22.32459 8.93396 -6.69531
#
# Velocity S-wave (km/s) = -3.22328 2.03905 -1.76519
# Velocity P-wave (km/s) = 1.51585 4.46547 2.97007
#
# Compressibility (1/GPa) = 0.04027599
#
# Stress axis : x y z
#
# Youngs Moduli (GPa) = 64.43903 88.98177 43.28024
#
# Poissons Ratio (x) = 0.20794 -0.14996
# Poissons Ratio (y) = 0.15058 0.25627
# Poissons Ratio (z) = -0.22328 0.52687
#
# Static dielectric constant tensor:
#      x y z
#    x 1.725570 0.000000 0.000000 
#    y 0.000000 1.812010 0.000000 
#    z 0.000000 0.000000 1.814200 
# 
# From -- ./inp_files/3289.got.cif
#   From: 2010.05.17/outbox.cif.g08.bks.cpg/sg38_2_cif.got.tgz:3289.got - 2010.06.03 18:07:57.
