data_PCOD9359706
_publ_section_title
;
Structure prediction by ZEFSAII (Michael W. Deem and Ramdas Pophale) SiO2 
 PCOD9359706
Probable space group: A B M 2
;
_chemical_formula_sum "Si O2"
_cell_formula_units_Z 48
_cell_length_a 30.992064
_cell_length_b 14.234212
_cell_length_c 5.221712
_cell_angle_alpha 90.000000
_cell_angle_beta 90.000000
_cell_angle_gamma 90.000000
_cell_volume 2303.545765
_symmetry_space_group_name_H-M "A B M 2"
_symmetry_group_IT_number 39
_symmetry_cell_setting 'orthorhombic'
loop_
_space_group_symop_operation_xyz
x,y,z
-x,-y,z
-x,1/2+y,z
x,1/2-y,z
x,1/2+y,1/2+z
-x,1/2-y,1/2+z
-x,y,1/2+z
x,-y,1/2+z
loop_
_atom_site_type_symbol
_atom_site_label
_atom_site_fract_x
_atom_site_fract_y
_atom_site_fract_z
Si Si1 0.518418 0.605571 0.099600
Si Si2 0.324481 0.750000 0.732458
Si Si3 0.732219 0.250000 0.232507
Si Si4 0.977589 0.138433 0.075679
Si Si5 0.790119 0.065098 0.172490
Si Si6 0.112096 0.941773 0.238200
Si Si7 0.617817 0.935599 0.182980
O O1 0.500000 0.500000 0.061376
O O2 0.489972 0.648922 0.323796
O O3 0.568067 0.598613 0.175970
O O4 0.287437 0.750000 0.516852
O O5 0.352407 0.655869 0.693047
O O6 0.304846 0.750000 0.016866
O O7 0.759976 0.155538 0.192472
O O8 0.983329 0.250000 0.059845
O O9 0.929078 0.118974 0.163322
O O10 0.009958 0.101688 0.295337
O O11 0.840184 0.098103 0.187733
O O12 0.783478 0.993603 0.410846
O O13 0.109689 0.971972 0.534725
O O14 0.624805 0.001653 0.429682
#
# Coordination Sequence:
#
# PCOD9359706 Si02
#       7
#     8   4   4   8   8   8   8
#     4  10  16  32  61  90 119 167 217 247 298 371
#     4  12  30  44  62 107 126 161 234 246 314 426
#     4  12  26  48  70  91 132 169 204 272 330 390
#     4  10  21  35  52  80 120 165 202 236 291 371
#     4  10  23  43  70  99 124 159 216 268 326 392
#     4  10  21  37  58  89 117 148 203 257 301 365
#     4  12  23  42  68  91 136 176 204 269 319 350
#
# _framework density 20.837440000000001
#
# number of rings (size 3 to 8) (size 9 to 14) (size 15 to 20)
#    0.000    1.333    3.333    3.000    1.167    6.000 
#    0.000    0.833    0.000    0.000    0.000    0.000 
#    0.000    0.000    0.000    0.000    0.000    0.000 
#
# Total GULP energy -134101.282741 kJ/mol
# GULP energy per Si atom -5587.553448 kJ/mol
# Density = 2.079001 g / cm^3
# Si number density = 20.837440 Si / 1000 Ang^3
#
#
#
# Elastic Constant Matrix: (Units=GPa)
#
#
# Indices 1 2 3 4 5 6 
#
# 1 63.7177 30.7949 -2.0009 0.0000 0.0000 0.0000
# 2 30.7949 83.3579 8.1185 0.0000 0.0000 0.0000
# 3 -2.0009 8.1185 91.7352 0.0000 0.0000 0.0000
# 4 0.0000 0.0000 0.0000 4.5599 0.0000 0.0000
# 5 0.0000 0.0000 0.0000 0.0000 30.5346 0.0000
# 6 0.0000 0.0000 0.0000 0.0000 0.0000 84.3390
#
#
#
# Elastic Compliance Matrix: (Units=1/GPa)
#
#
# Indices 1 2 3 4 5 6 
#
# 1 0.019206 -0.007198 0.001056 0.000000 0.000000 0.000000
# 2 -0.007198 0.014799 -0.001467 0.000000 0.000000 0.000000
# 3 0.001056 -0.001467 0.011054 0.000000 0.000000 0.000000
# 4 0.000000 0.000000 0.000000 0.219303 0.000000 0.000000
# 5 0.000000 0.000000 0.000000 0.000000 0.032750 0.000000
# 6 0.000000 0.000000 0.000000 0.000000 0.000000 0.011857
#
#
# Mechanical properties :
#
#
# Convention : Reuss Voigt Hill
#
# Bulk Modulus (GPa) = 33.51120 34.73730 34.12425
# Shear Modulus (GPa) = 14.96408 37.34658 26.15533
#
# Velocity S-wave (km/s) = 2.68271 4.23813 3.54674
# Velocity P-wave (km/s) = 5.07080 6.37619 5.76059
#
# Compressibility (1/GPa) = 0.02984077
#
# Stress axis : x y z
#
# Youngs Moduli (GPa) = 52.06623 67.57423 90.46684
#
# Poissons Ratio (x) = 0.48641 -0.09553
# Poissons Ratio (y) = 0.37478 0.13268
# Poissons Ratio (z) = -0.05498 0.09911
#
# Static dielectric constant tensor:
#      x y z
#    x 1.729210 0.000000 0.000000 
#    y 0.000000 1.678060 0.000000 
#    z 0.000000 0.000000 1.770930 
# 
# From -- ./inp_files/1396.got.cif
#   From: 2010.05.17/outbox.cif.g08.bks.cpg/sg39_1_cif.got.tgz:1396.got - 2010.06.03 18:22:40.
