data_PCOD9359189
_publ_section_title
;
Structure prediction by ZEFSAII (Michael W. Deem and Ramdas Pophale) SiO2 
 PCOD9359189
Probable space group: A M M 2
;
_chemical_formula_sum "Si O2"
_cell_formula_units_Z 48
_cell_length_a 8.427908
_cell_length_b 18.823577
_cell_length_c 15.240965
_cell_angle_alpha 90.000000
_cell_angle_beta 90.000000
_cell_angle_gamma 90.000000
_cell_volume 2417.878129
_symmetry_space_group_name_H-M "A M M 2"
_symmetry_group_IT_number 38
_symmetry_cell_setting 'orthorhombic'
loop_
_space_group_symop_operation_xyz
x,y,z
-x,-y,z
-x,y,z
x,-y,z
x,1/2+y,1/2+z
-x,1/2-y,1/2+z
-x,1/2+y,1/2+z
x,1/2-y,1/2+z
loop_
_atom_site_type_symbol
_atom_site_label
_atom_site_fract_x
_atom_site_fract_y
_atom_site_fract_z
Si Si1 0.316286 0.606813 0.949110
Si Si2 0.313163 0.228020 0.198418
Si Si3 0.813915 0.000000 0.792086
Si Si4 0.814041 0.078615 0.264527
Si Si5 0.190683 0.344430 0.339044
Si Si6 0.687864 0.500000 0.101768
Si Si7 0.813247 0.746366 0.503285
O O1 0.500000 0.591677 0.927218
O O2 0.209856 0.580776 0.869317
O O3 0.280225 0.567103 0.039664
O O4 0.287692 0.689175 0.964468
O O5 0.500000 0.237450 0.185965
O O6 0.276517 0.147919 0.230338
O O7 0.256655 0.286276 0.270078
O O8 0.228055 0.236930 0.104801
O O9 0.746914 0.075692 0.824072
O O10 0.791463 0.000000 0.687785
O O11 0.000000 0.000000 0.816035
O O12 0.000000 0.086414 0.243263
O O13 0.760966 0.000000 0.233631
O O14 0.219898 0.319439 0.438726
O O15 0.000000 0.344840 0.325442
O O16 0.500000 0.500000 0.124904
O O17 0.000000 0.763521 0.494612
#
# Coordination Sequence:
#
# PCOD9359189 Si02
#       7
#     8   8   4   8   8   4   8
#     4  11  21  36  59  90 126 160 201 252 313 375
#     4  12  25  41  65  93 127 165 209 263 319 378
#     4  10  22  40  62  89 120 159 208 259 308 362
#     4  11  23  40  63  91 124 163 207 254 312 378
#     4  10  22  42  66  91 124 164 210 262 312 370
#     4  10  22  36  54  87 126 159 194 247 310 372
#     4  11  23  40  63  90 123 164 213 260 310 377
#
# _framework density 19.852118999999998
#
# number of rings (size 3 to 8) (size 9 to 14) (size 15 to 20)
#    0.000    1.167    2.500    4.000    0.000    6.333 
#    1.500    0.000    0.000    0.000    0.000    0.000 
#    0.000    0.000    0.000    0.000    0.000    0.000 
#
# Total GULP energy -134071.680373 kJ/mol
# GULP energy per Si atom -5586.320016 kJ/mol
# Density = 1.980693 g / cm^3
# Si number density = 19.852119 Si / 1000 Ang^3
#
#
#
# Elastic Constant Matrix: (Units=GPa)
#
#
# Indices 1 2 3 4 5 6 
#
# 1 31.3771 11.0318 5.8359 0.0000 0.0000 0.0000
# 2 11.0318 128.7790 22.7537 0.0000 0.0000 0.0000
# 3 5.8359 22.7537 67.2884 0.0000 0.0000 0.0000
# 4 0.0000 0.0000 0.0000 -155.0744 0.0000 0.0000
# 5 0.0000 0.0000 0.0000 0.0000 -46.6420 0.0000
# 6 0.0000 0.0000 0.0000 0.0000 0.0000 12.1260
#
#
#
# Elastic Compliance Matrix: (Units=1/GPa)
#
#
# Indices 1 2 3 4 5 6 
#
# 1 0.033120 -0.002478 -0.002035 0.000000 0.000000 0.000000
# 2 -0.002478 0.008444 -0.002640 0.000000 0.000000 0.000000
# 3 -0.002035 -0.002640 0.015931 0.000000 0.000000 0.000000
# 4 0.000000 0.000000 0.000000 -0.006449 0.000000 0.000000
# 5 0.000000 0.000000 0.000000 0.000000 -0.021440 0.000000
# 6 0.000000 0.000000 0.000000 0.000000 0.000000 0.082468
#
#
# Mechanical properties :
#
#
# Convention : Reuss Voigt Hill
#
# Bulk Modulus (GPa) = 23.15402 34.07638 28.61520
# Shear Modulus (GPa) = 35.51748 -25.39653 5.06047
#
# Velocity S-wave (km/s) = 4.23437 -3.58059 1.59832
# Velocity P-wave (km/s) = 5.96616 0.32894 4.22512
#
# Compressibility (1/GPa) = 0.04318904
#
# Stress axis : x y z
#
# Youngs Moduli (GPa) = 30.19332 118.42686 62.77170
#
# Poissons Ratio (x) = 0.29343 0.12772
# Poissons Ratio (y) = 0.07481 0.16575
# Poissons Ratio (z) = 0.06143 0.31270
#
# Static dielectric constant tensor:
#      x y z
#    x 1.674240 0.000000 0.000000 
#    y 0.000000 1.816260 0.000000 
#    z 0.000000 0.000000 1.665040 
# 
# From -- ./inp_files/12081.got.cif
#   From: 2010.05.17/outbox.cif.g08.bks.cpg/sg38_7_cif.got.tgz:12081.got - 2010.06.03 18:07:57.
