data_PCOD9359964
_publ_section_title
;
Structure prediction by ZEFSAII (Michael W. Deem and Ramdas Pophale) SiO2 
 PCOD9359964
Probable space group: A B M 2
;
_chemical_formula_sum "Si O2"
_cell_formula_units_Z 56
_cell_length_a 9.175858
_cell_length_b 19.447758
_cell_length_c 14.596577
_cell_angle_alpha 90.000000
_cell_angle_beta 90.000000
_cell_angle_gamma 90.000000
_cell_volume 2604.757207
_symmetry_space_group_name_H-M "A B M 2"
_symmetry_group_IT_number 39
_symmetry_cell_setting 'orthorhombic'
loop_
_space_group_symop_operation_xyz
x,y,z
-x,-y,z
-x,1/2+y,z
x,1/2-y,z
x,1/2+y,1/2+z
-x,1/2-y,1/2+z
-x,y,1/2+z
x,-y,1/2+z
loop_
_atom_site_type_symbol
_atom_site_label
_atom_site_fract_x
_atom_site_fract_y
_atom_site_fract_z
Si Si1 0.637484 0.173143 0.136410
Si Si2 0.474385 0.170530 0.965557
Si Si3 0.879817 0.091812 0.236456
Si Si4 0.852889 0.832996 0.922040
Si Si5 0.331369 0.026838 0.200198
Si Si6 0.377132 0.825050 0.776797
Si Si7 0.907078 0.438226 0.574938
O O1 0.676527 0.250000 0.106120
O O2 0.780603 0.136414 0.168303
O O3 0.531414 0.177832 0.223478
O O4 0.544749 0.137851 0.055633
O O5 0.443014 0.250000 0.992603
O O6 0.319332 0.147333 0.927440
O O7 0.589625 0.170208 0.883947
O O8 0.912768 0.133117 0.328924
O O9 0.017153 0.074303 0.173544
O O10 0.772329 0.027007 0.254026
O O11 0.870042 0.750000 0.921434
O O12 0.913188 0.871159 0.011928
O O13 0.316597 0.102918 0.242660
O O14 0.254909 0.034955 0.100306
O O15 0.500000 0.000000 0.200331
O O16 0.305114 0.750000 0.757036
O O17 0.000000 0.500000 0.530695
#
# Coordination Sequence:
#
# PCOD9359964 Si02
#       7
#     8   8   8   8   8   8   8
#     4  10  18  33  60  89 128 169 208 266 330 391
#     4   9  18  33  59  96 128 161 209 269 328 386
#     4  11  23  43  64  95 136 177 216 276 341 403
#     4  11  22  42  71  98 130 179 230 271 334 407
#     4  11  21  41  67  98 130 175 226 269 339 411
#     4  10  19  36  60  94 131 164 211 273 327 381
#     4  10  26  45  64  94 135 178 219 283 335 396
#
# _framework density 21.499123999999998
#
# number of rings (size 3 to 8) (size 9 to 14) (size 15 to 20)
#    0.000    1.714    2.857    1.286    0.000    4.571 
#    7.714    0.714    0.000    0.000    0.000    0.000 
#    0.000    0.000    0.000    0.000    0.000    0.000 
#
# Total GULP energy -156086.923839 kJ/mol
# GULP energy per Si atom -5574.532994 kJ/mol
# Density = 2.145019 g / cm^3
# Si number density = 21.499124 Si / 1000 Ang^3
#
#
#
# Elastic Constant Matrix: (Units=GPa)
#
#
# Indices 1 2 3 4 5 6 
#
# 1 57.9617 41.6790 26.3907 0.0000 0.0000 0.0000
# 2 41.6790 146.9035 35.6869 0.0000 0.0000 0.0000
# 3 26.3907 35.6869 95.5778 0.0000 0.0000 0.0000
# 4 0.0000 0.0000 0.0000 33.7316 0.0000 0.0000
# 5 0.0000 0.0000 0.0000 0.0000 21.5887 0.0000
# 6 0.0000 0.0000 0.0000 0.0000 0.0000 29.6007
#
#
#
# Elastic Compliance Matrix: (Units=1/GPa)
#
#
# Indices 1 2 3 4 5 6 
#
# 1 0.023206 -0.005529 -0.004343 0.000000 0.000000 0.000000
# 2 -0.005529 0.008803 -0.001760 0.000000 0.000000 0.000000
# 3 -0.004343 -0.001760 0.012319 0.000000 0.000000 0.000000
# 4 0.000000 0.000000 0.000000 0.029646 0.000000 0.000000
# 5 0.000000 0.000000 0.000000 0.000000 0.046321 0.000000
# 6 0.000000 0.000000 0.000000 0.000000 0.000000 0.033783
#
#
# Mechanical properties :
#
#
# Convention : Reuss Voigt Hill
#
# Bulk Modulus (GPa) = 47.47505 56.43956 51.95730
# Shear Modulus (GPa) = 27.12022 30.09661 28.60842
#
# Velocity S-wave (km/s) = 3.55555 3.74558 3.65180
# Velocity P-wave (km/s) = 6.24389 6.70931 6.48078
#
# Compressibility (1/GPa) = 0.02106370
#
# Stress axis : x y z
#
# Youngs Moduli (GPa) = 43.09239 113.59151 81.17393
#
# Poissons Ratio (x) = 0.62803 0.35255
# Poissons Ratio (y) = 0.23825 0.14290
# Poissons Ratio (z) = 0.18716 0.19997
#
# Static dielectric constant tensor:
#      x y z
#    x 1.838540 0.000000 0.000000 
#    y 0.000000 1.866090 0.000000 
#    z 0.000000 0.000000 1.763400 
# 
# From -- ./inp_files/8615.got.cif
#   From: 2010.05.17/outbox.cif.g08.bks.cpg/sg39_5_cif.got.tgz:8615.got - 2010.06.03 18:22:40.
