data_PCOD9359670
_publ_section_title
;
Structure prediction by ZEFSAII (Michael W. Deem and Ramdas Pophale) SiO2 
 PCOD9359670
Probable space group: A B M 2
;
_chemical_formula_sum "Si O2"
_cell_formula_units_Z 64
_cell_length_a 21.863760
_cell_length_b 9.067386
_cell_length_c 14.489073
_cell_angle_alpha 90.000000
_cell_angle_beta 90.000000
_cell_angle_gamma 90.000000
_cell_volume 2872.417448
_symmetry_space_group_name_H-M "A B M 2"
_symmetry_group_IT_number 39
_symmetry_cell_setting 'orthorhombic'
loop_
_space_group_symop_operation_xyz
x,y,z
-x,-y,z
-x,1/2+y,z
x,1/2-y,z
x,1/2+y,1/2+z
-x,1/2-y,1/2+z
-x,y,1/2+z
x,-y,1/2+z
loop_
_atom_site_type_symbol
_atom_site_label
_atom_site_fract_x
_atom_site_fract_y
_atom_site_fract_z
Si Si1 0.441128 0.084690 0.523760
Si Si2 0.059166 0.929063 0.569297
Si Si3 0.311931 0.916157 0.276117
Si Si4 0.192050 0.582902 0.553038
Si Si5 0.689734 0.913903 0.555419
Si Si6 0.188379 0.920623 0.779246
Si Si7 0.062628 0.427810 0.773666
Si Si8 0.560462 0.415587 0.803319
O O1 0.438918 0.250000 0.564631
O O2 0.375393 0.009443 0.539011
O O3 0.447561 0.096903 0.413759
O O4 0.500000 0.000000 0.559080
O O5 0.054102 0.750000 0.581225
O O6 0.124099 0.960057 0.522383
O O7 0.062441 0.013944 0.667370
O O8 0.000000 0.000000 0.522495
O O9 0.313848 0.750000 0.314438
O O10 0.304434 0.904229 0.165571
O O11 0.252136 0.004870 0.308658
O O12 0.376170 0.998099 0.290159
O O13 0.203058 0.750000 0.524705
O O14 0.248679 0.487336 0.521454
O O15 0.189727 0.579982 0.665911
O O16 0.684808 0.750000 0.514359
O O17 0.184315 0.750000 0.807991
O O18 0.127825 0.010385 0.808361
O O19 0.060166 0.250000 0.778887
O O20 0.000000 0.500000 0.812377
O O21 0.500000 0.500000 0.769129
O O22 0.564617 0.250000 0.764724
#
# Coordination Sequence:
#
# PCOD9359670 Si02
#       8
#     8   8   8   8   8   8   8   8
#     4   9  19  35  52  70  91 118 152 187 226 270
#     4   9  15  22  32  49  75 109 149 187 223 268
#     4  10  19  31  48  71  97 123 153 189 231 278
#     4   8  15  25  37  56  83 114 147 183 223 268
#     4   9  18  31  47  68  93 120 151 188 227 271
#     4   9  16  27  40  57  84 117 152 188 228 272
#     4  10  16  22  33  51  77 112 152 190 229 272
#     4  10  20  35  53  70  92 121 152 188 227 271
#
# _framework density 22.280882999999999
#
# number of rings (size 3 to 8) (size 9 to 14) (size 15 to 20)
#    0.000    2.750    0.000    4.125    0.000    5.500 
#    0.000    1.250    0.000    0.000    0.000    0.000 
#    0.000    1.000    0.000    6.500    0.000   14.250 
#
# Total GULP energy -178532.209560 kJ/mol
# GULP energy per Si atom -5579.131549 kJ/mol
# Density = 2.223017 g / cm^3
# Si number density = 22.280883 Si / 1000 Ang^3
#
#
#
# Elastic Constant Matrix: (Units=GPa)
#
#
# Indices 1 2 3 4 5 6 
#
# 1 280.2230 138.9138 1.3045 0.0000 0.0000 0.0000
# 2 138.9138 160.2668 9.3137 0.0000 0.0000 0.0000
# 3 1.3045 9.3137 57.2975 0.0000 0.0000 0.0000
# 4 0.0000 0.0000 0.0000 1.8244 0.0000 0.0000
# 5 0.0000 0.0000 0.0000 0.0000 48.2920 0.0000
# 6 0.0000 0.0000 0.0000 0.0000 0.0000 41.6056
#
#
#
# Elastic Compliance Matrix: (Units=1/GPa)
#
#
# Indices 1 2 3 4 5 6 
#
# 1 0.006289 -0.005495 0.000750 0.000000 0.000000 0.000000
# 2 -0.005495 0.011100 -0.001679 0.000000 0.000000 0.000000
# 3 0.000750 -0.001679 0.017709 0.000000 0.000000 0.000000
# 4 0.000000 0.000000 0.000000 0.548139 0.000000 0.000000
# 5 0.000000 0.000000 0.000000 0.000000 0.020707 0.000000
# 6 0.000000 0.000000 0.000000 0.000000 0.000000 0.024035
#
#
# Mechanical properties :
#
#
# Convention : Reuss Voigt Hill
#
# Bulk Modulus (GPa) = 44.94447 88.53903 66.74175
# Shear Modulus (GPa) = 7.71316 41.56143 24.63729
#
# Velocity S-wave (km/s) = 1.86261 4.32364 3.32890
# Velocity P-wave (km/s) = 4.98410 8.04668 6.69292
#
# Compressibility (1/GPa) = 0.02224968
#
# Stress axis : x y z
#
# Youngs Moduli (GPa) = 159.01022 90.09252 56.46961
#
# Poissons Ratio (x) = 0.49502 -0.04235
# Poissons Ratio (y) = 0.87370 0.09482
# Poissons Ratio (z) = -0.11925 0.15128
#
# Static dielectric constant tensor:
#      x y z
#    x 1.847000 0.000000 0.000000 
#    y 0.000000 1.796570 0.000000 
#    z 0.000000 0.000000 1.871750 
# 
# From -- ./inp_files/13164.got.cif
#   From: 2010.05.17/outbox.cif.g08.bks.cpg/sg39_7_cif.got.tgz:13164.got - 2010.06.03 18:22:40.
