data_PCOD9359451
_publ_section_title
;
Structure prediction by ZEFSAII (Michael W. Deem and Ramdas Pophale) SiO2 
 PCOD9359451
Probable space group: A M M 2
;
_chemical_formula_sum "Si O2"
_cell_formula_units_Z 32
_cell_length_a 8.301911
_cell_length_b 20.690194
_cell_length_c 9.448656
_cell_angle_alpha 90.000000
_cell_angle_beta 90.000000
_cell_angle_gamma 90.000000
_cell_volume 1622.978153
_symmetry_space_group_name_H-M "A M M 2"
_symmetry_group_IT_number 38
_symmetry_cell_setting 'orthorhombic'
loop_
_space_group_symop_operation_xyz
x,y,z
-x,-y,z
-x,y,z
x,-y,z
x,1/2+y,1/2+z
-x,1/2-y,1/2+z
-x,1/2+y,1/2+z
x,1/2-y,1/2+z
loop_
_atom_site_type_symbol
_atom_site_label
_atom_site_fract_x
_atom_site_fract_y
_atom_site_fract_z
Si Si1 0.685874 0.303311 0.277310
Si Si2 0.805509 0.425204 0.441158
Si Si3 0.196302 0.573389 0.766357
Si Si4 0.810956 0.689465 0.963759
O O1 0.500000 0.288401 0.304292
O O2 0.727694 0.374066 0.336766
O O3 0.789719 0.251147 0.363007
O O4 0.722611 0.300315 0.111422
O O5 0.764595 0.500000 0.411094
O O6 0.757164 0.411306 0.604285
O O7 0.000000 0.419547 0.432901
O O8 0.247374 0.500000 0.799266
O O9 0.250465 0.627029 0.877188
O O10 0.000000 0.573916 0.767430
O O11 0.000000 0.680010 0.994913
#
# Coordination Sequence:
#
# PCOD9359451 Si02
#       4
#     8   8   8   8
#     4  12  25  39  56  83 120 154 189 241 302 351
#     4   9  18  36  62  88 114 149 195 241 285 341
#     4   8  16  33  59  88 112 138 182 239 287 329
#     4  11  22  38  61  85 112 151 198 241 286 348
#
# _framework density 19.716837999999999
#
# number of rings (size 3 to 8) (size 9 to 14) (size 15 to 20)
#    0.000    2.000    0.000    6.000    0.000    3.500 
#    0.000    3.750    0.000    5.250    0.000    0.000 
#    0.000    0.000    0.000    0.000    0.000    0.000 
#
# Total GULP energy -89395.574287 kJ/mol
# GULP energy per Si atom -5587.223393 kJ/mol
# Density = 1.967196 g / cm^3
# Si number density = 19.716838 Si / 1000 Ang^3
#
#
#
# Elastic Constant Matrix: (Units=GPa)
#
#
# Indices 1 2 3 4 5 6 
#
# 1 18.2831 -6.9703 -8.9030 0.0000 0.0000 0.0000
# 2 -6.9703 71.0911 51.2622 0.0000 0.0000 0.0000
# 3 -8.9030 51.2622 98.8142 0.0000 0.0000 0.0000
# 4 0.0000 0.0000 0.0000 41.8970 0.0000 0.0000
# 5 0.0000 0.0000 0.0000 0.0000 8.3156 0.0000
# 6 0.0000 0.0000 0.0000 0.0000 0.0000 -2.9267
#
#
#
# Elastic Compliance Matrix: (Units=1/GPa)
#
#
# Indices 1 2 3 4 5 6 
#
# 1 0.057615 0.003045 0.003611 0.000000 0.000000 0.000000
# 2 0.003045 0.022634 -0.011468 0.000000 0.000000 0.000000
# 3 0.003611 -0.011468 0.016394 0.000000 0.000000 0.000000
# 4 0.000000 0.000000 0.000000 0.023868 0.000000 0.000000
# 5 0.000000 0.000000 0.000000 0.000000 0.120255 0.000000
# 6 0.000000 0.000000 0.000000 0.000000 0.000000 -0.341679
#
#
# Mechanical properties :
#
#
# Convention : Reuss Voigt Hill
#
# Bulk Modulus (GPa) = 11.49154 28.77402 20.13278
# Shear Modulus (GPa) = -80.27925 19.64381 -30.31772
#
# Velocity S-wave (km/s) = -6.38784 3.15984 -3.92555
# Velocity P-wave (km/s) = 6.96886 5.28565 3.21146
#
# Compressibility (1/GPa) = 0.08702051
#
# Stress axis : x y z
#
# Youngs Moduli (GPa) = 17.35668 44.18126 60.99615
#
# Poissons Ratio (x) = -0.13453 -0.22028
# Poissons Ratio (y) = -0.05285 0.69948
# Poissons Ratio (z) = -0.06268 0.50665
#
# Static dielectric constant tensor:
#      x y z
#    x 1.689450 0.000000 0.000000 
#    y 0.000000 1.681890 0.000000 
#    z 0.000000 0.000000 1.651700 
# 
# From -- ./inp_files/3054.got.cif
#   From: 2010.05.17/outbox.cif.g08.bks.cpg/sg38_2_cif.got.tgz:3054.got - 2010.06.03 18:07:57.
