data_PCOD9359959
_publ_section_title
;
Structure prediction by ZEFSAII (Michael W. Deem and Ramdas Pophale) SiO2 
 PCOD9359959
Probable space group: A B M 2
;
_chemical_formula_sum "Si O2"
_cell_formula_units_Z 64
_cell_length_a 9.171710
_cell_length_b 20.262932
_cell_length_c 19.023180
_cell_angle_alpha 90.000000
_cell_angle_beta 90.000000
_cell_angle_gamma 90.000000
_cell_volume 3535.376889
_symmetry_space_group_name_H-M "A B M 2"
_symmetry_group_IT_number 39
_symmetry_cell_setting 'orthorhombic'
loop_
_space_group_symop_operation_xyz
x,y,z
-x,-y,z
-x,1/2+y,z
x,1/2-y,z
x,1/2+y,1/2+z
-x,1/2-y,1/2+z
-x,y,1/2+z
x,-y,1/2+z
loop_
_atom_site_type_symbol
_atom_site_label
_atom_site_fract_x
_atom_site_fract_y
_atom_site_fract_z
Si Si1 0.564173 0.175774 0.827080
Si Si2 0.738452 0.972700 0.702703
Si Si3 0.669248 0.067943 0.932303
Si Si4 0.613825 0.902303 0.026150
Si Si5 0.161802 0.023988 0.550177
Si Si6 0.254139 0.325247 0.903819
Si Si7 0.852813 0.460408 0.355963
Si Si8 0.435342 0.103719 0.186838
O O1 0.610354 0.250000 0.843185
O O2 0.652868 0.122998 0.872829
O O3 0.395407 0.169463 0.852277
O O4 0.579510 0.160161 0.744738
O O5 0.818826 0.954631 0.630508
O O6 0.827893 0.959864 0.772656
O O7 0.587883 0.932332 0.703643
O O8 0.690846 0.049364 0.699353
O O9 0.717576 0.001017 0.891236
O O10 0.521482 0.072412 0.978723
O O11 0.792323 0.076953 0.991838
O O12 0.565650 0.880213 0.104031
O O13 0.725248 0.963157 0.037994
O O14 0.687967 0.844421 0.981360
O O15 0.000000 0.000000 0.538384
O O16 0.200089 0.250000 0.900454
O O17 0.148912 0.385474 0.883069
O O18 0.000000 0.500000 0.372277
#
# Coordination Sequence:
#
# PCOD9359959 Si02
#       8
#     8   8   8   8   8   8   8   8
#     4  10  21  36  58  85 118 155 195 247 303 354
#     4  10  20  33  55  86 118 147 198 250 302 347
#     4  11  21  36  58  87 116 148 199 255 292 347
#     4  10  21  34  59  83 115 155 199 240 302 356
#     4  11  21  34  56  88 120 148 191 256 301 348
#     4  10  22  37  55  84 120 153 191 249 306 360
#     4  12  23  36  60  87 118 164 206 248 302 363
#     4  10  18  33  57  85 110 155 196 248 299 352
#
# _framework density 18.102737000000001
#
# number of rings (size 3 to 8) (size 9 to 14) (size 15 to 20)
#    0.000    1.500    5.000    1.125    1.750    0.500 
#    0.000    0.625    0.000    0.750    0.000    0.000 
#    0.000    0.000    0.000    0.000    0.000    0.000 
#
# Total GULP energy -178485.823181 kJ/mol
# GULP energy per Si atom -5577.681974 kJ/mol
# Density = 1.806153 g / cm^3
# Si number density = 18.102737 Si / 1000 Ang^3
#
#
#
# Elastic Constant Matrix: (Units=GPa)
#
#
# Indices 1 2 3 4 5 6 
#
# 1 67.5240 29.7406 25.7477 0.0000 0.0000 0.0000
# 2 29.7406 109.6024 45.9739 0.0000 0.0000 0.0000
# 3 25.7477 45.9739 142.3423 0.0000 0.0000 0.0000
# 4 0.0000 0.0000 0.0000 17.4656 0.0000 0.0000
# 5 0.0000 0.0000 0.0000 0.0000 2.3013 0.0000
# 6 0.0000 0.0000 0.0000 0.0000 0.0000 17.2111
#
#
#
# Elastic Compliance Matrix: (Units=1/GPa)
#
#
# Indices 1 2 3 4 5 6 
#
# 1 0.017235 -0.003897 -0.001859 0.000000 0.000000 0.000000
# 2 -0.003897 0.011435 -0.002988 0.000000 0.000000 0.000000
# 3 -0.001859 -0.002988 0.008327 0.000000 0.000000 0.000000
# 4 0.000000 0.000000 0.000000 0.057255 0.000000 0.000000
# 5 0.000000 0.000000 0.000000 0.000000 0.434532 0.000000
# 6 0.000000 0.000000 0.000000 0.000000 0.000000 0.058102
#
#
# Mechanical properties :
#
#
# Convention : Reuss Voigt Hill
#
# Bulk Modulus (GPa) = 51.26098 58.04368 54.65233
# Shear Modulus (GPa) = 8.18495 21.92936 15.05716
#
# Velocity S-wave (km/s) = 2.12866 3.48427 2.88716
# Velocity P-wave (km/s) = 5.86684 6.95125 6.43194
#
# Compressibility (1/GPa) = 0.01950802
#
# Stress axis : x y z
#
# Youngs Moduli (GPa) = 58.02227 87.45233 120.09500
#
# Poissons Ratio (x) = 0.34079 0.22324
# Poissons Ratio (y) = 0.22611 0.35888
# Poissons Ratio (z) = 0.10786 0.26134
#
# Static dielectric constant tensor:
#      x y z
#    x 1.631580 0.000000 0.000000 
#    y 0.000000 1.614690 0.000000 
#    z 0.000000 0.000000 1.654150 
# 
# From -- ./inp_files/11946.got.cif
#   From: 2010.05.17/outbox.cif.g08.bks.cpg/sg39_6_cif.got.tgz:11946.got - 2010.06.03 18:22:40.
