data_PCOD9359259
_publ_section_title
;
Structure prediction by ZEFSAII (Michael W. Deem and Ramdas Pophale) SiO2 
 PCOD9359259
Probable space group: A M M 2
;
_chemical_formula_sum "Si O2"
_cell_formula_units_Z 40
_cell_length_a 13.371124
_cell_length_b 16.331674
_cell_length_c 8.624402
_cell_angle_alpha 90.000000
_cell_angle_beta 90.000000
_cell_angle_gamma 90.000000
_cell_volume 1883.335142
_symmetry_space_group_name_H-M "A M M 2"
_symmetry_group_IT_number 38
_symmetry_cell_setting 'orthorhombic'
loop_
_space_group_symop_operation_xyz
x,y,z
-x,-y,z
-x,y,z
x,-y,z
x,1/2+y,1/2+z
-x,1/2-y,1/2+z
-x,1/2+y,1/2+z
x,1/2-y,1/2+z
loop_
_atom_site_type_symbol
_atom_site_label
_atom_site_fract_x
_atom_site_fract_y
_atom_site_fract_z
Si Si1 0.607353 0.241839 0.200530
Si Si2 0.679552 0.912196 0.657529
Si Si3 0.822070 0.192655 0.223559
Si Si4 0.316908 0.591683 0.529096
Si Si5 0.109341 0.145374 0.552194
O O1 0.500000 0.243518 0.281833
O O2 0.622100 0.329028 0.114900
O O3 0.610473 0.163141 0.088256
O O4 0.714114 0.227794 0.286651
O O5 0.793479 0.905426 0.600611
O O6 0.636931 0.000000 0.606371
O O7 0.681438 0.910746 0.844432
O O8 0.788171 0.123076 0.101642
O O9 0.881943 0.159810 0.368565
O O10 0.875323 0.266831 0.136165
O O11 0.340099 0.500000 0.586079
O O12 0.000000 0.112133 0.592511
#
# Coordination Sequence:
#
# PCOD9359259 Si02
#       5
#     8   8   8   8   8
#     4   9  20  36  62  91 120 160 202 246 304 365
#     4  10  22  40  60  90 125 159 206 255 302 362
#     4   9  20  36  56  92 121 155 199 251 300 361
#     4   9  20  39  62  86 122 161 199 248 300 358
#     4  11  21  37  62  88 120 161 205 252 309 364
#
# _framework density 21.238917000000001
#
# number of rings (size 3 to 8) (size 9 to 14) (size 15 to 20)
#    1.200    1.200    0.000    3.000    0.000    2.800 
#    0.000    3.000    0.000    4.200    0.000    0.000 
#    0.000    0.000    0.000    0.000    0.000    0.000 
#
# Total GULP energy -111380.389808 kJ/mol
# GULP energy per Si atom -5569.019490 kJ/mol
# Density = 2.119058 g / cm^3
# Si number density = 21.238917 Si / 1000 Ang^3
#
#
#
# Elastic Constant Matrix: (Units=GPa)
#
#
# Indices 1 2 3 4 5 6 
#
# 1 103.7761 7.6900 1.0256 0.0000 0.0000 0.0000
# 2 7.6900 162.6491 11.1117 0.0000 0.0000 0.0000
# 3 1.0256 11.1117 31.6899 0.0000 0.0000 0.0000
# 4 0.0000 0.0000 0.0000 17.8766 0.0000 0.0000
# 5 0.0000 0.0000 0.0000 0.0000 18.5943 0.0000
# 6 0.0000 0.0000 0.0000 0.0000 0.0000 2.3594
#
#
#
# Elastic Compliance Matrix: (Units=1/GPa)
#
#
# Indices 1 2 3 4 5 6 
#
# 1 0.009671 -0.000447 -0.000156 0.000000 0.000000 0.000000
# 2 -0.000447 0.006320 -0.002201 0.000000 0.000000 0.000000
# 3 -0.000156 -0.002201 0.032333 0.000000 0.000000 0.000000
# 4 0.000000 0.000000 0.000000 0.055939 0.000000 0.000000
# 5 0.000000 0.000000 0.000000 0.000000 0.053780 0.000000
# 6 0.000000 0.000000 0.000000 0.000000 0.000000 0.423844
#
#
# Mechanical properties :
#
#
# Convention : Reuss Voigt Hill
#
# Bulk Modulus (GPa) = 23.41134 37.52998 30.47066
# Shear Modulus (GPa) = 8.30933 26.31856 17.31395
#
# Velocity S-wave (km/s) = 1.98010 3.52400 2.85827
# Velocity P-wave (km/s) = 4.03417 5.85379 5.02700
#
# Compressibility (1/GPa) = 0.04271434
#
# Stress axis : x y z
#
# Youngs Moduli (GPa) = 103.40438 158.23490 30.92839
#
# Poissons Ratio (x) = 0.07066 0.00484
# Poissons Ratio (y) = 0.04617 0.06809
# Poissons Ratio (z) = 0.01617 0.34835
#
# Static dielectric constant tensor:
#      x y z
#    x 1.767690 0.000000 0.000000 
#    y 0.000000 1.820460 0.000000 
#    z 0.000000 0.000000 1.754210 
# 
# From -- ./inp_files/5235.got.cif
#   From: 2010.05.17/outbox.cif.g08.bks.cpg/sg38_3_cif.got.tgz:5235.got - 2010.06.03 18:07:57.
