data_PCOD9359713
_publ_section_title
;
Structure prediction by ZEFSAII (Michael W. Deem and Ramdas Pophale) SiO2 
 PCOD9359713
Probable space group: A B M 2
;
_chemical_formula_sum "Si O2"
_cell_formula_units_Z 56
_cell_length_a 20.552618
_cell_length_b 8.697557
_cell_length_c 15.786843
_cell_angle_alpha 90.000000
_cell_angle_beta 90.000000
_cell_angle_gamma 90.000000
_cell_volume 2822.017638
_symmetry_space_group_name_H-M "A B M 2"
_symmetry_group_IT_number 39
_symmetry_cell_setting 'orthorhombic'
loop_
_space_group_symop_operation_xyz
x,y,z
-x,-y,z
-x,1/2+y,z
x,1/2-y,z
x,1/2+y,1/2+z
-x,1/2-y,1/2+z
-x,y,1/2+z
x,-y,1/2+z
loop_
_atom_site_type_symbol
_atom_site_label
_atom_site_fract_x
_atom_site_fract_y
_atom_site_fract_z
Si Si1 0.933819 0.434628 0.884530
Si Si2 0.800076 0.933428 0.582466
Si Si3 0.572360 0.565538 0.983404
Si Si4 0.656385 0.934775 0.823680
Si Si5 0.656165 0.564287 0.636761
Si Si6 0.208322 0.066307 0.380814
Si Si7 0.934118 0.932775 0.076689
O O1 0.937050 0.250000 0.886631
O O2 0.863416 0.480150 0.847856
O O3 0.000000 0.500000 0.845017
O O4 0.932497 0.496049 0.981490
O O5 0.810106 0.750000 0.590445
O O6 0.732382 0.976369 0.626107
O O7 0.790783 0.966539 0.481987
O O8 0.864827 0.017606 0.614679
O O9 0.500000 0.500000 0.986264
O O10 0.569792 0.750000 0.981927
O O11 0.610536 0.509697 0.899470
O O12 0.613692 0.511015 0.063887
O O13 0.655617 0.750000 0.825025
O O14 0.634280 0.983551 0.730403
O O15 0.730198 0.986870 0.839319
O O16 0.651878 0.750000 0.628558
O O17 0.214377 0.250000 0.371171
O O18 0.938940 0.750000 0.071950
O O19 0.000000 0.000000 0.117264
#
# Coordination Sequence:
#
# PCOD9359713 Si02
#       7
#     8   8   8   8   8   8   8
#     4   9  16  26  41  68 103 143 191 238 289 342
#     4   9  17  31  52  76 107 148 191 235 286 341
#     4  11  24  42  64  92 122 153 190 232 280 339
#     4  10  22  38  60  90 120 151 193 237 283 340
#     4  10  21  40  63  88 120 156 193 237 287 340
#     4   9  17  30  51  78 109 150 193 237 288 343
#     4  10  17  25  41  68 104 143 188 240 290 342
#
# _framework density 19.843958000000001
#
# number of rings (size 3 to 8) (size 9 to 14) (size 15 to 20)
#    0.000    2.286    1.429    3.857    0.000    5.143 
#    0.000    1.429    0.000    0.857    0.000    2.000 
#    0.000    0.000    0.000    0.000    0.000    0.000 
#
# Total GULP energy -156271.859692 kJ/mol
# GULP energy per Si atom -5581.137846 kJ/mol
# Density = 1.979879 g / cm^3
# Si number density = 19.843958 Si / 1000 Ang^3
#
#
#
# Elastic Constant Matrix: (Units=GPa)
#
#
# Indices 1 2 3 4 5 6 
#
# 1 168.1869 46.6513 68.4827 0.0000 0.0000 0.0000
# 2 46.6513 45.1358 28.3733 0.0000 0.0000 0.0000
# 3 68.4827 28.3733 100.6279 0.0000 0.0000 0.0000
# 4 0.0000 0.0000 0.0000 13.0792 0.0000 0.0000
# 5 0.0000 0.0000 0.0000 0.0000 -10.2218 0.0000
# 6 0.0000 0.0000 0.0000 0.0000 0.0000 31.6838
#
#
#
# Elastic Compliance Matrix: (Units=1/GPa)
#
#
# Indices 1 2 3 4 5 6 
#
# 1 0.009857 -0.007257 -0.004662 0.000000 0.000000 0.000000
# 2 -0.007257 0.032272 -0.004160 0.000000 0.000000 0.000000
# 3 -0.004662 -0.004160 0.014283 0.000000 0.000000 0.000000
# 4 0.000000 0.000000 0.000000 0.076457 0.000000 0.000000
# 5 0.000000 0.000000 0.000000 0.000000 -0.097830 0.000000
# 6 0.000000 0.000000 0.000000 0.000000 0.000000 0.031562
#
#
# Mechanical properties :
#
#
# Convention : Reuss Voigt Hill
#
# Bulk Modulus (GPa) = 41.23248 66.77393 54.00321
# Shear Modulus (GPa) = 46.79683 18.27113 32.53398
#
# Velocity S-wave (km/s) = 4.86144 3.03766 4.05345
# Velocity P-wave (km/s) = 7.23429 6.78423 7.01287
#
# Compressibility (1/GPa) = 0.02425272
#
# Stress axis : x y z
#
# Youngs Moduli (GPa) = 101.44988 30.98683 70.01151
#
# Poissons Ratio (x) = 0.22489 0.32639
# Poissons Ratio (y) = 0.73627 0.29127
# Poissons Ratio (z) = 0.47295 0.12892
#
# Static dielectric constant tensor:
#      x y z
#    x 1.713890 0.000000 0.000000 
#    y 0.000000 1.666380 0.000000 
#    z 0.000000 0.000000 1.730330 
# 
# From -- ./inp_files/10373.got.cif
#   From: 2010.05.17/outbox.cif.g08.bks.cpg/sg39_6_cif.got.tgz:10373.got - 2010.06.03 18:22:40.
