data_PCOD9359380
_publ_section_title
;
Structure prediction by ZEFSAII (Michael W. Deem and Ramdas Pophale) SiO2 
 PCOD9359380
Probable space group: A M M 2
;
_chemical_formula_sum "Si O2"
_cell_formula_units_Z 64
_cell_length_a 20.372798
_cell_length_b 8.719087
_cell_length_c 20.679030
_cell_angle_alpha 90.000000
_cell_angle_beta 90.000000
_cell_angle_gamma 90.000000
_cell_volume 3673.261555
_symmetry_space_group_name_H-M "A M M 2"
_symmetry_group_IT_number 38
_symmetry_cell_setting 'orthorhombic'
loop_
_space_group_symop_operation_xyz
x,y,z
-x,-y,z
-x,y,z
x,-y,z
x,1/2+y,1/2+z
-x,1/2-y,1/2+z
-x,1/2+y,1/2+z
x,1/2-y,1/2+z
loop_
_atom_site_type_symbol
_atom_site_label
_atom_site_fract_x
_atom_site_fract_y
_atom_site_fract_z
Si Si1 0.688278 0.314921 0.441200
Si Si2 0.424519 0.816936 0.700277
Si Si3 0.816667 0.683524 0.259208
Si Si4 0.652428 0.683346 0.583772
Si Si5 0.323272 0.682234 0.803626
Si Si6 0.195783 0.816004 0.120690
Si Si7 0.925318 0.187276 0.863061
Si Si8 0.836418 0.313583 0.479690
O O1 0.686215 0.500000 0.434776
O O2 0.651961 0.273862 0.508063
O O3 0.662483 0.239209 0.376203
O O4 0.764889 0.271035 0.451495
O O5 0.500000 0.769115 0.708762
O O6 0.398034 0.767619 0.630033
O O7 0.377069 0.742662 0.753370
O O8 0.420526 0.000000 0.706322
O O9 0.811506 0.500000 0.263074
O O10 0.747903 0.752674 0.283415
O O11 0.827070 0.735075 0.185603
O O12 0.876046 0.733528 0.305804
O O13 0.642400 0.500000 0.588185
O O14 0.726522 0.713406 0.609360
O O15 0.320948 0.500000 0.800876
O O16 0.188393 0.000000 0.127465
O O17 0.160521 0.764826 0.054383
O O18 0.892882 0.237092 0.930926
O O19 0.000000 0.239623 0.855160
O O20 0.926063 0.000000 0.863410
O O21 0.836728 0.500000 0.480886
#
# Coordination Sequence:
#
# PCOD9359380 Si02
#       8
#     8   8   8   8   8   8   8   8
#     4   9  17  33  56  82 110 140 177 222 273 322
#     4  11  24  40  58  81 111 146 183 225 274 329
#     4  11  20  32  53  79 108 143 182 230 277 324
#     4   9  18  33  56  83 110 141 175 217 270 327
#     4  12  23  35  55  83 112 145 185 231 277 325
#     4   9  17  30  51  79 108 135 171 221 270 319
#     4   9  17  30  51  78 105 140 187 229 269 323
#     4   8  14  28  50  75 104 136 173 220 267 315
#
# _framework density 17.423207999999999
#
# number of rings (size 3 to 8) (size 9 to 14) (size 15 to 20)
#    0.000    2.250    2.500    3.375    0.000    1.500 
#    0.000    3.125    0.000    3.000    0.000    0.000 
#    0.000    0.000    0.000    0.000    0.000    0.000 
#
# Total GULP energy -178522.182227 kJ/mol
# GULP energy per Si atom -5578.818195 kJ/mol
# Density = 1.738355 g / cm^3
# Si number density = 17.423208 Si / 1000 Ang^3
#
#
#
# Elastic Constant Matrix: (Units=GPa)
#
#
# Indices 1 2 3 4 5 6 
#
# 1 117.5815 40.9196 83.3693 0.0000 0.0000 0.0000
# 2 40.9196 36.8088 44.2716 0.0000 0.0000 0.0000
# 3 83.3693 44.2716 162.2318 0.0000 0.0000 0.0000
# 4 0.0000 0.0000 0.0000 31.2106 0.0000 0.0000
# 5 0.0000 0.0000 0.0000 0.0000 22.4341 0.0000
# 6 0.0000 0.0000 0.0000 0.0000 0.0000 10.9672
#
#
#
# Elastic Compliance Matrix: (Units=1/GPa)
#
#
# Indices 1 2 3 4 5 6 
#
# 1 0.016290 -0.011969 -0.005105 0.000000 0.000000 0.000000
# 2 -0.011969 0.049235 -0.007285 0.000000 0.000000 0.000000
# 3 -0.005105 -0.007285 0.010775 0.000000 0.000000 0.000000
# 4 0.000000 0.000000 0.000000 0.032040 0.000000 0.000000
# 5 0.000000 0.000000 0.000000 0.000000 0.044575 0.000000
# 6 0.000000 0.000000 0.000000 0.000000 0.000000 0.091181
#
#
# Mechanical properties :
#
#
# Convention : Reuss Voigt Hill
#
# Bulk Modulus (GPa) = 36.25503 72.63811 54.44657
# Shear Modulus (GPa) = 16.55580 22.79314 19.67447
#
# Velocity S-wave (km/s) = 3.08590 3.62084 3.36402
# Velocity P-wave (km/s) = 5.79230 7.69815 6.81220
#
# Compressibility (1/GPa) = 0.02758238
#
# Stress axis : x y z
#
# Youngs Moduli (GPa) = 61.38890 20.31061 92.80429
#
# Poissons Ratio (x) = 0.24310 0.47375
# Poissons Ratio (y) = 0.73477 0.67609
# Poissons Ratio (z) = 0.31338 0.14796
#
# Static dielectric constant tensor:
#      x y z
#    x 1.573080 0.000000 0.000000 
#    y 0.000000 1.587810 0.000000 
#    z 0.000000 0.000000 1.601670 
# 
# From -- ./inp_files/21433.got.cif
#   From: 2010.05.17/outbox.cif.g08.bks.cpg/sg38_11_cif.got.tgz:21433.got - 2010.06.03 18:07:57.
