data_PCOD9359405
_publ_section_title
;
Structure prediction by ZEFSAII (Michael W. Deem and Ramdas Pophale) SiO2 
 PCOD9359405
Probable space group: A M M 2
;
_chemical_formula_sum "Si O2"
_cell_formula_units_Z 56
_cell_length_a 8.321705
_cell_length_b 14.943006
_cell_length_c 22.885497
_cell_angle_alpha 90.000000
_cell_angle_beta 90.000000
_cell_angle_gamma 90.000000
_cell_volume 2845.841023
_symmetry_space_group_name_H-M "A M M 2"
_symmetry_group_IT_number 38
_symmetry_cell_setting 'orthorhombic'
loop_
_space_group_symop_operation_xyz
x,y,z
-x,-y,z
-x,y,z
x,-y,z
x,1/2+y,1/2+z
-x,1/2-y,1/2+z
-x,1/2+y,1/2+z
x,1/2-y,1/2+z
loop_
_atom_site_type_symbol
_atom_site_label
_atom_site_fract_x
_atom_site_fract_y
_atom_site_fract_z
Si Si1 0.309307 0.102074 0.992520
Si Si2 0.808876 0.281407 0.600533
Si Si3 0.804429 0.398335 0.707686
Si Si4 0.803801 0.100623 0.341967
Si Si5 0.306738 0.099987 0.639621
Si Si6 0.189984 0.712041 0.383150
Si Si7 0.307163 0.604833 0.273711
O O1 0.500000 0.098586 0.000351
O O2 0.272274 0.151995 0.932092
O O3 0.246768 0.000000 0.991818
O O4 0.237730 0.159164 0.045384
O O5 0.744365 0.329082 0.659571
O O6 0.747752 0.180168 0.598816
O O7 0.000000 0.278880 0.604648
O O8 0.759578 0.500000 0.691163
O O9 0.753068 0.383250 0.774521
O O10 0.000000 0.394889 0.707980
O O11 0.751420 0.185058 0.380211
O O12 0.000000 0.100837 0.342061
O O13 0.752948 0.000000 0.358931
O O14 0.500000 0.097893 0.640790
O O15 0.254357 0.119166 0.706659
O O16 0.250238 0.000000 0.623774
O O17 0.221865 0.667869 0.320083
O O18 0.000000 0.712460 0.394898
O O19 0.500000 0.618721 0.277101
O O20 0.277470 0.500000 0.287506
#
# Coordination Sequence:
#
# PCOD9359405 Si02
#       7
#     8   8   8   8   8   8   8
#     4  11  25  43  59  75 102 143 185 222 268 333
#     4  11  21  34  56  84 111 139 177 228 280 324
#     4   8  14  26  47  77 111 141 166 201 258 323
#     4   8  15  29  49  76 110 141 167 202 256 320
#     4   9  19  36  56  79 111 150 187 221 263 323
#     4  11  21  33  54  82 108 138 181 233 281 319
#     4   9  18  33  53  78 111 150 184 216 264 325
#
# _framework density 19.677838999999999
#
# number of rings (size 3 to 8) (size 9 to 14) (size 15 to 20)
#    0.000    2.429    0.000    4.714    0.000    5.714 
#    0.000    2.143    0.000    4.286    0.000    8.000 
#    0.000    0.000    0.000    0.000    0.000    0.000 
#
# Total GULP energy -156283.980706 kJ/mol
# GULP energy per Si atom -5581.570739 kJ/mol
# Density = 1.963305 g / cm^3
# Si number density = 19.677839 Si / 1000 Ang^3
#
#
#
# Elastic Constant Matrix: (Units=GPa)
#
#
# Indices 1 2 3 4 5 6 
#
# 1 13.2320 12.1428 4.4301 0.0000 0.0000 0.0000
# 2 12.1428 160.9546 69.0206 0.0000 0.0000 0.0000
# 3 4.4301 69.0206 44.6725 0.0000 0.0000 0.0000
# 4 0.0000 0.0000 0.0000 33.2870 0.0000 0.0000
# 5 0.0000 0.0000 0.0000 0.0000 24.7212 0.0000
# 6 0.0000 0.0000 0.0000 0.0000 0.0000 19.3777
#
#
#
# Elastic Compliance Matrix: (Units=1/GPa)
#
#
# Indices 1 2 3 4 5 6 
#
# 1 0.081461 -0.007946 0.004198 0.000000 0.000000 0.000000
# 2 -0.007946 0.019186 -0.028855 0.000000 0.000000 0.000000
# 3 0.004198 -0.028855 0.066551 0.000000 0.000000 0.000000
# 4 0.000000 0.000000 0.000000 0.030042 0.000000 0.000000
# 5 0.000000 0.000000 0.000000 0.000000 0.040451 0.000000
# 6 0.000000 0.000000 0.000000 0.000000 0.000000 0.051606
#
#
# Mechanical properties :
#
#
# Convention : Reuss Voigt Hill
#
# Bulk Modulus (GPa) = 9.80467 43.33845 26.57156
# Shear Modulus (GPa) = 12.87007 24.36157 18.61582
#
# Velocity S-wave (km/s) = 2.56019 3.52237 3.07910
# Velocity P-wave (km/s) = 3.70579 6.21406 5.11603
#
# Compressibility (1/GPa) = 0.10199218
#
# Stress axis : x y z
#
# Youngs Moduli (GPa) = 12.27589 52.12127 15.02611
#
# Poissons Ratio (x) = 0.41415 -0.06309
# Poissons Ratio (y) = 0.09754 0.43358
# Poissons Ratio (z) = -0.05154 1.50396
#
# Static dielectric constant tensor:
#      x y z
#    x 1.692370 0.000000 0.000000 
#    y 0.000000 1.712770 0.000000 
#    z 0.000000 0.000000 1.666660 
# 
# From -- ./inp_files/19815.got.cif
#   From: 2010.05.17/outbox.cif.g08.bks.cpg/sg38_10_cif.got.tgz:19815.got - 2010.06.03 18:07:57.
