data_PCOD9359956
_publ_section_title
;
Structure prediction by ZEFSAII (Michael W. Deem and Ramdas Pophale) SiO2 
 PCOD9359956
Probable space group: A B M 2
;
_chemical_formula_sum "Si O2"
_cell_formula_units_Z 64
_cell_length_a 20.433945
_cell_length_b 8.331560
_cell_length_c 20.895232
_cell_angle_alpha 90.000000
_cell_angle_beta 90.000000
_cell_angle_gamma 90.000000
_cell_volume 3557.343015
_symmetry_space_group_name_H-M "A B M 2"
_symmetry_group_IT_number 39
_symmetry_cell_setting 'orthorhombic'
loop_
_space_group_symop_operation_xyz
x,y,z
-x,-y,z
-x,1/2+y,z
x,1/2-y,z
x,1/2+y,1/2+z
-x,1/2-y,1/2+z
-x,y,1/2+z
x,-y,1/2+z
loop_
_atom_site_type_symbol
_atom_site_label
_atom_site_fract_x
_atom_site_fract_y
_atom_site_fract_z
Si Si1 0.162039 0.556025 0.356440
Si Si2 0.176468 0.555910 0.076066
Si Si3 0.426606 0.441593 0.637285
Si Si4 0.342000 0.557739 0.751767
Si Si5 0.322239 0.554074 0.032293
Si Si6 0.073634 0.441601 0.971230
Si Si7 0.196669 0.944032 0.217985
Si Si8 0.692789 0.056079 0.890469
O O1 0.161286 0.750000 0.356279
O O2 0.106076 0.498285 0.404651
O O3 0.159569 0.501752 0.282411
O O4 0.232340 0.500734 0.383126
O O5 0.175181 0.750000 0.074463
O O6 0.248991 0.505128 0.052934
O O7 0.168648 0.502762 0.149786
O O8 0.121122 0.494417 0.028574
O O9 0.500000 0.500000 0.627165
O O10 0.425876 0.250000 0.634814
O O11 0.398251 0.494189 0.705790
O O12 0.376314 0.502428 0.582756
O O13 0.342902 0.750000 0.750671
O O14 0.271806 0.499371 0.725025
O O15 0.344285 0.503186 0.825971
O O16 0.322857 0.750000 0.033578
O O17 0.334035 0.502352 0.959118
O O18 0.073210 0.250000 0.969104
O O19 0.000000 0.500000 0.979446
O O20 0.197178 0.750000 0.217695
O O21 0.693250 0.250000 0.890521
#
# Coordination Sequence:
#
# PCOD9359956 Si02
#       8
#     8   8   8   8   8   8   8   8
#     4   9  18  32  51  77 106 135 173 218 262 310
#     4  10  18  33  57  81 106 142 179 219 270 321
#     4  11  22  38  56  77 107 145 183 222 270 325
#     4  10  19  31  51  80 109 139 174 217 262 313
#     4   9  17  32  55  80 106 140 178 217 266 319
#     4  11  23  37  53  77 108 145 181 223 270 324
#     4   9  17  32  54  79 107 138 173 217 267 313
#     4   9  17  31  53  79 106 135 173 216 261 311
#
# _framework density 17.990955
#
# number of rings (size 3 to 8) (size 9 to 14) (size 15 to 20)
#    0.000    2.250    2.500    1.125    0.000    1.500 
#    0.000    2.500    0.000    3.000    0.000    0.000 
#    0.000    0.000    0.000    0.000    0.000    0.000 
#
# Total GULP energy -178476.929785 kJ/mol
# GULP energy per Si atom -5577.404056 kJ/mol
# Density = 1.795001 g / cm^3
# Si number density = 17.990955 Si / 1000 Ang^3
#
#
#
# Elastic Constant Matrix: (Units=GPa)
#
#
# Indices 1 2 3 4 5 6 
#
# 1 127.8050 14.3171 92.9282 0.0000 0.0000 0.0000
# 2 14.3171 9.1161 24.9136 0.0000 0.0000 0.0000
# 3 92.9282 24.9136 176.7769 0.0000 0.0000 0.0000
# 4 0.0000 0.0000 0.0000 17.1649 0.0000 0.0000
# 5 0.0000 0.0000 0.0000 0.0000 66.4063 0.0000
# 6 0.0000 0.0000 0.0000 0.0000 0.0000 24.4092
#
#
#
# Elastic Compliance Matrix: (Units=1/GPa)
#
#
# Indices 1 2 3 4 5 6 
#
# 1 0.012708 -0.002767 -0.006291 0.000000 0.000000 0.000000
# 2 -0.002767 0.179014 -0.023774 0.000000 0.000000 0.000000
# 3 -0.006291 -0.023774 0.012314 0.000000 0.000000 0.000000
# 4 0.000000 0.000000 0.000000 0.058258 0.000000 0.000000
# 5 0.000000 0.000000 0.000000 0.000000 0.015059 0.000000
# 6 0.000000 0.000000 0.000000 0.000000 0.000000 0.040968
#
#
# Mechanical properties :
#
#
# Convention : Reuss Voigt Hill
#
# Bulk Modulus (GPa) = 7.22684 64.22397 35.72540
# Shear Modulus (GPa) = 11.62491 33.69870 22.66181
#
# Velocity S-wave (km/s) = 2.54471 4.33262 3.55297
# Velocity P-wave (km/s) = 3.55805 7.79770 6.06069
#
# Compressibility (1/GPa) = 0.13837307
#
# Stress axis : x y z
#
# Youngs Moduli (GPa) = 78.68866 5.58614 81.20701
#
# Poissons Ratio (x) = 0.01546 0.51083
# Poissons Ratio (y) = 0.21775 1.93063
# Poissons Ratio (z) = 0.49499 0.13281
#
# Static dielectric constant tensor:
#      x y z
#    x 1.570720 0.000000 0.000000 
#    y 0.000000 1.617450 0.000000 
#    z 0.000000 0.000000 1.658790 
# 
# From -- ./inp_files/15033.got.cif
#   From: 2010.05.17/outbox.cif.g08.bks.cpg/sg39_8_cif.got.tgz:15033.got - 2010.06.03 18:22:40.
