data_PCOD9359230
_publ_section_title
;
Structure prediction by ZEFSAII (Michael W. Deem and Ramdas Pophale) SiO2 
 PCOD9359230
Probable space group: A M M 2
;
_chemical_formula_sum "Si O2"
_cell_formula_units_Z 56
_cell_length_a 21.603568
_cell_length_b 7.476325
_cell_length_c 14.664871
_cell_angle_alpha 90.000000
_cell_angle_beta 90.000000
_cell_angle_gamma 90.000000
_cell_volume 2368.600973
_symmetry_space_group_name_H-M "A M M 2"
_symmetry_group_IT_number 38
_symmetry_cell_setting 'orthorhombic'
loop_
_space_group_symop_operation_xyz
x,y,z
-x,-y,z
-x,y,z
x,-y,z
x,1/2+y,1/2+z
-x,1/2-y,1/2+z
-x,1/2+y,1/2+z
x,1/2-y,1/2+z
loop_
_atom_site_type_symbol
_atom_site_label
_atom_site_fract_x
_atom_site_fract_y
_atom_site_fract_z
Si Si1 0.303632 0.205055 0.364580
Si Si2 0.069552 0.712428 0.507037
Si Si3 0.433316 0.282328 0.833124
Si Si4 0.833175 0.290509 0.362801
Si Si5 0.432636 0.707330 0.117621
Si Si6 0.833425 0.284537 0.157147
Si Si7 0.301006 0.217863 0.648086
O O1 0.371832 0.280967 0.384581
O O2 0.237924 0.279117 0.395441
O O3 0.302403 0.219706 0.253715
O O4 0.303548 0.000000 0.394704
O O5 0.064498 0.500000 0.491780
O O6 0.116177 0.787860 0.430688
O O7 0.106687 0.734644 0.600605
O O8 0.000000 0.785755 0.507135
O O9 0.500000 0.234433 0.873349
O O10 0.430124 0.500000 0.828025
O O11 0.432928 0.213455 0.728892
O O12 0.846824 0.500000 0.354331
O O13 0.836569 0.215552 0.260613
O O14 0.500000 0.785095 0.091012
O O15 0.433065 0.500000 0.087005
O O16 0.363660 0.780998 0.098440
O O17 0.830577 0.500000 0.159781
O O18 0.767161 0.226794 0.114817
O O19 0.303763 0.000000 0.649080
#
# Coordination Sequence:
#
# PCOD9359230 Si02
#       7
#     8   8   8   8   8   8   8
#     4   9  15  23  40  66  93 124 165 208 243 281
#     4  10  22  39  57  78 103 130 162 200 244 298
#     4   8  13  20  30  50  85 124 157 194 242 287
#     4   9  19  36  55  74 101 136 167 198 244 300
#     4   8  12  18  31  53  82 118 160 202 238 275
#     4   9  18  33  54  78 103 133 167 203 243 289
#     4   8  14  25  40  61  93 130 164 199 243 293
#
# _framework density 23.642648000000001
#
# number of rings (size 3 to 8) (size 9 to 14) (size 15 to 20)
#    0.000    3.286    0.000    1.286    0.000    4.286 
#    0.000    1.429    0.000    0.000    0.000    1.000 
#    0.000    5.714    0.000    0.000    0.000    2.857 
#
# Total GULP energy -156086.354436 kJ/mol
# GULP energy per Si atom -5574.512658 kJ/mol
# Density = 2.358884 g / cm^3
# Si number density = 23.642648 Si / 1000 Ang^3
#
#
#
# Elastic Constant Matrix: (Units=GPa)
#
#
# Indices 1 2 3 4 5 6 
#
# 1 250.5998 4.5180 45.4379 0.0000 0.0000 0.0000
# 2 4.5180 70.0757 -2.3605 0.0000 0.0000 0.0000
# 3 45.4379 -2.3605 74.5758 0.0000 0.0000 0.0000
# 4 0.0000 0.0000 0.0000 1.3280 0.0000 0.0000
# 5 0.0000 0.0000 0.0000 0.0000 26.4665 0.0000
# 6 0.0000 0.0000 0.0000 0.0000 0.0000 17.5968
#
#
#
# Elastic Compliance Matrix: (Units=1/GPa)
#
#
# Indices 1 2 3 4 5 6 
#
# 1 0.004496 -0.000383 -0.002752 0.000000 0.000000 0.000000
# 2 -0.000383 0.014318 0.000686 0.000000 0.000000 0.000000
# 3 -0.002752 0.000686 0.015107 0.000000 0.000000 0.000000
# 4 0.000000 0.000000 0.000000 0.753031 0.000000 0.000000
# 5 0.000000 0.000000 0.000000 0.000000 0.037784 0.000000
# 6 0.000000 0.000000 0.000000 0.000000 0.000000 0.056829
#
#
# Mechanical properties :
#
#
# Convention : Reuss Voigt Hill
#
# Bulk Modulus (GPa) = 34.45193 54.49358 44.47275
# Shear Modulus (GPa) = 5.57951 32.25530 18.91741
#
# Velocity S-wave (km/s) = 1.53787 3.69763 2.83174
# Velocity P-wave (km/s) = 4.21390 6.42875 5.43534
#
# Compressibility (1/GPa) = 0.02902595
#
# Stress axis : x y z
#
# Youngs Moduli (GPa) = 222.40837 69.84185 66.19266
#
# Poissons Ratio (x) = 0.02672 0.18214
# Poissons Ratio (y) = 0.08509 -0.04543
# Poissons Ratio (z) = 0.61198 -0.04793
#
# Static dielectric constant tensor:
#      x y z
#    x 1.948380 0.000000 0.000000 
#    y 0.000000 1.920300 0.000000 
#    z 0.000000 0.000000 1.943360 
# 
# From -- ./inp_files/18812.got.cif
#   From: 2010.05.17/outbox.cif.g08.bks.cpg/sg38_10_cif.got.tgz:18812.got - 2010.06.03 18:07:57.
