data_PCOD9359109
_publ_section_title
;
Structure prediction by ZEFSAII (Michael W. Deem and Ramdas Pophale) SiO2 
 PCOD9359109
Probable space group: A M M 2
;
_chemical_formula_sum "Si O2"
_cell_formula_units_Z 64
_cell_length_a 8.973063
_cell_length_b 31.361090
_cell_length_c 12.174810
_cell_angle_alpha 90.000000
_cell_angle_beta 90.000000
_cell_angle_gamma 90.000000
_cell_volume 3426.052850
_symmetry_space_group_name_H-M "A M M 2"
_symmetry_group_IT_number 38
_symmetry_cell_setting 'orthorhombic'
loop_
_space_group_symop_operation_xyz
x,y,z
-x,-y,z
-x,y,z
x,-y,z
x,1/2+y,1/2+z
-x,1/2-y,1/2+z
-x,1/2+y,1/2+z
x,1/2-y,1/2+z
loop_
_atom_site_type_symbol
_atom_site_label
_atom_site_fract_x
_atom_site_fract_y
_atom_site_fract_z
Si Si1 0.173671 0.932253 0.940840
Si Si2 0.680000 0.374361 0.049094
Si Si3 0.677934 0.047841 0.708923
Si Si4 0.173931 0.830213 0.927314
Si Si5 0.677606 0.047960 0.169843
Si Si6 0.179191 0.624178 0.808776
Si Si7 0.677564 0.202859 0.708379
Si Si8 0.179414 0.206008 0.163792
O O1 0.240161 0.947028 0.825034
O O2 0.183335 0.880907 0.943061
O O3 0.000000 0.944283 0.950041
O O4 0.263982 0.949077 0.045067
O O5 0.500000 0.375123 0.036182
O O6 0.722141 0.414970 0.124640
O O7 0.721514 0.331381 0.114887
O O8 0.756575 0.376081 0.931257
O O9 0.500000 0.052264 0.727767
O O10 0.705459 0.000000 0.665739
O O11 0.270345 0.815806 0.824635
O O12 0.000000 0.819602 0.906036
O O13 0.220506 0.807953 0.040409
O O14 0.500000 0.054632 0.172058
O O15 0.757368 0.084243 0.240750
O O16 0.708757 0.000000 0.211282
O O17 0.223030 0.667973 0.746473
O O18 0.000000 0.622050 0.809734
O O19 0.500000 0.206578 0.705991
O O20 0.749834 0.248838 0.691532
O O21 0.000000 0.209407 0.168086
#
# Coordination Sequence:
#
# PCOD9359109 Si02
#       8
#     8   8   8   8   8   8   8   8
#     4  11  21  37  62  93 126 157 199 251 301 356
#     4  10  23  42  60  87 124 161 203 251 304 364
#     4  10  21  39  62  87 120 162 203 245 301 366
#     4  10  21  40  64  89 121 160 199 245 304 362
#     4  11  24  41  63  91 124 163 202 244 303 367
#     4  11  24  43  65  90 120 159 206 255 303 357
#     4  11  24  40  62  93 124 157 202 252 300 356
#     4  10  23  43  63  88 122 161 202 246 304 364
#
# _framework density 18.680389999999999
#
# number of rings (size 3 to 8) (size 9 to 14) (size 15 to 20)
#    0.000    1.500    2.500    1.875    1.750    6.750 
#    0.000    1.250    0.000    0.000    0.000    0.000 
#    0.000    0.000    0.000    0.000    0.000    0.000 
#
# Total GULP energy -178860.466203 kJ/mol
# GULP energy per Si atom -5589.389569 kJ/mol
# Density = 1.863787 g / cm^3
# Si number density = 18.680390 Si / 1000 Ang^3
#
#
#
# Elastic Constant Matrix: (Units=GPa)
#
#
# Indices 1 2 3 4 5 6 
#
# 1 42.5515 53.7725 48.5149 0.0000 0.0000 0.0000
# 2 53.7725 151.3043 74.1917 0.0000 0.0000 0.0000
# 3 48.5149 74.1917 139.4572 0.0000 0.0000 0.0000
# 4 0.0000 0.0000 0.0000 46.1265 0.0000 0.0000
# 5 0.0000 0.0000 0.0000 0.0000 38.2463 0.0000
# 6 0.0000 0.0000 0.0000 0.0000 0.0000 29.2288
#
#
#
# Elastic Compliance Matrix: (Units=1/GPa)
#
#
# Indices 1 2 3 4 5 6 
#
# 1 0.053526 -0.013383 -0.011501 0.000000 0.000000 0.000000
# 2 -0.013383 0.012288 -0.001881 0.000000 0.000000 0.000000
# 3 -0.011501 -0.001881 0.012173 0.000000 0.000000 0.000000
# 4 0.000000 0.000000 0.000000 0.021680 0.000000 0.000000
# 5 0.000000 0.000000 0.000000 0.000000 0.026146 0.000000
# 6 0.000000 0.000000 0.000000 0.000000 0.000000 0.034213
#
#
# Mechanical properties :
#
#
# Convention : Reuss Voigt Hill
#
# Bulk Modulus (GPa) = 40.89070 76.25234 58.57152
# Shear Modulus (GPa) = 22.55208 33.17590 27.86399
#
# Velocity S-wave (km/s) = 3.47833 4.21880 3.86634
# Velocity P-wave (km/s) = 6.17000 8.03985 7.16617
#
# Compressibility (1/GPa) = 0.02445544
#
# Stress axis : x y z
#
# Youngs Moduli (GPa) = 18.68241 81.37929 82.15189
#
# Poissons Ratio (x) = 1.08913 0.94482
# Poissons Ratio (y) = 0.25003 0.15456
# Poissons Ratio (z) = 0.21486 0.15311
#
# Static dielectric constant tensor:
#      x y z
#    x 1.627790 0.000000 0.000000 
#    y 0.000000 1.643490 0.000000 
#    z 0.000000 0.000000 1.605420 
# 
# From -- ./inp_files/8631.got.cif
#   From: 2010.05.17/outbox.cif.g08.bks.cpg/sg38_5_cif.got.tgz:8631.got - 2010.06.03 18:07:57.
