data_PCOD9359992
_publ_section_title
;
Structure prediction by ZEFSAII (Michael W. Deem and Ramdas Pophale) SiO2 
 PCOD9359992
Probable space group: A B M 2
;
_chemical_formula_sum "Si O2"
_cell_formula_units_Z 60
_cell_length_a 22.397378
_cell_length_b 7.449897
_cell_length_c 15.527267
_cell_angle_alpha 90.000000
_cell_angle_beta 90.000000
_cell_angle_gamma 90.000000
_cell_volume 2590.851189
_symmetry_space_group_name_H-M "A B M 2"
_symmetry_group_IT_number 39
_symmetry_cell_setting 'orthorhombic'
loop_
_space_group_symop_operation_xyz
x,y,z
-x,-y,z
-x,1/2+y,z
x,1/2-y,z
x,1/2+y,1/2+z
-x,1/2-y,1/2+z
-x,y,1/2+z
x,-y,1/2+z
loop_
_atom_site_type_symbol
_atom_site_label
_atom_site_fract_x
_atom_site_fract_y
_atom_site_fract_z
Si Si1 0.217349 0.036797 0.804800
Si Si2 0.652165 0.029674 0.550385
Si Si3 0.000000 0.000000 0.202378
Si Si4 0.216539 0.964166 0.602121
Si Si5 0.430161 0.960763 0.702927
Si Si6 0.914216 0.469799 0.550035
Si Si7 0.653694 0.536343 0.862118
Si Si8 0.913776 0.469974 0.354493
O O1 0.217770 0.250000 0.821233
O O2 0.280645 0.963305 0.837768
O O3 0.155308 0.973775 0.845306
O O4 0.214353 0.004991 0.703080
O O5 0.652725 0.250000 0.553471
O O6 0.720251 0.969596 0.566722
O O7 0.607358 0.961573 0.623193
O O8 0.633845 0.971849 0.455378
O O9 0.048580 0.055509 0.276404
O O10 0.951604 0.055949 0.128184
O O11 0.217137 0.750000 0.589931
O O12 0.154897 0.024749 0.559825
O O13 0.425459 0.750000 0.693423
O O14 0.500000 0.000000 0.704391
O O15 0.395103 0.006501 0.789518
O O16 0.918922 0.250000 0.561207
O O17 0.933238 0.512360 0.452203
O O18 0.661145 0.750000 0.868562
O O19 0.918201 0.250000 0.343316
#
# Coordination Sequence:
#
# PCOD9359992 Si02
#       8
#     8   8   4   8   8   8   8   8
#     4  10  19  34  58  85 113 146 183 235 292 341
#     4   9  19  36  61  87 113 148 188 233 283 338
#     4  12  20  34  54  76 106 144 190 244 284 326
#     4  10  18  35  60  83 110 145 188 234 285 344
#     4  11  23  40  60  85 120 157 192 232 277 326
#     4  10  21  35  54  78 105 146 190 230 282 346
#     4  10  20  37  62  89 115 148 191 234 285 343
#     4  10  21  36  53  77 110 146 188 233 286 346
#
# _framework density 23.158411999999998
#
# number of rings (size 3 to 8) (size 9 to 14) (size 15 to 20)
#    0.000    1.867    2.667    2.000    0.000    3.733 
#    0.000    3.333    0.000    4.000    0.000    0.000 
#    0.000    0.000    0.000    0.000    0.000    0.000 
#
# Total GULP energy -167362.483901 kJ/mol
# GULP energy per Si atom -5578.749463 kJ/mol
# Density = 2.310570 g / cm^3
# Si number density = 23.158412 Si / 1000 Ang^3
#
#
#
# Elastic Constant Matrix: (Units=GPa)
#
#
# Indices 1 2 3 4 5 6 
#
# 1 186.7224 5.7876 127.0095 0.0000 0.0000 0.0000
# 2 5.7876 80.1358 11.1767 0.0000 0.0000 0.0000
# 3 127.0095 11.1767 240.7106 0.0000 0.0000 0.0000
# 4 0.0000 0.0000 0.0000 171.9810 0.0000 0.0000
# 5 0.0000 0.0000 0.0000 0.0000 -33.3486 0.0000
# 6 0.0000 0.0000 0.0000 0.0000 0.0000 71.4054
#
#
#
# Elastic Compliance Matrix: (Units=1/GPa)
#
#
# Indices 1 2 3 4 5 6 
#
# 1 0.008354 0.000012 -0.004408 0.000000 0.000000 0.000000
# 2 0.000012 0.012560 -0.000589 0.000000 0.000000 0.000000
# 3 -0.004408 -0.000589 0.006508 0.000000 0.000000 0.000000
# 4 0.000000 0.000000 0.000000 0.005815 0.000000 0.000000
# 5 0.000000 0.000000 0.000000 0.000000 -0.029986 0.000000
# 6 0.000000 0.000000 0.000000 0.000000 0.000000 0.014005
#
#
# Mechanical properties :
#
#
# Convention : Reuss Voigt Hill
#
# Bulk Modulus (GPa) = 57.30822 88.39070 72.84946
# Shear Modulus (GPa) = 151.31665 66.24723 108.78194
#
# Velocity S-wave (km/s) = 8.09207 5.35427 6.86112
# Velocity P-wave (km/s) = 10.58814 8.74500 9.71040
#
# Compressibility (1/GPa) = 0.01744950
#
# Stress axis : x y z
#
# Youngs Moduli (GPa) = 119.70649 79.61670 153.66259
#
# Poissons Ratio (x) = -0.00092 0.67740
# Poissons Ratio (y) = -0.00138 0.09055
# Poissons Ratio (z) = 0.52771 0.04692
#
# Static dielectric constant tensor:
#      x y z
#    x 1.822210 0.000000 0.000000 
#    y 0.000000 1.535940 0.000000 
#    z 0.000000 0.000000 1.897410 
# 
# From -- ./inp_files/10538.got.cif
#   From: 2010.05.17/outbox.cif.g08.bks.cpg/sg39_6_cif.got.tgz:10538.got - 2010.06.03 18:22:40.
