data_PCOD9359072
_publ_section_title
;
Structure prediction by ZEFSAII (Michael W. Deem and Ramdas Pophale) SiO2 
 PCOD9359072
Probable space group: A M M 2
;
_chemical_formula_sum "Si O2"
_cell_formula_units_Z 48
_cell_length_a 19.264887
_cell_length_b 8.750426
_cell_length_c 15.367661
_cell_angle_alpha 90.000000
_cell_angle_beta 90.000000
_cell_angle_gamma 90.000000
_cell_volume 2590.618330
_symmetry_space_group_name_H-M "A M M 2"
_symmetry_group_IT_number 38
_symmetry_cell_setting 'orthorhombic'
loop_
_space_group_symop_operation_xyz
x,y,z
-x,-y,z
-x,y,z
x,-y,z
x,1/2+y,1/2+z
-x,1/2-y,1/2+z
-x,1/2+y,1/2+z
x,1/2-y,1/2+z
loop_
_atom_site_type_symbol
_atom_site_label
_atom_site_fract_x
_atom_site_fract_y
_atom_site_fract_z
Si Si1 0.917898 0.181592 0.450100
Si Si2 0.323120 0.817467 0.547364
Si Si3 0.580157 0.184250 0.192727
Si Si4 0.825179 0.317837 0.603126
Si Si5 0.686081 0.183479 0.345694
Si Si6 0.165534 0.317917 0.291850
O O1 0.876690 0.263122 0.527660
O O2 0.887815 0.245018 0.359910
O O3 0.000000 0.207881 0.456628
O O4 0.904566 0.000000 0.454936
O O5 0.384494 0.758145 0.608473
O O6 0.251853 0.739819 0.578784
O O7 0.333522 0.782513 0.445358
O O8 0.316027 0.000000 0.556468
O O9 0.500000 0.229232 0.202566
O O10 0.626465 0.225179 0.276881
O O11 0.583037 0.000000 0.184266
O O12 0.824810 0.500000 0.610042
O O13 0.845733 0.244686 0.695038
O O14 0.757370 0.266615 0.321132
O O15 0.697827 0.000000 0.339192
O O16 0.160377 0.500000 0.293468
#
# Coordination Sequence:
#
# PCOD9359072 Si02
#       6
#     8   8   8   8   8   8
#     4  11  25  45  67  94 130 167 207 259 317 376
#     4  11  22  37  62  93 124 160 210 262 311 375
#     4  10  22  40  61  88 125 168 211 259 317 376
#     4  12  24  40  65  94 128 167 211 261 312 373
#     4  10  21  38  62  89 124 164 207 257 310 373
#     4  12  24  39  65  96 127 165 212 260 309 374
#
# _framework density 18.528395
#
# number of rings (size 3 to 8) (size 9 to 14) (size 15 to 20)
#    0.000    1.000    3.333    4.000    0.000    3.667 
#    0.000    1.667    0.000    0.000    0.000    0.000 
#    0.000    0.000    0.000    0.000    0.000    0.000 
#
# Total GULP energy -134246.351765 kJ/mol
# GULP energy per Si atom -5593.597990 kJ/mol
# Density = 1.848622 g / cm^3
# Si number density = 18.528395 Si / 1000 Ang^3
#
#
#
# Elastic Constant Matrix: (Units=GPa)
#
#
# Indices 1 2 3 4 5 6 
#
# 1 58.8296 19.7147 -0.9981 0.0000 0.0000 0.0000
# 2 19.7147 42.0537 5.0568 0.0000 0.0000 0.0000
# 3 -0.9981 5.0568 82.3895 0.0000 0.0000 0.0000
# 4 0.0000 0.0000 0.0000 35.5909 0.0000 0.0000
# 5 0.0000 0.0000 0.0000 0.0000 33.0153 0.0000
# 6 0.0000 0.0000 0.0000 0.0000 0.0000 25.8994
#
#
#
# Elastic Compliance Matrix: (Units=1/GPa)
#
#
# Indices 1 2 3 4 5 6 
#
# 1 0.020223 -0.009581 0.000833 0.000000 0.000000 0.000000
# 2 -0.009581 0.028495 -0.001865 0.000000 0.000000 0.000000
# 3 0.000833 -0.001865 0.012262 0.000000 0.000000 0.000000
# 4 0.000000 0.000000 0.000000 0.028097 0.000000 0.000000
# 5 0.000000 0.000000 0.000000 0.000000 0.030289 0.000000
# 6 0.000000 0.000000 0.000000 0.000000 0.000000 0.038611
#
#
# Mechanical properties :
#
#
# Convention : Reuss Voigt Hill
#
# Bulk Modulus (GPa) = 25.15437 25.64663 25.40050
# Shear Modulus (GPa) = 25.98026 29.53440 27.75733
#
# Velocity S-wave (km/s) = 3.74864 3.99683 3.87472
# Velocity P-wave (km/s) = 5.68700 5.93055 5.81005
#
# Compressibility (1/GPa) = 0.03975452
#
# Stress axis : x y z
#
# Youngs Moduli (GPa) = 49.44858 35.09411 81.55256
#
# Poissons Ratio (x) = 0.33623 -0.06794
# Poissons Ratio (y) = 0.47375 0.15210
# Poissons Ratio (z) = -0.04119 0.06545
#
# Static dielectric constant tensor:
#      x y z
#    x 1.603190 0.000000 0.000000 
#    y 0.000000 1.621800 0.000000 
#    z 0.000000 0.000000 1.621380 
# 
# From -- ./inp_files/14963.got.cif
#   From: 2010.05.17/outbox.cif.g08.bks.cpg/sg38_8_cif.got.tgz:14963.got - 2010.06.03 18:07:57.
