data_PCOD9359583
_publ_section_title
;
Structure prediction by ZEFSAII (Michael W. Deem and Ramdas Pophale) SiO2 
 PCOD9359583
Probable space group: A M M 2
;
_chemical_formula_sum "Si O2"
_cell_formula_units_Z 32
_cell_length_a 9.000000
_cell_length_b 30.000000
_cell_length_c 12.000000
_cell_angle_alpha 90.000000
_cell_angle_beta 90.000000
_cell_angle_gamma 90.000000
_cell_volume 3240.000000
_symmetry_space_group_name_H-M "A M M 2"
_symmetry_group_IT_number 38
_symmetry_cell_setting 'orthorhombic'
loop_
_space_group_symop_operation_xyz
x,y,z
-x,-y,z
-x,y,z
x,-y,z
x,1/2+y,1/2+z
-x,1/2-y,1/2+z
-x,1/2+y,1/2+z
x,1/2-y,1/2+z
loop_
_atom_site_type_symbol
_atom_site_label
_atom_site_fract_x
_atom_site_fract_y
_atom_site_fract_z
Si Si1 0.818586 0.366890 0.240220
Si Si2 0.824075 0.376556 0.490217
Si Si3 0.671500 0.302023 0.631401
Si Si4 0.333607 0.324955 0.882764
Si Si5 0.329004 0.431124 0.866120
Si Si6 0.668270 0.050992 0.118920
Si Si7 0.173293 0.787804 0.582584
Si Si8 0.821226 0.451326 0.097416
O O1 0.766295 0.367183 0.366526
O O2 0.775547 0.322014 0.177392
O O3 0.766773 0.410053 0.171463
O O4 0.000000 0.368055 0.239480
O O5 0.763491 0.341730 0.578718
O O6 0.769372 0.423743 0.532796
O O7 0.000000 0.374186 0.486891
O O8 0.500000 0.308720 0.604439
O O9 0.686797 0.301915 0.764318
O O10 0.732645 0.256493 0.583959
O O11 0.500000 0.313826 0.926251
O O12 0.329723 0.377730 0.865128
O O13 0.205432 0.311910 0.966788
O O14 0.500000 0.446589 0.876974
O O15 0.273215 0.445801 0.745305
O O16 0.237762 0.446807 0.972132
O O17 0.500000 0.070533 0.120868
O O18 0.658076 0.000000 0.088212
O O19 0.000000 0.777851 0.597424
O O20 0.777574 0.500000 0.142048
O O21 0.000000 0.449218 0.095285
#
# Coordination Sequence:
#
# PCOD9359583 Si02
#       8
#     8   8   8   8   8   8   8   8
#     4   9  21  40  58  83 118 155 192 240 296 349
#     4  11  23  40  62  88 118 155 202 248 297 350
#     4  11  24  43  63  88 122 157 199 243 296 356
#     4  10  21  39  63  89 118 155 196 241 294 354
#     4  10  19  36  60  86 118 152 191 237 291 350
#     4  10  21  39  61  86 120 160 197 240 299 356
#     4  11  23  40  63  90 121 154 196 245 300 355
#     4  10  20  36  59  86 116 152 193 237 291 350
#
# _framework density 9.8765429999999999
#
# number of rings (size 3 to 8) (size 9 to 14) (size 15 to 20)
#    0.000    1.750    2.500    1.500    1.750    3.000 
#    0.000    4.375    0.000    0.000    0.000    0.000 
#    0.000    0.000    0.000    0.000    0.000    0.000 
#
# Total GULP energy -178566.636394 kJ/mol
# GULP energy per Si atom -5580.207387 kJ/mol
# Density = 0.985406 g / cm^3
# Si number density = 9.876543 Si / 1000 Ang^3
#
#
#
# Elastic Constant Matrix: (Units=GPa)
#
#
# Indices 1 2 3 4 5 6 
#
# 1 15.2772 7.8067 26.8319 0.0000 0.0000 0.0000
# 2 7.8067 37.5843 -6.0331 0.0000 0.0000 0.0000
# 3 26.8319 -6.0331 19.7717 0.0000 0.0000 0.0000
# 4 0.0000 0.0000 0.0000 -10.5265 0.0000 0.0000
# 5 0.0000 0.0000 0.0000 0.0000 18.0708 0.0000
# 6 0.0000 0.0000 0.0000 0.0000 0.0000 16.4477
#
#
#
# Elastic Compliance Matrix: (Units=1/GPa)
#
#
# Indices 1 2 3 4 5 6 
#
# 1 -0.035344 0.015816 0.052791 0.000000 0.000000 0.000000
# 2 0.015816 0.020900 -0.015086 0.000000 0.000000 0.000000
# 3 0.052791 -0.015086 -0.025669 0.000000 0.000000 0.000000
# 4 0.000000 0.000000 0.000000 -0.094999 0.000000 0.000000
# 5 0.000000 0.000000 0.000000 0.000000 0.055338 0.000000
# 6 0.000000 0.000000 0.000000 0.000000 0.000000 0.060799
#
#
# Mechanical properties :
#
#
# Convention : Reuss Voigt Hill
#
# Bulk Modulus (GPa) = 14.94101 14.42713 14.68407
# Shear Modulus (GPa) = -48.21268 7.73357 -20.23955
#
# Velocity S-wave (km/s) = -4.94577 1.98081 -3.20445
# Velocity P-wave (km/s) = 5.00339 3.54275 2.49828
#
# Compressibility (1/GPa) = 0.06692990
#
# Stress axis : x y z
#
# Youngs Moduli (GPa) = -28.29303 47.84653 -38.95823
#
# Poissons Ratio (x) = -0.75672 2.05666
# Poissons Ratio (y) = 0.44747 -0.58771
# Poissons Ratio (z) = 1.49363 0.72180
#
# Static dielectric constant tensor:
#      x y z
#    x 1.700300 0.000000 0.000000 
#    y 0.000000 1.742490 0.000000 
#    z 0.000000 0.000000 1.673920 
# 
# From -- ./inp_files/8591.got.cif
#   From: 2010.05.17/outbox.ucp.g08.bks.cvg/sg38_5_cif.got.tgz:8591.got - 2010.06.11 10:39:43.
