data_PCOD9359841
_publ_section_title
;
Structure prediction by ZEFSAII (Michael W. Deem and Ramdas Pophale) SiO2 
 PCOD9359841
Probable space group: A B M 2
;
_chemical_formula_sum "Si O2"
_cell_formula_units_Z 56
_cell_length_a 5.296674
_cell_length_b 14.659239
_cell_length_c 32.182095
_cell_angle_alpha 90.000000
_cell_angle_beta 90.000000
_cell_angle_gamma 90.000000
_cell_volume 2498.785527
_symmetry_space_group_name_H-M "A B M 2"
_symmetry_group_IT_number 39
_symmetry_cell_setting 'orthorhombic'
loop_
_space_group_symop_operation_xyz
x,y,z
-x,-y,z
-x,1/2+y,z
x,1/2-y,z
x,1/2+y,1/2+z
-x,1/2-y,1/2+z
-x,y,1/2+z
x,-y,1/2+z
loop_
_atom_site_type_symbol
_atom_site_label
_atom_site_fract_x
_atom_site_fract_y
_atom_site_fract_z
Si Si1 0.766399 0.900571 0.365190
Si Si2 0.834904 0.138802 0.770812
Si Si3 0.614663 0.354350 0.127762
Si Si4 0.331306 0.861141 0.220944
Si Si5 0.113259 0.600651 0.579897
Si Si6 0.732916 0.607804 0.900668
Si Si7 0.251647 0.061708 0.993337
O O1 0.810493 0.903760 0.316276
O O2 0.502886 0.854227 0.375789
O O3 0.001626 0.853066 0.386878
O O4 0.749041 0.001389 0.385716
O O5 0.837890 0.250000 0.775470
O O6 0.592155 0.114453 0.743212
O O7 0.090114 0.109945 0.747616
O O8 0.528425 0.250000 0.133421
O O9 0.672763 0.393721 0.173339
O O10 0.372684 0.399349 0.105794
O O11 0.875677 0.351545 0.101823
O O12 0.318234 0.750000 0.219660
O O13 0.189081 0.625580 0.532712
O O14 0.000000 0.500000 0.575971
O O15 0.693887 0.610546 0.949816
O O16 0.500000 0.000000 0.003255
O O17 0.000000 0.000000 0.985913
#
# Coordination Sequence:
#
# PCOD9359841 Si02
#       7
#     8   8   8   8   8   8   8
#     4  10  18  30  52  77 106 134 180 240 269 325
#     4  10  19  33  54  81 108 143 190 238 284 337
#     4  11  22  41  65  89 120 162 211 250 296 363
#     4   9  19  35  58  80 104 148 201 235 274 350
#     4  11  23  37  63  94 124 155 202 253 312 354
#     4  10  18  32  52  78 104 138 188 223 274 336
#     4  11  18  34  56  86 107 143 195 241 278 353
#
# _framework density 22.410888
#
# number of rings (size 3 to 8) (size 9 to 14) (size 15 to 20)
#    0.000    1.714    2.857    4.286    0.000    2.286 
#    0.000    0.000   31.429    5.143    0.000    0.000 
#    0.000    0.000    0.000    0.000    0.000    0.000 
#
# Total GULP energy -156400.164746 kJ/mol
# GULP energy per Si atom -5585.720169 kJ/mol
# Density = 2.235988 g / cm^3
# Si number density = 22.410888 Si / 1000 Ang^3
#
#
#
# Elastic Constant Matrix: (Units=GPa)
#
#
# Indices 1 2 3 4 5 6 
#
# 1 201.1718 0.4080 72.2636 0.0000 0.0000 0.0000
# 2 0.4080 48.0364 7.5687 0.0000 0.0000 0.0000
# 3 72.2636 7.5687 204.9621 0.0000 0.0000 0.0000
# 4 0.0000 0.0000 0.0000 -56.7395 0.0000 0.0000
# 5 0.0000 0.0000 0.0000 0.0000 43.2027 0.0000
# 6 0.0000 0.0000 0.0000 0.0000 0.0000 7.4072
#
#
#
# Elastic Compliance Matrix: (Units=1/GPa)
#
#
# Indices 1 2 3 4 5 6 
#
# 1 0.005695 0.000270 -0.002018 0.000000 0.000000 0.000000
# 2 0.000270 0.020952 -0.000869 0.000000 0.000000 0.000000
# 3 -0.002018 -0.000869 0.005622 0.000000 0.000000 0.000000
# 4 0.000000 0.000000 0.000000 -0.017624 0.000000 0.000000
# 5 0.000000 0.000000 0.000000 0.000000 0.023147 0.000000
# 6 0.000000 0.000000 0.000000 0.000000 0.000000 0.135003
#
#
# Mechanical properties :
#
#
# Convention : Reuss Voigt Hill
#
# Bulk Modulus (GPa) = 36.98819 68.29453 52.64136
# Shear Modulus (GPa) = 26.73206 23.70275 25.21741
#
# Velocity S-wave (km/s) = 3.45746 3.25567 3.35808
# Velocity P-wave (km/s) = 5.69905 6.68375 6.21094
#
# Compressibility (1/GPa) = 0.02703565
#
# Stress axis : x y z
#
# Youngs Moduli (GPa) = 175.58678 47.72781 177.85728
#
# Poissons Ratio (x) = -0.01287 0.35890
# Poissons Ratio (y) = -0.04733 0.15451
# Poissons Ratio (z) = 0.35432 0.04146
#
# Static dielectric constant tensor:
#      x y z
#    x 1.816110 0.000000 0.000000 
#    y 0.000000 1.941280 0.000000 
#    z 0.000000 0.000000 1.812060 
# 
# From -- ./inp_files/17265.got.cif
#   From: 2010.05.17/outbox.cif.g08.bks.cpg/sg39_9_cif.got.tgz:17265.got - 2010.06.03 18:22:40.
