data_PCOD9359759
_publ_section_title
;
Structure prediction by ZEFSAII (Michael W. Deem and Ramdas Pophale) SiO2 
 PCOD9359759
Probable space group: A B M 2
;
_chemical_formula_sum "Si O2"
_cell_formula_units_Z 64
_cell_length_a 23.891124
_cell_length_b 25.194841
_cell_length_c 5.527603
_cell_angle_alpha 90.000000
_cell_angle_beta 90.000000
_cell_angle_gamma 90.000000
_cell_volume 3327.247046
_symmetry_space_group_name_H-M "A B M 2"
_symmetry_group_IT_number 39
_symmetry_cell_setting 'orthorhombic'
loop_
_space_group_symop_operation_xyz
x,y,z
-x,-y,z
-x,1/2+y,z
x,1/2-y,z
x,1/2+y,1/2+z
-x,1/2-y,1/2+z
-x,y,1/2+z
x,-y,1/2+z
loop_
_atom_site_type_symbol
_atom_site_label
_atom_site_fract_x
_atom_site_fract_y
_atom_site_fract_z
Si Si1 0.572115 0.968927 0.282500
Si Si2 0.852544 0.620993 0.782166
Si Si3 0.568969 0.311634 0.297140
Si Si4 0.191290 0.898603 0.782177
Si Si5 0.892980 0.998973 0.781918
Si Si6 0.966258 0.686974 0.783413
Si Si7 0.443356 0.351884 0.297251
Si Si8 0.704306 0.031857 0.783984
O O1 0.540457 0.913350 0.287607
O O2 0.638453 0.955648 0.283687
O O3 0.561531 0.000766 0.530614
O O4 0.822220 0.632328 0.528766
O O5 0.860827 0.557061 0.781916
O O6 0.911567 0.650650 0.783109
O O7 0.821917 0.632211 0.034997
O O8 0.582759 0.250000 0.289557
O O9 0.501201 0.318815 0.300843
O O10 0.588071 0.337125 0.549955
O O11 0.587390 0.339734 0.049076
O O12 0.254474 0.918724 0.783247
O O13 0.150953 0.951791 0.781931
O O14 0.925905 0.000001 0.531920
O O15 0.952480 0.750000 0.783354
O O16 0.000047 0.676518 0.533526
O O17 0.715864 0.999874 0.534298
#
# Coordination Sequence:
#
# PCOD9359759 Si02
#       8
#     8   8   8   8   8   8   8   8
#     4  10  21  34  47  69 106 142 172 201 241 301
#     4  10  18  29  49  73  95 120 153 195 236 269
#     4  10  19  33  53  76  95 119 169 229 269 302
#     4  10  17  28  48  74  98 121 154 190 229 276
#     4   8  14  23  39  62  90 113 135 171 208 254
#     4  10  21  37  54  71  92 121 160 199 234 278
#     4  10  18  32  50  72 100 131 165 210 261 306
#     4  10  18  30  48  71 100 135 167 199 231 271
#
# _framework density 19.235122
#
# number of rings (size 3 to 8) (size 9 to 14) (size 15 to 20)
#    0.000    2.250    0.000    6.375    0.000    0.000 
#    0.000    7.500    0.000   20.250    0.000    7.000 
#    0.000    0.000    0.000    0.000    0.000    0.000 
#
# Total GULP energy -178331.404020 kJ/mol
# GULP energy per Si atom -5572.856376 kJ/mol
# Density = 1.919134 g / cm^3
# Si number density = 19.235122 Si / 1000 Ang^3
#
#
#
# Elastic Constant Matrix: (Units=GPa)
#
#
# Indices 1 2 3 4 5 6 
#
# 1 63.2403 3.8299 31.2641 0.0000 0.0000 0.0000
# 2 3.8299 27.7441 7.0082 0.0000 0.0000 0.0000
# 3 31.2641 7.0082 197.1065 0.0000 0.0000 0.0000
# 4 0.0000 0.0000 0.0000 20.6648 0.0000 0.0000
# 5 0.0000 0.0000 0.0000 0.0000 -21.1259 0.0000
# 6 0.0000 0.0000 0.0000 0.0000 0.0000 27.5764
#
#
#
# Elastic Compliance Matrix: (Units=1/GPa)
#
#
# Indices 1 2 3 4 5 6 
#
# 1 0.017238 -0.001704 -0.002674 0.000000 0.000000 0.000000
# 2 -0.001704 0.036539 -0.001029 0.000000 0.000000 0.000000
# 3 -0.002674 -0.001029 0.005534 0.000000 0.000000 0.000000
# 4 0.000000 0.000000 0.000000 0.048392 0.000000 0.000000
# 5 0.000000 0.000000 0.000000 0.000000 -0.047335 0.000000
# 6 0.000000 0.000000 0.000000 0.000000 0.000000 0.036263
#
#
# Mechanical properties :
#
#
# Convention : Reuss Voigt Hill
#
# Bulk Modulus (GPa) = 20.61972 41.36616 30.99294
# Shear Modulus (GPa) = 40.45023 21.82230 31.13626
#
# Velocity S-wave (km/s) = 4.59075 3.37189 4.02770
# Velocity P-wave (km/s) = 6.23242 6.05902 6.14634
#
# Compressibility (1/GPa) = 0.04849727
#
# Stress axis : x y z
#
# Youngs Moduli (GPa) = 58.01263 27.36816 180.69962
#
# Poissons Ratio (x) = 0.04664 0.48311
# Poissons Ratio (y) = 0.09887 0.18591
# Poissons Ratio (z) = 0.15510 0.02816
#
# Static dielectric constant tensor:
#      x y z
#    x 1.637180 0.000000 0.000000 
#    y 0.000000 1.650320 0.000000 
#    z 0.000000 0.000000 1.840250 
# 
# From -- ./inp_files/1315.got.cif
#   From: 2010.05.17/outbox.cif.g08.bks.cpg/sg39_1_cif.got.tgz:1315.got - 2010.06.03 18:22:40.
