data_PCOD9359165
_publ_section_title
;
Structure prediction by ZEFSAII (Michael W. Deem and Ramdas Pophale) SiO2 
 PCOD9359165
Probable space group: A M M 2
;
_chemical_formula_sum "Si O2"
_cell_formula_units_Z 64
_cell_length_a 9.003745
_cell_length_b 31.255492
_cell_length_c 12.076870
_cell_angle_alpha 90.000000
_cell_angle_beta 90.000000
_cell_angle_gamma 90.000000
_cell_volume 3398.630243
_symmetry_space_group_name_H-M "A M M 2"
_symmetry_group_IT_number 38
_symmetry_cell_setting 'orthorhombic'
loop_
_space_group_symop_operation_xyz
x,y,z
-x,-y,z
-x,y,z
x,-y,z
x,1/2+y,1/2+z
-x,1/2-y,1/2+z
-x,1/2+y,1/2+z
x,1/2-y,1/2+z
loop_
_atom_site_type_symbol
_atom_site_label
_atom_site_fract_x
_atom_site_fract_y
_atom_site_fract_z
Si Si1 0.323034 0.952015 0.925390
Si Si2 0.826361 0.567920 0.658424
Si Si3 0.823358 0.707655 0.426326
Si Si4 0.822244 0.124068 0.787554
Si Si5 0.322995 0.548349 0.891231
Si Si6 0.177323 0.125693 0.525866
Si Si7 0.324549 0.798662 0.388151
Si Si8 0.170751 0.670573 0.670567
O O1 0.500000 0.946817 0.935790
O O2 0.257469 0.915248 0.847594
O O3 0.292876 0.000000 0.882199
O O4 0.249281 0.947929 0.046210
O O5 0.743401 0.552002 0.767857
O O6 0.818128 0.619531 0.658912
O O7 0.000000 0.555835 0.661450
O O8 0.779142 0.668882 0.345054
O O9 0.735450 0.750971 0.405979
O O10 0.801377 0.691613 0.551772
O O11 0.000000 0.715419 0.410646
O O12 0.792478 0.124853 0.656875
O O13 0.000000 0.119354 0.804486
O O14 0.500000 0.555389 0.887417
O O15 0.295451 0.500000 0.932512
O O16 0.247399 0.584511 0.965949
O O17 0.244854 0.168030 0.470399
O O18 0.000000 0.125459 0.508596
O O19 0.500000 0.800799 0.404087
O O20 0.279795 0.813134 0.264748
O O21 0.000000 0.680589 0.703716
#
# Coordination Sequence:
#
# PCOD9359165 Si02
#       8
#     8   8   8   8   8   8   8   8
#     4  11  24  40  61  92 130 168 203 249 314 377
#     4  11  21  38  65  95 125 162 209 257 306 364
#     4  10  22  43  67  91 122 161 207 255 308 365
#     4  10  23  44  67  91 119 160 214 264 307 362
#     4  11  24  41  62  91 127 165 205 255 317 376
#     4  11  24  43  66  91 122 164 213 260 309 367
#     4  12  26  41  62  95 131 163 203 253 310 372
#     4  10  21  40  67  93 122 162 206 256 309 362
#
# _framework density 18.831115
#
# number of rings (size 3 to 8) (size 9 to 14) (size 15 to 20)
#    0.000    1.250    2.500    3.000    1.750    6.500 
#    0.000    2.500    0.000    0.000    0.000    0.000 
#    0.000    0.000    0.000    0.000    0.000    0.000 
#
# Total GULP energy -178964.601292 kJ/mol
# GULP energy per Si atom -5592.643790 kJ/mol
# Density = 1.878825 g / cm^3
# Si number density = 18.831115 Si / 1000 Ang^3
#
#
#
# Elastic Constant Matrix: (Units=GPa)
#
#
# Indices 1 2 3 4 5 6 
#
# 1 104.5094 90.4649 80.1731 0.0000 0.0000 0.0000
# 2 90.4649 171.1647 84.9025 0.0000 0.0000 0.0000
# 3 80.1731 84.9025 116.2499 0.0000 0.0000 0.0000
# 4 0.0000 0.0000 0.0000 29.7189 0.0000 0.0000
# 5 0.0000 0.0000 0.0000 0.0000 -2.1916 0.0000
# 6 0.0000 0.0000 0.0000 0.0000 0.0000 36.1395
#
#
#
# Elastic Compliance Matrix: (Units=1/GPa)
#
#
# Indices 1 2 3 4 5 6 
#
# 1 0.025070 -0.007329 -0.011937 0.000000 0.000000 0.000000
# 2 -0.007329 0.011304 -0.003201 0.000000 0.000000 0.000000
# 3 -0.011937 -0.003201 0.019173 0.000000 0.000000 0.000000
# 4 0.000000 0.000000 0.000000 0.033649 0.000000 0.000000
# 5 0.000000 0.000000 0.000000 0.000000 -0.456298 0.000000
# 6 0.000000 0.000000 0.000000 0.000000 0.000000 0.027671
#
#
# Mechanical properties :
#
#
# Convention : Reuss Voigt Hill
#
# Bulk Modulus (GPa) = 94.23345 100.33390 97.28367
# Shear Modulus (GPa) = -17.18446 21.82561 2.32058
#
# Velocity S-wave (km/s) = -3.02413 3.40813 1.11130
# Velocity P-wave (km/s) = 6.16086 8.29962 7.30889
#
# Compressibility (1/GPa) = 0.01061194
#
# Stress axis : x y z
#
# Youngs Moduli (GPa) = 39.88822 88.46647 52.15759
#
# Poissons Ratio (x) = 0.64837 0.62261
# Poissons Ratio (y) = 0.29234 0.16696
# Poissons Ratio (z) = 0.47615 0.28319
#
# Static dielectric constant tensor:
#      x y z
#    x 1.631960 0.000000 0.000000 
#    y 0.000000 1.638760 0.000000 
#    z 0.000000 0.000000 1.619770 
# 
# From -- ./inp_files/8668.got.cif
#   From: 2010.05.17/outbox.cif.g08.bks.cpg/sg38_5_cif.got.tgz:8668.got - 2010.06.03 18:07:57.
