data_PCOD9359265
_publ_section_title
;
Structure prediction by ZEFSAII (Michael W. Deem and Ramdas Pophale) SiO2 
 PCOD9359265
Probable space group: A M M 2
;
_chemical_formula_sum "Si O2"
_cell_formula_units_Z 64
_cell_length_a 15.931865
_cell_length_b 8.511705
_cell_length_c 24.418051
_cell_angle_alpha 90.000000
_cell_angle_beta 90.000000
_cell_angle_gamma 90.000000
_cell_volume 3311.266822
_symmetry_space_group_name_H-M "A M M 2"
_symmetry_group_IT_number 38
_symmetry_cell_setting 'orthorhombic'
loop_
_space_group_symop_operation_xyz
x,y,z
-x,-y,z
-x,y,z
x,-y,z
x,1/2+y,1/2+z
-x,1/2-y,1/2+z
-x,1/2+y,1/2+z
x,1/2-y,1/2+z
loop_
_atom_site_type_symbol
_atom_site_label
_atom_site_fract_x
_atom_site_fract_y
_atom_site_fract_z
Si Si1 0.593187 0.308484 0.111880
Si Si2 0.905957 0.689688 0.342341
Si Si3 0.094506 0.689512 0.610588
Si Si4 0.751152 0.687913 0.040123
Si Si5 0.249633 0.687557 0.417245
Si Si6 0.406275 0.812784 0.349037
Si Si7 0.352220 0.687338 0.233298
Si Si8 0.163595 0.688028 0.729803
O O1 0.500000 0.257590 0.094684
O O2 0.594313 0.500000 0.110912
O O3 0.669214 0.253647 0.073596
O O4 0.610141 0.262810 0.174852
O O5 0.900800 0.500000 0.337772
O O6 0.832394 0.741986 0.383316
O O7 0.888596 0.761488 0.282795
O O8 0.000000 0.730203 0.361082
O O9 0.095604 0.500000 0.607386
O O10 0.165308 0.753764 0.570410
O O11 0.118690 0.731949 0.672994
O O12 0.000000 0.743372 0.597865
O O13 0.749939 0.500000 0.041953
O O14 0.748585 0.742648 0.977745
O O15 0.245248 0.500000 0.421230
O O16 0.332411 0.734506 0.383661
O O17 0.500000 0.762873 0.366067
O O18 0.393150 0.769419 0.285501
O O19 0.399862 0.000000 0.355491
O O20 0.363138 0.500000 0.238933
O O21 0.253816 0.728879 0.232770
O O22 0.175739 0.500000 0.730290
#
# Coordination Sequence:
#
# PCOD9359265 Si02
#       8
#     8   8   8   8   8   8   8   8
#     4   9  19  36  59  87 119 155 194 238 294 357
#     4  10  22  40  62  88 118 155 198 246 302 363
#     4  10  22  40  61  87 122 162 200 243 301 362
#     4  11  23  40  62  88 119 156 204 255 302 351
#     4  11  24  42  63  87 119 161 206 250 301 359
#     4  11  24  41  62  91 125 160 199 249 304 354
#     4  11  20  35  61  91 123 160 198 241 299 362
#     4  11  21  35  60  91 125 159 195 244 303 361
#
# _framework density 19.327950000000001
#
# number of rings (size 3 to 8) (size 9 to 14) (size 15 to 20)
#    0.000    1.500    2.500    2.625    0.000    4.500 
#    0.000    2.500    0.000    3.375    0.000    0.000 
#    0.000    0.000    0.000    0.000    0.000    0.000 
#
# Total GULP energy -178855.179294 kJ/mol
# GULP energy per Si atom -5589.224353 kJ/mol
# Density = 1.928396 g / cm^3
# Si number density = 19.327950 Si / 1000 Ang^3
#
#
#
# Elastic Constant Matrix: (Units=GPa)
#
#
# Indices 1 2 3 4 5 6 
#
# 1 161.9376 12.8425 65.2170 0.0000 0.0000 0.0000
# 2 12.8425 12.8975 9.4619 0.0000 0.0000 0.0000
# 3 65.2170 9.4619 130.9706 0.0000 0.0000 0.0000
# 4 0.0000 0.0000 0.0000 21.7430 0.0000 0.0000
# 5 0.0000 0.0000 0.0000 0.0000 -0.7406 0.0000
# 6 0.0000 0.0000 0.0000 0.0000 0.0000 22.8941
#
#
#
# Elastic Compliance Matrix: (Units=1/GPa)
#
#
# Indices 1 2 3 4 5 6 
#
# 1 0.008061 -0.005366 -0.003626 0.000000 0.000000 0.000000
# 2 -0.005366 0.085446 -0.003501 0.000000 0.000000 0.000000
# 3 -0.003626 -0.003501 0.009694 0.000000 0.000000 0.000000
# 4 0.000000 0.000000 0.000000 0.045992 0.000000 0.000000
# 5 0.000000 0.000000 0.000000 0.000000 -1.350206 0.000000
# 6 0.000000 0.000000 0.000000 0.000000 0.000000 0.043679
#
#
# Mechanical properties :
#
#
# Convention : Reuss Voigt Hill
#
# Bulk Modulus (GPa) = 12.78542 53.42762 33.10652
# Shear Modulus (GPa) = -4.51967 23.33158 9.40595
#
# Velocity S-wave (km/s) = -1.53085 3.47816 2.20841
# Velocity P-wave (km/s) = 1.87208 6.62064 4.86506
#
# Compressibility (1/GPa) = 0.07821408
#
# Stress axis : x y z
#
# Youngs Moduli (GPa) = 124.04980 11.70328 103.15662
#
# Poissons Ratio (x) = 0.06281 0.37409
# Poissons Ratio (y) = 0.66571 0.36113
# Poissons Ratio (z) = 0.44986 0.04097
#
# Static dielectric constant tensor:
#      x y z
#    x 1.678980 0.000000 0.000000 
#    y 0.000000 1.662730 0.000000 
#    z 0.000000 0.000000 1.638660 
# 
# From -- ./inp_files/22879.got.cif
#   From: 2010.05.17/outbox.cif.g08.bks.cpg/sg38_12_cif.got.tgz:22879.got - 2010.06.03 18:07:57.
