data_PCOD9359881
_publ_section_title
;
Structure prediction by ZEFSAII (Michael W. Deem and Ramdas Pophale) SiO2 
 PCOD9359881
Probable space group: A B M 2
;
_chemical_formula_sum "Si O2"
_cell_formula_units_Z 64
_cell_length_a 15.067301
_cell_length_b 8.428808
_cell_length_c 25.722476
_cell_angle_alpha 90.000000
_cell_angle_beta 90.000000
_cell_angle_gamma 90.000000
_cell_volume 3266.738689
_symmetry_space_group_name_H-M "A B M 2"
_symmetry_group_IT_number 39
_symmetry_cell_setting 'orthorhombic'
loop_
_space_group_symop_operation_xyz
x,y,z
-x,-y,z
-x,1/2+y,z
x,1/2-y,z
x,1/2+y,1/2+z
-x,1/2-y,1/2+z
-x,y,1/2+z
x,-y,1/2+z
loop_
_atom_site_type_symbol
_atom_site_label
_atom_site_fract_x
_atom_site_fract_y
_atom_site_fract_z
Si Si1 0.101892 0.938698 0.510830
Si Si2 0.398299 0.441348 0.510830
Si Si3 0.752600 0.058297 0.202136
Si Si4 0.399105 0.557932 0.897130
Si Si5 0.100749 0.439917 0.620671
Si Si6 0.752600 0.058297 0.819524
Si Si7 0.899251 0.439917 0.900989
Si Si8 0.600895 0.557932 0.624530
O O1 0.102435 0.750000 0.510830
O O2 0.138970 0.002307 0.565192
O O3 0.138970 0.002307 0.456468
O O4 0.000000 0.000000 0.510830
O O5 0.500000 0.500000 0.510830
O O6 0.395396 0.250000 0.510830
O O7 0.363696 0.494014 0.454367
O O8 0.363696 0.494014 0.567292
O O9 0.752257 0.250000 0.202484
O O10 0.837552 0.006967 0.168135
O O11 0.665567 0.004185 0.170377
O O12 0.754634 1.000000 0.260830
O O13 0.500000 0.500000 0.890928
O O14 0.400043 0.750000 0.896940
O O15 0.334433 0.504185 0.851283
O O16 0.099096 0.250000 0.619227
O O17 0.000000 0.500000 0.626177
O O18 0.752257 0.250000 0.819176
O O19 0.837552 0.006967 0.853525
O O20 0.900905 0.250000 0.902433
O O21 0.000000 0.500000 0.895483
O O22 0.500000 0.500000 0.630732
O O23 0.599957 0.750000 0.624719
#
# Coordination Sequence:
#
# PCOD9359881 Si02
#       8
#     8   8   8   8   8   8   8   8
#     4  10  18  31  54  84 113 141 173 215 265 321
#     4   8  14  27  50  76 103 129 162 205 253 311
#     4  10  23  39  55  76 105 142 185 226 268 316
#     4   9  18  34  55  80 106 137 172 213 265 319
#     4  10  20  36  57  81 109 143 178 219 269 321
#     4  10  23  39  55  76 105 142 185 226 268 316
#     4  10  20  36  57  81 109 143 178 219 269 321
#     4   9  18  34  55  80 106 137 172 213 265 319
#
# _framework density 19.591404000000001
#
# number of rings (size 3 to 8) (size 9 to 14) (size 15 to 20)
#    0.000    2.500    0.000    3.375    0.000    5.000 
#    0.000    8.750    0.000    6.000    0.000    0.000 
#    0.000    0.000    0.000    0.000    0.000    0.000 
#
# Total GULP energy -178488.657277 kJ/mol
# GULP energy per Si atom -5577.770540 kJ/mol
# Density = 1.954681 g / cm^3
# Si number density = 19.591404 Si / 1000 Ang^3
#
#
#
# Elastic Constant Matrix: (Units=GPa)
#
#
# Indices 1 2 3 4 5 6 
#
# 1 110.5045 19.2266 96.2017 0.0000 0.0000 0.0000
# 2 19.2266 35.7472 32.8882 0.0000 0.0000 0.0000
# 3 96.2017 32.8882 237.3201 0.0000 0.0000 0.0000
# 4 0.0000 0.0000 0.0000 46.4661 0.0000 0.0000
# 5 0.0000 0.0000 0.0000 0.0000 35.8974 0.0000
# 6 0.0000 0.0000 0.0000 0.0000 0.0000 17.6420
#
#
#
# Elastic Compliance Matrix: (Units=1/GPa)
#
#
# Indices 1 2 3 4 5 6 
#
# 1 0.014206 -0.002685 -0.005387 0.000000 0.000000 0.000000
# 2 -0.002685 0.032570 -0.003425 0.000000 0.000000 0.000000
# 3 -0.005387 -0.003425 0.006872 0.000000 0.000000 0.000000
# 4 0.000000 0.000000 0.000000 0.021521 0.000000 0.000000
# 5 0.000000 0.000000 0.000000 0.000000 0.027857 0.000000
# 6 0.000000 0.000000 0.000000 0.000000 0.000000 0.056683
#
#
# Mechanical properties :
#
#
# Convention : Reuss Voigt Hill
#
# Bulk Modulus (GPa) = 32.62203 75.57831 54.10017
# Shear Modulus (GPa) = 25.91755 35.68480 30.80118
#
# Velocity S-wave (km/s) = 3.64112 4.27248 3.96937
# Velocity P-wave (km/s) = 5.86211 7.93724 6.97725
#
# Compressibility (1/GPa) = 0.03065413
#
# Stress axis : x y z
#
# Youngs Moduli (GPa) = 70.39348 30.70357 145.52020
#
# Poissons Ratio (x) = 0.08244 0.78385
# Poissons Ratio (y) = 0.18900 0.49843
# Poissons Ratio (z) = 0.37918 0.10517
#
# Static dielectric constant tensor:
#      x y z
#    x 1.678170 0.000000 0.000000 
#    y 0.000000 1.681520 0.000000 
#    z 0.000000 0.000000 1.704710 
# 
# From -- ./inp_files/16214.got.cif
#   From: 2010.05.17/outbox.cif.g08.bks.cpg/sg39_9_cif.got.tgz:16214.got - 2010.06.03 18:22:40.
