data_PCOD9359436
_publ_section_title
;
Structure prediction by ZEFSAII (Michael W. Deem and Ramdas Pophale) SiO2 
 PCOD9359436
Probable space group: A M M 2
;
_chemical_formula_sum "Si O2"
_cell_formula_units_Z 64
_cell_length_a 7.865461
_cell_length_b 14.314215
_cell_length_c 25.424631
_cell_angle_alpha 90.000000
_cell_angle_beta 90.000000
_cell_angle_gamma 90.000000
_cell_volume 2862.505808
_symmetry_space_group_name_H-M "A M M 2"
_symmetry_group_IT_number 38
_symmetry_cell_setting 'orthorhombic'
loop_
_space_group_symop_operation_xyz
x,y,z
-x,-y,z
-x,y,z
x,-y,z
x,1/2+y,1/2+z
-x,1/2-y,1/2+z
-x,1/2+y,1/2+z
x,1/2-y,1/2+z
loop_
_atom_site_type_symbol
_atom_site_label
_atom_site_fract_x
_atom_site_fract_y
_atom_site_fract_z
Si Si1 0.703697 0.893878 0.976680
Si Si2 0.208985 0.603422 0.807527
Si Si3 0.691427 0.611687 0.089942
Si Si4 0.703642 0.107032 0.094701
Si Si5 0.201198 0.195304 0.204331
Si Si6 0.294364 0.103459 0.705668
Si Si7 0.704395 0.110507 0.477281
Si Si8 0.810809 0.745552 0.890887
O O1 0.500000 0.895739 0.980146
O O2 0.741885 0.830183 0.926226
O O3 0.765019 0.000000 0.968628
O O4 0.763824 0.864245 0.035702
O O5 0.263182 0.500000 0.825877
O O6 0.260358 0.619491 0.747041
O O7 0.273067 0.691661 0.841725
O O8 0.000000 0.604951 0.810500
O O9 0.500000 0.652180 0.093563
O O10 0.672116 0.500000 0.083069
O O11 0.776343 0.618147 0.146251
O O12 0.765963 0.642959 0.034958
O O13 0.500000 0.103244 0.091972
O O14 0.742116 0.171879 0.144877
O O15 0.765128 0.000000 0.104168
O O16 0.250006 0.296491 0.228790
O O17 0.000000 0.191726 0.202821
O O18 0.500000 0.098416 0.702646
O O19 0.238610 0.000000 0.724874
O O20 0.500000 0.131434 0.473750
O O21 0.806665 0.162308 0.433147
O O22 0.723403 0.000000 0.472025
O O23 0.000000 0.772963 0.874477
#
# Coordination Sequence:
#
# PCOD9359436 Si02
#       8
#     8   8   8   8   8   8   8   8
#     4   9  20  40  62  83 113 152 189 229 283 348
#     4   9  20  40  60  79 112 156 193 228 280 345
#     4   7  12  25  45  67  94 134 177 210 250 313
#     4   9  19  37  60  85 114 150 190 232 283 345
#     4  11  22  35  57  86 115 151 195 241 290 338
#     4   9  18  34  54  76 108 151 192 229 276 334
#     4   9  17  30  49  75 107 144 185 224 268 328
#     4  11  22  35  56  83 111 145 188 235 285 336
#
# _framework density 22.358034
#
# number of rings (size 3 to 8) (size 9 to 14) (size 15 to 20)
#    0.000    2.750    0.000    3.750    1.750    2.500 
#    0.000    4.375    0.000   10.500    0.000    0.000 
#    0.000    0.000    0.000    0.000    0.000    0.000 
#
# Total GULP energy -178163.782113 kJ/mol
# GULP energy per Si atom -5567.618191 kJ/mol
# Density = 2.230715 g / cm^3
# Si number density = 22.358034 Si / 1000 Ang^3
#
#
#
# Elastic Constant Matrix: (Units=GPa)
#
#
# Indices 1 2 3 4 5 6 
#
# 1 27.2721 10.8090 7.5986 0.0000 0.0000 0.0000
# 2 10.8090 138.1403 52.8874 0.0000 0.0000 0.0000
# 3 7.5986 52.8874 89.6931 0.0000 0.0000 0.0000
# 4 0.0000 0.0000 0.0000 30.8153 0.0000 0.0000
# 5 0.0000 0.0000 0.0000 0.0000 14.1520 0.0000
# 6 0.0000 0.0000 0.0000 0.0000 0.0000 29.4449
#
#
#
# Elastic Compliance Matrix: (Units=1/GPa)
#
#
# Indices 1 2 3 4 5 6 
#
# 1 0.038090 -0.002254 -0.001898 0.000000 0.000000 0.000000
# 2 -0.002254 0.009483 -0.005401 0.000000 0.000000 0.000000
# 3 -0.001898 -0.005401 0.014494 0.000000 0.000000 0.000000
# 4 0.000000 0.000000 0.000000 0.032451 0.000000 0.000000
# 5 0.000000 0.000000 0.000000 0.000000 0.070662 0.000000
# 6 0.000000 0.000000 0.000000 0.000000 0.000000 0.033962
#
#
# Mechanical properties :
#
#
# Convention : Reuss Voigt Hill
#
# Bulk Modulus (GPa) = 23.27627 44.18839 33.73233
# Shear Modulus (GPa) = 21.49915 27.13647 24.31781
#
# Velocity S-wave (km/s) = 3.10431 3.48763 3.30154
# Velocity P-wave (km/s) = 4.82517 6.00208 5.44552
#
# Compressibility (1/GPa) = 0.04296220
#
# Stress axis : x y z
#
# Youngs Moduli (GPa) = 26.25393 105.45137 68.99193
#
# Poissons Ratio (x) = 0.23766 0.13094
# Poissons Ratio (y) = 0.05917 0.37261
# Poissons Ratio (z) = 0.04983 0.56951
#
# Static dielectric constant tensor:
#      x y z
#    x 1.820990 0.000000 0.000000 
#    y 0.000000 1.938170 0.000000 
#    z 0.000000 0.000000 1.863970 
# 
# From -- ./inp_files/22114.got.cif
#   From: 2010.05.17/outbox.cif.g08.bks.cpg/sg38_12_cif.got.tgz:22114.got - 2010.06.03 18:07:57.
