data_PCOD9359777
_publ_section_title
;
Structure prediction by ZEFSAII (Michael W. Deem and Ramdas Pophale) SiO2 
 PCOD9359777
Probable space group: A B M 2
;
_chemical_formula_sum "Si O2"
_cell_formula_units_Z 64
_cell_length_a 20.270689
_cell_length_b 7.777744
_cell_length_c 21.119397
_cell_angle_alpha 90.000000
_cell_angle_beta 90.000000
_cell_angle_gamma 90.000000
_cell_volume 3329.688983
_symmetry_space_group_name_H-M "A B M 2"
_symmetry_group_IT_number 39
_symmetry_cell_setting 'orthorhombic'
loop_
_space_group_symop_operation_xyz
x,y,z
-x,-y,z
-x,1/2+y,z
x,1/2-y,z
x,1/2+y,1/2+z
-x,1/2-y,1/2+z
-x,y,1/2+z
x,-y,1/2+z
loop_
_atom_site_type_symbol
_atom_site_label
_atom_site_fract_x
_atom_site_fract_y
_atom_site_fract_z
Si Si1 0.308445 0.039678 0.141430
Si Si2 0.653418 0.049005 0.774764
Si Si3 0.320324 0.044592 0.001379
Si Si4 0.576131 0.545389 0.394333
Si Si5 0.923825 0.456882 0.557442
Si Si6 0.199117 0.046841 0.810242
Si Si7 0.158720 0.957245 0.675735
Si Si8 0.177836 0.539628 0.450576
O O1 0.310746 0.250000 0.142865
O O2 0.346867 0.975719 0.203602
O O3 0.231550 0.992645 0.150673
O O4 0.331720 0.979969 0.072733
O O5 0.636169 0.250000 0.768977
O O6 0.607317 0.972071 0.829165
O O7 0.729490 0.037301 0.797635
O O8 0.313227 0.250000 0.006330
O O9 0.250150 0.981855 0.974172
O O10 0.378829 0.009878 0.952976
O O11 0.500000 0.500000 0.401593
O O12 0.581716 0.750000 0.391116
O O13 0.917706 0.250000 0.558283
O O14 0.894468 0.519389 0.624703
O O15 0.877919 0.519356 0.499639
O O16 0.000000 0.500000 0.549465
O O17 0.211857 0.250000 0.815358
O O18 0.170020 0.987381 0.877339
O O19 0.154757 0.016397 0.748300
O O20 0.157052 0.750000 0.676988
O O21 0.177065 0.750000 0.451876
#
# Coordination Sequence:
#
# PCOD9359777 Si02
#       8
#     8   8   8   8   8   8   8   8
#     4   8  14  28  54  79  98 128 169 210 254 308
#     4   9  18  33  52  76 104 135 172 212 258 311
#     4  10  17  32  57  80 103 136 176 216 264 318
#     4  11  23  37  53  76 108 143 177 217 263 318
#     4  10  20  36  55  76 105 143 182 220 265 320
#     4  10  18  29  51  80 106 130 168 219 263 306
#     4   9  17  32  52  74 103 137 172 211 260 316
#     4   9  17  31  53  79 105 138 176 215 263 317
#
# _framework density 19.221015000000001
#
# number of rings (size 3 to 8) (size 9 to 14) (size 15 to 20)
#    0.000    2.500    2.500    1.500    0.000    1.000 
#    0.000    5.625    0.000    4.500    0.000    0.000 
#    0.000    0.000    0.000    0.000    0.000    0.000 
#
# Total GULP energy -178447.700339 kJ/mol
# GULP energy per Si atom -5576.490636 kJ/mol
# Density = 1.917727 g / cm^3
# Si number density = 19.221015 Si / 1000 Ang^3
#
#
#
# Elastic Constant Matrix: (Units=GPa)
#
#
# Indices 1 2 3 4 5 6 
#
# 1 112.5318 -8.2950 99.1147 0.0000 0.0000 0.0000
# 2 -8.2950 20.9088 6.6129 0.0000 0.0000 0.0000
# 3 99.1147 6.6129 227.2072 0.0000 0.0000 0.0000
# 4 0.0000 0.0000 0.0000 17.0421 0.0000 0.0000
# 5 0.0000 0.0000 0.0000 0.0000 28.6756 0.0000
# 6 0.0000 0.0000 0.0000 0.0000 0.0000 15.8686
#
#
#
# Elastic Compliance Matrix: (Units=1/GPa)
#
#
# Indices 1 2 3 4 5 6 
#
# 1 0.015807 0.008531 -0.007144 0.000000 0.000000 0.000000
# 2 0.008531 0.052875 -0.005260 0.000000 0.000000 0.000000
# 3 -0.007144 -0.005260 0.007671 0.000000 0.000000 0.000000
# 4 0.000000 0.000000 0.000000 0.058678 0.000000 0.000000
# 5 0.000000 0.000000 0.000000 0.000000 0.034873 0.000000
# 6 0.000000 0.000000 0.000000 0.000000 0.000000 0.063017
#
#
# Mechanical properties :
#
#
# Convention : Reuss Voigt Hill
#
# Bulk Modulus (GPa) = 14.57607 61.72368 38.14988
# Shear Modulus (GPa) = 18.97267 29.86494 24.41881
#
# Velocity S-wave (km/s) = 3.14519 3.94606 3.56817
# Velocity P-wave (km/s) = 4.55955 7.27627 6.07181
#
# Compressibility (1/GPa) = 0.06860559
#
# Stress axis : x y z
#
# Youngs Moduli (GPa) = 63.26172 18.91265 130.36497
#
# Poissons Ratio (x) = -0.16134 0.93132
# Poissons Ratio (y) = -0.53966 0.68575
# Poissons Ratio (z) = 0.45194 0.09948
#
# Static dielectric constant tensor:
#      x y z
#    x 1.607700 0.000000 0.000000 
#    y 0.000000 1.723150 0.000000 
#    z 0.000000 0.000000 1.715940 
# 
# From -- ./inp_files/15081.got.cif
#   From: 2010.05.17/outbox.cif.g08.bks.cpg/sg39_8_cif.got.tgz:15081.got - 2010.06.03 18:22:40.
