data_PCOD9359680
_publ_section_title
;
Structure prediction by ZEFSAII (Michael W. Deem and Ramdas Pophale) SiO2 
 PCOD9359680
Probable space group: A B M 2
;
_chemical_formula_sum "Si O2"
_cell_formula_units_Z 60
_cell_length_a 32.745409
_cell_length_b 19.059882
_cell_length_c 5.299141
_cell_angle_alpha 90.000000
_cell_angle_beta 90.000000
_cell_angle_gamma 90.000000
_cell_volume 3307.319125
_symmetry_space_group_name_H-M "A B M 2"
_symmetry_group_IT_number 39
_symmetry_cell_setting 'orthorhombic'
loop_
_space_group_symop_operation_xyz
x,y,z
-x,-y,z
-x,1/2+y,z
x,1/2-y,z
x,1/2+y,1/2+z
-x,1/2-y,1/2+z
-x,y,1/2+z
x,-y,1/2+z
loop_
_atom_site_type_symbol
_atom_site_label
_atom_site_fract_x
_atom_site_fract_y
_atom_site_fract_z
Si Si1 0.927310 0.671919 0.149370
Si Si2 0.185845 0.543344 0.058942
Si Si3 0.716743 0.545459 0.570572
Si Si4 0.527146 0.250000 0.566798
Si Si5 0.954409 0.472067 0.501865
Si Si6 0.651445 0.663853 0.577601
Si Si7 0.126239 0.670710 0.147714
Si Si8 0.606756 0.669665 0.077685
O O1 0.945412 0.750000 0.134695
O O2 0.956763 0.607935 0.087486
O O3 0.907298 0.662796 0.424376
O O4 0.893779 0.666167 0.925458
O O5 0.176262 0.510547 0.785972
O O6 0.234439 0.557206 0.069779
O O7 0.160389 0.613082 0.106804
O O8 0.706747 0.500170 0.320176
O O9 0.692848 0.619171 0.572007
O O10 0.500967 0.250000 0.312829
O O11 0.558139 0.183216 0.571875
O O12 0.933717 0.485619 0.231673
O O13 0.000000 0.500000 0.460318
O O14 0.656517 0.750000 0.578126
O O15 0.624564 0.641006 0.335872
O O16 0.625860 0.640467 0.823801
O O17 0.142507 0.750000 0.119807
O O18 0.622531 0.750000 0.078311
#
# Coordination Sequence:
#
# PCOD9359680 Si02
#       8
#     8   8   8   4   8   8   8   8
#     4  10  21  37  56  80 108 140 171 213 264 310
#     4  10  21  36  53  77 107 139 174 218 265 306
#     4  10  21  35  51  74 105 138 178 218 258 313
#     4  10  16  26  44  70 110 140 158 208 286 328
#     4  10  21  37  55  80 108 135 174 217 253 307
#     4  10  17  32  50  70  99 138 168 216 259 300
#     4  10  21  36  56  81 109 138 177 220 258 314
#     4   8  17  27  43  70 100 131 163 214 253 318
#
# _framework density 18.141580000000001
#
# number of rings (size 3 to 8) (size 9 to 14) (size 15 to 20)
#    0.400    1.867    0.000    3.200    0.000    3.733 
#    0.000    2.667    0.000    9.600    0.000    0.000 
#    0.000   37.333    0.000    0.000    0.000    0.000 
#
# Total GULP energy -167124.012327 kJ/mol
# GULP energy per Si atom -5570.800411 kJ/mol
# Density = 1.810029 g / cm^3
# Si number density = 18.141580 Si / 1000 Ang^3
#
#
#
# Elastic Constant Matrix: (Units=GPa)
#
#
# Indices 1 2 3 4 5 6 
#
# 1 51.4211 42.4715 18.4191 0.0000 0.0000 0.0000
# 2 42.4715 84.0306 17.9910 0.0000 0.0000 0.0000
# 3 18.4191 17.9910 137.2042 0.0000 0.0000 0.0000
# 4 0.0000 0.0000 0.0000 19.6524 0.0000 0.0000
# 5 0.0000 0.0000 0.0000 0.0000 15.1211 0.0000
# 6 0.0000 0.0000 0.0000 0.0000 0.0000 15.0278
#
#
#
# Elastic Compliance Matrix: (Units=1/GPa)
#
#
# Indices 1 2 3 4 5 6 
#
# 1 0.034127 -0.016738 -0.002387 0.000000 0.000000 0.000000
# 2 -0.016738 0.020453 -0.000435 0.000000 0.000000 0.000000
# 3 -0.002387 -0.000435 0.007666 0.000000 0.000000 0.000000
# 4 0.000000 0.000000 0.000000 0.050884 0.000000 0.000000
# 5 0.000000 0.000000 0.000000 0.000000 0.066133 0.000000
# 6 0.000000 0.000000 0.000000 0.000000 0.000000 0.066543
#
#
# Mechanical properties :
#
#
# Convention : Reuss Voigt Hill
#
# Bulk Modulus (GPa) = 43.23903 47.82436 45.53170
# Shear Modulus (GPa) = 17.08619 22.87854 19.98237
#
# Velocity S-wave (km/s) = 3.07225 3.55506 3.32244
# Velocity P-wave (km/s) = 6.03911 6.57801 6.31432
#
# Compressibility (1/GPa) = 0.02312725
#
# Stress axis : x y z
#
# Youngs Moduli (GPa) = 29.30262 48.89207 130.44887
#
# Poissons Ratio (x) = 0.81834 0.31133
# Poissons Ratio (y) = 0.49046 0.05674
# Poissons Ratio (z) = 0.06993 0.02127
#
# Static dielectric constant tensor:
#      x y z
#    x 1.653670 0.000000 0.000000 
#    y 0.000000 1.625170 0.000000 
#    z 0.000000 0.000000 1.676410 
# 
# From -- ./inp_files/1422.got.cif
#   From: 2010.05.17/outbox.cif.g08.bks.cpg/sg39_1_cif.got.tgz:1422.got - 2010.06.03 18:22:40.
