data_PCOD9359979
_publ_section_title
;
Structure prediction by ZEFSAII (Michael W. Deem and Ramdas Pophale) SiO2 
 PCOD9359979
Probable space group: A B M 2
;
_chemical_formula_sum "Si O2"
_cell_formula_units_Z 36
_cell_length_a 13.893308
_cell_length_b 10.499242
_cell_length_c 9.418890
_cell_angle_alpha 90.000000
_cell_angle_beta 90.000000
_cell_angle_gamma 90.000000
_cell_volume 1373.925976
_symmetry_space_group_name_H-M "A B M 2"
_symmetry_group_IT_number 39
_symmetry_cell_setting 'orthorhombic'
loop_
_space_group_symop_operation_xyz
x,y,z
-x,-y,z
-x,1/2+y,z
x,1/2-y,z
x,1/2+y,1/2+z
-x,1/2-y,1/2+z
-x,y,1/2+z
x,-y,1/2+z
loop_
_atom_site_type_symbol
_atom_site_label
_atom_site_fract_x
_atom_site_fract_y
_atom_site_fract_z
Si Si1 0.845840 0.250000 0.735141
Si Si2 0.101067 0.527249 0.357124
Si Si3 0.766654 0.250000 0.009162
Si Si4 0.701573 0.011903 0.502834
Si Si5 0.580324 0.103947 0.745835
Si Si6 0.958206 0.250000 0.144015
O O1 0.868957 0.397122 0.778695
O O2 0.748193 0.250000 0.839224
O O3 0.929136 0.250000 0.608900
O O4 0.196724 0.562089 0.444103
O O5 0.071953 0.631483 0.242227
O O6 0.000000 0.500000 0.439151
O O7 0.727372 0.377088 0.077782
O O8 0.882759 0.250000 0.016420
O O9 0.629404 0.967319 0.379733
O O10 0.653988 0.104898 0.613702
O O11 0.545439 0.250000 0.773820
O O12 0.500000 0.000000 0.700217
#
# Coordination Sequence:
#
# PCOD9359979 Si02
#       6
#     4   8   4   8   8   4
#     4   8  18  36  54  82 134 182 235 294 339 404
#     4   9  19  38  66  99 144 190 246 292 353 433
#     4  10  20  40  64  96 140 191 239 305 368 428
#     4  11  24  47  77 108 154 194 246 310 376 445
#     4  12  29  51  79 113 147 192 251 319 388 461
#     4  10  18  34  60  92 130 193 248 293 353 422
#
# _framework density 26.202285
#
# number of rings (size 3 to 8) (size 9 to 14) (size 15 to 20)
#    0.000    1.778    1.111    2.000    3.111    2.667 
#    0.000   47.778    0.000    0.000    0.000    0.000 
#    0.000    0.000    0.000    0.000    0.000    0.000 
#
# Total GULP energy -100362.330113 kJ/mol
# GULP energy per Si atom -5575.685006 kJ/mol
# Density = 2.614265 g / cm^3
# Si number density = 26.202285 Si / 1000 Ang^3
#
#
#
# Elastic Constant Matrix: (Units=GPa)
#
#
# Indices 1 2 3 4 5 6 
#
# 1 69.0441 15.2209 31.8267 0.0000 0.0000 0.0000
# 2 15.2209 169.6273 38.2552 0.0000 0.0000 0.0000
# 3 31.8267 38.2552 91.2537 0.0000 0.0000 0.0000
# 4 0.0000 0.0000 0.0000 33.3816 0.0000 0.0000
# 5 0.0000 0.0000 0.0000 0.0000 50.3173 0.0000
# 6 0.0000 0.0000 0.0000 0.0000 0.0000 24.0668
#
#
#
# Elastic Compliance Matrix: (Units=1/GPa)
#
#
# Indices 1 2 3 4 5 6 
#
# 1 0.017265 -0.000211 -0.005933 0.000000 0.000000 0.000000
# 2 -0.000211 0.006513 -0.002657 0.000000 0.000000 0.000000
# 3 -0.005933 -0.002657 0.014142 0.000000 0.000000 0.000000
# 4 0.000000 0.000000 0.000000 0.029957 0.000000 0.000000
# 5 0.000000 0.000000 0.000000 0.000000 0.019874 0.000000
# 6 0.000000 0.000000 0.000000 0.000000 0.000000 0.041551
#
#
# Mechanical properties :
#
#
# Convention : Reuss Voigt Hill
#
# Bulk Modulus (GPa) = 49.21799 55.61454 52.41627
# Shear Modulus (GPa) = 32.53596 37.86129 35.19863
#
# Velocity S-wave (km/s) = 3.52763 3.80539 3.66914
# Velocity P-wave (km/s) = 5.95121 6.37017 6.16425
#
# Compressibility (1/GPa) = 0.02031777
#
# Stress axis : x y z
#
# Youngs Moduli (GPa) = 57.92088 153.52912 70.71367
#
# Poissons Ratio (x) = 0.03242 0.41954
# Poissons Ratio (y) = 0.01223 0.18788
# Poissons Ratio (z) = 0.34364 0.40791
#
# Static dielectric constant tensor:
#      x y z
#    x 2.280840 0.000000 0.000000 
#    y 0.000000 2.044910 0.000000 
#    z 0.000000 0.000000 2.145260 
# 
# From -- ./inp_files/5584.got.cif
#   From: 2010.05.17/outbox.cif.g08.bks.cpg/sg39_3_cif.got.tgz:5584.got - 2010.06.03 18:22:40.
