data_PCOD9359204
_publ_section_title
;
Structure prediction by ZEFSAII (Michael W. Deem and Ramdas Pophale) SiO2 
 PCOD9359204
Probable space group: A M M 2
;
_chemical_formula_sum "Si O2"
_cell_formula_units_Z 56
_cell_length_a 13.968088
_cell_length_b 8.849399
_cell_length_c 21.904234
_cell_angle_alpha 90.000000
_cell_angle_beta 90.000000
_cell_angle_gamma 90.000000
_cell_volume 2707.564490
_symmetry_space_group_name_H-M "A M M 2"
_symmetry_group_IT_number 38
_symmetry_cell_setting 'orthorhombic'
loop_
_space_group_symop_operation_xyz
x,y,z
-x,-y,z
-x,y,z
x,-y,z
x,1/2+y,1/2+z
-x,1/2-y,1/2+z
-x,1/2+y,1/2+z
x,1/2-y,1/2+z
loop_
_atom_site_type_symbol
_atom_site_label
_atom_site_fract_x
_atom_site_fract_y
_atom_site_fract_z
Si Si1 0.295184 0.819296 0.898850
Si Si2 0.889522 0.316733 0.849674
Si Si3 0.384470 0.327061 0.154339
Si Si4 0.892132 0.184119 0.081544
Si Si5 0.116289 0.327518 0.714886
Si Si6 0.615420 0.173308 0.279814
Si Si7 0.306637 0.818514 0.031453
O O1 0.188454 0.752253 0.893961
O O2 0.350367 0.762327 0.839258
O O3 0.290445 0.000000 0.898411
O O4 0.340493 0.772408 0.963973
O O5 0.885555 0.500000 0.849570
O O6 0.860666 0.262069 0.781063
O O7 0.000000 0.274327 0.861708
O O8 0.500000 0.325878 0.157077
O O9 0.351675 0.500000 0.157260
O O10 0.349712 0.239281 0.214907
O O11 0.355552 0.253961 0.090203
O O12 0.861981 0.242403 0.149134
O O13 0.806301 0.220299 0.036607
O O14 0.000000 0.235178 0.066592
O O15 0.896173 0.000000 0.085803
O O16 0.152597 0.500000 0.713990
O O17 0.000000 0.336088 0.715121
O O18 0.500000 0.177212 0.278347
O O19 0.646544 0.000000 0.285848
O O20 0.316522 0.000000 0.036853
#
# Coordination Sequence:
#
# PCOD9359204 Si02
#       7
#     8   8   8   8   8   8   8
#     4  11  24  38  54  85 127 164 200 248 302 350
#     4   9  18  33  54  81 113 154 205 254 299 351
#     4  10  22  41  65  92 121 150 183 235 303 365
#     4   8  14  27  49  77 109 147 193 240 282 329
#     4   7  11  22  43  72 100 128 176 240 291 329
#     4  10  22  42  68  92 113 146 196 248 299 364
#     4  10  22  37  56  86 121 160 203 242 285 344
#
# _framework density 20.682796
#
# number of rings (size 3 to 8) (size 9 to 14) (size 15 to 20)
#    0.000    2.714    0.000    3.000    2.000    4.286 
#    0.000    4.286    0.000    0.429    0.000    0.000 
#    0.000    0.000    0.000    0.000    0.000    0.000 
#
# Total GULP energy -156183.871856 kJ/mol
# GULP energy per Si atom -5577.995423 kJ/mol
# Density = 2.063572 g / cm^3
# Si number density = 20.682796 Si / 1000 Ang^3
#
#
#
# Elastic Constant Matrix: (Units=GPa)
#
#
# Indices 1 2 3 4 5 6 
#
# 1 32.0031 13.1057 15.9699 0.0000 0.0000 0.0000
# 2 13.1057 54.1723 46.2748 0.0000 0.0000 0.0000
# 3 15.9699 46.2748 149.6464 0.0000 0.0000 0.0000
# 4 0.0000 0.0000 0.0000 25.9617 0.0000 0.0000
# 5 0.0000 0.0000 0.0000 0.0000 18.8626 0.0000
# 6 0.0000 0.0000 0.0000 0.0000 0.0000 23.2783
#
#
#
# Elastic Compliance Matrix: (Units=1/GPa)
#
#
# Indices 1 2 3 4 5 6 
#
# 1 0.034934 -0.007157 -0.001515 0.000000 0.000000 0.000000
# 2 -0.007157 0.026552 -0.007447 0.000000 0.000000 0.000000
# 3 -0.001515 -0.007447 0.009147 0.000000 0.000000 0.000000
# 4 0.000000 0.000000 0.000000 0.038518 0.000000 0.000000
# 5 0.000000 0.000000 0.000000 0.000000 0.053015 0.000000
# 6 0.000000 0.000000 0.000000 0.000000 0.000000 0.042959
#
#
# Mechanical properties :
#
#
# Convention : Reuss Voigt Hill
#
# Bulk Modulus (GPa) = 26.04511 42.94696 34.49604
# Shear Modulus (GPa) = 19.98706 24.31860 22.15283
#
# Velocity S-wave (km/s) = 3.11201 3.43270 3.27628
# Velocity P-wave (km/s) = 5.05300 6.04325 5.57017
#
# Compressibility (1/GPa) = 0.03839492
#
# Stress axis : x y z
#
# Youngs Moduli (GPa) = 28.62546 37.66129 109.32703
#
# Poissons Ratio (x) = 0.26956 0.16561
# Poissons Ratio (y) = 0.20489 0.81415
# Poissons Ratio (z) = 0.04336 0.28046
#
# Static dielectric constant tensor:
#      x y z
#    x 1.771950 0.000000 0.000000 
#    y 0.000000 1.703770 0.000000 
#    z 0.000000 0.000000 1.765850 
# 
# From -- ./inp_files/21066.got.cif
#   From: 2010.05.17/outbox.cif.g08.bks.cpg/sg38_11_cif.got.tgz:21066.got - 2010.06.03 18:07:57.
