data_PCOD9359662
_publ_section_title
;
Structure prediction by ZEFSAII (Michael W. Deem and Ramdas Pophale) SiO2 
 PCOD9359662
Probable space group: A B M 2
;
_chemical_formula_sum "Si O2"
_cell_formula_units_Z 32
_cell_length_a 7.484202
_cell_length_b 5.552438
_cell_length_c 32.007222
_cell_angle_alpha 90.000000
_cell_angle_beta 90.000000
_cell_angle_gamma 90.000000
_cell_volume 1330.078277
_symmetry_space_group_name_H-M "A B M 2"
_symmetry_group_IT_number 39
_symmetry_cell_setting 'orthorhombic'
loop_
_space_group_symop_operation_xyz
x,y,z
-x,-y,z
-x,1/2+y,z
x,1/2-y,z
x,1/2+y,1/2+z
-x,1/2-y,1/2+z
-x,y,1/2+z
x,-y,1/2+z
loop_
_atom_site_type_symbol
_atom_site_label
_atom_site_fract_x
_atom_site_fract_y
_atom_site_fract_z
Si Si1 0.016477 0.750000 0.243050
Si Si2 0.203734 0.250000 0.579923
Si Si3 0.810423 0.250000 0.446815
Si Si4 0.224963 0.750000 0.914248
Si Si5 0.400210 0.250000 0.659363
Si Si6 0.895788 0.750000 0.329316
Si Si7 0.405192 0.750000 0.260189
Si Si8 0.199582 0.250000 0.046211
O O1 0.196221 0.750000 0.270832
O O2 0.000000 0.500000 0.219165
O O3 0.866002 0.750000 0.279299
O O4 0.228815 0.250000 0.629703
O O5 0.283177 0.497251 0.560971
O O6 0.996889 0.250000 0.567088
O O7 0.715464 0.496288 0.433068
O O8 0.827982 0.250000 0.496646
O O9 0.009569 0.250000 0.425915
O O10 0.255332 0.750000 0.864463
O O11 0.500000 0.500000 0.649489
O O12 0.384045 0.250000 0.709437
O O13 0.000000 0.500000 0.338044
O O14 0.500000 0.500000 0.272432
#
# Coordination Sequence:
#
# PCOD9359662 Si02
#       8
#     4   4   4   4   4   4   4   4
#     4  10  21  35  55  85 118 146 173 237 285 330
#     4  10  18  32  47  68 100 129 163 202 265 305
#     4  10  16  23  39  61  96 136 166 190 243 317
#     4  10  14  22  36  59  90 137 163 194 233 313
#     4  10  21  37  56  75  96 132 178 224 254 302
#     4  10  16  27  41  66 105 139 158 205 272 310
#     4  10  21  40  61  80 109 150 194 227 268 336
#     4  10  19  30  45  72 104 139 153 211 260 321
#
# _framework density 24.058736
#
# number of rings (size 3 to 8) (size 9 to 14) (size 15 to 20)
#    0.000    2.000    2.500    5.250    0.000    0.000 
#    4.500    0.000    0.000    0.000    0.000    0.000 
#    0.000   24.000    0.000    0.000    0.000    0.000 
#
# Total GULP energy -89229.946220 kJ/mol
# GULP energy per Si atom -5576.871639 kJ/mol
# Density = 2.400398 g / cm^3
# Si number density = 24.058736 Si / 1000 Ang^3
#
#
#
# Elastic Constant Matrix: (Units=GPa)
#
#
# Indices 1 2 3 4 5 6 
#
# 1 62.9638 27.3799 -5.8813 0.0000 0.0000 0.0000
# 2 27.3799 292.0321 21.2778 0.0000 0.0000 0.0000
# 3 -5.8813 21.2778 75.9951 0.0000 0.0000 0.0000
# 4 0.0000 0.0000 0.0000 34.7123 0.0000 0.0000
# 5 0.0000 0.0000 0.0000 0.0000 -6.9090 0.0000
# 6 0.0000 0.0000 0.0000 0.0000 0.0000 8.2743
#
#
#
# Elastic Compliance Matrix: (Units=1/GPa)
#
#
# Indices 1 2 3 4 5 6 
#
# 1 0.016789 -0.001703 0.001776 0.000000 0.000000 0.000000
# 2 -0.001703 0.003668 -0.001159 0.000000 0.000000 0.000000
# 3 0.001776 -0.001159 0.013621 0.000000 0.000000 0.000000
# 4 0.000000 0.000000 0.000000 0.028808 0.000000 0.000000
# 5 0.000000 0.000000 0.000000 0.000000 -0.144739 0.000000
# 6 0.000000 0.000000 0.000000 0.000000 0.000000 0.120856
#
#
# Mechanical properties :
#
#
# Convention : Reuss Voigt Hill
#
# Bulk Modulus (GPa) = 31.34248 57.39376 44.36812
# Shear Modulus (GPa) = 96.50558 33.09649 64.80104
#
# Velocity S-wave (km/s) = 6.34031 3.71300 5.19548
# Velocity P-wave (km/s) = 8.16426 6.50303 7.38053
#
# Compressibility (1/GPa) = 0.03190558
#
# Stress axis : x y z
#
# Youngs Moduli (GPa) = 59.56347 272.59569 73.41762
#
# Poissons Ratio (x) = 0.46436 -0.13041
# Poissons Ratio (y) = 0.10147 0.08509
# Poissons Ratio (z) = -0.10580 0.31593
#
# Static dielectric constant tensor:
#      x y z
#    x 1.993940 0.000000 0.000000 
#    y 0.000000 1.985430 0.000000 
#    z 0.000000 0.000000 1.893330 
# 
# From -- ./inp_files/17395.got.cif
#   From: 2010.05.17/outbox.cif.g08.bks.cpg/sg39_9_cif.got.tgz:17395.got - 2010.06.03 18:22:40.
