data_PCOD9359573
_publ_section_title
;
Structure prediction by ZEFSAII (Michael W. Deem and Ramdas Pophale) SiO2 
 PCOD9359573
Probable space group: A M M 2
;
_chemical_formula_sum "Si O2"
_cell_formula_units_Z 28
_cell_length_a 9.000000
_cell_length_b 21.000000
_cell_length_c 15.000000
_cell_angle_alpha 90.000000
_cell_angle_beta 90.000000
_cell_angle_gamma 90.000000
_cell_volume 2835.000000
_symmetry_space_group_name_H-M "A M M 2"
_symmetry_group_IT_number 38
_symmetry_cell_setting 'orthorhombic'
loop_
_space_group_symop_operation_xyz
x,y,z
-x,-y,z
-x,y,z
x,-y,z
x,1/2+y,1/2+z
-x,1/2-y,1/2+z
-x,1/2+y,1/2+z
x,1/2-y,1/2+z
loop_
_atom_site_type_symbol
_atom_site_label
_atom_site_fract_x
_atom_site_fract_y
_atom_site_fract_z
Si Si1 0.178189 0.116525 0.078270
Si Si2 0.179461 0.619393 0.019131
Si Si3 0.181182 0.000000 0.401789
Si Si4 0.325458 0.219092 0.398206
Si Si5 0.174509 0.128320 0.715114
Si Si6 0.326269 0.371636 0.395780
Si Si7 0.175096 0.280957 0.714659
Si Si8 0.819546 0.500000 0.701651
O O1 0.223726 0.182716 0.125443
O O2 0.000000 0.117144 0.068297
O O3 0.222927 0.062338 0.147680
O O4 0.247549 0.102626 0.983175
O O5 0.227101 0.603782 0.119610
O O6 0.000000 0.624540 0.020640
O O7 0.225779 0.562935 0.954043
O O8 0.243796 0.683898 0.978516
O O9 0.237077 0.000000 0.301594
O O10 0.000000 0.000000 0.400435
O O11 0.500000 0.206601 0.402463
O O12 0.301846 0.295049 0.400537
O O13 0.259744 0.196802 0.303181
O O14 0.259415 0.105875 0.802343
O O15 0.191125 0.205121 0.707548
O O16 0.000000 0.114500 0.726152
O O17 0.500000 0.384161 0.398552
O O18 0.000000 0.295146 0.727654
O O19 0.000000 0.500000 0.705743
#
# Coordination Sequence:
#
# PCOD9359573 Si02
#       8
#     8   8   4   8   8   8   8   4
#     4  10  19  33  54  77 102 135 174 214 255 300
#     4  10  19  33  55  79 103 135 173 212 255 302
#     4   9  18  34  56  81 106 130 163 209 256 303
#     4  10  20  32  49  76 108 139 170 208 256 308
#     4   9  18  32  51  76 103 133 172 214 255 303
#     4  10  21  35  51  74 105 139 172 210 258 307
#     4   9  17  30  50  75 103 136 172 211 256 305
#     4   9  18  32  52  79 106 132 165 207 254 301
#
# _framework density 9.8765429999999999
#
# number of rings (size 3 to 8) (size 9 to 14) (size 15 to 20)
#    0.000    2.429    0.000    2.571    0.000    6.286 
#    0.000    4.286    0.000    3.429    0.000    0.000 
#    0.000    0.000    0.000    0.000    0.000    0.000 
#
# Total GULP energy -156235.916170 kJ/mol
# GULP energy per Si atom -5579.854149 kJ/mol
# Density = 0.985406 g / cm^3
# Si number density = 9.876543 Si / 1000 Ang^3
#
#
#
# Elastic Constant Matrix: (Units=GPa)
#
#
# Indices 1 2 3 4 5 6 
#
# 1 -7.0022 39.1967 48.8708 0.0000 0.0000 0.0000
# 2 39.1967 -0.2847 30.5911 0.0000 0.0000 0.0000
# 3 48.8708 30.5911 193.8002 0.0000 0.0000 0.0000
# 4 0.0000 0.0000 0.0000 10.0835 0.0000 0.0000
# 5 0.0000 0.0000 0.0000 0.0000 -18.7781 0.0000
# 6 0.0000 0.0000 0.0000 0.0000 0.0000 6.0488
#
#
#
# Elastic Compliance Matrix: (Units=1/GPa)
#
#
# Indices 1 2 3 4 5 6 
#
# 1 0.005731 0.035281 -0.007014 0.000000 0.000000 0.000000
# 2 0.035281 0.021658 -0.012316 0.000000 0.000000 0.000000
# 3 -0.007014 -0.012316 0.008873 0.000000 0.000000 0.000000
# 4 0.000000 0.000000 0.000000 0.099172 0.000000 0.000000
# 5 0.000000 0.000000 0.000000 0.000000 -0.053254 0.000000
# 6 0.000000 0.000000 0.000000 0.000000 0.000000 0.165322
#
#
# Mechanical properties :
#
#
# Convention : Reuss Voigt Hill
#
# Bulk Modulus (GPa) = 14.67039 47.09226 30.88133
# Shear Modulus (GPa) = 20.98018 3.99449 12.48734
#
# Velocity S-wave (km/s) = 3.26256 1.42359 2.51703
# Velocity P-wave (km/s) = 4.65138 5.15697 4.91069
#
# Compressibility (1/GPa) = 0.06816450
#
# Stress axis : x y z
#
# Youngs Moduli (GPa) = 174.50422 46.17220 112.70477
#
# Poissons Ratio (x) = -1.62902 0.79053
# Poissons Ratio (y) = -6.15676 1.38803
# Poissons Ratio (z) = 1.22401 0.56864
#
# Static dielectric constant tensor:
#      x y z
#    x 1.656900 0.000000 0.000000 
#    y 0.000000 1.712680 0.000000 
#    z 0.000000 0.000000 1.696510 
# 
# From -- ./inp_files/12458.got.cif
#   From: 2010.05.17/outbox.ucp.g08.bks.cvg/sg38_7_cif.got.tgz:12458.got - 2010.06.11 10:39:43.
