data_PCOD9359571
_publ_section_title
;
Structure prediction by ZEFSAII (Michael W. Deem and Ramdas Pophale) SiO2 
 PCOD9359571
Probable space group: A M M 2
;
_chemical_formula_sum "Si O2"
_cell_formula_units_Z 32
_cell_length_a 15.000000
_cell_length_b 9.000000
_cell_length_c 24.000000
_cell_angle_alpha 90.000000
_cell_angle_beta 90.000000
_cell_angle_gamma 90.000000
_cell_volume 3240.000000
_symmetry_space_group_name_H-M "A M M 2"
_symmetry_group_IT_number 38
_symmetry_cell_setting 'orthorhombic'
loop_
_space_group_symop_operation_xyz
x,y,z
-x,-y,z
-x,y,z
x,-y,z
x,1/2+y,1/2+z
-x,1/2-y,1/2+z
-x,1/2+y,1/2+z
x,1/2-y,1/2+z
loop_
_atom_site_type_symbol
_atom_site_label
_atom_site_fract_x
_atom_site_fract_y
_atom_site_fract_z
Si Si1 0.399988 0.823073 0.650950
Si Si2 0.595779 0.321129 0.408771
Si Si3 0.772090 0.827367 0.190474
Si Si4 0.899338 0.820757 0.777997
Si Si5 0.368092 0.170665 0.524335
Si Si6 0.790723 0.177619 0.883238
Si Si7 0.162819 0.834415 0.492831
Si Si8 0.095131 0.331830 0.591247
O O1 0.500000 0.798892 0.671364
O O2 0.326298 0.736394 0.685047
O O3 0.395035 0.778376 0.585729
O O4 0.380921 0.000000 0.652352
O O5 0.500000 0.271241 0.385117
O O6 0.597526 0.500000 0.406838
O O7 0.599769 0.269218 0.472995
O O8 0.688082 0.266015 0.381368
O O9 0.832998 0.733152 0.231022
O O10 0.821707 0.812779 0.131319
O O11 0.772084 0.000000 0.206133
O O12 0.854647 0.766936 0.835016
O O13 0.000000 0.766237 0.770855
O O14 0.901951 0.000000 0.778416
O O15 0.261441 0.168077 0.519632
O O16 0.398692 0.000000 0.516994
O O17 0.832226 0.223583 0.941687
O O18 0.786457 0.000000 0.879266
O O19 0.098940 0.781476 0.541117
O O20 0.143564 0.000000 0.473090
O O21 0.100029 0.500000 0.568804
O O22 0.000000 0.317550 0.621825
#
# Coordination Sequence:
#
# PCOD9359571 Si02
#       8
#     8   8   8   8   8   8   8   8
#     4  10  20  35  56  82 115 155 195 233 278 336
#     4   9  17  29  48  76 109 145 185 227 272 327
#     4  11  23  39  60  84 115 148 186 241 295 343
#     4  10  22  41  64  85 106 143 195 244 291 348
#     4   9  17  30  49  75 111 151 187 224 266 320
#     4   9  19  36  56  79 111 147 187 234 283 339
#     4  10  19  32  53  82 115 148 183 229 280 331
#     4  10  21  36  54  78 110 149 186 222 279 350
#
# _framework density 9.8765429999999999
#
# number of rings (size 3 to 8) (size 9 to 14) (size 15 to 20)
#    0.000    2.250    1.250    1.500    0.000    4.500 
#    0.000    1.875    0.000    2.250    0.000    0.000 
#    0.000    0.000    0.000    0.000    0.000    0.000 
#
# Total GULP energy -178340.301776 kJ/mol
# GULP energy per Si atom -5573.134431 kJ/mol
# Density = 0.985406 g / cm^3
# Si number density = 9.876543 Si / 1000 Ang^3
#
#
#
# Elastic Constant Matrix: (Units=GPa)
#
#
# Indices 1 2 3 4 5 6 
#
# 1 89.3375 30.9397 32.2559 0.0000 0.0000 0.0000
# 2 30.9397 -6.0398 12.1351 0.0000 0.0000 0.0000
# 3 32.2559 12.1351 24.9128 0.0000 0.0000 0.0000
# 4 0.0000 0.0000 0.0000 15.2914 0.0000 0.0000
# 5 0.0000 0.0000 0.0000 0.0000 12.2389 0.0000
# 6 0.0000 0.0000 0.0000 0.0000 0.0000 15.5159
#
#
#
# Elastic Compliance Matrix: (Units=1/GPa)
#
#
# Indices 1 2 3 4 5 6 
#
# 1 0.014930 0.019024 -0.028598 0.000000 0.000000 0.000000
# 2 0.019024 -0.059435 0.004319 0.000000 0.000000 0.000000
# 3 -0.028598 0.004319 0.075064 0.000000 0.000000 0.000000
# 4 0.000000 0.000000 0.000000 0.065396 0.000000 0.000000
# 5 0.000000 0.000000 0.000000 0.000000 0.081707 0.000000
# 6 0.000000 0.000000 0.000000 0.000000 0.000000 0.064450
#
#
# Mechanical properties :
#
#
# Convention : Reuss Voigt Hill
#
# Bulk Modulus (GPa) = 49.87583 28.76355 39.31969
# Shear Modulus (GPa) = 19.28237 10.80122 15.04179
#
# Velocity S-wave (km/s) = 3.12776 2.34094 2.76251
# Velocity P-wave (km/s) = 6.19260 4.67972 5.48854
#
# Compressibility (1/GPa) = 0.02004979
#
# Stress axis : x y z
#
# Youngs Moduli (GPa) = 66.97721 -16.82506 13.32204
#
# Poissons Ratio (x) = 0.32009 0.38098
# Poissons Ratio (y) = -1.27420 -0.05754
# Poissons Ratio (z) = 1.91542 0.07267
#
# Static dielectric constant tensor:
#      x y z
#    x 1.716030 0.000000 0.000000 
#    y 0.000000 1.677600 0.000000 
#    z 0.000000 0.000000 1.699350 
# 
# From -- ./inp_files/22923.got.cif
#   From: 2010.05.17/outbox.ucp.g08.bks.cvg/sg38_12_cif.got.tgz:22923.got - 2010.06.11 10:39:43.
