data_PCOD9359163
_publ_section_title
;
Structure prediction by ZEFSAII (Michael W. Deem and Ramdas Pophale) SiO2 
 PCOD9359163
Probable space group: A M M 2
;
_chemical_formula_sum "Si O2"
_cell_formula_units_Z 48
_cell_length_a 8.237667
_cell_length_b 28.056265
_cell_length_c 9.858098
_cell_angle_alpha 90.000000
_cell_angle_beta 90.000000
_cell_angle_gamma 90.000000
_cell_volume 2278.385553
_symmetry_space_group_name_H-M "A M M 2"
_symmetry_group_IT_number 38
_symmetry_cell_setting 'orthorhombic'
loop_
_space_group_symop_operation_xyz
x,y,z
-x,-y,z
-x,y,z
x,-y,z
x,1/2+y,1/2+z
-x,1/2-y,1/2+z
-x,1/2+y,1/2+z
x,1/2-y,1/2+z
loop_
_atom_site_type_symbol
_atom_site_label
_atom_site_fract_x
_atom_site_fract_y
_atom_site_fract_z
Si Si1 0.307391 0.587432 0.512620
Si Si2 0.695805 0.274350 0.885030
Si Si3 0.305324 0.372496 0.006707
Si Si4 0.190267 0.446133 0.225918
Si Si5 0.697745 0.949179 0.298614
Si Si6 0.807409 0.806751 0.084788
O O1 0.500000 0.582031 0.489774
O O2 0.217345 0.568663 0.380967
O O3 0.258577 0.556795 0.643040
O O4 0.272107 0.642105 0.552748
O O5 0.500000 0.271163 0.886701
O O6 0.746416 0.285161 0.729266
O O7 0.751419 0.318965 0.979488
O O8 0.765114 0.227866 0.958844
O O9 0.500000 0.369913 0.998404
O O10 0.264779 0.403243 0.138276
O O11 0.241184 0.404946 0.883917
O O12 0.257404 0.500000 0.201938
O O13 0.000000 0.447522 0.195172
O O14 0.500000 0.948087 0.305068
O O15 0.752422 0.000000 0.354430
O O16 0.000000 0.812751 0.094116
#
# Coordination Sequence:
#
# PCOD9359163 Si02
#       6
#     8   8   8   8   8   8
#     4  11  22  41  66  93 126 168 217 266 317 381
#     4  11  24  45  70  97 128 168 217 268 321 388
#     4  10  21  40  66  93 124 164 212 263 316 377
#     4  11  25  42  60  91 135 176 215 264 325 387
#     4   9  17  33  61  94 122 151 199 260 312 365
#     4  12  26  44  67  98 133 170 210 265 333 394
#
# _framework density 21.067547999999999
#
# number of rings (size 3 to 8) (size 9 to 14) (size 15 to 20)
#    0.000    1.333    1.667    4.000    2.333    4.000 
#    0.000    0.000    0.000    3.000    0.000    0.000 
#    0.000    0.000    0.000    0.000    0.000    0.000 
#
# Total GULP energy -134080.194289 kJ/mol
# GULP energy per Si atom -5586.674762 kJ/mol
# Density = 2.101960 g / cm^3
# Si number density = 21.067548 Si / 1000 Ang^3
#
#
#
# Elastic Constant Matrix: (Units=GPa)
#
#
# Indices 1 2 3 4 5 6 
#
# 1 26.3939 -11.3740 -12.7623 0.0000 0.0000 0.0000
# 2 -11.3740 79.0727 -7.1856 0.0000 0.0000 0.0000
# 3 -12.7623 -7.1856 55.5952 0.0000 0.0000 0.0000
# 4 0.0000 0.0000 0.0000 42.1001 0.0000 0.0000
# 5 0.0000 0.0000 0.0000 0.0000 -300.7814 0.0000
# 6 0.0000 0.0000 0.0000 0.0000 0.0000 -40.3163
#
#
#
# Elastic Compliance Matrix: (Units=1/GPa)
#
#
# Indices 1 2 3 4 5 6 
#
# 1 0.046962 0.007827 0.011792 0.000000 0.000000 0.000000
# 2 0.007827 0.014101 0.003619 0.000000 0.000000 0.000000
# 3 0.011792 0.003619 0.021162 0.000000 0.000000 0.000000
# 4 0.000000 0.000000 0.000000 0.023753 0.000000 0.000000
# 5 0.000000 0.000000 0.000000 0.000000 -0.003325 0.000000
# 6 0.000000 0.000000 0.000000 0.000000 0.000000 -0.024804
#
#
# Mechanical properties :
#
#
# Convention : Reuss Voigt Hill
#
# Bulk Modulus (GPa) = 7.76988 10.93531 9.35260
# Shear Modulus (GPa) = 67.31816 -46.97393 10.17211
#
# Velocity S-wave (km/s) = 5.65887 -4.72707 2.19973
# Velocity P-wave (km/s) = 6.81126 4.95901 3.30163
#
# Compressibility (1/GPa) = 0.12870207
#
# Stress axis : x y z
#
# Youngs Moduli (GPa) = 21.29366 70.91541 47.25458
#
# Poissons Ratio (x) = -0.55504 -0.55724
# Poissons Ratio (y) = -0.16666 -0.17103
# Poissons Ratio (z) = -0.25110 -0.25666
#
# Static dielectric constant tensor:
#      x y z
#    x 1.892570 0.000000 0.000000 
#    y 0.000000 1.714920 0.000000 
#    z 0.000000 0.000000 1.748600 
# 
# From -- ./inp_files/3779.got.cif
#   From: 2010.05.17/outbox.cif.g08.bks.cpg/sg38_2_cif.got.tgz:3779.got - 2010.06.03 18:07:57.
