data_PCOD9359860
_publ_section_title
;
Structure prediction by ZEFSAII (Michael W. Deem and Ramdas Pophale) SiO2 
 PCOD9359860
Probable space group: A B M 2
;
_chemical_formula_sum "Si O2"
_cell_formula_units_Z 64
_cell_length_a 20.024041
_cell_length_b 8.228392
_cell_length_c 21.180893
_cell_angle_alpha 90.000000
_cell_angle_beta 90.000000
_cell_angle_gamma 90.000000
_cell_volume 3489.883789
_symmetry_space_group_name_H-M "A B M 2"
_symmetry_group_IT_number 39
_symmetry_cell_setting 'orthorhombic'
loop_
_space_group_symop_operation_xyz
x,y,z
-x,-y,z
-x,1/2+y,z
x,1/2-y,z
x,1/2+y,1/2+z
-x,1/2-y,1/2+z
-x,y,1/2+z
x,-y,1/2+z
loop_
_atom_site_type_symbol
_atom_site_label
_atom_site_fract_x
_atom_site_fract_y
_atom_site_fract_z
Si Si1 0.426826 0.555987 0.161570
Si Si2 0.284775 0.448687 0.705790
Si Si3 0.786842 0.050632 0.333718
Si Si4 0.211336 0.943034 0.077856
Si Si5 0.926755 0.054406 0.386902
Si Si6 0.707742 0.944158 0.956780
Si Si7 0.073474 0.944710 0.533481
Si Si8 0.427050 0.555347 0.516393
O O1 0.500000 0.500000 0.183349
O O2 0.426839 0.750000 0.162117
O O3 0.362053 0.498506 0.200242
O O4 0.418229 0.501916 0.088720
O O5 0.284723 0.250000 0.706574
O O6 0.246211 0.502823 0.768343
O O7 0.246378 0.499792 0.642222
O O8 0.787059 0.250000 0.333802
O O9 0.863250 0.998968 0.346308
O O10 0.742459 0.994596 0.393225
O O11 0.221122 0.750000 0.073371
O O12 0.133234 0.983199 0.074336
O O13 0.245828 0.022144 0.017001
O O14 0.926142 0.250000 0.387691
O O15 0.918117 0.000504 0.460092
O O16 0.000000 0.000000 0.365207
O O17 0.702326 0.750000 0.949437
O O18 0.634147 0.007371 0.974172
O O19 0.077699 0.750000 0.534592
O O20 0.000000 0.000000 0.553809
O O21 0.500000 0.500000 0.494740
O O22 0.425543 0.750000 0.517029
#
# Coordination Sequence:
#
# PCOD9359860 Si02
#       8
#     8   8   8   8   8   8   8   8
#     4  10  18  31  50  75 101 133 172 213 257 309
#     4   9  19  33  52  76 104 138 176 212 256 311
#     4   9  17  34  54  74 101 137 177 212 251 310
#     4  11  20  32  52  79 107 136 170 214 262 308
#     4   9  17  30  52  75  99 129 167 211 251 300
#     4  10  19  33  54  77 100 134 176 216 259 306
#     4  10  19  33  52  80 107 137 175 216 264 308
#     4  10  19  30  49  76 104 134 169 215 263 310
#
# _framework density 18.338719999999999
#
# number of rings (size 3 to 8) (size 9 to 14) (size 15 to 20)
#    0.000    2.250    2.500    2.250    0.000    1.000 
#    0.000    1.250    0.000    7.500    0.000    0.000 
#    0.000    0.000    0.000    0.000    0.000    0.000 
#
# Total GULP energy -178506.264176 kJ/mol
# GULP energy per Si atom -5578.320756 kJ/mol
# Density = 1.829698 g / cm^3
# Si number density = 18.338720 Si / 1000 Ang^3
#
#
#
# Elastic Constant Matrix: (Units=GPa)
#
#
# Indices 1 2 3 4 5 6 
#
# 1 180.6563 2.3936 69.6417 0.0000 0.0000 0.0000
# 2 2.3936 7.6090 -1.8534 0.0000 0.0000 0.0000
# 3 69.6417 -1.8534 95.9997 0.0000 0.0000 0.0000
# 4 0.0000 0.0000 0.0000 11.6084 0.0000 0.0000
# 5 0.0000 0.0000 0.0000 0.0000 29.6345 0.0000
# 6 0.0000 0.0000 0.0000 0.0000 0.0000 20.7280
#
#
#
# Elastic Compliance Matrix: (Units=1/GPa)
#
#
# Indices 1 2 3 4 5 6 
#
# 1 0.007795 -0.003847 -0.005729 0.000000 0.000000 0.000000
# 2 -0.003847 0.133943 0.005377 0.000000 0.000000 0.000000
# 3 -0.005729 0.005377 0.014676 0.000000 0.000000 0.000000
# 4 0.000000 0.000000 0.000000 0.086144 0.000000 0.000000
# 5 0.000000 0.000000 0.000000 0.000000 0.033744 0.000000
# 6 0.000000 0.000000 0.000000 0.000000 0.000000 0.048244
#
#
# Mechanical properties :
#
#
# Convention : Reuss Voigt Hill
#
# Bulk Modulus (GPa) = 6.75606 47.18099 26.96852
# Shear Modulus (GPa) = 13.07928 26.66639 19.87283
#
# Velocity S-wave (km/s) = 2.67349 3.81741 3.29546
# Velocity P-wave (km/s) = 3.63622 6.72410 5.40535
#
# Compressibility (1/GPa) = 0.14801529
#
# Stress axis : x y z
#
# Youngs Moduli (GPa) = 128.29054 7.46587 68.13623
#
# Poissons Ratio (x) = 0.02872 0.39035
# Poissons Ratio (y) = 0.49360 -0.36637
# Poissons Ratio (z) = 0.73497 -0.04014
#
# Static dielectric constant tensor:
#      x y z
#    x 1.658130 0.000000 0.000000 
#    y 0.000000 1.646420 0.000000 
#    z 0.000000 0.000000 1.604400 
# 
# From -- ./inp_files/13098.got.cif
#   From: 2010.05.17/outbox.cif.g08.bks.cpg/sg39_7_cif.got.tgz:13098.got - 2010.06.03 18:22:40.
