data_PCOD9359123
_publ_section_title
;
Structure prediction by ZEFSAII (Michael W. Deem and Ramdas Pophale) SiO2 
 PCOD9359123
Probable space group: A M M 2
;
_chemical_formula_sum "Si O2"
_cell_formula_units_Z 48
_cell_length_a 8.730131
_cell_length_b 17.247569
_cell_length_c 17.287390
_cell_angle_alpha 90.000000
_cell_angle_beta 90.000000
_cell_angle_gamma 90.000000
_cell_volume 2603.023454
_symmetry_space_group_name_H-M "A M M 2"
_symmetry_group_IT_number 38
_symmetry_cell_setting 'orthorhombic'
loop_
_space_group_symop_operation_xyz
x,y,z
-x,-y,z
-x,y,z
x,-y,z
x,1/2+y,1/2+z
-x,1/2-y,1/2+z
-x,1/2+y,1/2+z
x,1/2-y,1/2+z
loop_
_atom_site_type_symbol
_atom_site_label
_atom_site_fract_x
_atom_site_fract_y
_atom_site_fract_z
Si Si1 0.816300 0.500000 0.758910
Si Si2 0.684049 0.645504 0.666832
Si Si3 0.684148 0.148824 0.527482
Si Si4 0.183788 0.500000 0.940362
Si Si5 0.316418 0.320925 0.203471
Si Si6 0.815609 0.682744 0.501384
Si Si7 0.184670 0.911174 0.848854
O O1 0.750094 0.575813 0.716986
O O2 0.775413 0.500000 0.849583
O O3 0.000000 0.500000 0.752336
O O4 0.500000 0.640950 0.663354
O O5 0.725631 0.729811 0.702006
O O6 0.750307 0.645620 0.580017
O O7 0.500000 0.151000 0.521759
O O8 0.724645 0.145602 0.618834
O O9 0.751766 0.229887 0.497002
O O10 0.749553 0.076050 0.481657
O O11 0.000000 0.500000 0.946795
O O12 0.500000 0.325678 0.210824
O O13 0.241190 0.366729 0.273151
O O14 0.767737 0.633941 0.426392
O O15 0.000000 0.684679 0.505477
O O16 0.000000 0.911956 0.848320
O O17 0.239032 0.000000 0.849346
#
# Coordination Sequence:
#
# PCOD9359123 Si02
#       7
#     4   8   8   4   8   8   8
#     4  11  25  41  61  90 123 158 199 249 304 363
#     4  10  22  41  63  90 120 156 202 248 302 361
#     4  10  22  41  63  88 121 159 201 249 304 359
#     4  11  25  41  61  92 123 156 203 249 302 365
#     4   9  21  40  61  87 118 155 198 245 296 353
#     4  10  21  39  63  89 121 160 202 248 300 357
#     4  10  23  39  58  88 122 156 197 244 294 349
#
# _framework density 18.440094999999999
#
# number of rings (size 3 to 8) (size 9 to 14) (size 15 to 20)
#    0.000    2.000    0.000    3.000    4.667    7.000 
#    0.000    0.000    0.000    0.000    0.000    0.000 
#    0.000    0.000    0.000    0.000    0.000    0.000 
#
# Total GULP energy -134091.943756 kJ/mol
# GULP energy per Si atom -5587.164323 kJ/mol
# Density = 1.839812 g / cm^3
# Si number density = 18.440095 Si / 1000 Ang^3
#
#
#
# Elastic Constant Matrix: (Units=GPa)
#
#
# Indices 1 2 3 4 5 6 
#
# 1 53.9472 61.1012 63.1751 0.0000 0.0000 0.0000
# 2 61.1012 172.8279 152.7253 0.0000 0.0000 0.0000
# 3 63.1751 152.7253 179.8233 0.0000 0.0000 0.0000
# 4 0.0000 0.0000 0.0000 27.9054 0.0000 0.0000
# 5 0.0000 0.0000 0.0000 0.0000 59.2658 0.0000
# 6 0.0000 0.0000 0.0000 0.0000 0.0000 30.3923
#
#
#
# Elastic Compliance Matrix: (Units=1/GPa)
#
#
# Indices 1 2 3 4 5 6 
#
# 1 0.032823 -0.005668 -0.006717 0.000000 0.000000 0.000000
# 2 -0.005668 0.024172 -0.018538 0.000000 0.000000 0.000000
# 3 -0.006717 -0.018538 0.023665 0.000000 0.000000 0.000000
# 4 0.000000 0.000000 0.000000 0.035835 0.000000 0.000000
# 5 0.000000 0.000000 0.000000 0.000000 0.016873 0.000000
# 6 0.000000 0.000000 0.000000 0.000000 0.000000 0.032903
#
#
# Mechanical properties :
#
#
# Convention : Reuss Voigt Hill
#
# Bulk Modulus (GPa) = 53.15432 106.73352 79.94392
# Shear Modulus (GPa) = 21.33215 32.15247 26.74231
#
# Velocity S-wave (km/s) = 3.40492 4.18019 3.81232
# Velocity P-wave (km/s) = 6.65927 9.01696 7.92627
#
# Compressibility (1/GPa) = 0.01881315
#
# Stress axis : x y z
#
# Youngs Moduli (GPa) = 30.46674 41.37099 42.25636
#
# Poissons Ratio (x) = 0.23450 0.28384
# Poissons Ratio (y) = 0.17269 0.78334
# Poissons Ratio (z) = 0.20465 0.76692
#
# Static dielectric constant tensor:
#      x y z
#    x 1.620560 0.000000 0.000000 
#    y 0.000000 1.610310 0.000000 
#    z 0.000000 0.000000 1.608000 
# 
# From -- ./inp_files/12122.got.cif
#   From: 2010.05.17/outbox.cif.g08.bks.cpg/sg38_7_cif.got.tgz:12122.got - 2010.06.03 18:07:57.
