data_PCOD9359741
_publ_section_title
;
Structure prediction by ZEFSAII (Michael W. Deem and Ramdas Pophale) SiO2 
 PCOD9359741
Probable space group: A B M 2
;
_chemical_formula_sum "Si O2"
_cell_formula_units_Z 64
_cell_length_a 22.000867
_cell_length_b 8.981379
_cell_length_c 14.522728
_cell_angle_alpha 90.000000
_cell_angle_beta 90.000000
_cell_angle_gamma 90.000000
_cell_volume 2869.663821
_symmetry_space_group_name_H-M "A B M 2"
_symmetry_group_IT_number 39
_symmetry_cell_setting 'orthorhombic'
loop_
_space_group_symop_operation_xyz
x,y,z
-x,-y,z
-x,1/2+y,z
x,1/2-y,z
x,1/2+y,1/2+z
-x,1/2-y,1/2+z
-x,y,1/2+z
x,-y,1/2+z
loop_
_atom_site_type_symbol
_atom_site_label
_atom_site_fract_x
_atom_site_fract_y
_atom_site_fract_z
Si Si1 0.186647 0.919051 0.913410
Si Si2 0.062307 0.929121 0.410087
Si Si3 0.685453 0.083299 0.441214
Si Si4 0.939987 0.932139 0.204247
Si Si5 0.810642 0.581676 0.192321
Si Si6 0.561178 0.581925 0.659869
Si Si7 0.318899 0.082924 0.160527
Si Si8 0.437375 0.080010 0.434475
O O1 0.185398 0.750000 0.949642
O O2 0.182719 0.909092 0.802320
O O3 0.127346 0.010638 0.945561
O O4 0.251310 0.996109 0.930839
O O5 0.059764 0.750000 0.414417
O O6 0.061722 0.988692 0.304283
O O7 0.000000 0.000000 0.449618
O O8 0.690878 0.250000 0.402424
O O9 0.675588 0.096042 0.550825
O O10 0.625016 0.000877 0.406273
O O11 0.942693 0.750000 0.211902
O O12 0.875683 0.974469 0.158555
O O13 0.000000 0.000000 0.158953
O O14 0.804225 0.750000 0.153686
O O15 0.746228 0.505285 0.175922
O O16 0.500000 0.500000 0.687655
O O17 0.559839 0.750000 0.692067
O O18 0.622088 0.502620 0.692717
O O19 0.562311 0.582068 0.547302
O O20 0.317543 0.250000 0.201609
O O21 0.437184 0.250000 0.402702
O O22 0.500000 0.000000 0.407157
#
# Coordination Sequence:
#
# PCOD9359741 Si02
#       8
#     8   8   8   8   8   8   8   8
#     4  10  19  32  49  69  95 125 157 192 231 275
#     4  10  17  27  44  67  93 119 152 192 233 274
#     4  10  19  30  47  71  96 123 155 191 233 279
#     4   9  15  25  42  65  91 118 151 189 229 270
#     4   8  16  30  48  68  90 121 156 189 228 272
#     4   9  16  26  42  66  92 118 150 188 229 270
#     4   9  17  31  49  68  92 122 155 190 229 274
#     4   9  16  27  44  66  92 120 152 191 231 272
#
# _framework density 22.302263
#
# number of rings (size 3 to 8) (size 9 to 14) (size 15 to 20)
#    0.000    2.750    0.000    4.500    0.000    3.500 
#    0.000    3.750    0.000    1.500    0.000    5.250 
#    0.000    0.000    0.000    0.000    0.000    0.000 
#
# Total GULP energy -178493.838130 kJ/mol
# GULP energy per Si atom -5577.932442 kJ/mol
# Density = 2.225150 g / cm^3
# Si number density = 22.302263 Si / 1000 Ang^3
#
#
#
# Elastic Constant Matrix: (Units=GPa)
#
#
# Indices 1 2 3 4 5 6 
#
# 1 300.1468 129.8385 4.8768 0.0000 0.0000 0.0000
# 2 129.8385 173.2812 8.0951 0.0000 0.0000 0.0000
# 3 4.8768 8.0951 54.5859 0.0000 0.0000 0.0000
# 4 0.0000 0.0000 0.0000 -20.4640 0.0000 0.0000
# 5 0.0000 0.0000 0.0000 0.0000 18.3480 0.0000
# 6 0.0000 0.0000 0.0000 0.0000 0.0000 40.8231
#
#
#
# Elastic Compliance Matrix: (Units=1/GPa)
#
#
# Indices 1 2 3 4 5 6 
#
# 1 0.004930 -0.003699 0.000108 0.000000 0.000000 0.000000
# 2 -0.003699 0.008587 -0.000943 0.000000 0.000000 0.000000
# 3 0.000108 -0.000943 0.018450 0.000000 0.000000 0.000000
# 4 0.000000 0.000000 0.000000 -0.048866 0.000000 0.000000
# 5 0.000000 0.000000 0.000000 0.000000 0.054502 0.000000
# 6 0.000000 0.000000 0.000000 0.000000 0.000000 0.024496
#
#
# Mechanical properties :
#
#
# Convention : Reuss Voigt Hill
#
# Bulk Modulus (GPa) = 43.67024 90.40388 67.03706
# Shear Modulus (GPa) = 63.45224 33.42164 48.43694
#
# Velocity S-wave (km/s) = 5.33974 3.87534 4.66536
# Velocity P-wave (km/s) = 7.59214 7.78769 7.69054
#
# Compressibility (1/GPa) = 0.02289889
#
# Stress axis : x y z
#
# Youngs Moduli (GPa) = 202.83348 116.45789 54.20071
#
# Poissons Ratio (x) = 0.43080 -0.00586
# Poissons Ratio (y) = 0.75032 0.05111
# Poissons Ratio (z) = -0.02193 0.10981
#
# Static dielectric constant tensor:
#      x y z
#    x 1.870790 0.000000 0.000000 
#    y 0.000000 1.802940 0.000000 
#    z 0.000000 0.000000 1.905100 
# 
# From -- ./inp_files/13185.got.cif
#   From: 2010.05.17/outbox.cif.g08.bks.cpg/sg39_7_cif.got.tgz:13185.got - 2010.06.03 18:22:40.
