data_PCOD9359895
_publ_section_title
;
Structure prediction by ZEFSAII (Michael W. Deem and Ramdas Pophale) SiO2 
 PCOD9359895
Probable space group: A B M 2
;
_chemical_formula_sum "Si O2"
_cell_formula_units_Z 64
_cell_length_a 14.693250
_cell_length_b 8.557474
_cell_length_c 32.311904
_cell_angle_alpha 90.000000
_cell_angle_beta 90.000000
_cell_angle_gamma 90.000000
_cell_volume 4062.805261
_symmetry_space_group_name_H-M "A B M 2"
_symmetry_group_IT_number 39
_symmetry_cell_setting 'orthorhombic'
loop_
_space_group_symop_operation_xyz
x,y,z
-x,-y,z
-x,1/2+y,z
x,1/2-y,z
x,1/2+y,1/2+z
-x,1/2-y,1/2+z
-x,y,1/2+z
x,-y,1/2+z
loop_
_atom_site_type_symbol
_atom_site_label
_atom_site_fract_x
_atom_site_fract_y
_atom_site_fract_z
Si Si1 0.896635 0.437195 0.435470
Si Si2 0.102202 0.061367 0.188546
Si Si3 0.781759 0.439059 0.768981
Si Si4 0.896787 0.061056 0.526715
Si Si5 0.896810 0.937006 0.349044
Si Si6 0.401896 0.062371 0.142923
Si Si7 0.402012 0.064024 0.736182
Si Si8 0.212380 0.940559 0.606968
O O1 0.897146 0.250000 0.432475
O O2 0.860298 0.482603 0.480903
O O3 0.857401 0.505575 0.393067
O O4 0.000000 0.500000 0.436004
O O5 0.100213 0.250000 0.188395
O O6 0.159612 0.012347 0.228763
O O7 0.152384 0.009903 0.146502
O O8 0.000000 0.000000 0.190346
O O9 0.775371 0.250000 0.768466
O O10 0.835078 0.486464 0.810377
O O11 0.681548 0.508560 0.764145
O O12 0.900988 0.250000 0.527909
O O13 0.833857 0.006339 0.564429
O O14 0.000000 0.000000 0.531518
O O15 0.901947 0.750000 0.349577
O O16 0.000000 0.000000 0.344330
O O17 0.404338 0.250000 0.144135
O O18 0.316353 0.011517 0.115201
O O19 0.500000 0.000000 0.129115
O O20 0.386708 0.003355 0.189850
O O21 0.405531 0.250000 0.733732
O O22 0.500000 0.000000 0.750195
O O23 0.211789 0.750000 0.606572
#
# Coordination Sequence:
#
# PCOD9359895 Si02
#       8
#     8   8   8   8   8   8   8   8
#     4   9  16  27  44  64  90 118 154 195 231 275
#     4  10  19  31  44  61  90 125 156 186 222 265
#     4  10  20  34  48  66  93 125 157 191 232 273
#     4   9  17  29  45  67  91 122 156 189 230 272
#     4  10  19  30  47  68  95 126 158 194 233 276
#     4  10  18  32  50  67  91 120 153 194 236 276
#     4  11  21  33  51  71  92 119 154 195 235 277
#     4   9  17  30  47  64  90 124 153 187 231 275
#
# _framework density 15.752661
#
# number of rings (size 3 to 8) (size 9 to 14) (size 15 to 20)
#    0.000    2.250    1.250    4.500    0.000    2.000 
#    0.000    1.250    0.000    0.000    0.000    0.875 
#    0.000    4.000    0.000    0.000    0.000    0.000 
#
# Total GULP energy -178417.452301 kJ/mol
# GULP energy per Si atom -5575.545384 kJ/mol
# Density = 1.571681 g / cm^3
# Si number density = 15.752661 Si / 1000 Ang^3
#
#
#
# Elastic Constant Matrix: (Units=GPa)
#
#
# Indices 1 2 3 4 5 6 
#
# 1 120.2999 26.9126 77.3412 0.0000 0.0000 0.0000
# 2 26.9126 35.8467 31.5158 0.0000 0.0000 0.0000
# 3 77.3412 31.5158 151.5726 0.0000 0.0000 0.0000
# 4 0.0000 0.0000 0.0000 12.5698 0.0000 0.0000
# 5 0.0000 0.0000 0.0000 0.0000 7.5983 0.0000
# 6 0.0000 0.0000 0.0000 0.0000 0.0000 24.1377
#
#
#
# Elastic Compliance Matrix: (Units=1/GPa)
#
#
# Indices 1 2 3 4 5 6 
#
# 1 0.013016 -0.004813 -0.005641 0.000000 0.000000 0.000000
# 2 -0.004813 0.035916 -0.005012 0.000000 0.000000 0.000000
# 3 -0.005641 -0.005012 0.010518 0.000000 0.000000 0.000000
# 4 0.000000 0.000000 0.000000 0.079556 0.000000 0.000000
# 5 0.000000 0.000000 0.000000 0.000000 0.131609 0.000000
# 6 0.000000 0.000000 0.000000 0.000000 0.000000 0.041429
#
#
# Mechanical properties :
#
#
# Convention : Reuss Voigt Hill
#
# Bulk Modulus (GPa) = 35.06449 64.36203 49.71326
# Shear Modulus (GPa) = 14.18515 20.32447 17.25481
#
# Velocity S-wave (km/s) = 3.00408 3.59587 3.31321
# Velocity P-wave (km/s) = 5.86007 7.62803 6.80174
#
# Compressibility (1/GPa) = 0.02851888
#
# Stress axis : x y z
#
# Youngs Moduli (GPa) = 76.83107 27.84246 95.07629
#
# Poissons Ratio (x) = 0.13399 0.53629
# Poissons Ratio (y) = 0.36975 0.47655
# Poissons Ratio (z) = 0.43338 0.13955
#
# Static dielectric constant tensor:
#      x y z
#    x 1.504490 0.000000 0.000000 
#    y 0.000000 1.570770 0.000000 
#    z 0.000000 0.000000 1.546780 
# 
# From -- ./inp_files/17983.got.cif
#   From: 2010.05.17/outbox.cif.g08.bks.cpg/sg39_9_cif.got.tgz:17983.got - 2010.06.03 18:22:40.
