data_PCOD9359001
_publ_section_title
;
Structure prediction by ZEFSAII (Michael W. Deem and Ramdas Pophale) SiO2 
 PCOD9359001
Probable space group: A M M 2
;
_chemical_formula_sum "Si O2"
_cell_formula_units_Z 48
_cell_length_a 8.671326
_cell_length_b 14.708782
_cell_length_c 20.685650
_cell_angle_alpha 90.000000
_cell_angle_beta 90.000000
_cell_angle_gamma 90.000000
_cell_volume 2638.343861
_symmetry_space_group_name_H-M "A M M 2"
_symmetry_group_IT_number 38
_symmetry_cell_setting 'orthorhombic'
loop_
_space_group_symop_operation_xyz
x,y,z
-x,-y,z
-x,y,z
x,-y,z
x,1/2+y,1/2+z
-x,1/2-y,1/2+z
-x,1/2+y,1/2+z
x,1/2-y,1/2+z
loop_
_atom_site_type_symbol
_atom_site_label
_atom_site_fract_x
_atom_site_fract_y
_atom_site_fract_z
Si Si1 0.184816 0.804903 0.789970
Si Si2 0.184363 0.500000 0.351124
Si Si3 0.315496 0.193741 0.410060
Si Si4 0.816271 0.500000 0.947278
Si Si5 0.183696 0.000000 0.602212
Si Si6 0.184466 0.306939 0.531586
Si Si7 0.683598 0.000000 0.994961
Si Si8 0.316091 0.308537 0.149016
O O1 0.220091 0.908663 0.811697
O O2 0.249010 0.739371 0.845498
O O3 0.260405 0.786021 0.721018
O O4 0.000000 0.796443 0.785664
O O5 0.272022 0.500000 0.419082
O O6 0.000000 0.500000 0.364799
O O7 0.500000 0.197592 0.410025
O O8 0.257916 0.090817 0.418522
O O9 0.251592 0.250760 0.470948
O O10 0.000000 0.500000 0.936239
O O11 0.791761 0.500000 0.024874
O O12 0.257182 0.090379 0.631741
O O13 0.000000 0.000000 0.614527
O O14 0.245067 0.409369 0.525590
O O15 0.242097 0.258809 0.596583
O O16 0.000000 0.304691 0.528160
O O17 0.500000 0.000000 0.002016
O O18 0.500000 0.304965 0.144256
#
# Coordination Sequence:
#
# PCOD9359001 Si02
#       8
#     8   4   8   4   4   8   4   8
#     4  11  23  41  64  92 130 172 211 253 313 382
#     4  10  21  37  62  92 128 167 208 253 308 374
#     4  12  24  40  64  95 128 163 209 264 314 364
#     4  11  23  40  65  94 125 166 213 257 311 375
#     4  11  22  38  63  93 129 169 209 254 315 382
#     4  12  24  42  65  91 126 169 212 254 310 378
#     4  12  24  39  64  97 128 160 208 264 316 363
#     4  12  25  41  63  94 130 166 211 264 317 369
#
# _framework density 18.193231999999998
#
# number of rings (size 3 to 8) (size 9 to 14) (size 15 to 20)
#    0.000    0.500    3.333    6.750    0.000    2.000 
#    0.000    0.833    0.000    0.000    0.000    0.000 
#    0.000    0.000    0.000    0.000    0.000    0.000 
#
# Total GULP energy -134357.607373 kJ/mol
# GULP energy per Si atom -5598.233641 kJ/mol
# Density = 1.815182 g / cm^3
# Si number density = 18.193232 Si / 1000 Ang^3
#
#
#
# Elastic Constant Matrix: (Units=GPa)
#
#
# Indices 1 2 3 4 5 6 
#
# 1 116.4763 50.1987 48.6566 0.0000 0.0000 0.0000
# 2 50.1987 152.3216 68.0271 0.0000 0.0000 0.0000
# 3 48.6566 68.0271 126.6670 0.0000 0.0000 0.0000
# 4 0.0000 0.0000 0.0000 -48.4156 0.0000 0.0000
# 5 0.0000 0.0000 0.0000 0.0000 45.7952 0.0000
# 6 0.0000 0.0000 0.0000 0.0000 0.0000 37.2295
#
#
#
# Elastic Compliance Matrix: (Units=1/GPa)
#
#
# Indices 1 2 3 4 5 6 
#
# 1 0.010778 -0.002240 -0.002937 0.000000 0.000000 0.000000
# 2 -0.002240 0.009102 -0.004028 0.000000 0.000000 0.000000
# 3 -0.002937 -0.004028 0.011186 0.000000 0.000000 0.000000
# 4 0.000000 0.000000 0.000000 -0.020654 0.000000 0.000000
# 5 0.000000 0.000000 0.000000 0.000000 0.021836 0.000000
# 6 0.000000 0.000000 0.000000 0.000000 0.000000 0.026860
#
#
# Mechanical properties :
#
#
# Convention : Reuss Voigt Hill
#
# Bulk Modulus (GPa) = 79.01394 81.02554 80.01974
# Shear Modulus (GPa) = 61.17177 22.16063 41.66620
#
# Velocity S-wave (km/s) = 5.80486 3.49387 4.79080
# Velocity P-wave (km/s) = 9.40495 7.80442 8.64182
#
# Compressibility (1/GPa) = 0.01265599
#
# Stress axis : x y z
#
# Youngs Moduli (GPa) = 92.78323 109.86379 89.39718
#
# Poissons Ratio (x) = 0.24612 0.26255
# Poissons Ratio (y) = 0.20786 0.36008
# Poissons Ratio (z) = 0.27250 0.44251
#
# Static dielectric constant tensor:
#      x y z
#    x 1.604000 0.000000 0.000000 
#    y 0.000000 1.599870 0.000000 
#    z 0.000000 0.000000 1.594600 
# 
# From -- ./inp_files/16755.got.cif
#   From: 2010.05.17/outbox.cif.g08.bks.cpg/sg38_9_cif.got.tgz:16755.got - 2010.06.03 18:07:57.
