data_PCOD9359003
_publ_section_title
;
Structure prediction by ZEFSAII (Michael W. Deem and Ramdas Pophale) SiO2 
 PCOD9359003
Probable space group: A M M 2
;
_chemical_formula_sum "Si O2"
_cell_formula_units_Z 34
_cell_length_a 7.833131
_cell_length_b 23.572192
_cell_length_c 6.954615
_cell_angle_alpha 90.000000
_cell_angle_beta 90.000000
_cell_angle_gamma 90.000000
_cell_volume 1284.128404
_symmetry_space_group_name_H-M "A M M 2"
_symmetry_group_IT_number 38
_symmetry_cell_setting 'orthorhombic'
loop_
_space_group_symop_operation_xyz
x,y,z
-x,-y,z
-x,y,z
x,-y,z
x,1/2+y,1/2+z
-x,1/2-y,1/2+z
-x,1/2+y,1/2+z
x,1/2-y,1/2+z
loop_
_atom_site_type_symbol
_atom_site_label
_atom_site_fract_x
_atom_site_fract_y
_atom_site_fract_z
Si Si1 0.500000 0.500000 0.927680
Si Si2 0.799096 0.938733 0.852816
Si Si3 0.314058 0.819210 0.746373
Si Si4 0.808358 0.199626 0.149559
Si Si5 0.201021 0.414135 0.811563
O O1 0.347426 0.450928 0.907754
O O2 0.778158 0.928490 0.081869
O O3 0.000000 0.942849 0.820472
O O4 0.716199 0.000000 0.807491
O O5 0.741018 0.884308 0.733514
O O6 0.500000 0.810421 0.660900
O O7 0.198167 0.765906 0.692499
O O8 0.318647 0.812028 0.977739
O O9 0.774884 0.154555 0.319597
O O10 0.000000 0.184759 0.081726
O O11 0.000000 0.426715 0.859827
#
# Coordination Sequence:
#
# PCOD9359003 Si02
#       5
#     2   8   8   8   8
#     4  12  18  24  52  70 108 138 176 220 284 312
#     4   9  17  30  47  72 105 139 174 218 269 323
#     4  11  22  33  55  83 111 138 182 230 272 320
#     4  10  21  38  54  76 111 149 184 219 271 331
#     4   9  19  30  46  74 107 139 176 219 271 328
#
# _framework density 26.477105000000002
#
# number of rings (size 3 to 8) (size 9 to 14) (size 15 to 20)
#    0.000    2.118    1.176    4.588    8.235    0.471 
#    0.000    0.000    0.000    0.000    3.059    0.000 
#    0.000    0.000    0.000    0.000    0.000    0.000 
#
# Total GULP energy -94834.576818 kJ/mol
# GULP energy per Si atom -5578.504519 kJ/mol
# Density = 2.641684 g / cm^3
# Si number density = 26.477105 Si / 1000 Ang^3
#
#
#
# Elastic Constant Matrix: (Units=GPa)
#
#
# Indices 1 2 3 4 5 6 
#
# 1 153.7502 69.2199 10.9940 0.0000 0.0000 0.0000
# 2 69.2199 269.3844 40.1555 0.0000 0.0000 0.0000
# 3 10.9940 40.1555 67.9747 0.0000 0.0000 0.0000
# 4 0.0000 0.0000 0.0000 41.0925 0.0000 0.0000
# 5 0.0000 0.0000 0.0000 0.0000 14.2176 0.0000
# 6 0.0000 0.0000 0.0000 0.0000 0.0000 21.4633
#
#
#
# Elastic Compliance Matrix: (Units=1/GPa)
#
#
# Indices 1 2 3 4 5 6 
#
# 1 0.007355 -0.001878 -0.000080 0.000000 0.000000 0.000000
# 2 -0.001878 0.004550 -0.002384 0.000000 0.000000 0.000000
# 3 -0.000080 -0.002384 0.016133 0.000000 0.000000 0.000000
# 4 0.000000 0.000000 0.000000 0.024335 0.000000 0.000000
# 5 0.000000 0.000000 0.000000 0.000000 0.070336 0.000000
# 6 0.000000 0.000000 0.000000 0.000000 0.000000 0.046591
#
#
# Mechanical properties :
#
#
# Convention : Reuss Voigt Hill
#
# Bulk Modulus (GPa) = 51.67063 81.31644 66.49353
# Shear Modulus (GPa) = 27.10964 40.07067 33.59016
#
# Velocity S-wave (km/s) = 3.20330 3.89448 3.56567
# Velocity P-wave (km/s) = 5.76533 7.14152 6.49000
#
# Compressibility (1/GPa) = 0.01935336
#
# Stress axis : x y z
#
# Youngs Moduli (GPa) = 135.95641 219.77351 61.98561
#
# Poissons Ratio (x) = 0.41274 0.00497
# Poissons Ratio (y) = 0.25533 0.14779
# Poissons Ratio (z) = 0.01090 0.52399
#
# Static dielectric constant tensor:
#      x y z
#    x 1.919660 0.000000 0.000000 
#    y 0.000000 2.190020 0.000000 
#    z 0.000000 0.000000 2.162990 
# 
# From -- ./inp_files/3145.got.cif
#   From: 2010.05.17/outbox.cif.g08.bks.cpg/sg38_2_cif.got.tgz:3145.got - 2010.06.03 18:07:57.
