data_PCOD9359431
_publ_section_title
;
Structure prediction by ZEFSAII (Michael W. Deem and Ramdas Pophale) SiO2 
 PCOD9359431
Probable space group: A M M 2
;
_chemical_formula_sum "Si O2"
_cell_formula_units_Z 64
_cell_length_a 19.851894
_cell_length_b 15.256694
_cell_length_c 9.767208
_cell_angle_alpha 90.000000
_cell_angle_beta 90.000000
_cell_angle_gamma 90.000000
_cell_volume 2958.236013
_symmetry_space_group_name_H-M "A M M 2"
_symmetry_group_IT_number 38
_symmetry_cell_setting 'orthorhombic'
loop_
_space_group_symop_operation_xyz
x,y,z
-x,-y,z
-x,y,z
x,-y,z
x,1/2+y,1/2+z
-x,1/2-y,1/2+z
-x,1/2+y,1/2+z
x,1/2-y,1/2+z
loop_
_atom_site_type_symbol
_atom_site_label
_atom_site_fract_x
_atom_site_fract_y
_atom_site_fract_z
Si Si1 0.425727 0.147782 0.334570
Si Si2 0.577058 0.138435 0.829172
Si Si3 0.805060 0.157210 0.122770
Si Si4 0.339266 0.862216 0.087208
Si Si5 0.075593 0.395668 0.440106
Si Si6 0.801620 0.837829 0.454169
Si Si7 0.076306 0.895436 0.633889
Si Si8 0.338060 0.147639 0.579089
O O1 0.500000 0.116857 0.301335
O O2 0.426231 0.254543 0.326330
O O3 0.370011 0.113994 0.231921
O O4 0.400879 0.124022 0.483759
O O5 0.500000 0.108884 0.803263
O O6 0.637378 0.114857 0.725459
O O7 0.606408 0.111267 0.974996
O O8 0.737287 0.106507 0.077244
O O9 0.874554 0.119588 0.065866
O O10 0.801415 0.167667 0.288323
O O11 0.801186 0.245355 0.032737
O O12 0.335966 0.754751 0.082951
O O13 0.070982 0.500000 0.427247
O O14 0.098080 0.363196 0.287355
O O15 0.000000 0.360820 0.464058
O O16 0.870141 0.877547 0.515165
O O17 0.732710 0.881698 0.513181
O O18 0.000000 0.862051 0.608324
O O19 0.071940 0.000000 0.642484
#
# Coordination Sequence:
#
# PCOD9359431 Si02
#       8
#     8   8   8   8   8   8   8   8
#     4   9  14  24  38  56  90 133 174 212 255 305
#     4   9  16  24  38  60  90 133 178 216 261 313
#     4  11  22  34  53  80 112 149 182 219 267 318
#     4   9  17  26  39  63  96 135 174 215 260 309
#     4   9  20  40  63  84 107 137 174 218 267 319
#     4  11  22  34  53  80 112 149 182 219 267 318
#     4   9  20  40  63  84 107 137 174 218 267 319
#     4   9  17  26  39  63  96 135 174 215 260 309
#
# _framework density 21.634516000000001
#
# number of rings (size 3 to 8) (size 9 to 14) (size 15 to 20)
#    0.000    2.500    1.250    2.250    7.000    4.500 
#    0.000    1.250    0.000    0.000    0.000    0.000 
#    0.000    6.000    0.000    0.000    0.000    0.000 
#
# Total GULP energy -178219.369232 kJ/mol
# GULP energy per Si atom -5569.355288 kJ/mol
# Density = 2.158527 g / cm^3
# Si number density = 21.634516 Si / 1000 Ang^3
#
#
#
# Elastic Constant Matrix: (Units=GPa)
#
#
# Indices 1 2 3 4 5 6 
#
# 1 131.0036 8.6349 37.4662 0.0000 0.0000 0.0000
# 2 8.6349 27.8345 3.9554 0.0000 0.0000 0.0000
# 3 37.4662 3.9554 89.4721 0.0000 0.0000 0.0000
# 4 0.0000 0.0000 0.0000 6.7702 0.0000 0.0000
# 5 0.0000 0.0000 0.0000 0.0000 36.7638 0.0000
# 6 0.0000 0.0000 0.0000 0.0000 0.0000 40.2259
#
#
#
# Elastic Compliance Matrix: (Units=1/GPa)
#
#
# Indices 1 2 3 4 5 6 
#
# 1 0.008806 -0.002222 -0.003589 0.000000 0.000000 0.000000
# 2 -0.002222 0.036714 -0.000693 0.000000 0.000000 0.000000
# 3 -0.003589 -0.000693 0.012710 0.000000 0.000000 0.000000
# 4 0.000000 0.000000 0.000000 0.147707 0.000000 0.000000
# 5 0.000000 0.000000 0.000000 0.000000 0.027201 0.000000
# 6 0.000000 0.000000 0.000000 0.000000 0.000000 0.024860
#
#
# Mechanical properties :
#
#
# Convention : Reuss Voigt Hill
#
# Bulk Modulus (GPa) = 22.11258 38.71368 30.41313
# Shear Modulus (GPa) = 17.47759 29.96890 23.72324
#
# Velocity S-wave (km/s) = 2.84537 3.72591 3.31501
# Velocity P-wave (km/s) = 4.58672 6.03682 5.36102
#
# Compressibility (1/GPa) = 0.04522312
#
# Stress axis : x y z
#
# Youngs Moduli (GPa) = 113.55404 27.23734 78.67603
#
# Poissons Ratio (x) = 0.06052 0.28240
# Poissons Ratio (y) = 0.25230 0.05450
# Poissons Ratio (z) = 0.40759 0.01887
#
# Static dielectric constant tensor:
#      x y z
#    x 1.813740 0.000000 0.000000 
#    y 0.000000 1.868520 0.000000 
#    z 0.000000 0.000000 1.747990 
# 
# From -- ./inp_files/6513.got.cif
#   From: 2010.05.17/outbox.cif.g08.bks.cpg/sg38_4_cif.got.tgz:6513.got - 2010.06.03 18:07:57.
