data_PCOD9359634
_publ_section_title
;
Structure prediction by ZEFSAII (Michael W. Deem and Ramdas Pophale) SiO2 
 PCOD9359634
Probable space group: A M M 2
;
_chemical_formula_sum "Si O2"
_cell_formula_units_Z 24
_cell_length_a 9.000000
_cell_length_b 30.000000
_cell_length_c 9.000000
_cell_angle_alpha 90.000000
_cell_angle_beta 90.000000
_cell_angle_gamma 90.000000
_cell_volume 2430.000000
_symmetry_space_group_name_H-M "A M M 2"
_symmetry_group_IT_number 38
_symmetry_cell_setting 'orthorhombic'
loop_
_space_group_symop_operation_xyz
x,y,z
-x,-y,z
-x,y,z
x,-y,z
x,1/2+y,1/2+z
-x,1/2-y,1/2+z
-x,1/2+y,1/2+z
x,1/2-y,1/2+z
loop_
_atom_site_type_symbol
_atom_site_label
_atom_site_fract_x
_atom_site_fract_y
_atom_site_fract_z
Si Si1 0.824644 0.047290 0.407100
Si Si2 0.331186 0.216595 0.288037
Si Si3 0.171537 0.284200 0.476517
Si Si4 0.333164 0.132245 0.898853
Si Si5 0.821864 0.050923 0.745703
Si Si6 0.342810 0.117142 0.250089
O O1 0.771912 0.055049 0.574435
O O2 0.787643 0.086212 0.297946
O O3 0.000000 0.044101 0.420757
O O4 0.764961 0.000000 0.352149
O O5 0.500000 0.234292 0.306389
O O6 0.207571 0.241098 0.381799
O O7 0.334147 0.164713 0.327823
O O8 0.279158 0.219056 0.118036
O O9 0.224860 0.326015 0.377779
O O10 0.000000 0.288706 0.519003
O O11 0.500000 0.141298 0.843849
O O12 0.265778 0.087589 0.834688
O O13 0.341156 0.125687 0.075822
O O14 0.000000 0.058218 0.755395
O O15 0.794094 0.000000 0.793576
O O16 0.500000 0.095386 0.291078
#
# Coordination Sequence:
#
# PCOD9359634 Si02
#       6
#     8   8   8   8   8   8
#     4   9  19  35  54  77 106 139 175 217 265 315
#     4  10  21  39  58  79 111 147 180 221 276 329
#     4  11  22  37  58  84 110 141 184 228 270 322
#     4  10  21  37  55  78 109 143 179 221 271 325
#     4   9  19  36  55  77 107 141 179 224 270 319
#     4   9  20  36  54  77 105 138 175 215 260 314
#
# _framework density 9.8765429999999999
#
# number of rings (size 3 to 8) (size 9 to 14) (size 15 to 20)
#    0.000    2.333    0.000    4.500    0.000    7.333 
#    0.000    8.333    0.000    0.000    0.000    0.000 
#    0.000    0.000    0.000    0.000    0.000    0.000 
#
# Total GULP energy -133601.685393 kJ/mol
# GULP energy per Si atom -5566.736891 kJ/mol
# Density = 0.985406 g / cm^3
# Si number density = 9.876543 Si / 1000 Ang^3
#
#
#
# Elastic Constant Matrix: (Units=GPa)
#
#
# Indices 1 2 3 4 5 6 
#
# 1 30.8862 -15.1126 -9.8773 0.0000 0.0000 0.0000
# 2 -15.1126 -27.9910 -8.1867 0.0000 0.0000 0.0000
# 3 -9.8773 -8.1867 -13.2638 0.0000 0.0000 0.0000
# 4 0.0000 0.0000 0.0000 19.1131 0.0000 0.0000
# 5 0.0000 0.0000 0.0000 0.0000 27.1564 0.0000
# 6 0.0000 0.0000 0.0000 0.0000 0.0000 26.7988
#
#
#
# Elastic Compliance Matrix: (Units=1/GPa)
#
#
# Indices 1 2 3 4 5 6 
#
# 1 0.023932 -0.009407 -0.012015 0.000000 0.000000 0.000000
# 2 -0.009407 -0.039898 0.031631 0.000000 0.000000 0.000000
# 3 -0.012015 0.031631 -0.085969 0.000000 0.000000 0.000000
# 4 0.000000 0.000000 0.000000 0.052320 0.000000 0.000000
# 5 0.000000 0.000000 0.000000 0.000000 0.036824 0.000000
# 6 0.000000 0.000000 0.000000 0.000000 0.000000 0.037315
#
#
# Mechanical properties :
#
#
# Convention : Reuss Voigt Hill
#
# Bulk Modulus (GPa) = -12.26726 -8.52465 -10.39596
# Shear Modulus (GPa) = -216.76055 16.13421 -100.31317
#
# Velocity S-wave (km/s) = -10.48681 2.86106 -7.13399
# Velocity P-wave (km/s) = 12.36345 2.56696 8.55177
#
# Compressibility (1/GPa) = -0.08151777
#
# Stress axis : x y z
#
# Youngs Moduli (GPa) = 41.78557 -25.06372 -11.63211
#
# Poissons Ratio (x) = -0.23577 -0.13977
# Poissons Ratio (y) = 0.39307 0.36794
# Poissons Ratio (z) = 0.50207 0.79279
#
# Static dielectric constant tensor:
#      x y z
#    x 1.686670 0.000000 0.000000 
#    y 0.000000 1.715160 0.000000 
#    z 0.000000 0.000000 1.694300 
# 
# From -- ./inp_files/3720.got.cif
#   From: 2010.05.17/outbox.ucp.g08.bks.cvg/sg38_2_cif.got.tgz:3720.got - 2010.06.11 10:39:43.
