data_PCOD9359523
_publ_section_title
;
Structure prediction by ZEFSAII (Michael W. Deem and Ramdas Pophale) SiO2 
 PCOD9359523
Probable space group: A M M 2
;
_chemical_formula_sum "Si O2"
_cell_formula_units_Z 64
_cell_length_a 14.598409
_cell_length_b 7.410958
_cell_length_c 26.935638
_cell_angle_alpha 90.000000
_cell_angle_beta 90.000000
_cell_angle_gamma 90.000000
_cell_volume 2914.118082
_symmetry_space_group_name_H-M "A M M 2"
_symmetry_group_IT_number 38
_symmetry_cell_setting 'orthorhombic'
loop_
_space_group_symop_operation_xyz
x,y,z
-x,-y,z
-x,y,z
x,-y,z
x,1/2+y,1/2+z
-x,1/2-y,1/2+z
-x,1/2+y,1/2+z
x,1/2-y,1/2+z
loop_
_atom_site_type_symbol
_atom_site_label
_atom_site_fract_x
_atom_site_fract_y
_atom_site_fract_z
Si Si1 0.790540 0.778387 0.370210
Si Si2 0.611385 0.293798 0.224659
Si Si3 0.104604 0.284461 0.163375
Si Si4 0.104506 0.715376 0.772450
Si Si5 0.604523 0.720750 0.115657
Si Si6 0.894281 0.720381 0.969845
Si Si7 0.784751 0.220380 0.567086
Si Si8 0.602296 0.208261 0.335646
O O1 0.840435 0.717761 0.319826
O O2 0.846002 0.723450 0.418803
O O3 0.685522 0.714871 0.367370
O O4 0.789437 0.000000 0.369871
O O5 0.500000 0.293924 0.222459
O O6 0.643627 0.500000 0.227330
O O7 0.637015 0.218664 0.170737
O O8 0.633070 0.208837 0.277667
O O9 0.099936 0.500000 0.158290
O O10 0.145269 0.250156 0.217960
O O11 0.160525 0.219031 0.116107
O O12 0.000000 0.214263 0.163042
O O13 0.099570 0.500000 0.777600
O O14 0.000000 0.785842 0.772546
O O15 0.500000 0.778466 0.106724
O O16 0.603153 0.500000 0.118112
O O17 0.679361 0.774058 0.075223
O O18 0.895027 0.500000 0.970128
O O19 0.000000 0.777871 0.972660
O O20 0.835680 0.779361 0.017414
O O21 0.786055 0.000000 0.566588
O O22 0.500000 0.289189 0.338717
O O23 0.593849 0.000000 0.350248
#
# Coordination Sequence:
#
# PCOD9359523 Si02
#       8
#     8   8   8   8   8   8   8   8
#     4   9  17  28  42  60  83 112 147 183 219 257
#     4   8  14  25  41  60  84 117 152 179 205 248
#     4   9  17  28  42  64  92 114 135 173 224 268
#     4   9  17  29  44  62  85 113 144 177 215 261
#     4   8  14  24  37  56  84 115 146 179 214 255
#     4   9  16  27  43  61  82 112 151 189 221 259
#     4   9  16  25  40  62  87 114 144 179 222 263
#     4   9  17  28  41  60  89 119 144 176 219 260
#
# _framework density 21.962046999999998
#
# number of rings (size 3 to 8) (size 9 to 14) (size 15 to 20)
#    0.000    3.250    0.000    1.500    1.750    3.000 
#    0.000    0.625    0.000    3.750    0.000    1.750 
#    0.000    6.000    0.000    6.875    0.000    7.000 
#
# Total GULP energy -178560.957396 kJ/mol
# GULP energy per Si atom -5580.029919 kJ/mol
# Density = 2.191206 g / cm^3
# Si number density = 21.962047 Si / 1000 Ang^3
#
#
#
# Elastic Constant Matrix: (Units=GPa)
#
#
# Indices 1 2 3 4 5 6 
#
# 1 157.4354 3.3640 107.1309 0.0000 0.0000 0.0000
# 2 3.3640 70.2112 -1.1202 0.0000 0.0000 0.0000
# 3 107.1309 -1.1202 162.2143 0.0000 0.0000 0.0000
# 4 0.0000 0.0000 0.0000 12.0515 0.0000 0.0000
# 5 0.0000 0.0000 0.0000 0.0000 41.7208 0.0000
# 6 0.0000 0.0000 0.0000 0.0000 0.0000 -4.0836
#
#
#
# Elastic Compliance Matrix: (Units=1/GPa)
#
#
# Indices 1 2 3 4 5 6 
#
# 1 0.011568 -0.000676 -0.007645 0.000000 0.000000 0.000000
# 2 -0.000676 0.014284 0.000545 0.000000 0.000000 0.000000
# 3 -0.007645 0.000545 0.011217 0.000000 0.000000 0.000000
# 4 0.000000 0.000000 0.000000 0.082977 0.000000 0.000000
# 5 0.000000 0.000000 0.000000 0.000000 0.023969 0.000000
# 6 0.000000 0.000000 0.000000 0.000000 0.000000 -0.244880
#
#
# Mechanical properties :
#
#
# Convention : Reuss Voigt Hill
#
# Bulk Modulus (GPa) = 46.47276 67.62337 57.04807
# Shear Modulus (GPa) = -63.98673 28.63682 -17.67496
#
# Velocity S-wave (km/s) = -5.40355 3.61490 -2.83997
# Velocity P-wave (km/s) = 4.21008 6.94847 3.90874
#
# Compressibility (1/GPa) = 0.02151798
#
# Stress axis : x y z
#
# Youngs Moduli (GPa) = 86.44315 70.00919 89.14855
#
# Poissons Ratio (x) = 0.04734 0.68151
# Poissons Ratio (y) = 0.05846 -0.04861
# Poissons Ratio (z) = 0.66083 -0.03817
#
# Static dielectric constant tensor:
#      x y z
#    x 1.830300 0.000000 0.000000 
#    y 0.000000 2.062090 0.000000 
#    z 0.000000 0.000000 1.761140 
# 
# From -- ./inp_files/22876.got.cif
#   From: 2010.05.17/outbox.cif.g08.bks.cpg/sg38_12_cif.got.tgz:22876.got - 2010.06.03 18:07:57.
