data_PCOD9359941
_publ_section_title
;
Structure prediction by ZEFSAII (Michael W. Deem and Ramdas Pophale) SiO2 
 PCOD9359941
Probable space group: A B M 2
;
_chemical_formula_sum "Si O2"
_cell_formula_units_Z 40
_cell_length_a 11.229343
_cell_length_b 17.081525
_cell_length_c 9.082399
_cell_angle_alpha 90.000000
_cell_angle_beta 90.000000
_cell_angle_gamma 90.000000
_cell_volume 1742.134035
_symmetry_space_group_name_H-M "A B M 2"
_symmetry_group_IT_number 39
_symmetry_cell_setting 'orthorhombic'
loop_
_space_group_symop_operation_xyz
x,y,z
-x,-y,z
-x,1/2+y,z
x,1/2-y,z
x,1/2+y,1/2+z
-x,1/2-y,1/2+z
-x,y,1/2+z
x,-y,1/2+z
loop_
_atom_site_type_symbol
_atom_site_label
_atom_site_fract_x
_atom_site_fract_y
_atom_site_fract_z
Si Si1 0.786206 0.250000 0.238701
Si Si2 0.000000 0.000000 0.587964
Si Si3 0.388538 0.614098 0.762735
Si Si4 0.143435 0.080894 0.337118
Si Si5 0.402858 0.661490 0.098712
Si Si6 0.067974 0.250000 0.280193
Si Si7 0.268773 0.250000 0.072579
O O1 0.732287 0.326307 0.154977
O O2 0.723920 0.250000 0.398656
O O3 0.926703 0.250000 0.261511
O O4 0.938507 0.061098 0.697034
O O5 0.097285 0.036233 0.479313
O O6 0.278626 0.556741 0.797182
O O7 0.516128 0.600181 0.687381
O O8 0.326287 0.674402 0.649050
O O9 0.411367 0.648799 0.925161
O O10 0.121195 0.173380 0.359246
O O11 0.449453 0.750000 0.131395
O O12 0.130429 0.250000 0.119961
#
# Coordination Sequence:
#
# PCOD9359941 Si02
#       7
#     4   4   8   8   8   4   4
#     4  10  22  31  55  93 139 174 205 273 344 388
#     4  10  24  50  64  96 132 190 200 256 362 408
#     4  11  20  37  58  89 127 174 219 265 316 399
#     4  10  25  43  72  95 136 168 222 272 330 399
#     4  10  20  33  53  87 137 175 202 261 347 377
#     4  10  24  34  64 110 128 160 224 288 316 372
#     4  10  18  33  51  85 135 164 203 273 330 374
#
# _framework density 22.960343999999999
#
# number of rings (size 3 to 8) (size 9 to 14) (size 15 to 20)
#    0.600    1.200    2.000    1.200    8.400    1.600 
#    0.000    0.000    0.000    3.600    0.000    0.000 
#    0.000    0.000    0.000    0.000    0.000    0.000 
#
# Total GULP energy -111565.614090 kJ/mol
# GULP energy per Si atom -5578.280704 kJ/mol
# Density = 2.290808 g / cm^3
# Si number density = 22.960344 Si / 1000 Ang^3
#
#
#
# Elastic Constant Matrix: (Units=GPa)
#
#
# Indices 1 2 3 4 5 6 
#
# 1 128.6346 -2.4863 38.2996 0.0000 0.0000 0.0000
# 2 -2.4863 38.8945 14.4794 0.0000 0.0000 0.0000
# 3 38.2996 14.4794 159.9115 0.0000 0.0000 0.0000
# 4 0.0000 0.0000 0.0000 0.0471 0.0000 0.0000
# 5 0.0000 0.0000 0.0000 0.0000 29.5041 0.0000
# 6 0.0000 0.0000 0.0000 0.0000 0.0000 -5.7910
#
#
#
# Elastic Compliance Matrix: (Units=1/GPa)
#
#
# Indices 1 2 3 4 5 6 
#
# 1 0.008438 0.001337 -0.002142 0.000000 0.000000 0.000000
# 2 0.001337 0.026819 -0.002749 0.000000 0.000000 0.000000
# 3 -0.002142 -0.002749 0.007015 0.000000 0.000000 0.000000
# 4 0.000000 0.000000 0.000000 21.214390 0.000000 0.000000
# 5 0.000000 0.000000 0.000000 0.000000 0.033894 0.000000
# 6 0.000000 0.000000 0.000000 0.000000 0.000000 -0.172683
#
#
# Mechanical properties :
#
#
# Convention : Reuss Voigt Hill
#
# Bulk Modulus (GPa) = 28.43759 47.55843 37.99801
# Shear Modulus (GPa) = 0.23656 23.22859 11.73257
#
# Velocity S-wave (km/s) = 0.32133 3.18415 2.26297
# Velocity P-wave (km/s) = 3.54261 5.85463 4.83874
#
# Compressibility (1/GPa) = 0.03516472
#
# Stress axis : x y z
#
# Youngs Moduli (GPa) = 118.51836 37.28667 142.54523
#
# Poissons Ratio (x) = -0.04984 0.30531
# Poissons Ratio (y) = -0.15843 0.39179
# Poissons Ratio (z) = 0.25385 0.10248
#
# Static dielectric constant tensor:
#      x y z
#    x 1.971620 0.000000 0.000000 
#    y 0.000000 1.882170 0.000000 
#    z 0.000000 0.000000 1.788740 
# 
# From -- ./inp_files/2645.got.cif
#   From: 2010.05.17/outbox.cif.g08.bks.cpg/sg39_2_cif.got.tgz:2645.got - 2010.06.03 18:22:40.
