data_PCOD9359518
_publ_section_title
;
Structure prediction by ZEFSAII (Michael W. Deem and Ramdas Pophale) SiO2 
 PCOD9359518
Probable space group: A M M 2
;
_chemical_formula_sum "Si O2"
_cell_formula_units_Z 48
_cell_length_a 7.368358
_cell_length_b 9.563936
_cell_length_c 36.298823
_cell_angle_alpha 90.000000
_cell_angle_beta 90.000000
_cell_angle_gamma 90.000000
_cell_volume 2557.996364
_symmetry_space_group_name_H-M "A M M 2"
_symmetry_group_IT_number 38
_symmetry_cell_setting 'orthorhombic'
loop_
_space_group_symop_operation_xyz
x,y,z
-x,-y,z
-x,y,z
x,-y,z
x,1/2+y,1/2+z
-x,1/2-y,1/2+z
-x,1/2+y,1/2+z
x,1/2-y,1/2+z
loop_
_atom_site_type_symbol
_atom_site_label
_atom_site_fract_x
_atom_site_fract_y
_atom_site_fract_z
Si Si1 0.721347 0.839372 0.153250
Si Si2 0.285933 0.166463 0.929975
Si Si3 0.000000 0.329957 0.369584
Si Si4 0.715519 0.834678 0.725142
Si Si5 0.279358 0.838381 0.501010
Si Si6 0.278842 0.161878 0.583247
Si Si7 0.000000 0.669462 0.286032
O O1 0.500000 0.838615 0.152700
O O2 0.773705 0.754048 0.189683
O O3 0.781970 0.760006 0.116367
O O4 0.779768 0.000000 0.154332
O O5 0.500000 0.193232 0.924979
O O6 0.221606 0.244710 0.966790
O O7 0.173456 0.210510 0.894112
O O8 0.261578 0.000000 0.934925
O O9 0.000000 0.277118 0.327778
O O10 0.000000 0.500000 0.367732
O O11 0.500000 0.817149 0.730446
O O12 0.826030 0.792163 0.761408
O O13 0.748958 0.000000 0.718215
O O14 0.500000 0.834548 0.501215
O O15 0.221556 0.794168 0.542091
O O16 0.226113 0.000000 0.495925
O O17 0.500000 0.163314 0.583489
O O18 0.225489 0.000000 0.588969
O O19 0.000000 0.500000 0.288310
#
# Coordination Sequence:
#
# PCOD9359518 Si02
#       7
#     8   8   4   8   8   8   4
#     4   9  16  25  40  65  96 128 159 192 232 276
#     4   9  17  29  47  70  95 125 157 189 231 280
#     4   9  18  32  49  72  99 120 147 194 241 279
#     4   9  17  30  49  71  94 122 156 193 232 275
#     4   8  14  25  42  65  94 127 160 195 233 270
#     4   8  13  22  38  62  92 125 161 198 232 268
#     4   9  18  32  51  74  95 118 153 194 235 281
#
# _framework density 18.764685
#
# number of rings (size 3 to 8) (size 9 to 14) (size 15 to 20)
#    0.000    3.333    0.000    1.500    0.000    3.333 
#    0.000    7.500    0.000    3.000    0.000    5.833 
#    0.000    0.000    0.000    0.000    0.000    0.000 
#
# Total GULP energy -133817.830768 kJ/mol
# GULP energy per Si atom -5575.742949 kJ/mol
# Density = 1.872198 g / cm^3
# Si number density = 18.764685 Si / 1000 Ang^3
#
#
#
# Elastic Constant Matrix: (Units=GPa)
#
#
# Indices 1 2 3 4 5 6 
#
# 1 76.0921 31.3515 58.2204 0.0000 0.0000 0.0000
# 2 31.3515 62.3028 89.5599 0.0000 0.0000 0.0000
# 3 58.2204 89.5599 233.4550 0.0000 0.0000 0.0000
# 4 0.0000 0.0000 0.0000 25.2170 0.0000 0.0000
# 5 0.0000 0.0000 0.0000 0.0000 52.0352 0.0000
# 6 0.0000 0.0000 0.0000 0.0000 0.0000 -0.5753
#
#
#
# Elastic Compliance Matrix: (Units=1/GPa)
#
#
# Indices 1 2 3 4 5 6 
#
# 1 0.017046 -0.005500 -0.002141 0.000000 0.000000 0.000000
# 2 -0.005500 0.037559 -0.013037 0.000000 0.000000 0.000000
# 3 -0.002141 -0.013037 0.009819 0.000000 0.000000 0.000000
# 4 0.000000 0.000000 0.000000 0.039656 0.000000 0.000000
# 5 0.000000 0.000000 0.000000 0.000000 0.019218 0.000000
# 6 0.000000 0.000000 0.000000 0.000000 0.000000 -1.738148
#
#
# Mechanical properties :
#
#
# Convention : Reuss Voigt Hill
#
# Bulk Modulus (GPa) = 43.35060 81.12369 62.23715
# Shear Modulus (GPa) = -3.19325 28.18323 12.49499
#
# Velocity S-wave (km/s) = -1.30592 3.87968 2.58326
# Velocity P-wave (km/s) = 4.56930 7.96211 6.49129
#
# Compressibility (1/GPa) = 0.02306773
#
# Stress axis : x y z
#
# Youngs Moduli (GPa) = 58.66353 26.62477 101.84506
#
# Poissons Ratio (x) = 0.14644 0.21807
# Poissons Ratio (y) = 0.32265 1.32776
# Poissons Ratio (z) = 0.12561 0.34711
#
# Static dielectric constant tensor:
#      x y z
#    x 1.712720 0.000000 0.000000 
#    y 0.000000 1.621000 0.000000 
#    z 0.000000 0.000000 1.626970 
# 
# From -- ./inp_files/24397.got.cif
#   From: 2010.05.17/outbox.cif.g08.bks.cpg/sg38_13_cif.got.tgz:24397.got - 2010.06.03 18:07:57.
