data_PCOD9359000
_publ_section_title
;
Structure prediction by ZEFSAII (Michael W. Deem and Ramdas Pophale) SiO2 
 PCOD9359000
Probable space group: A M M 2
;
_chemical_formula_sum "Si O2"
_cell_formula_units_Z 48
_cell_length_a 10.341957
_cell_length_b 8.576977
_cell_length_c 28.194853
_cell_angle_alpha 90.000000
_cell_angle_beta 90.000000
_cell_angle_gamma 90.000000
_cell_volume 2500.960358
_symmetry_space_group_name_H-M "A M M 2"
_symmetry_group_IT_number 38
_symmetry_cell_setting 'orthorhombic'
loop_
_space_group_symop_operation_xyz
x,y,z
-x,-y,z
-x,y,z
x,-y,z
x,1/2+y,1/2+z
-x,1/2-y,1/2+z
-x,1/2+y,1/2+z
x,1/2-y,1/2+z
loop_
_atom_site_type_symbol
_atom_site_label
_atom_site_fract_x
_atom_site_fract_y
_atom_site_fract_z
Si Si1 0.000000 0.314605 0.562551
Si Si2 0.768930 0.813152 0.739537
Si Si3 0.646679 0.809894 0.420192
Si Si4 0.500000 0.187066 0.201088
Si Si5 0.729270 0.187322 0.526140
Si Si6 0.500000 0.186989 0.090966
Si Si7 0.000000 0.311693 0.168946
Si Si8 0.852800 0.188648 0.341865
O O1 0.128614 0.246698 0.538590
O O2 0.000000 0.265046 0.617644
O O3 0.000000 0.500000 0.558793
O O4 0.628818 0.749399 0.725925
O O5 0.873896 0.767448 0.699544
O O6 0.814491 0.749750 0.790212
O O7 0.766109 0.000000 0.741256
O O8 0.500000 0.759070 0.409831
O O9 0.686655 0.763147 0.473301
O O10 0.750243 0.757428 0.381269
O O11 0.646911 0.000000 0.419599
O O12 0.500000 0.236519 0.145876
O O13 0.500000 0.000000 0.202947
O O14 0.625852 0.250624 0.563792
O O15 0.727259 0.000000 0.527847
O O16 0.500000 0.000000 0.089426
O O17 0.000000 0.500000 0.163273
O O18 0.000000 0.236060 0.353205
O O19 0.849304 0.000000 0.340881
#
# Coordination Sequence:
#
# PCOD9359000 Si02
#       8
#     4   8   8   4   8   4   4   8
#     4  12  26  40  59  92 129 163 204 261 313 362
#     4  11  23  41  63  90 124 159 201 255 307 361
#     4   9  19  37  62  92 120 154 205 253 292 352
#     4  11  25  41  60  89 122 163 206 249 300 365
#     4  11  22  40  66  92 123 166 211 253 301 365
#     4  11  23  41  64  93 128 161 202 257 314 365
#     4  10  22  42  65  88 119 163 208 251 301 368
#     4  10  21  37  62  92 122 159 202 249 301 359
#
# _framework density 19.192627999999999
#
# number of rings (size 3 to 8) (size 9 to 14) (size 15 to 20)
#    0.000    1.500    1.667    3.250    2.333    5.333 
#    0.000    1.667    0.000    0.000    0.000    0.000 
#    0.000    0.000    0.000    0.000    0.000    0.000 
#
# Total GULP energy -134190.475868 kJ/mol
# GULP energy per Si atom -5591.269828 kJ/mol
# Density = 1.914894 g / cm^3
# Si number density = 19.192628 Si / 1000 Ang^3
#
#
#
# Elastic Constant Matrix: (Units=GPa)
#
#
# Indices 1 2 3 4 5 6 
#
# 1 207.9591 32.9295 83.2043 0.0000 0.0000 0.0000
# 2 32.9295 33.7396 23.1443 0.0000 0.0000 0.0000
# 3 83.2043 23.1443 118.4394 0.0000 0.0000 0.0000
# 4 0.0000 0.0000 0.0000 29.0371 0.0000 0.0000
# 5 0.0000 0.0000 0.0000 0.0000 44.7883 0.0000
# 6 0.0000 0.0000 0.0000 0.0000 0.0000 26.1411
#
#
#
# Elastic Compliance Matrix: (Units=1/GPa)
#
#
# Indices 1 2 3 4 5 6 
#
# 1 0.007143 -0.004076 -0.004222 0.000000 0.000000 0.000000
# 2 -0.004076 0.036552 -0.004280 0.000000 0.000000 0.000000
# 3 -0.004222 -0.004280 0.012245 0.000000 0.000000 0.000000
# 4 0.000000 0.000000 0.000000 0.034439 0.000000 0.000000
# 5 0.000000 0.000000 0.000000 0.000000 0.022327 0.000000
# 6 0.000000 0.000000 0.000000 0.000000 0.000000 0.038254
#
#
# Mechanical properties :
#
#
# Convention : Reuss Voigt Hill
#
# Bulk Modulus (GPa) = 32.48145 70.96601 51.72373
# Shear Modulus (GPa) = 26.82748 34.71731 30.77239
#
# Velocity S-wave (km/s) = 3.74277 4.25772 4.00852
# Velocity P-wave (km/s) = 5.96980 7.82476 6.95936
#
# Compressibility (1/GPa) = 0.03078681
#
# Stress axis : x y z
#
# Youngs Moduli (GPa) = 139.99593 27.35813 81.66530
#
# Poissons Ratio (x) = 0.11150 0.34476
# Poissons Ratio (y) = 0.57058 0.34949
# Poissons Ratio (z) = 0.59101 0.11708
#
# Static dielectric constant tensor:
#      x y z
#    x 1.642240 0.000000 0.000000 
#    y 0.000000 1.649030 0.000000 
#    z 0.000000 0.000000 1.634680 
# 
# From -- ./inp_files/24463.got.cif
#   From: 2010.05.17/outbox.cif.g08.bks.cpg/sg38_13_cif.got.tgz:24463.got - 2010.06.03 18:07:57.
