data_PCOD9359215
_publ_section_title
;
Structure prediction by ZEFSAII (Michael W. Deem and Ramdas Pophale) SiO2 
 PCOD9359215
Probable space group: A M M 2
;
_chemical_formula_sum "Si O2"
_cell_formula_units_Z 44
_cell_length_a 14.149272
_cell_length_b 11.756677
_cell_length_c 15.467613
_cell_angle_alpha 90.000000
_cell_angle_beta 90.000000
_cell_angle_gamma 90.000000
_cell_volume 2573.012994
_symmetry_space_group_name_H-M "A M M 2"
_symmetry_group_IT_number 38
_symmetry_cell_setting 'orthorhombic'
loop_
_space_group_symop_operation_xyz
x,y,z
-x,-y,z
-x,y,z
x,-y,z
x,1/2+y,1/2+z
-x,1/2-y,1/2+z
-x,1/2+y,1/2+z
x,1/2-y,1/2+z
loop_
_atom_site_type_symbol
_atom_site_label
_atom_site_fract_x
_atom_site_fract_y
_atom_site_fract_z
Si Si1 0.298562 0.635633 0.600810
Si Si2 0.241698 0.500000 0.182603
Si Si3 0.500000 0.361562 0.321332
Si Si4 0.500000 0.863716 0.022797
Si Si5 0.295832 0.224754 0.770971
Si Si6 0.111831 0.500000 0.016144
Si Si7 0.247884 0.809896 0.460475
Si Si8 0.386259 0.000000 0.531035
O O1 0.285349 0.500000 0.593299
O O2 0.406308 0.666290 0.574469
O O3 0.282433 0.680489 0.697300
O O4 0.241118 0.708643 0.530415
O O5 0.241517 0.612574 0.239340
O O6 0.159321 0.500000 0.111463
O O7 0.339651 0.500000 0.126622
O O8 0.500000 0.500000 0.316536
O O9 0.500000 0.326051 0.423066
O O10 0.594375 0.311519 0.279410
O O11 0.500000 0.000000 0.016870
O O12 0.262505 0.264073 0.864750
O O13 0.000000 0.500000 0.018028
O O14 0.157150 0.390427 0.969758
O O15 0.337856 0.890492 0.485491
O O16 0.500000 0.000000 0.530178
#
# Coordination Sequence:
#
# PCOD9359215 Si02
#       8
#     8   4   4   4   8   4   8   4
#     4  11  22  36  55  81 125 168 201 249 292 358
#     4  10  22  38  62  94 113 164 209 263 300 354
#     4  11  21  30  55  84 120 183 215 252 279 346
#     4   9  19  34  44  75 119 174 217 227 282 335
#     4  12  22  36  57  89 129 158 221 246 300 355
#     4  10  22  50  74  89 114 154 204 265 340 380
#     4  10  23  39  60  93 117 159 204 249 317 366
#     4  10  22  38  54  79 123 170 215 256 292 348
#
# _framework density 17.100574000000002
#
# number of rings (size 3 to 8) (size 9 to 14) (size 15 to 20)
#    0.000    1.636    6.364    0.545    7.636    0.000 
#    0.000    0.909    0.000    0.545    0.000    0.000 
#    0.000    0.000    0.000    0.000    0.000    0.000 
#
# Total GULP energy -122779.047851 kJ/mol
# GULP energy per Si atom -5580.865811 kJ/mol
# Density = 1.706165 g / cm^3
# Si number density = 17.100574 Si / 1000 Ang^3
#
#
#
# Elastic Constant Matrix: (Units=GPa)
#
#
# Indices 1 2 3 4 5 6 
#
# 1 105.9540 43.0504 31.8745 0.0000 0.0000 0.0000
# 2 43.0504 122.6820 70.9478 0.0000 0.0000 0.0000
# 3 31.8745 70.9478 141.7107 0.0000 0.0000 0.0000
# 4 0.0000 0.0000 0.0000 37.1771 0.0000 0.0000
# 5 0.0000 0.0000 0.0000 0.0000 6.9407 0.0000
# 6 0.0000 0.0000 0.0000 0.0000 0.0000 5.1649
#
#
#
# Elastic Compliance Matrix: (Units=1/GPa)
#
#
# Indices 1 2 3 4 5 6 
#
# 1 0.011066 -0.003440 -0.000767 0.000000 0.000000 0.000000
# 2 -0.003440 0.012542 -0.005506 0.000000 0.000000 0.000000
# 3 -0.000767 -0.005506 0.009986 0.000000 0.000000 0.000000
# 4 0.000000 0.000000 0.000000 0.026898 0.000000 0.000000
# 5 0.000000 0.000000 0.000000 0.000000 0.144077 0.000000
# 6 0.000000 0.000000 0.000000 0.000000 0.000000 0.193615
#
#
# Mechanical properties :
#
#
# Convention : Reuss Voigt Hill
#
# Bulk Modulus (GPa) = 70.57452 73.56577 72.07015
# Shear Modulus (GPa) = 11.83903 24.82148 18.33026
#
# Velocity S-wave (km/s) = 2.63405 3.81399 3.27755
# Velocity P-wave (km/s) = 7.11413 7.90621 7.52061
#
# Compressibility (1/GPa) = 0.01416942
#
# Stress axis : x y z
#
# Youngs Moduli (GPa) = 90.36354 79.73160 100.14513
#
# Poissons Ratio (x) = 0.27426 0.07681
# Poissons Ratio (y) = 0.31083 0.55135
# Poissons Ratio (z) = 0.06931 0.43896
#
# Static dielectric constant tensor:
#      x y z
#    x 1.554900 0.000000 0.000000 
#    y 0.000000 1.629140 0.000000 
#    z 0.000000 0.000000 1.578910 
# 
# From -- ./inp_files/14461.got.cif
#   From: 2010.05.17/outbox.cif.g08.bks.cpg/sg38_8_cif.got.tgz:14461.got - 2010.06.03 18:07:57.
