data_PCOD9359417
_publ_section_title
;
Structure prediction by ZEFSAII (Michael W. Deem and Ramdas Pophale) SiO2 
 PCOD9359417
Probable space group: A M M 2
;
_chemical_formula_sum "Si O2"
_cell_formula_units_Z 64
_cell_length_a 21.153137
_cell_length_b 16.655693
_cell_length_c 9.472547
_cell_angle_alpha 90.000000
_cell_angle_beta 90.000000
_cell_angle_gamma 90.000000
_cell_volume 3337.369235
_symmetry_space_group_name_H-M "A M M 2"
_symmetry_group_IT_number 38
_symmetry_cell_setting 'orthorhombic'
loop_
_space_group_symop_operation_xyz
x,y,z
-x,-y,z
-x,y,z
x,-y,z
x,1/2+y,1/2+z
-x,1/2-y,1/2+z
-x,1/2+y,1/2+z
x,1/2-y,1/2+z
loop_
_atom_site_type_symbol
_atom_site_label
_atom_site_fract_x
_atom_site_fract_y
_atom_site_fract_z
Si Si1 0.729241 0.772367 0.400620
Si Si2 0.068791 0.905593 0.309850
Si Si3 0.575841 0.907679 0.680113
Si Si4 0.575206 0.911629 0.018003
Si Si5 0.149224 0.309062 0.258712
Si Si6 0.925824 0.809206 0.046486
Si Si7 0.355627 0.740381 0.642103
Si Si8 0.184351 0.406005 0.001513
O O1 0.786766 0.727792 0.323523
O O2 0.706988 0.732895 0.545888
O O3 0.668452 0.769956 0.300923
O O4 0.755100 0.859089 0.444533
O O5 0.078568 0.887999 0.145362
O O6 0.125377 0.875116 0.406348
O O7 0.000000 0.870495 0.348361
O O8 0.066357 0.000000 0.334113
O O9 0.500000 0.899110 0.655808
O O10 0.612416 0.828703 0.622385
O O11 0.593325 0.000000 0.634466
O O12 0.586717 0.905091 0.849577
O O13 0.500000 0.912561 0.036543
O O14 0.601413 0.834133 0.097019
O O15 0.599915 0.000000 0.063949
O O16 0.114066 0.252499 0.143853
O O17 0.103407 0.321354 0.392255
O O18 0.169274 0.384750 0.163458
O O19 0.000000 0.787454 0.037938
O O20 0.191330 0.500000 0.982281
#
# Coordination Sequence:
#
# PCOD9359417 Si02
#       8
#     8   8   8   8   8   8   8   8
#     4  12  24  40  60  85 123 167 206 253 298 361
#     4   9  19  37  60  87 119 154 194 247 315 381
#     4   9  19  38  64  94 129 167 206 252 310 372
#     4   9  19  38  64  95 128 160 201 255 312 369
#     4  12  22  41  58  85 124 157 206 255 308 370
#     4  11  21  35  64  92 117 154 203 258 314 379
#     4  12  22  39  64  92 123 166 215 256 305 361
#     4  11  24  42  63  86 120 162 203 255 316 370
#
# _framework density 19.176783
#
# number of rings (size 3 to 8) (size 9 to 14) (size 15 to 20)
#    0.000    1.375    5.000    1.500    0.000    3.500 
#    0.000    0.625    0.000    1.500    0.000    0.000 
#    0.000    0.000    0.000    0.000    0.000    0.000 
#
# Total GULP energy -178397.737638 kJ/mol
# GULP energy per Si atom -5574.929301 kJ/mol
# Density = 1.913314 g / cm^3
# Si number density = 19.176783 Si / 1000 Ang^3
#
#
#
# Elastic Constant Matrix: (Units=GPa)
#
#
# Indices 1 2 3 4 5 6 
#
# 1 62.0664 42.0191 20.0777 0.0000 0.0000 0.0000
# 2 42.0191 95.4552 25.4206 0.0000 0.0000 0.0000
# 3 20.0777 25.4206 79.0926 0.0000 0.0000 0.0000
# 4 0.0000 0.0000 0.0000 23.1004 0.0000 0.0000
# 5 0.0000 0.0000 0.0000 0.0000 22.4192 0.0000
# 6 0.0000 0.0000 0.0000 0.0000 0.0000 19.8176
#
#
#
# Elastic Compliance Matrix: (Units=1/GPa)
#
#
# Indices 1 2 3 4 5 6 
#
# 1 0.023542 -0.009593 -0.002893 0.000000 0.000000 0.000000
# 2 -0.009593 0.015365 -0.002503 0.000000 0.000000 0.000000
# 3 -0.002893 -0.002503 0.014182 0.000000 0.000000 0.000000
# 4 0.000000 0.000000 0.000000 0.043289 0.000000 0.000000
# 5 0.000000 0.000000 0.000000 0.000000 0.044605 0.000000
# 6 0.000000 0.000000 0.000000 0.000000 0.000000 0.050460
#
#
# Mechanical properties :
#
#
# Convention : Reuss Voigt Hill
#
# Bulk Modulus (GPa) = 43.26829 45.73878 44.50353
# Shear Modulus (GPa) = 21.82208 23.00723 22.41466
#
# Velocity S-wave (km/s) = 3.37700 3.46749 3.42254
# Velocity P-wave (km/s) = 6.14958 6.31935 6.23504
#
# Compressibility (1/GPa) = 0.02311162
#
# Stress axis : x y z
#
# Youngs Moduli (GPa) = 42.47754 65.08107 70.50992
#
# Poissons Ratio (x) = 0.62430 0.20399
# Poissons Ratio (y) = 0.40747 0.17652
# Poissons Ratio (z) = 0.12289 0.16292
#
# Static dielectric constant tensor:
#      x y z
#    x 1.714630 0.000000 0.000000 
#    y 0.000000 1.693650 0.000000 
#    z 0.000000 0.000000 1.648610 
# 
# From -- ./inp_files/6832.got.cif
#   From: 2010.05.17/outbox.cif.g08.bks.cpg/sg38_4_cif.got.tgz:6832.got - 2010.06.03 18:07:57.
