data_PCOD9359569
_publ_section_title
;
Structure prediction by ZEFSAII (Michael W. Deem and Ramdas Pophale) SiO2 
 PCOD9359569
Probable space group: A M M 2
;
_chemical_formula_sum "Si O2"
_cell_formula_units_Z 32
_cell_length_a 9.000000
_cell_length_b 24.000000
_cell_length_c 15.000000
_cell_angle_alpha 90.000000
_cell_angle_beta 90.000000
_cell_angle_gamma 90.000000
_cell_volume 3240.000000
_symmetry_space_group_name_H-M "A M M 2"
_symmetry_group_IT_number 38
_symmetry_cell_setting 'orthorhombic'
loop_
_space_group_symop_operation_xyz
x,y,z
-x,-y,z
-x,y,z
x,-y,z
x,1/2+y,1/2+z
-x,1/2-y,1/2+z
-x,1/2+y,1/2+z
x,1/2-y,1/2+z
loop_
_atom_site_type_symbol
_atom_site_label
_atom_site_fract_x
_atom_site_fract_y
_atom_site_fract_z
Si Si1 0.673304 0.225758 0.169360
Si Si2 0.678300 0.884242 0.063238
Si Si3 0.168812 0.563198 0.714572
Si Si4 0.176825 0.109578 0.393575
Si Si5 0.822948 0.838635 0.689612
Si Si6 0.331530 0.216826 0.384442
Si Si7 0.818551 0.940350 0.572211
Si Si8 0.676019 0.156801 0.880659
O O1 0.500000 0.234682 0.147914
O O2 0.725592 0.171755 0.116157
O O3 0.764011 0.281026 0.150166
O O4 0.682648 0.218381 0.276574
O O5 0.500000 0.885082 0.063501
O O6 0.742378 0.932394 0.123821
O O7 0.726389 0.882375 0.960951
O O8 0.161873 0.500000 0.746291
O O9 0.240060 0.596913 0.796078
O O10 0.000000 0.582782 0.697830
O O11 0.217588 0.171998 0.420287
O O12 0.229173 0.068804 0.470599
O O13 0.000000 0.103269 0.385645
O O14 0.766459 0.889644 0.631182
O O15 0.764107 0.846732 0.789597
O O16 0.000000 0.837844 0.690392
O O17 0.500000 0.199796 0.406018
O O18 0.308555 0.279720 0.415704
O O19 0.000000 0.938952 0.572180
O O20 0.770759 0.000000 0.606870
O O21 0.500000 0.149081 0.862764
#
# Coordination Sequence:
#
# PCOD9359569 Si02
#       8
#     8   8   8   8   8   8   8   8
#     4   9  18  33  53  76 107 143 174 212 265 320
#     4  10  20  36  57  79 105 145 188 220 262 322
#     4  10  21  36  54  79 112 145 177 222 276 320
#     4  10  19  32  53  79 106 141 178 214 259 316
#     4  10  20  34  55  81 106 137 181 227 270 315
#     4   9  17  31  50  75 107 139 171 209 259 314
#     4   9  19  36  55  76 105 141 181 221 266 322
#     4   9  20  37  55  76 108 146 179 217 270 325
#
# _framework density 9.8765429999999999
#
# number of rings (size 3 to 8) (size 9 to 14) (size 15 to 20)
#    0.000    2.500    1.250    1.500    1.750    4.750 
#    0.000    1.250    0.000    6.375    0.000    0.000 
#    0.000    0.000    0.000    0.000    0.000    0.000 
#
# Total GULP energy -178300.218305 kJ/mol
# GULP energy per Si atom -5571.881822 kJ/mol
# Density = 0.985406 g / cm^3
# Si number density = 9.876543 Si / 1000 Ang^3
#
#
#
# Elastic Constant Matrix: (Units=GPa)
#
#
# Indices 1 2 3 4 5 6 
#
# 1 1.5125 21.6598 11.6381 0.0000 0.0000 0.0000
# 2 21.6598 67.1425 22.9767 0.0000 0.0000 0.0000
# 3 11.6381 22.9767 38.9263 0.0000 0.0000 0.0000
# 4 0.0000 0.0000 0.0000 21.1254 0.0000 0.0000
# 5 0.0000 0.0000 0.0000 0.0000 9.4544 0.0000
# 6 0.0000 0.0000 0.0000 0.0000 0.0000 60.0348
#
#
#
# Elastic Compliance Matrix: (Units=1/GPa)
#
#
# Indices 1 2 3 4 5 6 
#
# 1 -0.165297 0.045629 0.022487 0.000000 0.000000 0.000000
# 2 0.045629 0.006068 -0.017224 0.000000 0.000000 0.000000
# 3 0.022487 -0.017224 0.029133 0.000000 0.000000 0.000000
# 4 0.000000 0.000000 0.000000 0.047336 0.000000 0.000000
# 5 0.000000 0.000000 0.000000 0.000000 0.105770 0.000000
# 6 0.000000 0.000000 0.000000 0.000000 0.000000 0.016657
#
#
# Mechanical properties :
#
#
# Convention : Reuss Voigt Hill
#
# Bulk Modulus (GPa) = -35.32085 24.45894 -5.43095
# Shear Modulus (GPa) = -69.87711 21.54337 -24.16687
#
# Velocity S-wave (km/s) = -5.95417 3.30606 -3.50158
# Velocity P-wave (km/s) = 8.07400 5.19447 4.37075
#
# Compressibility (1/GPa) = -0.02831189
#
# Stress axis : x y z
#
# Youngs Moduli (GPa) = -6.04970 164.79336 34.32540
#
# Poissons Ratio (x) = -7.51931 -0.77188
# Poissons Ratio (y) = 0.27604 0.59121
# Poissons Ratio (z) = 0.13604 2.83836
#
# Static dielectric constant tensor:
#      x y z
#    x 1.679830 0.000000 0.000000 
#    y 0.000000 1.698490 0.000000 
#    z 0.000000 0.000000 1.710670 
# 
# From -- ./inp_files/12821.got.cif
#   From: 2010.05.17/outbox.ucp.g08.bks.cvg/sg38_7_cif.got.tgz:12821.got - 2010.06.11 10:39:43.
