data_PCOD9359386
_publ_section_title
;
Structure prediction by ZEFSAII (Michael W. Deem and Ramdas Pophale) SiO2 
 PCOD9359386
Probable space group: A M M 2
;
_chemical_formula_sum "Si O2"
_cell_formula_units_Z 48
_cell_length_a 8.449897
_cell_length_b 18.733607
_cell_length_c 15.265886
_cell_angle_alpha 90.000000
_cell_angle_beta 90.000000
_cell_angle_gamma 90.000000
_cell_volume 2416.544713
_symmetry_space_group_name_H-M "A M M 2"
_symmetry_group_IT_number 38
_symmetry_cell_setting 'orthorhombic'
loop_
_space_group_symop_operation_xyz
x,y,z
-x,-y,z
-x,y,z
x,-y,z
x,1/2+y,1/2+z
-x,1/2-y,1/2+z
-x,1/2+y,1/2+z
x,1/2-y,1/2+z
loop_
_atom_site_type_symbol
_atom_site_label
_atom_site_fract_x
_atom_site_fract_y
_atom_site_fract_z
Si Si1 0.311985 0.619327 0.942760
Si Si2 0.313077 0.229321 0.195219
Si Si3 0.309402 0.000000 0.776932
Si Si4 0.811134 0.077965 0.258345
Si Si5 0.190166 0.346513 0.336072
Si Si6 0.691764 0.500000 0.077734
Si Si7 0.185007 0.737045 0.502620
O O1 0.500000 0.634243 0.948551
O O2 0.274619 0.581141 0.851990
O O3 0.212207 0.690938 0.948040
O O4 0.262012 0.569243 0.022960
O O5 0.500000 0.225781 0.209490
O O6 0.241220 0.150578 0.211234
O O7 0.248513 0.289625 0.262398
O O8 0.275406 0.246268 0.093975
O O9 0.249559 0.926151 0.817620
O O10 0.251781 0.000000 0.676234
O O11 0.500000 0.000000 0.778051
O O12 0.000000 0.081057 0.270806
O O13 0.774622 0.000000 0.216971
O O14 0.241254 0.322850 0.434030
O O15 0.000000 0.344434 0.334236
O O16 0.500000 0.500000 0.078936
O O17 0.000000 0.726051 0.522385
#
# Coordination Sequence:
#
# PCOD9359386 Si02
#       7
#     8   8   4   8   8   4   8
#     4  11  20  35  61  92 127 163 207 260 318 376
#     4  12  25  42  68  97 128 167 217 270 323 383
#     4  11  23  41  65  94 129 170 217 267 322 376
#     4  11  23  40  62  91 129 170 211 257 319 384
#     4  11  24  44  68  94 130 173 216 264 324 387
#     4   9  20  35  55  90 127 160 199 255 318 376
#     4  11  24  42  65  92 126 170 218 264 319 385
#
# _framework density 19.86307
#
# number of rings (size 3 to 8) (size 9 to 14) (size 15 to 20)
#    0.000    1.000    2.500    4.750    0.000    4.333 
#    1.500    2.500    0.000    0.000    0.000    0.000 
#    0.000    0.000    0.000    0.000    0.000    0.000 
#
# Total GULP energy -134075.380243 kJ/mol
# GULP energy per Si atom -5586.474177 kJ/mol
# Density = 1.981786 g / cm^3
# Si number density = 19.863070 Si / 1000 Ang^3
#
#
#
# Elastic Constant Matrix: (Units=GPa)
#
#
# Indices 1 2 3 4 5 6 
#
# 1 55.0372 14.2689 11.7293 0.0000 0.0000 0.0000
# 2 14.2689 119.8133 17.6277 0.0000 0.0000 0.0000
# 3 11.7293 17.6277 55.6809 0.0000 0.0000 0.0000
# 4 0.0000 0.0000 0.0000 24.8273 0.0000 0.0000
# 5 0.0000 0.0000 0.0000 0.0000 28.3822 0.0000
# 6 0.0000 0.0000 0.0000 0.0000 0.0000 55.1542
#
#
#
# Elastic Compliance Matrix: (Units=1/GPa)
#
#
# Indices 1 2 3 4 5 6 
#
# 1 0.019383 -0.001791 -0.003516 0.000000 0.000000 0.000000
# 2 -0.001791 0.008920 -0.002446 0.000000 0.000000 0.000000
# 3 -0.003516 -0.002446 0.019475 0.000000 0.000000 0.000000
# 4 0.000000 0.000000 0.000000 0.040278 0.000000 0.000000
# 5 0.000000 0.000000 0.000000 0.000000 0.035233 0.000000
# 6 0.000000 0.000000 0.000000 0.000000 0.000000 0.018131
#
#
# Mechanical properties :
#
#
# Convention : Reuss Voigt Hill
#
# Bulk Modulus (GPa) = 30.98841 35.30923 33.14882
# Shear Modulus (GPa) = 29.81796 34.13310 31.97553
#
# Velocity S-wave (km/s) = 3.87870 4.14988 4.01658
# Velocity P-wave (km/s) = 5.97445 6.38568 6.18348
#
# Compressibility (1/GPa) = 0.03227013
#
# Stress axis : x y z
#
# Youngs Moduli (GPa) = 51.59101 112.11300 51.34873
#
# Poissons Ratio (x) = 0.20081 0.18055
# Poissons Ratio (y) = 0.09240 0.12562
# Poissons Ratio (z) = 0.18140 0.27428
#
# Static dielectric constant tensor:
#      x y z
#    x 1.672710 0.000000 0.000000 
#    y 0.000000 1.737070 0.000000 
#    z 0.000000 0.000000 1.688460 
# 
# From -- ./inp_files/12135.got.cif
#   From: 2010.05.17/outbox.cif.g08.bks.cpg/sg38_7_cif.got.tgz:12135.got - 2010.06.03 18:07:57.
