data_PCOD9359604
_publ_section_title
;
Structure prediction by ZEFSAII (Michael W. Deem and Ramdas Pophale) SiO2 
 PCOD9359604
Probable space group: A M M 2
;
_chemical_formula_sum "Si O2"
_cell_formula_units_Z 32
_cell_length_a 9.000000
_cell_length_b 30.000000
_cell_length_c 12.000000
_cell_angle_alpha 90.000000
_cell_angle_beta 90.000000
_cell_angle_gamma 90.000000
_cell_volume 3240.000000
_symmetry_space_group_name_H-M "A M M 2"
_symmetry_group_IT_number 38
_symmetry_cell_setting 'orthorhombic'
loop_
_space_group_symop_operation_xyz
x,y,z
-x,-y,z
-x,y,z
x,-y,z
x,1/2+y,1/2+z
-x,1/2-y,1/2+z
-x,1/2+y,1/2+z
x,1/2-y,1/2+z
loop_
_atom_site_type_symbol
_atom_site_label
_atom_site_fract_x
_atom_site_fract_y
_atom_site_fract_z
Si Si1 0.824807 0.590418 0.833430
Si Si2 0.329217 0.173388 0.222565
Si Si3 0.821979 0.859453 0.544505
Si Si4 0.668393 0.190537 0.964094
Si Si5 0.174323 0.775594 0.393406
Si Si6 0.167080 0.053525 0.922439
Si Si7 0.663236 0.948108 0.139762
Si Si8 0.327814 0.882749 0.773163
O O1 0.780326 0.635743 0.769216
O O2 0.734098 0.555615 0.761148
O O3 0.000000 0.582075 0.827095
O O4 0.781830 0.600061 0.960631
O O5 0.500000 0.165659 0.257496
O O6 0.322505 0.174636 0.090608
O O7 0.268924 0.217826 0.281182
O O8 0.778372 0.813974 0.481161
O O9 0.753027 0.865223 0.664215
O O10 0.000000 0.858970 0.552809
O O11 0.500000 0.208699 0.948318
O O12 0.788523 0.228302 0.944058
O O13 0.689264 0.151790 0.874716
O O14 0.000000 0.781203 0.370832
O O15 0.261601 0.071682 0.820517
O O16 0.000000 0.070467 0.912171
O O17 0.164128 0.000000 0.922322
O O18 0.234791 0.069371 0.040253
O O19 0.500000 0.926789 0.136528
O O20 0.647632 0.000000 0.115032
O O21 0.500000 0.887850 0.748196
#
# Coordination Sequence:
#
# PCOD9359604 Si02
#       8
#     8   8   8   8   8   8   8   8
#     4  10  20  36  58  82 110 146 189 233 281 339
#     4  10  20  36  57  79 108 143 181 229 281 336
#     4   9  21  40  57  79 112 151 194 238 287 344
#     4  10  23  38  54  81 113 146 186 233 284 341
#     4  10  22  38  57  81 110 146 189 236 287 342
#     4  10  21  38  61  88 119 155 193 238 294 350
#     4  10  20  34  56  87 120 150 184 232 288 345
#     4  11  23  38  59  87 116 152 197 242 292 351
#
# _framework density 9.8765429999999999
#
# number of rings (size 3 to 8) (size 9 to 14) (size 15 to 20)
#    0.000    2.000    0.000    3.750    1.750    7.500 
#    0.000    0.625    0.000    0.750    0.000    0.000 
#    0.000    0.000    0.000    0.000    0.000    0.000 
#
# Total GULP energy -178450.042359 kJ/mol
# GULP energy per Si atom -5576.563824 kJ/mol
# Density = 0.985406 g / cm^3
# Si number density = 9.876543 Si / 1000 Ang^3
#
#
#
# Elastic Constant Matrix: (Units=GPa)
#
#
# Indices 1 2 3 4 5 6 
#
# 1 9.3821 20.8078 52.1633 0.0000 0.0000 0.0000
# 2 20.8078 22.5031 -2.0844 0.0000 0.0000 0.0000
# 3 52.1633 -2.0844 83.8934 0.0000 0.0000 0.0000
# 4 0.0000 0.0000 0.0000 9.8805 0.0000 0.0000
# 5 0.0000 0.0000 0.0000 0.0000 25.2243 0.0000
# 6 0.0000 0.0000 0.0000 0.0000 0.0000 -18.3320
#
#
#
# Elastic Compliance Matrix: (Units=1/GPa)
#
#
# Indices 1 2 3 4 5 6 
#
# 1 -0.022315 0.021969 0.014421 0.000000 0.000000 0.000000
# 2 0.021969 0.022912 -0.013091 0.000000 0.000000 0.000000
# 3 0.014421 -0.013091 0.002628 0.000000 0.000000 0.000000
# 4 0.000000 0.000000 0.000000 0.101209 0.000000 0.000000
# 5 0.000000 0.000000 0.000000 0.000000 0.039644 0.000000
# 6 0.000000 0.000000 0.000000 0.000000 0.000000 -0.054549
#
#
# Mechanical properties :
#
#
# Convention : Reuss Voigt Hill
#
# Bulk Modulus (GPa) = 20.07090 28.61688 24.34389
# Shear Modulus (GPa) = 83.97856 6.34737 45.16297
#
# Velocity S-wave (km/s) = 6.52736 1.79453 4.78679
# Velocity P-wave (km/s) = 8.18484 4.33734 6.54996
#
# Compressibility (1/GPa) = 0.04982337
#
# Stress axis : x y z
#
# Youngs Moduli (GPa) = -44.81382 43.64600 380.49209
#
# Poissons Ratio (x) = -0.95887 -5.48693
# Poissons Ratio (y) = 0.98452 4.98093
# Poissons Ratio (z) = 0.64624 0.57136
#
# Static dielectric constant tensor:
#      x y z
#    x 1.696700 0.000000 0.000000 
#    y 0.000000 1.783320 0.000000 
#    z 0.000000 0.000000 1.676970 
# 
# From -- ./inp_files/8684.got.cif
#   From: 2010.05.17/outbox.ucp.g08.bks.cvg/sg38_5_cif.got.tgz:8684.got - 2010.06.11 10:39:43.
