data_PCOD9359344
_publ_section_title
;
Structure prediction by ZEFSAII (Michael W. Deem and Ramdas Pophale) SiO2 
 PCOD9359344
Probable space group: A M M 2
;
_chemical_formula_sum "Si O2"
_cell_formula_units_Z 64
_cell_length_a 8.232868
_cell_length_b 24.549385
_cell_length_c 15.866417
_cell_angle_alpha 90.000000
_cell_angle_beta 90.000000
_cell_angle_gamma 90.000000
_cell_volume 3206.790832
_symmetry_space_group_name_H-M "A M M 2"
_symmetry_group_IT_number 38
_symmetry_cell_setting 'orthorhombic'
loop_
_space_group_symop_operation_xyz
x,y,z
-x,-y,z
-x,y,z
x,-y,z
x,1/2+y,1/2+z
-x,1/2-y,1/2+z
-x,1/2+y,1/2+z
x,1/2-y,1/2+z
loop_
_atom_site_type_symbol
_atom_site_label
_atom_site_fract_x
_atom_site_fract_y
_atom_site_fract_z
Si Si1 0.305388 0.868100 0.764650
Si Si2 0.803656 0.437528 0.105542
Si Si3 0.808719 0.866374 0.446654
Si Si4 0.301807 0.131001 0.952505
Si Si5 0.811072 0.753814 0.694866
Si Si6 0.690368 0.248983 0.507031
Si Si7 0.301477 0.062340 0.113757
Si Si8 0.691788 0.642107 0.763834
O O1 0.500000 0.865492 0.764361
O O2 0.250471 0.908345 0.691055
O O3 0.251394 0.885066 0.858422
O O4 0.239939 0.807996 0.743867
O O5 0.748673 0.500000 0.101619
O O6 0.000000 0.436857 0.104050
O O7 0.747318 0.402728 0.024729
O O8 0.780492 0.803394 0.470749
O O9 0.723849 0.877917 0.358098
O O10 0.000000 0.876362 0.436573
O O11 0.500000 0.130963 0.954973
O O12 0.251021 0.193105 0.971524
O O13 0.247485 0.091612 0.027588
O O14 0.712158 0.749930 0.607779
O O15 0.778676 0.699685 0.748387
O O16 0.000000 0.757813 0.672333
O O17 0.500000 0.243137 0.485998
O O18 0.500000 0.061803 0.113272
O O19 0.252310 0.099009 0.193417
O O20 0.246784 0.000000 0.119358
O O21 0.500000 0.651251 0.751672
#
# Coordination Sequence:
#
# PCOD9359344 Si02
#       8
#     8   8   8   8   8   8   8   8
#     4  11  22  37  62  93 121 154 199 251 300 355
#     4  10  23  43  62  82 118 166 207 247 301 361
#     4  11  23  39  60  88 120 158 200 245 303 365
#     4   9  19  35  57  89 121 151 189 237 298 354
#     4  12  23  37  59  88 123 161 196 241 303 367
#     4  11  20  36  62  90 121 156 194 244 301 361
#     4   9  18  35  59  86 117 153 195 247 301 348
#     4  11  22  38  61  89 120 157 201 250 299 355
#
# _framework density 19.957647999999999
#
# number of rings (size 3 to 8) (size 9 to 14) (size 15 to 20)
#    0.000    1.500    2.500    3.375    0.000    2.750 
#    0.000    3.125    0.000    1.125    0.000    0.000 
#    0.000    0.000    0.000    0.000    0.000    0.000 
#
# Total GULP energy -178880.102096 kJ/mol
# GULP energy per Si atom -5590.003191 kJ/mol
# Density = 1.991222 g / cm^3
# Si number density = 19.957648 Si / 1000 Ang^3
#
#
#
# Elastic Constant Matrix: (Units=GPa)
#
#
# Indices 1 2 3 4 5 6 
#
# 1 22.6081 9.7126 -1.9266 0.0000 0.0000 0.0000
# 2 9.7126 141.8696 70.4764 0.0000 0.0000 0.0000
# 3 -1.9266 70.4764 155.6225 0.0000 0.0000 0.0000
# 4 0.0000 0.0000 0.0000 -0.4979 0.0000 0.0000
# 5 0.0000 0.0000 0.0000 0.0000 2.2711 0.0000
# 6 0.0000 0.0000 0.0000 0.0000 0.0000 12.3122
#
#
#
# Elastic Compliance Matrix: (Units=1/GPa)
#
#
# Indices 1 2 3 4 5 6 
#
# 1 0.046371 -0.004464 0.002596 0.000000 0.000000 0.000000
# 2 -0.004464 0.009525 -0.004369 0.000000 0.000000 0.000000
# 3 0.002596 -0.004369 0.008436 0.000000 0.000000 0.000000
# 4 0.000000 0.000000 0.000000 -2.008410 0.000000 0.000000
# 5 0.000000 0.000000 0.000000 0.000000 0.440321 0.000000
# 6 0.000000 0.000000 0.000000 0.000000 0.000000 0.081220
#
#
# Mechanical properties :
#
#
# Convention : Reuss Voigt Hill
#
# Bulk Modulus (GPa) = 19.28350 52.95833 36.12092
# Shear Modulus (GPa) = -3.58995 18.93960 7.67482
#
# Velocity S-wave (km/s) = -1.34264 3.08391 1.96314
# Velocity P-wave (km/s) = 2.69807 6.26687 4.82458
#
# Compressibility (1/GPa) = 0.05185780
#
# Stress axis : x y z
#
# Youngs Moduli (GPa) = 21.56526 104.99194 118.53461
#
# Poissons Ratio (x) = 0.46869 -0.30768
# Poissons Ratio (y) = 0.09627 0.51783
# Poissons Ratio (z) = -0.05598 0.45867
#
# Static dielectric constant tensor:
#      x y z
#    x 1.707270 0.000000 0.000000 
#    y 0.000000 1.673070 0.000000 
#    z 0.000000 0.000000 1.693720 
# 
# From -- ./inp_files/12715.got.cif
#   From: 2010.05.17/outbox.cif.g08.bks.cpg/sg38_7_cif.got.tgz:12715.got - 2010.06.03 18:07:57.
