data_PCOD9359150
_publ_section_title
;
Structure prediction by ZEFSAII (Michael W. Deem and Ramdas Pophale) SiO2 
 PCOD9359150
Probable space group: A M M 2
;
_chemical_formula_sum "Si O2"
_cell_formula_units_Z 48
_cell_length_a 8.025104
_cell_length_b 18.920879
_cell_length_c 15.310689
_cell_angle_alpha 90.000000
_cell_angle_beta 90.000000
_cell_angle_gamma 90.000000
_cell_volume 2324.805972
_symmetry_space_group_name_H-M "A M M 2"
_symmetry_group_IT_number 38
_symmetry_cell_setting 'orthorhombic'
loop_
_space_group_symop_operation_xyz
x,y,z
-x,-y,z
-x,y,z
x,-y,z
x,1/2+y,1/2+z
-x,1/2-y,1/2+z
-x,1/2+y,1/2+z
x,1/2-y,1/2+z
loop_
_atom_site_type_symbol
_atom_site_label
_atom_site_fract_x
_atom_site_fract_y
_atom_site_fract_z
Si Si1 0.694781 0.380443 0.510710
Si Si2 0.304753 0.230801 0.256167
Si Si3 0.796293 0.500000 0.178685
Si Si4 0.799706 0.347498 0.114367
Si Si5 0.701306 0.076375 0.205469
Si Si6 0.191418 0.235715 0.450725
Si Si7 0.799517 0.000000 0.880646
O O1 0.500000 0.360693 0.511589
O O2 0.730620 0.418900 0.601685
O O3 0.800144 0.310017 0.500846
O O4 0.731693 0.432101 0.431064
O O5 0.500000 0.228017 0.234986
O O6 0.234686 0.291073 0.191856
O O7 0.234811 0.151255 0.241678
O O8 0.280789 0.246110 0.358401
O O9 0.738881 0.426170 0.136970
O O10 0.749056 0.500000 0.280224
O O11 0.000000 0.500000 0.175222
O O12 0.000000 0.350527 0.106721
O O13 0.735830 0.319543 0.020743
O O14 0.500000 0.075869 0.218969
O O15 0.764871 0.000000 0.238161
O O16 0.000000 0.217433 0.431090
O O17 0.000000 0.000000 0.885529
#
# Coordination Sequence:
#
# PCOD9359150 Si02
#       7
#     8   8   4   8   8   8   4
#     4  11  20  35  59  85 117 155 198 243 293 358
#     4  11  22  38  63  89 117 154 199 246 297 361
#     4   9  20  39  59  80 111 154 194 238 294 350
#     4  10  21  40  64  85 116 157 198 246 299 356
#     4   9  18  35  58  84 115 151 189 238 295 346
#     4  11  23  38  58  87 120 156 198 246 300 359
#     4  11  21  33  55  90 125 152 190 246 308 368
#
# _framework density 20.646884
#
# number of rings (size 3 to 8) (size 9 to 14) (size 15 to 20)
#    0.000    1.667    2.500    2.750    0.000    2.000 
#    1.500    1.250    0.000    0.000    0.000    0.000 
#    0.000    0.000    0.000    0.000    0.000    0.000 
#
# Total GULP energy -133967.555627 kJ/mol
# GULP energy per Si atom -5581.981484 kJ/mol
# Density = 2.059989 g / cm^3
# Si number density = 20.646884 Si / 1000 Ang^3
#
#
#
# Elastic Constant Matrix: (Units=GPa)
#
#
# Indices 1 2 3 4 5 6 
#
# 1 23.3199 -0.6797 0.7246 0.0000 0.0000 0.0000
# 2 -0.6797 132.2003 17.7011 0.0000 0.0000 0.0000
# 3 0.7246 17.7011 54.2476 0.0000 0.0000 0.0000
# 4 0.0000 0.0000 0.0000 29.5499 0.0000 0.0000
# 5 0.0000 0.0000 0.0000 0.0000 13.4215 0.0000
# 6 0.0000 0.0000 0.0000 0.0000 0.0000 44.1989
#
#
#
# Elastic Compliance Matrix: (Units=1/GPa)
#
#
# Indices 1 2 3 4 5 6 
#
# 1 0.042912 0.000311 -0.000675 0.000000 0.000000 0.000000
# 2 0.000311 0.007912 -0.002586 0.000000 0.000000 0.000000
# 3 -0.000675 -0.002586 0.019287 0.000000 0.000000 0.000000
# 4 0.000000 0.000000 0.000000 0.033841 0.000000 0.000000
# 5 0.000000 0.000000 0.000000 0.000000 0.074507 0.000000
# 6 0.000000 0.000000 0.000000 0.000000 0.000000 0.022625
#
#
# Mechanical properties :
#
#
# Convention : Reuss Voigt Hill
#
# Bulk Modulus (GPa) = 15.57351 27.25108 21.41230
# Shear Modulus (GPa) = 21.89266 30.23551 26.06409
#
# Velocity S-wave (km/s) = 3.25981 3.83091 3.55684
# Velocity P-wave (km/s) = 4.66130 5.72671 5.22125
#
# Compressibility (1/GPa) = 0.06421158
#
# Stress axis : x y z
#
# Youngs Moduli (GPa) = 23.30358 126.38838 51.84894
#
# Poissons Ratio (x) = -0.03930 0.03498
# Poissons Ratio (y) = -0.00725 0.13408
# Poissons Ratio (z) = 0.01572 0.32683
#
# Static dielectric constant tensor:
#      x y z
#    x 1.778730 0.000000 0.000000 
#    y 0.000000 1.768220 0.000000 
#    z 0.000000 0.000000 1.708360 
# 
# From -- ./inp_files/12115.got.cif
#   From: 2010.05.17/outbox.cif.g08.bks.cpg/sg38_7_cif.got.tgz:12115.got - 2010.06.03 18:07:57.
