data_PCOD9359668
_publ_section_title
;
Structure prediction by ZEFSAII (Michael W. Deem and Ramdas Pophale) SiO2 
 PCOD9359668
Probable space group: A B M 2
;
_chemical_formula_sum "Si O2"
_cell_formula_units_Z 64
_cell_length_a 21.990803
_cell_length_b 8.753511
_cell_length_c 18.522315
_cell_angle_alpha 90.000000
_cell_angle_beta 90.000000
_cell_angle_gamma 90.000000
_cell_volume 3565.485180
_symmetry_space_group_name_H-M "A B M 2"
_symmetry_group_IT_number 39
_symmetry_cell_setting 'orthorhombic'
loop_
_space_group_symop_operation_xyz
x,y,z
-x,-y,z
-x,1/2+y,z
x,1/2-y,z
x,1/2+y,1/2+z
-x,1/2-y,1/2+z
-x,y,1/2+z
x,-y,1/2+z
loop_
_atom_site_type_symbol
_atom_site_label
_atom_site_fract_x
_atom_site_fract_y
_atom_site_fract_z
Si Si1 0.563013 0.065907 0.504360
Si Si2 0.938564 0.934300 0.592006
Si Si3 0.314795 0.065922 0.258423
Si Si4 0.193420 0.429955 0.586398
Si Si5 0.681559 0.433117 0.591360
Si Si6 0.187930 0.069916 0.760972
Si Si7 0.062123 0.567629 0.755380
Si Si8 0.562898 0.433685 0.843204
O O1 0.560086 0.250000 0.503114
O O2 0.622327 0.015339 0.548285
O O3 0.500000 0.000000 0.535283
O O4 0.567906 0.002344 0.423324
O O5 0.941388 0.750000 0.596603
O O6 0.873244 0.977728 0.558345
O O7 0.937366 0.002009 0.673309
O O8 0.000000 0.000000 0.557346
O O9 0.308592 0.250000 0.259940
O O10 0.321894 0.016934 0.174889
O O11 0.376140 0.024688 0.300253
O O12 0.252216 0.994921 0.288219
O O13 0.200098 0.250000 0.573689
O O14 0.253968 0.512184 0.560079
O O15 0.190617 0.453191 0.673560
O O16 0.681420 0.250000 0.591009
O O17 0.183078 0.250000 0.774066
O O18 0.126547 0.987420 0.787464
O O19 0.059048 0.750000 0.753583
O O20 0.000000 0.500000 0.788886
O O21 0.500000 0.500000 0.811339
O O22 0.558449 0.250000 0.846582
#
# Coordination Sequence:
#
# PCOD9359668 Si02
#       8
#     8   8   8   8   8   8   8   8
#     4  10  20  34  51  70  92 119 151 186 226 271
#     4   9  15  22  32  50  76 109 149 186 222 266
#     4   9  18  32  48  68  93 121 153 188 229 274
#     4   8  15  25  37  56  83 113 146 183 222 266
#     4   9  18  31  47  67  91 119 151 187 226 270
#     4   9  16  26  39  58  84 114 148 185 227 272
#     4  10  16  22  33  50  76 112 151 188 225 267
#     4  10  20  34  52  71  93 121 152 187 227 272
#
# _framework density 17.949871000000002
#
# number of rings (size 3 to 8) (size 9 to 14) (size 15 to 20)
#    0.000    2.750    0.000    4.875    0.000    6.000 
#    0.000    0.000    0.000    0.000    0.000    0.000 
#    0.000    1.000    0.000    9.000    0.000   16.750 
#
# Total GULP energy -178206.099481 kJ/mol
# GULP energy per Si atom -5568.940609 kJ/mol
# Density = 1.790902 g / cm^3
# Si number density = 17.949871 Si / 1000 Ang^3
#
#
#
# Elastic Constant Matrix: (Units=GPa)
#
#
# Indices 1 2 3 4 5 6 
#
# 1 234.1969 66.4133 38.6108 0.0000 0.0000 0.0000
# 2 66.4133 58.5066 10.7229 0.0000 0.0000 0.0000
# 3 38.6108 10.7229 11.8353 0.0000 0.0000 0.0000
# 4 0.0000 0.0000 0.0000 9.7220 0.0000 0.0000
# 5 0.0000 0.0000 0.0000 0.0000 -10.7030 0.0000
# 6 0.0000 0.0000 0.0000 0.0000 0.0000 39.7184
#
#
#
# Elastic Compliance Matrix: (Units=1/GPa)
#
#
# Indices 1 2 3 4 5 6 
#
# 1 0.011365 -0.007322 -0.030444 0.000000 0.000000 0.000000
# 2 -0.007322 0.025212 0.001043 0.000000 0.000000 0.000000
# 3 -0.030444 0.001043 0.182868 0.000000 0.000000 0.000000
# 4 0.000000 0.000000 0.000000 0.102860 0.000000 0.000000
# 5 0.000000 0.000000 0.000000 0.000000 -0.093432 0.000000
# 6 0.000000 0.000000 0.000000 0.000000 0.000000 0.025177
#
#
# Mechanical properties :
#
#
# Convention : Reuss Voigt Hill
#
# Bulk Modulus (GPa) = 6.84932 59.55921 33.20426
# Shear Modulus (GPa) = 13.29210 20.33360 16.81285
#
# Velocity S-wave (km/s) = 2.72419 3.36936 3.06380
# Velocity P-wave (km/s) = 3.70392 6.95627 5.57264
#
# Compressibility (1/GPa) = 0.14599993
#
# Stress axis : x y z
#
# Youngs Moduli (GPa) = 87.98697 39.66381 5.46841
#
# Poissons Ratio (x) = 0.29040 0.16648
# Poissons Ratio (y) = 0.64420 -0.00570
# Poissons Ratio (z) = 2.67870 -0.04137
#
# Static dielectric constant tensor:
#      x y z
#    x 1.678610 0.000000 0.000000 
#    y 0.000000 1.602290 0.000000 
#    z 0.000000 0.000000 1.595640 
# 
# From -- ./inp_files/15060.got.cif
#   From: 2010.05.17/outbox.cif.g08.bks.cpg/sg39_8_cif.got.tgz:15060.got - 2010.06.03 18:22:40.
