data_PCOD9359937
_publ_section_title
;
Structure prediction by ZEFSAII (Michael W. Deem and Ramdas Pophale) SiO2 
 PCOD9359937
Probable space group: A B M 2
;
_chemical_formula_sum "Si O2"
_cell_formula_units_Z 64
_cell_length_a 24.610030
_cell_length_b 8.499511
_cell_length_c 15.798533
_cell_angle_alpha 90.000000
_cell_angle_beta 90.000000
_cell_angle_gamma 90.000000
_cell_volume 3304.630030
_symmetry_space_group_name_H-M "A B M 2"
_symmetry_group_IT_number 39
_symmetry_cell_setting 'orthorhombic'
loop_
_space_group_symop_operation_xyz
x,y,z
-x,-y,z
-x,1/2+y,z
x,1/2-y,z
x,1/2+y,1/2+z
-x,1/2-y,1/2+z
-x,y,1/2+z
x,-y,1/2+z
loop_
_atom_site_type_symbol
_atom_site_label
_atom_site_fract_x
_atom_site_fract_y
_atom_site_fract_z
Si Si1 0.751558 0.564531 0.978140
Si Si2 0.740578 0.938368 0.291831
Si Si3 0.560658 0.937431 0.881496
Si Si4 0.862423 0.939297 0.266423
Si Si5 0.060777 0.438236 0.618037
Si Si6 0.377047 0.561500 0.720526
Si Si7 0.635668 0.057548 0.535507
Si Si8 0.130922 0.938599 0.961247
O O1 0.758123 0.750000 0.993439
O O2 0.738207 0.531739 0.879691
O O3 0.809014 0.482885 0.993768
O O4 0.698443 0.506922 0.027758
O O5 0.741560 0.750000 0.310799
O O6 0.798679 0.975238 0.249755
O O7 0.686494 0.971274 0.239480
O O8 0.559417 0.750000 0.887099
O O9 0.500000 0.000000 0.891110
O O10 0.586169 0.985692 0.792064
O O11 0.600381 0.997279 0.956036
O O12 0.868403 0.750000 0.264245
O O13 0.874377 0.993720 0.363451
O O14 0.901496 0.010715 0.196311
O O15 0.059622 0.250000 0.615039
O O16 0.087320 0.496925 0.529553
O O17 0.000000 0.500000 0.628369
O O18 0.383970 0.750000 0.725577
O O19 0.388966 0.509223 0.625155
O O20 0.636863 0.250000 0.533676
O O21 0.127425 0.750000 0.957644
#
# Coordination Sequence:
#
# PCOD9359937 Si02
#       8
#     8   8   8   8   8   8   8   8
#     4  10  18  32  58  87 118 152 190 235 284 340
#     4   9  18  33  57  85 120 155 188 230 287 348
#     4  11  23  42  61  83 116 154 197 244 288 340
#     4   9  19  37  59  85 117 154 192 234 285 343
#     4  11  24  41  60  84 116 153 197 243 288 343
#     4  10  20  37  60  87 117 154 192 234 288 343
#     4   9  20  36  57  86 119 151 189 235 285 341
#     4   9  21  40  58  83 118 154 190 236 289 345
#
# _framework density 19.366766999999999
#
# number of rings (size 3 to 8) (size 9 to 14) (size 15 to 20)
#    0.000    2.250    1.250    1.875    1.750    4.000 
#    0.000    5.000    0.000    0.000    0.000    0.000 
#    0.000    0.000    0.000    0.000    0.000    0.000 
#
# Total GULP energy -178603.072542 kJ/mol
# GULP energy per Si atom -5581.346017 kJ/mol
# Density = 1.932269 g / cm^3
# Si number density = 19.366767 Si / 1000 Ang^3
#
#
#
# Elastic Constant Matrix: (Units=GPa)
#
#
# Indices 1 2 3 4 5 6 
#
# 1 61.1425 6.5578 7.5747 0.0000 0.0000 0.0000
# 2 6.5578 5.2977 3.9610 0.0000 0.0000 0.0000
# 3 7.5747 3.9610 46.7622 0.0000 0.0000 0.0000
# 4 0.0000 0.0000 0.0000 23.0207 0.0000 0.0000
# 5 0.0000 0.0000 0.0000 0.0000 3.2826 0.0000
# 6 0.0000 0.0000 0.0000 0.0000 0.0000 24.9924
#
#
#
# Elastic Compliance Matrix: (Units=1/GPa)
#
#
# Indices 1 2 3 4 5 6 
#
# 1 0.018917 -0.022554 -0.001154 0.000000 0.000000 0.000000
# 2 -0.022554 0.228413 -0.015694 0.000000 0.000000 0.000000
# 3 -0.001154 -0.015694 0.022901 0.000000 0.000000 0.000000
# 4 0.000000 0.000000 0.000000 0.043439 0.000000 0.000000
# 5 0.000000 0.000000 0.000000 0.000000 0.304638 0.000000
# 6 0.000000 0.000000 0.000000 0.000000 0.000000 0.040012
#
#
# Mechanical properties :
#
#
# Convention : Reuss Voigt Hill
#
# Bulk Modulus (GPa) = 5.22392 16.59883 10.91138
# Shear Modulus (GPa) = 6.24270 16.59973 11.42122
#
# Velocity S-wave (km/s) = 1.79733 2.93085 2.43108
# Velocity P-wave (km/s) = 2.64772 4.47689 3.67784
#
# Compressibility (1/GPa) = 0.19142709
#
# Stress axis : x y z
#
# Youngs Moduli (GPa) = 52.86190 4.37803 43.66605
#
# Poissons Ratio (x) = 0.09874 0.05038
# Poissons Ratio (y) = 1.19225 0.68531
# Poissons Ratio (z) = 0.06099 0.06871
#
# Static dielectric constant tensor:
#      x y z
#    x 1.656820 0.000000 0.000000 
#    y 0.000000 1.670320 0.000000 
#    z 0.000000 0.000000 1.685770 
# 
# From -- ./inp_files/10636.got.cif
#   From: 2010.05.17/outbox.cif.g08.bks.cpg/sg39_6_cif.got.tgz:10636.got - 2010.06.03 18:22:40.
