data_PCOD9359260
_publ_section_title
;
Structure prediction by ZEFSAII (Michael W. Deem and Ramdas Pophale) SiO2 
 PCOD9359260
Probable space group: A M M 2
;
_chemical_formula_sum "Si O2"
_cell_formula_units_Z 34
_cell_length_a 19.531328
_cell_length_b 7.700361
_cell_length_c 10.121375
_cell_angle_alpha 90.000000
_cell_angle_beta 90.000000
_cell_angle_gamma 90.000000
_cell_volume 1522.237355
_symmetry_space_group_name_H-M "A M M 2"
_symmetry_group_IT_number 38
_symmetry_cell_setting 'orthorhombic'
loop_
_space_group_symop_operation_xyz
x,y,z
-x,-y,z
-x,y,z
x,-y,z
x,1/2+y,1/2+z
-x,1/2-y,1/2+z
-x,1/2+y,1/2+z
x,1/2-y,1/2+z
loop_
_atom_site_type_symbol
_atom_site_label
_atom_site_fract_x
_atom_site_fract_y
_atom_site_fract_z
Si Si1 0.000000 0.500000 0.801930
Si Si2 0.577780 0.711032 0.746608
Si Si3 0.194589 0.798766 0.110846
Si Si4 0.660258 0.202109 0.495013
Si Si5 0.112950 0.300730 0.349526
O O1 0.059076 0.655379 0.806365
O O2 0.500000 0.763452 0.776927
O O3 0.579771 0.500000 0.745724
O O4 0.601572 0.776025 0.604510
O O5 0.630936 0.774176 0.857867
O O6 0.270756 0.778636 0.055361
O O7 0.142502 0.751599 0.993088
O O8 0.184923 0.000000 0.141275
O O9 0.174804 0.699890 0.243642
O O10 0.675032 0.000000 0.473189
O O11 0.086326 0.500000 0.356500
#
# Coordination Sequence:
#
# PCOD9359260 Si02
#       5
#     2   8   8   8   8
#     4  12  26  48  72 100 140 180 208 274 344 390
#     4  10  22  40  60  90 130 172 217 269 330 394
#     4  11  24  45  68  99 133 173 228 273 327 395
#     4  11  23  38  64  94 126 172 217 272 331 386
#     4  11  26  46  70 102 134 176 222 275 328 401
#
# _framework density 22.335545
#
# number of rings (size 3 to 8) (size 9 to 14) (size 15 to 20)
#    0.000    1.176    1.176    3.882    3.294    8.000 
#    0.000    0.000    0.000    0.000    0.000    0.000 
#    0.000    0.000    0.000    0.000    0.000    0.000 
#
# Total GULP energy -94809.188788 kJ/mol
# GULP energy per Si atom -5577.011105 kJ/mol
# Density = 2.228471 g / cm^3
# Si number density = 22.335545 Si / 1000 Ang^3
#
#
#
# Elastic Constant Matrix: (Units=GPa)
#
#
# Indices 1 2 3 4 5 6 
#
# 1 63.0853 13.5829 -35.0357 0.0000 0.0000 0.0000
# 2 13.5829 55.2955 1.0794 0.0000 0.0000 0.0000
# 3 -35.0357 1.0794 51.4862 0.0000 0.0000 0.0000
# 4 0.0000 0.0000 0.0000 19.0371 0.0000 0.0000
# 5 0.0000 0.0000 0.0000 0.0000 -67.6269 0.0000
# 6 0.0000 0.0000 0.0000 0.0000 0.0000 45.3505
#
#
#
# Elastic Compliance Matrix: (Units=1/GPa)
#
#
# Indices 1 2 3 4 5 6 
#
# 1 0.028141 -0.007289 0.019302 0.000000 0.000000 0.000000
# 2 -0.007289 0.019980 -0.005379 0.000000 0.000000 0.000000
# 3 0.019302 -0.005379 0.032671 0.000000 0.000000 0.000000
# 4 0.000000 0.000000 0.000000 0.052529 0.000000 0.000000
# 5 0.000000 0.000000 0.000000 0.000000 -0.014787 0.000000
# 6 0.000000 0.000000 0.000000 0.000000 0.000000 0.022050
#
#
# Mechanical properties :
#
#
# Convention : Reuss Voigt Hill
#
# Bulk Modulus (GPa) = 10.63158 14.34669 12.48913
# Shear Modulus (GPa) = 31.51194 12.03481 21.77338
#
# Velocity S-wave (km/s) = 3.76019 2.32377 3.12562
# Velocity P-wave (km/s) = 4.86028 3.69284 4.31621
#
# Compressibility (1/GPa) = 0.09405943
#
# Stress axis : x y z
#
# Youngs Moduli (GPa) = 35.53525 50.04943 30.60861
#
# Poissons Ratio (x) = 0.36483 -0.59082
# Poissons Ratio (y) = 0.25903 0.16465
# Poissons Ratio (z) = -0.68592 0.26923
#
# Static dielectric constant tensor:
#      x y z
#    x 1.814840 0.000000 0.000000 
#    y 0.000000 1.825800 0.000000 
#    z 0.000000 0.000000 1.798120 
# 
# From -- ./inp_files/6606.got.cif
#   From: 2010.05.17/outbox.cif.g08.bks.cpg/sg38_4_cif.got.tgz:6606.got - 2010.06.03 18:07:57.
