data_PCOD9359630
_publ_section_title
;
Structure prediction by ZEFSAII (Michael W. Deem and Ramdas Pophale) SiO2 
 PCOD9359630
Probable space group: A M M 2
;
_chemical_formula_sum "Si O2"
_cell_formula_units_Z 32
_cell_length_a 9.000000
_cell_length_b 21.000000
_cell_length_c 18.000000
_cell_angle_alpha 90.000000
_cell_angle_beta 90.000000
_cell_angle_gamma 90.000000
_cell_volume 3402.000000
_symmetry_space_group_name_H-M "A M M 2"
_symmetry_group_IT_number 38
_symmetry_cell_setting 'orthorhombic'
loop_
_space_group_symop_operation_xyz
x,y,z
-x,-y,z
-x,y,z
x,-y,z
x,1/2+y,1/2+z
-x,1/2-y,1/2+z
-x,1/2+y,1/2+z
x,1/2-y,1/2+z
loop_
_atom_site_type_symbol
_atom_site_label
_atom_site_fract_x
_atom_site_fract_y
_atom_site_fract_z
Si Si1 0.327475 0.427692 0.869280
Si Si2 0.169274 0.695189 0.625184
Si Si3 0.673260 0.929736 0.870870
Si Si4 0.830946 0.681602 0.447711
Si Si5 0.823592 0.570568 0.211914
Si Si6 0.174264 0.069521 0.212704
Si Si7 0.824669 0.819494 0.458712
Si Si8 0.325847 0.819923 0.618388
O O1 0.500000 0.410080 0.877993
O O2 0.308214 0.500000 0.897109
O O3 0.279108 0.427588 0.783717
O O4 0.222119 0.378791 0.910292
O O5 0.171796 0.688618 0.536464
O O6 0.207026 0.627654 0.659540
O O7 0.276582 0.751398 0.649185
O O8 0.000000 0.712199 0.646589
O O9 0.500000 0.925504 0.851886
O O10 0.721324 0.872853 0.923076
O O11 0.767430 0.924642 0.795964
O O12 0.700722 0.000000 0.903902
O O13 0.791936 0.752104 0.418838
O O14 0.000000 0.665708 0.425002
O O15 0.781706 0.500000 0.184262
O O16 0.749922 0.624761 0.164200
O O17 0.000000 0.576354 0.209569
O O18 0.000000 0.074544 0.235990
O O19 0.191326 0.000000 0.176771
O O20 0.734655 0.822778 0.534773
O O21 0.000000 0.819060 0.475414
O O22 0.500000 0.827000 0.619621
#
# Coordination Sequence:
#
# PCOD9359630 Si02
#       8
#     8   8   8   8   8   8   8   8
#     4  10  21  36  54  79 110 141 175 218 267 317
#     4   9  19  36  56  79 109 142 179 222 262 309
#     4  10  21  36  54  79 110 141 175 218 267 317
#     4   9  19  35  55  79 106 139 178 219 264 313
#     4  10  21  38  59  80 104 138 179 220 262 312
#     4   9  18  34  56  80 106 140 181 222 264 310
#     4  10  21  38  58  79 105 139 180 222 262 310
#     4  11  22  36  56  81 110 141 173 215 266 318
#
# _framework density 9.4062319999999993
#
# number of rings (size 3 to 8) (size 9 to 14) (size 15 to 20)
#    0.000    2.250    0.000    3.375    0.000    7.250 
#    0.000    2.500    0.000    1.500    0.000    0.000 
#    0.000    0.000    0.000    0.000    0.000    0.000 
#
# Total GULP energy -178423.615510 kJ/mol
# GULP energy per Si atom -5575.737985 kJ/mol
# Density = 0.938482 g / cm^3
# Si number density = 9.406232 Si / 1000 Ang^3
#
#
#
# Elastic Constant Matrix: (Units=GPa)
#
#
# Indices 1 2 3 4 5 6 
#
# 1 47.2725 54.4068 13.8768 0.0000 0.0000 0.0000
# 2 54.4068 94.7103 33.5735 0.0000 0.0000 0.0000
# 3 13.8768 33.5735 11.7906 0.0000 0.0000 0.0000
# 4 0.0000 0.0000 0.0000 23.5774 0.0000 0.0000
# 5 0.0000 0.0000 0.0000 0.0000 34.8569 0.0000
# 6 0.0000 0.0000 0.0000 0.0000 0.0000 18.9425
#
#
#
# Elastic Compliance Matrix: (Units=1/GPa)
#
#
# Indices 1 2 3 4 5 6 
#
# 1 0.003570 0.059730 -0.174283 0.000000 0.000000 0.000000
# 2 0.059730 -0.124093 0.283054 0.000000 0.000000 0.000000
# 3 -0.174283 0.283054 -0.516060 0.000000 0.000000 0.000000
# 4 0.000000 0.000000 0.000000 0.042414 0.000000 0.000000
# 5 0.000000 0.000000 0.000000 0.000000 0.028689 0.000000
# 6 0.000000 0.000000 0.000000 0.000000 0.000000 0.052791
#
#
# Mechanical properties :
#
#
# Convention : Reuss Voigt Hill
#
# Bulk Modulus (GPa) = -3.33801 39.72085 18.19142
# Shear Modulus (GPa) = -5.26565 18.93643 6.83539
#
# Velocity S-wave (km/s) = -1.67484 3.17612 1.90823
# Velocity P-wave (km/s) = 2.34911 5.88305 3.81392
#
# Compressibility (1/GPa) = -0.29958013
#
# Stress axis : x y z
#
# Youngs Moduli (GPa) = 280.10195 -8.05849 -1.93776
#
# Poissons Ratio (x) = 0.48134 -0.33772
# Poissons Ratio (y) = -16.73055 0.54849
# Poissons Ratio (z) = 48.81707 2.28099
#
# Static dielectric constant tensor:
#      x y z
#    x 1.632260 0.000000 0.000000 
#    y 0.000000 1.680430 0.000000 
#    z 0.000000 0.000000 1.633800 
# 
# From -- ./inp_files/17209.got.cif
#   From: 2010.05.17/outbox.ucp.g08.bks.cvg/sg38_9_cif.got.tgz:17209.got - 2010.06.11 10:39:43.
