data_PCOD9359655
_publ_section_title
;
Structure prediction by ZEFSAII (Michael W. Deem and Ramdas Pophale) SiO2 
 PCOD9359655
Probable space group: A B M 2
;
_chemical_formula_sum "Si O2"
_cell_formula_units_Z 48
_cell_length_a 28.330144
_cell_length_b 14.203933
_cell_length_c 5.399174
_cell_angle_alpha 90.000000
_cell_angle_beta 90.000000
_cell_angle_gamma 90.000000
_cell_volume 2172.624741
_symmetry_space_group_name_H-M "A B M 2"
_symmetry_group_IT_number 39
_symmetry_cell_setting 'orthorhombic'
loop_
_space_group_symop_operation_xyz
x,y,z
-x,-y,z
-x,1/2+y,z
x,1/2-y,z
x,1/2+y,1/2+z
-x,1/2-y,1/2+z
-x,y,1/2+z
x,-y,1/2+z
loop_
_atom_site_type_symbol
_atom_site_label
_atom_site_fract_x
_atom_site_fract_y
_atom_site_fract_z
Si Si1 0.019038 0.891177 0.946950
Si Si2 0.471482 0.136646 0.035859
Si Si3 0.672812 0.385877 0.967280
Si Si4 0.877441 0.939449 0.561866
Si Si5 0.775032 0.562845 0.494239
Si Si6 0.634107 0.901627 0.966737
O O1 0.010098 0.851590 0.676126
O O2 0.073790 0.886142 0.018901
O O3 0.000000 0.000000 0.924297
O O4 0.462729 0.250000 0.032090
O O5 0.496818 0.114817 0.295474
O O6 0.421256 0.086307 0.011806
O O7 0.728385 0.374387 0.007630
O O8 0.660752 0.498011 0.950406
O O9 0.643756 0.353534 0.204725
O O10 0.655570 0.350509 0.703830
O O11 0.826700 0.890848 0.521160
O O12 0.878405 0.017598 0.339565
O O13 0.772603 0.509173 0.228754
#
# Coordination Sequence:
#
# PCOD9359655 Si02
#       6
#     8   8   8   8   8   8
#     4  10  14  20  26  35  53  77 112 157 196 220
#     4  10  21  37  52  66  85 109 136 162 188 223
#     4  10  17  30  43  65  88 106 128 162 203 237
#     4  10  16  20  29  42  57  86 118 149 193 229
#     4  10  16  25  36  51  75  98 123 154 194 238
#     4  10  18  30  48  65  84 108 131 156 195 235
#
# _framework density 22.093091000000001
#
# number of rings (size 3 to 8) (size 9 to 14) (size 15 to 20)
#    0.000    2.000    6.667    1.000    0.000    0.000 
#    0.000   10.000    0.000    0.000    0.000    0.000 
#    0.000    0.000    0.000    0.000    0.000    0.000 
#
# Total GULP energy -133883.275710 kJ/mol
# GULP energy per Si atom -5578.469821 kJ/mol
# Density = 2.204281 g / cm^3
# Si number density = 22.093091 Si / 1000 Ang^3
#
#
#
# Elastic Constant Matrix: (Units=GPa)
#
#
# Indices 1 2 3 4 5 6 
#
# 1 110.9577 -3.5785 -43.8660 0.0000 0.0000 0.0000
# 2 -3.5785 71.5143 2.1135 0.0000 0.0000 0.0000
# 3 -43.8660 2.1135 114.4226 0.0000 0.0000 0.0000
# 4 0.0000 0.0000 0.0000 -8.0609 0.0000 0.0000
# 5 0.0000 0.0000 0.0000 0.0000 41.2225 0.0000
# 6 0.0000 0.0000 0.0000 0.0000 0.0000 -25.8037
#
#
#
# Elastic Compliance Matrix: (Units=1/GPa)
#
#
# Indices 1 2 3 4 5 6 
#
# 1 0.010634 0.000412 0.004069 0.000000 0.000000 0.000000
# 2 0.000412 0.014007 -0.000101 0.000000 0.000000 0.000000
# 3 0.004069 -0.000101 0.010301 0.000000 0.000000 0.000000
# 4 0.000000 0.000000 0.000000 -0.124055 0.000000 0.000000
# 5 0.000000 0.000000 0.000000 0.000000 0.024259 0.000000
# 6 0.000000 0.000000 0.000000 0.000000 0.000000 -0.038754
#
#
# Mechanical properties :
#
#
# Convention : Reuss Voigt Hill
#
# Bulk Modulus (GPa) = 22.88145 22.91472 22.89809
# Shear Modulus (GPa) = -51.12407 24.28664 -13.41871
#
# Velocity S-wave (km/s) = -4.81565 3.31915 -2.46716
# Velocity P-wave (km/s) = 4.53226 5.00833 1.50698
#
# Compressibility (1/GPa) = 0.04370352
#
# Stress axis : x y z
#
# Youngs Moduli (GPa) = 94.03367 71.39384 97.07381
#
# Poissons Ratio (x) = -0.02941 -0.39502
# Poissons Ratio (y) = -0.03873 0.00979
# Poissons Ratio (z) = -0.38265 0.00720
#
# Static dielectric constant tensor:
#      x y z
#    x 1.790640 0.000000 0.000000 
#    y 0.000000 1.829330 0.000000 
#    z 0.000000 0.000000 1.853340 
# 
# From -- ./inp_files/1274.got.cif
#   From: 2010.05.17/outbox.cif.g08.bks.cpg/sg39_1_cif.got.tgz:1274.got - 2010.06.03 18:22:40.
