data_PCOD9359095
_publ_section_title
;
Structure prediction by ZEFSAII (Michael W. Deem and Ramdas Pophale) SiO2 
 PCOD9359095
Probable space group: A M M 2
;
_chemical_formula_sum "Si O2"
_cell_formula_units_Z 64
_cell_length_a 15.955944
_cell_length_b 8.266222
_cell_length_c 24.473462
_cell_angle_alpha 90.000000
_cell_angle_beta 90.000000
_cell_angle_gamma 90.000000
_cell_volume 3227.936456
_symmetry_space_group_name_H-M "A M M 2"
_symmetry_group_IT_number 38
_symmetry_cell_setting 'orthorhombic'
loop_
_space_group_symop_operation_xyz
x,y,z
-x,-y,z
-x,y,z
x,-y,z
x,1/2+y,1/2+z
-x,1/2-y,1/2+z
-x,1/2+y,1/2+z
x,1/2-y,1/2+z
loop_
_atom_site_type_symbol
_atom_site_label
_atom_site_fract_x
_atom_site_fract_y
_atom_site_fract_z
Si Si1 0.093251 0.191243 0.831390
Si Si2 0.405733 0.696100 0.595115
Si Si3 0.145901 0.690862 0.714524
Si Si4 0.747653 0.308207 0.898723
Si Si5 0.250233 0.305559 0.522487
Si Si6 0.906999 0.302360 0.593670
Si Si7 0.665115 0.191156 0.710253
Si Si8 0.593968 0.195905 0.324080
O O1 0.108852 0.221837 0.767247
O O2 0.168340 0.270626 0.864989
O O3 0.000000 0.251316 0.845859
O O4 0.096323 0.000000 0.841929
O O5 0.500000 0.746639 0.580345
O O6 0.403834 0.500000 0.596614
O O7 0.334374 0.752261 0.552975
O O8 0.381929 0.758007 0.655177
O O9 0.128447 0.500000 0.720330
O O10 0.109749 0.746519 0.656342
O O11 0.245653 0.718693 0.712970
O O12 0.738719 0.500000 0.903364
O O13 0.667193 0.246483 0.864630
O O14 0.751608 0.238033 0.959253
O O15 0.249687 0.500000 0.527005
O O16 0.168161 0.245349 0.554992
O O17 0.905174 0.500000 0.593383
O O18 0.000000 0.251668 0.576271
O O19 0.613117 0.238168 0.763842
O O20 0.680916 0.000000 0.709977
O O21 0.500000 0.241678 0.341439
O O22 0.597965 0.000000 0.321473
#
# Coordination Sequence:
#
# PCOD9359095 Si02
#       8
#     8   8   8   8   8   8   8   8
#     4  11  24  41  62  91 125 159 196 245 302 356
#     4  10  21  39  62  87 118 159 202 243 293 357
#     4  11  20  36  62  90 121 158 197 241 295 356
#     4  11  24  41  62  87 117 158 206 251 298 354
#     4  10  21  39  60  84 117 155 200 248 296 349
#     4   9  18  34  59  88 115 148 191 235 286 348
#     4  12  23  35  58  91 125 157 193 243 302 358
#     4  10  22  41  63  86 116 157 200 245 301 363
#
# _framework density 19.826906999999999
#
# number of rings (size 3 to 8) (size 9 to 14) (size 15 to 20)
#    0.000    1.500    2.500    3.000    0.000    5.500 
#    0.000    1.250    0.000    1.500    0.000    0.000 
#    0.000    0.000    0.000    0.000    0.000    0.000 
#
# Total GULP energy -178856.814843 kJ/mol
# GULP energy per Si atom -5589.275464 kJ/mol
# Density = 1.978178 g / cm^3
# Si number density = 19.826907 Si / 1000 Ang^3
#
#
#
# Elastic Constant Matrix: (Units=GPa)
#
#
# Indices 1 2 3 4 5 6 
#
# 1 165.0881 1.6790 73.9120 0.0000 0.0000 0.0000
# 2 1.6790 7.0503 -2.8010 0.0000 0.0000 0.0000
# 3 73.9120 -2.8010 135.2219 0.0000 0.0000 0.0000
# 4 0.0000 0.0000 0.0000 30.3489 0.0000 0.0000
# 5 0.0000 0.0000 0.0000 0.0000 0.2232 0.0000
# 6 0.0000 0.0000 0.0000 0.0000 0.0000 12.6023
#
#
#
# Elastic Compliance Matrix: (Units=1/GPa)
#
#
# Indices 1 2 3 4 5 6 
#
# 1 0.008116 -0.003726 -0.004513 0.000000 0.000000 0.000000
# 2 -0.003726 0.144724 0.005034 0.000000 0.000000 0.000000
# 3 -0.004513 0.005034 0.009967 0.000000 0.000000 0.000000
# 4 0.000000 0.000000 0.000000 0.032950 0.000000 0.000000
# 5 0.000000 0.000000 0.000000 0.000000 4.480528 0.000000
# 6 0.000000 0.000000 0.000000 0.000000 0.000000 0.079351
#
#
# Mechanical properties :
#
#
# Convention : Reuss Voigt Hill
#
# Bulk Modulus (GPa) = 6.39397 50.32671 28.36034
# Shear Modulus (GPa) = 1.03860 24.27289 12.65574
#
# Velocity S-wave (km/s) = 0.72455 3.50271 2.52922
# Velocity P-wave (km/s) = 1.98289 6.46504 4.78166
#
# Compressibility (1/GPa) = 0.15639726
#
# Stress axis : x y z
#
# Youngs Moduli (GPa) = 123.21426 6.90968 100.33598
#
# Poissons Ratio (x) = 0.02574 0.45285
# Poissons Ratio (y) = 0.45908 -0.50513
# Poissons Ratio (z) = 0.55611 -0.03479
#
# Static dielectric constant tensor:
#      x y z
#    x 1.710010 0.000000 0.000000 
#    y 0.000000 1.686880 0.000000 
#    z 0.000000 0.000000 1.651670 
# 
# From -- ./inp_files/22942.got.cif
#   From: 2010.05.17/outbox.cif.g08.bks.cpg/sg38_12_cif.got.tgz:22942.got - 2010.06.03 18:07:57.
