data_PCOD9359360
_publ_section_title
;
Structure prediction by ZEFSAII (Michael W. Deem and Ramdas Pophale) SiO2 
 PCOD9359360
Probable space group: A M M 2
;
_chemical_formula_sum "Si O2"
_cell_formula_units_Z 64
_cell_length_a 14.322920
_cell_length_b 8.815924
_cell_length_c 26.648640
_cell_angle_alpha 90.000000
_cell_angle_beta 90.000000
_cell_angle_gamma 90.000000
_cell_volume 3364.917755
_symmetry_space_group_name_H-M "A M M 2"
_symmetry_group_IT_number 38
_symmetry_cell_setting 'orthorhombic'
loop_
_space_group_symop_operation_xyz
x,y,z
-x,-y,z
-x,y,z
x,-y,z
x,1/2+y,1/2+z
-x,1/2-y,1/2+z
-x,1/2+y,1/2+z
x,1/2-y,1/2+z
loop_
_atom_site_type_symbol
_atom_site_label
_atom_site_fract_x
_atom_site_fract_y
_atom_site_fract_z
Si Si1 0.886563 0.826970 0.179470
Si Si2 0.611792 0.319590 0.623792
Si Si3 0.285217 0.181017 0.528539
Si Si4 0.108185 0.183910 0.290006
Si Si5 0.714156 0.179948 0.832030
Si Si6 0.612318 0.179987 0.236642
Si Si7 0.892330 0.183721 0.069147
Si Si8 0.608629 0.816789 0.427136
O O1 0.863670 0.760234 0.233713
O O2 0.863495 0.759715 0.125281
O O3 0.000000 0.835865 0.179355
O O4 0.850388 0.000000 0.179465
O O5 0.500000 0.297120 0.620993
O O6 0.629457 0.500000 0.619278
O O7 0.661017 0.236064 0.578242
O O8 0.642110 0.273767 0.680207
O O9 0.182257 0.252119 0.530782
O O10 0.341446 0.228300 0.478946
O O11 0.278901 0.000000 0.528844
O O12 0.182008 0.251178 0.328210
O O13 0.000000 0.224206 0.299123
O O14 0.113324 0.000000 0.289433
O O15 0.660788 0.232588 0.781610
O O16 0.659893 0.245828 0.879635
O O17 0.717873 0.000000 0.834483
O O18 0.500000 0.197774 0.239456
O O19 0.632103 0.000000 0.242106
O O20 0.000000 0.226492 0.059813
O O21 0.888718 0.000000 0.070346
O O22 0.500000 0.772892 0.427992
O O23 0.613044 0.000000 0.423186
#
# Coordination Sequence:
#
# PCOD9359360 Si02
#       8
#     8   8   8   8   8   8   8   8
#     4   7  12  26  50  78 106 143 192 235 265 308
#     4   9  19  36  58  84 114 151 193 233 279 344
#     4  11  23  37  58  88 119 149 188 240 299 350
#     4   9  18  35  59  84 113 155 203 240 275 333
#     4  12  25  37  56  88 121 149 185 240 304 352
#     4   9  19  37  59  82 112 153 196 233 276 343
#     4   9  18  34  56  83 117 157 200 240 279 332
#     4  10  23  45  67  83 106 149 202 246 286 345
#
# _framework density 19.019781999999999
#
# number of rings (size 3 to 8) (size 9 to 14) (size 15 to 20)
#    0.000    2.500    0.000    4.500    1.750    4.750 
#    0.000    1.875    0.000    3.000    0.000    0.000 
#    0.000    0.000    0.000    0.000    0.000    0.000 
#
# Total GULP energy -178618.384741 kJ/mol
# GULP energy per Si atom -5581.824523 kJ/mol
# Density = 1.897649 g / cm^3
# Si number density = 19.019782 Si / 1000 Ang^3
#
#
#
# Elastic Constant Matrix: (Units=GPa)
#
#
# Indices 1 2 3 4 5 6 
#
# 1 136.3853 46.6860 94.5066 0.0000 0.0000 0.0000
# 2 46.6860 29.7905 45.9982 0.0000 0.0000 0.0000
# 3 94.5066 45.9982 141.2710 0.0000 0.0000 0.0000
# 4 0.0000 0.0000 0.0000 26.7179 0.0000 0.0000
# 5 0.0000 0.0000 0.0000 0.0000 38.6844 0.0000
# 6 0.0000 0.0000 0.0000 0.0000 0.0000 19.9996
#
#
#
# Elastic Compliance Matrix: (Units=1/GPa)
#
#
# Indices 1 2 3 4 5 6 
#
# 1 0.017836 -0.019162 -0.005693 0.000000 0.000000 0.000000
# 2 -0.019162 0.088093 -0.015864 0.000000 0.000000 0.000000
# 3 -0.005693 -0.015864 0.016052 0.000000 0.000000 0.000000
# 4 0.000000 0.000000 0.000000 0.037428 0.000000 0.000000
# 5 0.000000 0.000000 0.000000 0.000000 0.025850 0.000000
# 6 0.000000 0.000000 0.000000 0.000000 0.000000 0.050001
#
#
# Mechanical properties :
#
#
# Convention : Reuss Voigt Hill
#
# Bulk Modulus (GPa) = 24.66508 75.75868 50.21188
# Shear Modulus (GPa) = 15.14173 25.09745 20.11959
#
# Velocity S-wave (km/s) = 2.82459 3.63649 3.25595
# Velocity P-wave (km/s) = 4.86149 7.58618 6.37119
#
# Compressibility (1/GPa) = 0.04054315
#
# Stress axis : x y z
#
# Youngs Moduli (GPa) = 56.06563 11.35168 62.29603
#
# Poissons Ratio (x) = 0.21752 0.35464
# Poissons Ratio (y) = 1.07433 0.98829
# Poissons Ratio (z) = 0.31917 0.18009
#
# Static dielectric constant tensor:
#      x y z
#    x 1.686780 0.000000 0.000000 
#    y 0.000000 1.641000 0.000000 
#    z 0.000000 0.000000 1.656790 
# 
# From -- ./inp_files/22987.got.cif
#   From: 2010.05.17/outbox.cif.g08.bks.cpg/sg38_12_cif.got.tgz:22987.got - 2010.06.03 18:07:57.
