data_PCOD9359242
_publ_section_title
;
Structure prediction by ZEFSAII (Michael W. Deem and Ramdas Pophale) SiO2 
 PCOD9359242
Probable space group: A M M 2
;
_chemical_formula_sum "Si O2"
_cell_formula_units_Z 48
_cell_length_a 8.664634
_cell_length_b 14.794713
_cell_length_c 20.886206
_cell_angle_alpha 90.000000
_cell_angle_beta 90.000000
_cell_angle_gamma 90.000000
_cell_volume 2677.418898
_symmetry_space_group_name_H-M "A M M 2"
_symmetry_group_IT_number 38
_symmetry_cell_setting 'orthorhombic'
loop_
_space_group_symop_operation_xyz
x,y,z
-x,-y,z
-x,y,z
x,-y,z
x,1/2+y,1/2+z
-x,1/2-y,1/2+z
-x,1/2+y,1/2+z
x,1/2-y,1/2+z
loop_
_atom_site_type_symbol
_atom_site_label
_atom_site_fract_x
_atom_site_fract_y
_atom_site_fract_z
Si Si1 0.185591 0.805683 0.244280
Si Si2 0.184736 0.000000 0.042245
Si Si3 0.814950 0.000000 0.433941
Si Si4 0.314687 0.311691 0.883045
Si Si5 0.187424 0.000000 0.190692
Si Si6 0.185006 0.000000 0.585016
Si Si7 0.314066 0.690164 0.503561
Si Si8 0.314545 0.309068 0.127384
O O1 0.249100 0.784282 0.314345
O O2 0.247954 0.738033 0.190467
O O3 0.000000 0.803765 0.244497
O O4 0.236733 0.907694 0.224990
O O5 0.238050 0.000000 0.116665
O O6 0.245097 0.090774 0.009505
O O7 0.000000 0.000000 0.042304
O O8 0.748291 0.089604 0.401510
O O9 0.773821 0.000000 0.509363
O O10 0.000000 0.000000 0.427917
O O11 0.500000 0.314425 0.880984
O O12 0.267224 0.243185 0.939562
O O13 0.000000 0.000000 0.190880
O O14 0.252056 0.090337 0.616544
O O15 0.000000 0.000000 0.589835
O O16 0.500000 0.684039 0.504070
O O17 0.267323 0.748803 0.565724
O O18 0.500000 0.310540 0.130116
#
# Coordination Sequence:
#
# PCOD9359242 Si02
#       8
#     8   4   4   8   4   4   8   8
#     4  11  22  39  60  88 125 160 199 247 300 358
#     4  11  21  36  61  90 118 150 196 244 291 346
#     4  11  22  36  59  91 125 158 195 248 307 361
#     4  11  23  40  60  87 122 161 202 246 299 360
#     4   9  19  34  55  85 121 153 184 237 296 344
#     4  11  23  38  61  92 122 155 199 251 302 355
#     4  10  22  39  60  86 120 156 196 243 293 349
#     4  11  22  39  62  88 119 159 202 246 297 357
#
# _framework density 17.927714000000002
#
# number of rings (size 3 to 8) (size 9 to 14) (size 15 to 20)
#    0.000    1.333    3.333    2.750    0.000    3.333 
#    0.000    2.083    0.000    3.000    0.000    0.000 
#    0.000    0.000    0.000    0.000    0.000    0.000 
#
# Total GULP energy -134166.152575 kJ/mol
# GULP energy per Si atom -5590.256357 kJ/mol
# Density = 1.788691 g / cm^3
# Si number density = 17.927714 Si / 1000 Ang^3
#
#
#
# Elastic Constant Matrix: (Units=GPa)
#
#
# Indices 1 2 3 4 5 6 
#
# 1 49.7838 44.7880 53.5044 0.0000 0.0000 0.0000
# 2 44.7880 161.5832 95.1370 0.0000 0.0000 0.0000
# 3 53.5044 95.1370 183.3087 0.0000 0.0000 0.0000
# 4 0.0000 0.0000 0.0000 20.1973 0.0000 0.0000
# 5 0.0000 0.0000 0.0000 0.0000 30.5926 0.0000
# 6 0.0000 0.0000 0.0000 0.0000 0.0000 21.4748
#
#
#
# Elastic Compliance Matrix: (Units=1/GPa)
#
#
# Indices 1 2 3 4 5 6 
#
# 1 0.031660 -0.004802 -0.006749 0.000000 0.000000 0.000000
# 2 -0.004802 0.009640 -0.003602 0.000000 0.000000 0.000000
# 3 -0.006749 -0.003602 0.009294 0.000000 0.000000 0.000000
# 4 0.000000 0.000000 0.000000 0.049512 0.000000 0.000000
# 5 0.000000 0.000000 0.000000 0.000000 0.032688 0.000000
# 6 0.000000 0.000000 0.000000 0.000000 0.000000 0.046566
#
#
# Mechanical properties :
#
#
# Convention : Reuss Voigt Hill
#
# Bulk Modulus (GPa) = 49.28565 86.83718 68.06142
# Shear Modulus (GPa) = 23.10225 27.86935 25.48580
#
# Velocity S-wave (km/s) = 3.59365 3.94704 3.77448
# Velocity P-wave (km/s) = 6.69104 8.32555 7.55264
#
# Compressibility (1/GPa) = 0.02028988
#
# Stress axis : x y z
#
# Youngs Moduli (GPa) = 31.58540 103.72957 107.59167
#
# Poissons Ratio (x) = 0.49812 0.72611
# Poissons Ratio (y) = 0.15168 0.38752
# Poissons Ratio (z) = 0.21316 0.37361
#
# Static dielectric constant tensor:
#      x y z
#    x 1.603700 0.000000 0.000000 
#    y 0.000000 1.580350 0.000000 
#    z 0.000000 0.000000 1.598510 
# 
# From -- ./inp_files/16727.got.cif
#   From: 2010.05.17/outbox.cif.g08.bks.cpg/sg38_9_cif.got.tgz:16727.got - 2010.06.03 18:07:57.
