data_PCOD9359182
_publ_section_title
;
Structure prediction by ZEFSAII (Michael W. Deem and Ramdas Pophale) SiO2 
 PCOD9359182
Probable space group: A M M 2
;
_chemical_formula_sum "Si O2"
_cell_formula_units_Z 54
_cell_length_a 33.270891
_cell_length_b 14.240905
_cell_length_c 5.133632
_cell_angle_alpha 90.000000
_cell_angle_beta 90.000000
_cell_angle_gamma 90.000000
_cell_volume 2432.353847
_symmetry_space_group_name_H-M "A M M 2"
_symmetry_group_IT_number 38
_symmetry_cell_setting 'orthorhombic'
loop_
_space_group_symop_operation_xyz
x,y,z
-x,-y,z
-x,y,z
x,-y,z
x,1/2+y,1/2+z
-x,1/2-y,1/2+z
-x,1/2+y,1/2+z
x,1/2-y,1/2+z
loop_
_atom_site_type_symbol
_atom_site_label
_atom_site_fract_x
_atom_site_fract_y
_atom_site_fract_z
Si Si1 0.000000 0.193575 0.811560
Si Si2 0.500000 0.500000 0.235609
Si Si3 0.696595 0.387558 0.803034
Si Si4 0.086880 0.612645 0.311381
Si Si5 0.133564 0.612612 0.812834
Si Si6 0.217991 0.195824 0.147437
Si Si7 0.352650 0.886104 0.799124
Si Si8 0.557635 0.685256 0.230611
O O1 0.958490 0.141414 0.752410
O O2 0.000000 0.281871 0.616920
O O3 0.534421 0.585476 0.235337
O O4 0.698693 0.500000 0.805644
O O5 0.740236 0.351633 0.725910
O O6 0.664032 0.361773 0.583488
O O7 0.680383 0.357538 0.084372
O O8 0.088196 0.500000 0.311433
O O9 0.101993 0.644388 0.593453
O O10 0.118205 0.646269 0.092630
O O11 0.132771 0.500000 0.818465
O O12 0.178078 0.641844 0.733321
O O13 0.217032 0.286449 0.338566
O O14 0.395154 0.839526 0.739972
O O15 0.357124 0.000000 0.785882
O O16 0.548279 0.747944 0.976945
#
# Coordination Sequence:
#
# PCOD9359182 Si02
#       8
#     4   2   8   8   8   8   8   8
#     4  12  25  38  59  90 122 152 190 242 305 364
#     4  12  28  54  72 104 156 178 240 298 332 428
#     4  10  22  40  66  90 129 174 218 259 324 385
#     4  10  22  41  63  85 113 156 200 250 294 365
#     4  10  22  41  63  84 114 156 206 246 303 368
#     4  12  25  38  58  90 126 162 202 261 317 369
#     4  10  21  42  66  97 131 174 217 280 331 390
#     4  12  27  46  75 107 139 189 234 284 354 410
#
# _framework density 22.200717000000001
#
# number of rings (size 3 to 8) (size 9 to 14) (size 15 to 20)
#    0.000    1.185    0.741    4.667    0.000    8.296 
#    0.000    8.889    0.000    0.000    0.000    0.000 
#    0.000    0.000    0.000    0.000    0.000    0.000 
#
# Total GULP energy -150835.730038 kJ/mol
# GULP energy per Si atom -5586.508520 kJ/mol
# Density = 2.215019 g / cm^3
# Si number density = 22.200717 Si / 1000 Ang^3
#
#
#
# Elastic Constant Matrix: (Units=GPa)
#
#
# Indices 1 2 3 4 5 6 
#
# 1 117.3518 15.3655 -3.6249 0.0000 0.0000 0.0000
# 2 15.3655 116.5619 8.9750 0.0000 0.0000 0.0000
# 3 -3.6249 8.9750 85.6495 0.0000 0.0000 0.0000
# 4 0.0000 0.0000 0.0000 16.6333 0.0000 0.0000
# 5 0.0000 0.0000 0.0000 0.0000 83.9704 0.0000
# 6 0.0000 0.0000 0.0000 0.0000 0.0000 28.5115
#
#
#
# Elastic Compliance Matrix: (Units=1/GPa)
#
#
# Indices 1 2 3 4 5 6 
#
# 1 0.008692 -0.001184 0.000492 0.000000 0.000000 0.000000
# 2 -0.001184 0.008810 -0.000973 0.000000 0.000000 0.000000
# 3 0.000492 -0.000973 0.011798 0.000000 0.000000 0.000000
# 4 0.000000 0.000000 0.000000 0.060120 0.000000 0.000000
# 5 0.000000 0.000000 0.000000 0.000000 0.011909 0.000000
# 6 0.000000 0.000000 0.000000 0.000000 0.000000 0.035074
#
#
# Mechanical properties :
#
#
# Convention : Reuss Voigt Hill
#
# Bulk Modulus (GPa) = 38.50614 40.11052 39.30833
# Shear Modulus (GPa) = 33.69513 45.74622 39.72067
#
# Velocity S-wave (km/s) = 3.90006 4.54428 4.23444
# Velocity P-wave (km/s) = 6.13700 6.75577 6.45381
#
# Compressibility (1/GPa) = 0.02596988
#
# Stress axis : x y z
#
# Youngs Moduli (GPa) = 115.05423 113.50609 84.75804
#
# Poissons Ratio (x) = 0.13435 -0.04169
# Poissons Ratio (y) = 0.13618 0.08249
# Poissons Ratio (z) = -0.05659 0.11047
#
# Static dielectric constant tensor:
#      x y z
#    x 1.744930 0.000000 0.000000 
#    y 0.000000 1.820890 0.000000 
#    z 0.000000 0.000000 1.805890 
# 
# From -- ./inp_files/2289.got.cif
#   From: 2010.05.17/outbox.cif.g08.bks.cpg/sg38_2_cif.got.tgz:2289.got - 2010.06.03 18:07:57.
