data_PCOD9359562
_publ_section_title
;
Structure prediction by ZEFSAII (Michael W. Deem and Ramdas Pophale) SiO2 
 PCOD9359562
Probable space group: A M M 2
;
_chemical_formula_sum "Si O2"
_cell_formula_units_Z 32
_cell_length_a 9.000000
_cell_length_b 18.000000
_cell_length_c 21.000000
_cell_angle_alpha 90.000000
_cell_angle_beta 90.000000
_cell_angle_gamma 90.000000
_cell_volume 3402.000000
_symmetry_space_group_name_H-M "A M M 2"
_symmetry_group_IT_number 38
_symmetry_cell_setting 'orthorhombic'
loop_
_space_group_symop_operation_xyz
x,y,z
-x,-y,z
-x,y,z
x,-y,z
x,1/2+y,1/2+z
-x,1/2-y,1/2+z
-x,1/2+y,1/2+z
x,1/2-y,1/2+z
loop_
_atom_site_type_symbol
_atom_site_label
_atom_site_fract_x
_atom_site_fract_y
_atom_site_fract_z
Si Si1 0.824989 0.182702 0.819620
Si Si2 0.678604 0.219816 0.090940
Si Si3 0.334806 0.415220 0.219300
Si Si4 0.671526 0.189562 0.236914
Si Si5 0.162675 0.413579 0.815167
Si Si6 0.674661 0.302529 0.452745
Si Si7 0.173858 0.879361 0.591229
Si Si8 0.175075 0.355550 0.955568
O O1 0.775580 0.121220 0.769121
O O2 0.760632 0.255252 0.783819
O O3 0.757672 0.168666 0.889790
O O4 0.000000 0.188938 0.825955
O O5 0.500000 0.237819 0.087673
O O6 0.707551 0.189560 0.161861
O O7 0.781080 0.292732 0.088729
O O8 0.710148 0.173344 0.026040
O O9 0.500000 0.380278 0.221351
O O10 0.348115 0.500000 0.237014
O O11 0.271889 0.410716 0.147976
O O12 0.500000 0.208414 0.242882
O O13 0.711398 0.112002 0.267620
O O14 0.149910 0.500000 0.810693
O O15 0.193553 0.394317 0.888362
O O16 0.000000 0.380142 0.798522
O O17 0.500000 0.312964 0.442707
O O18 0.718932 0.215623 0.454465
O O19 0.203510 0.904181 0.518683
O O20 0.000000 0.890234 0.605503
O O21 0.000000 0.332120 0.960509
#
# Coordination Sequence:
#
# PCOD9359562 Si02
#       8
#     8   8   8   8   8   8   8   8
#     4  12  23  36  57  84 111 142 181 228 276 328
#     4   9  19  34  54  80 112 143 179 225 273 321
#     4  11  24  40  56  77 109 148 187 229 277 330
#     4  11  21  35  57  83 109 142 184 229 271 320
#     4  10  21  36  53  76 110 150 187 226 272 321
#     4  10  19  33  55  82 110 142 178 225 276 323
#     4  10  19  31  52  80 110 145 184 225 268 319
#     4   9  18  32  50  76 111 148 186 223 265 320
#
# _framework density 9.4062319999999993
#
# number of rings (size 3 to 8) (size 9 to 14) (size 15 to 20)
#    0.000    1.750    2.500    2.625    0.000    3.250 
#    0.000    1.250    0.000    0.750    0.000    1.750 
#    0.000    0.000    0.000    0.000    0.000    0.000 
#
# Total GULP energy -178163.185234 kJ/mol
# GULP energy per Si atom -5567.599539 kJ/mol
# Density = 0.938482 g / cm^3
# Si number density = 9.406232 Si / 1000 Ang^3
#
#
#
# Elastic Constant Matrix: (Units=GPa)
#
#
# Indices 1 2 3 4 5 6 
#
# 1 53.8650 2.3236 54.4326 0.0000 0.0000 0.0000
# 2 2.3236 14.4932 22.2461 0.0000 0.0000 0.0000
# 3 54.4326 22.2461 122.7777 0.0000 0.0000 0.0000
# 4 0.0000 0.0000 0.0000 -24.4079 0.0000 0.0000
# 5 0.0000 0.0000 0.0000 0.0000 23.8120 0.0000
# 6 0.0000 0.0000 0.0000 0.0000 0.0000 13.0083
#
#
#
# Elastic Compliance Matrix: (Units=1/GPa)
#
#
# Indices 1 2 3 4 5 6 
#
# 1 0.041152 0.029653 -0.023617 0.000000 0.000000 0.000000
# 2 0.029653 0.116947 -0.034336 0.000000 0.000000 0.000000
# 3 -0.023617 -0.034336 0.024837 0.000000 0.000000 0.000000
# 4 0.000000 0.000000 0.000000 -0.040970 0.000000 0.000000
# 5 0.000000 0.000000 0.000000 0.000000 0.041996 0.000000
# 6 0.000000 0.000000 0.000000 0.000000 0.000000 0.076874
#
#
# Mechanical properties :
#
#
# Convention : Reuss Voigt Hill
#
# Bulk Modulus (GPa) = 7.91545 38.79340 23.35443
# Shear Modulus (GPa) = 13.90639 9.95807 11.93223
#
# Velocity S-wave (km/s) = 2.72179 2.30322 2.52121
# Velocity P-wave (km/s) = 3.75423 5.26678 4.57347
#
# Compressibility (1/GPa) = 0.12633523
#
# Stress axis : x y z
#
# Youngs Moduli (GPa) = 24.30028 8.55086 40.26305
#
# Poissons Ratio (x) = -0.25356 0.95090
# Poissons Ratio (y) = -0.72058 1.38248
# Poissons Ratio (z) = 0.57390 0.29360
#
# Static dielectric constant tensor:
#      x y z
#    x 1.792560 0.000000 0.000000 
#    y 0.000000 1.686630 0.000000 
#    z 0.000000 0.000000 1.702990 
# 
# From -- ./inp_files/20020.got.cif
#   From: 2010.05.17/outbox.ucp.g08.bks.cvg/sg38_11_cif.got.tgz:20020.got - 2010.06.11 10:39:43.
