data_PCOD9359247
_publ_section_title
;
Structure prediction by ZEFSAII (Michael W. Deem and Ramdas Pophale) SiO2 
 PCOD9359247
Probable space group: A M M 2
;
_chemical_formula_sum "Si O2"
_cell_formula_units_Z 34
_cell_length_a 7.579483
_cell_length_b 10.115832
_cell_length_c 19.883256
_cell_angle_alpha 90.000000
_cell_angle_beta 90.000000
_cell_angle_gamma 90.000000
_cell_volume 1524.504447
_symmetry_space_group_name_H-M "A M M 2"
_symmetry_group_IT_number 38
_symmetry_cell_setting 'orthorhombic'
loop_
_space_group_symop_operation_xyz
x,y,z
-x,-y,z
-x,y,z
x,-y,z
x,1/2+y,1/2+z
-x,1/2-y,1/2+z
-x,1/2+y,1/2+z
x,1/2-y,1/2+z
loop_
_atom_site_type_symbol
_atom_site_label
_atom_site_fract_x
_atom_site_fract_y
_atom_site_fract_z
Si Si1 0.711164 0.142173 0.847160
Si Si2 0.208815 0.650180 0.733916
Si Si3 0.500000 0.500000 0.925253
Si Si4 0.786377 0.152234 0.619543
Si Si5 0.796961 0.795067 0.465560
O O1 0.500000 0.141309 0.847323
O O2 0.770073 0.263756 0.801010
O O3 0.780789 0.161949 0.922701
O O4 0.772317 0.000000 0.819360
O O5 0.280914 0.500000 0.738672
O O6 0.281578 0.743741 0.674419
O O7 0.000000 0.637146 0.721606
O O8 0.654940 0.387791 0.930447
O O9 0.749283 0.203357 0.544294
O O10 0.000000 0.146732 0.626010
O O11 0.722560 0.000000 0.626508
O O12 0.000000 0.841284 0.461098
#
# Coordination Sequence:
#
# PCOD9359247 Si02
#       5
#     8   8   2   8   8
#     4  11  25  44  62  90 128 171 220 275 328 390
#     4  10  22  39  63  93 126 165 214 269 326 388
#     4  12  22  40  62 102 140 164 212 274 320 382
#     4   9  18  36  61  89 123 166 216 262 312 383
#     4  11  23  40  68  98 129 174 220 264 324 386
#
# _framework density 22.302330000000001
#
# number of rings (size 3 to 8) (size 9 to 14) (size 15 to 20)
#    0.000    1.647    2.353    1.765    1.647    4.235 
#    2.118    2.353    0.000    0.000    0.000    0.000 
#    0.000    0.000    0.000    0.000    0.000    0.000 
#
# Total GULP energy -94656.511799 kJ/mol
# GULP energy per Si atom -5568.030106 kJ/mol
# Density = 2.225157 g / cm^3
# Si number density = 22.302330 Si / 1000 Ang^3
#
#
#
# Elastic Constant Matrix: (Units=GPa)
#
#
# Indices 1 2 3 4 5 6 
#
# 1 88.2163 11.8803 0.7590 0.0000 0.0000 0.0000
# 2 11.8803 186.8742 100.2806 0.0000 0.0000 0.0000
# 3 0.7590 100.2806 115.8764 0.0000 0.0000 0.0000
# 4 0.0000 0.0000 0.0000 19.3484 0.0000 0.0000
# 5 0.0000 0.0000 0.0000 0.0000 -213.9527 0.0000
# 6 0.0000 0.0000 0.0000 0.0000 0.0000 23.6109
#
#
#
# Elastic Compliance Matrix: (Units=1/GPa)
#
#
# Indices 1 2 3 4 5 6 
#
# 1 0.011500 -0.001290 0.001041 0.000000 0.000000 0.000000
# 2 -0.001290 0.010136 -0.008763 0.000000 0.000000 0.000000
# 3 0.001041 -0.008763 0.016207 0.000000 0.000000 0.000000
# 4 0.000000 0.000000 0.000000 0.051684 0.000000 0.000000
# 5 0.000000 0.000000 0.000000 0.000000 -0.004674 0.000000
# 6 0.000000 0.000000 0.000000 0.000000 0.000000 0.042353
#
#
# Mechanical properties :
#
#
# Convention : Reuss Voigt Hill
#
# Bulk Modulus (GPa) = 50.45673 68.53405 59.49539
# Shear Modulus (GPa) = 32.93028 -15.66221 8.63403
#
# Velocity S-wave (km/s) = 3.84675 -2.65291 1.96971
# Velocity P-wave (km/s) = 6.51176 4.62735 5.64869
#
# Compressibility (1/GPa) = 0.01981896
#
# Stress axis : x y z
#
# Youngs Moduli (GPa) = 86.95280 98.66240 61.70312
#
# Poissons Ratio (x) = 0.12723 -0.06421
# Poissons Ratio (y) = 0.11213 0.54070
# Poissons Ratio (z) = -0.09049 0.86458
#
# Static dielectric constant tensor:
#      x y z
#    x 1.821900 0.000000 0.000000 
#    y 0.000000 1.885770 0.000000 
#    z 0.000000 0.000000 1.839740 
# 
# From -- ./inp_files/19251.got.cif
#   From: 2010.05.17/outbox.cif.g08.bks.cpg/sg38_10_cif.got.tgz:19251.got - 2010.06.03 18:07:57.
