data_PCOD9359396
_publ_section_title
;
Structure prediction by ZEFSAII (Michael W. Deem and Ramdas Pophale) SiO2 
 PCOD9359396
Probable space group: A M M 2
;
_chemical_formula_sum "Si O2"
_cell_formula_units_Z 64
_cell_length_a 7.604536
_cell_length_b 28.744728
_cell_length_c 15.264816
_cell_angle_alpha 90.000000
_cell_angle_beta 90.000000
_cell_angle_gamma 90.000000
_cell_volume 3336.740997
_symmetry_space_group_name_H-M "A M M 2"
_symmetry_group_IT_number 38
_symmetry_cell_setting 'orthorhombic'
loop_
_space_group_symop_operation_xyz
x,y,z
-x,-y,z
-x,y,z
x,-y,z
x,1/2+y,1/2+z
-x,1/2-y,1/2+z
-x,1/2+y,1/2+z
x,1/2-y,1/2+z
loop_
_atom_site_type_symbol
_atom_site_label
_atom_site_fract_x
_atom_site_fract_y
_atom_site_fract_z
Si Si1 0.285447 0.281955 0.600400
Si Si2 0.289155 0.552591 0.599861
Si Si3 0.714779 0.824866 0.798445
Si Si4 0.788136 0.446809 0.798354
Si Si5 0.284353 0.634353 0.476383
Si Si6 0.795595 0.867371 0.425305
Si Si7 0.291932 0.822546 0.603238
Si Si8 0.712120 0.717957 0.800522
O O1 0.500000 0.282206 0.597816
O O2 0.227721 0.320701 0.532355
O O3 0.224655 0.229396 0.580415
O O4 0.234405 0.293105 0.700534
O O5 0.500000 0.550501 0.590897
O O6 0.219576 0.500000 0.591194
O O7 0.253615 0.568696 0.699227
O O8 0.223538 0.588628 0.527602
O O9 0.500000 0.825619 0.799156
O O10 0.775371 0.836185 0.699745
O O11 0.766004 0.771269 0.818425
O O12 0.772887 0.858293 0.876525
O O13 0.723587 0.500000 0.809209
O O14 0.718051 0.410139 0.869343
O O15 0.000000 0.448095 0.804677
O O16 0.500000 0.633706 0.477027
O O17 0.731223 0.857203 0.522984
O O18 0.774123 0.820492 0.368379
O O19 0.000000 0.877288 0.434399
O O20 0.500000 0.816584 0.614730
O O21 0.500000 0.717340 0.803698
#
# Coordination Sequence:
#
# PCOD9359396 Si02
#       8
#     8   8   8   8   8   8   8   8
#     4   8  14  24  42  67  88 111 145 179 210 251
#     4   9  17  28  45  71  96 115 140 178 223 265
#     4   8  15  27  45  67  88 118 158 187 207 248
#     4   9  19  35  50  63  85 117 147 176 215 267
#     4   9  14  22  40  65  91 114 140 178 219 256
#     4  11  21  30  44  67  90 114 147 184 226 268
#     4   9  17  30  46  63  85 115 152 187 216 252
#     4   9  16  28  46  67  91 118 149 181 212 253
#
# _framework density 19.180392999999999
#
# number of rings (size 3 to 8) (size 9 to 14) (size 15 to 20)
#    0.000    3.000    0.000    3.375    0.000    4.000 
#    0.000    2.500    0.000    7.500    0.000    1.750 
#    0.000    0.000    0.000    0.000    0.000    0.000 
#
# Total GULP energy -178453.359927 kJ/mol
# GULP energy per Si atom -5576.667498 kJ/mol
# Density = 1.913674 g / cm^3
# Si number density = 19.180393 Si / 1000 Ang^3
#
#
#
# Elastic Constant Matrix: (Units=GPa)
#
#
# Indices 1 2 3 4 5 6 
#
# 1 34.6811 1.3396 0.1500 0.0000 0.0000 0.0000
# 2 1.3396 93.1802 97.8109 0.0000 0.0000 0.0000
# 3 0.1500 97.8109 157.0684 0.0000 0.0000 0.0000
# 4 0.0000 0.0000 0.0000 33.0195 0.0000 0.0000
# 5 0.0000 0.0000 0.0000 0.0000 281.2650 0.0000
# 6 0.0000 0.0000 0.0000 0.0000 0.0000 -24.1372
#
#
#
# Elastic Compliance Matrix: (Units=1/GPa)
#
#
# Indices 1 2 3 4 5 6 
#
# 1 0.028874 -0.001115 0.000667 0.000000 0.000000 0.000000
# 2 -0.001115 0.031031 -0.019323 0.000000 0.000000 0.000000
# 3 0.000667 -0.019323 0.018399 0.000000 0.000000 0.000000
# 4 0.000000 0.000000 0.000000 0.030285 0.000000 0.000000
# 5 0.000000 0.000000 0.000000 0.000000 0.003555 0.000000
# 6 0.000000 0.000000 0.000000 0.000000 0.000000 -0.041430
#
#
# Mechanical properties :
#
#
# Convention : Reuss Voigt Hill
#
# Bulk Modulus (GPa) = 25.79842 53.72563 39.76202
# Shear Modulus (GPa) = 40.59184 70.40477 55.49830
#
# Velocity S-wave (km/s) = 4.60534 6.06517 5.38495
# Velocity P-wave (km/s) = 6.46208 8.78180 7.70968
#
# Compressibility (1/GPa) = 0.03876207
#
# Stress axis : x y z
#
# Youngs Moduli (GPa) = 34.63284 32.22587 54.35125
#
# Poissons Ratio (x) = 0.03593 -0.03624
# Poissons Ratio (y) = 0.03862 1.05022
# Poissons Ratio (z) = -0.02309 0.62269
#
# Static dielectric constant tensor:
#      x y z
#    x 1.697480 0.000000 0.000000 
#    y 0.000000 1.672540 0.000000 
#    z 0.000000 0.000000 1.677190 
# 
# From -- ./inp_files/13114.got.cif
#   From: 2010.05.17/outbox.cif.g08.bks.cpg/sg38_7_cif.got.tgz:13114.got - 2010.06.03 18:07:57.
