data_PCOD9359035
_publ_section_title
;
Structure prediction by ZEFSAII (Michael W. Deem and Ramdas Pophale) SiO2 
 PCOD9359035
Probable space group: A M M 2
;
_chemical_formula_sum "Si O2"
_cell_formula_units_Z 48
_cell_length_a 17.265166
_cell_length_b 8.896980
_cell_length_c 16.198372
_cell_angle_alpha 90.000000
_cell_angle_beta 90.000000
_cell_angle_gamma 90.000000
_cell_volume 2488.196879
_symmetry_space_group_name_H-M "A M M 2"
_symmetry_group_IT_number 38
_symmetry_cell_setting 'orthorhombic'
loop_
_space_group_symop_operation_xyz
x,y,z
-x,-y,z
-x,y,z
x,-y,z
x,1/2+y,1/2+z
-x,1/2-y,1/2+z
-x,1/2+y,1/2+z
x,1/2-y,1/2+z
loop_
_atom_site_type_symbol
_atom_site_label
_atom_site_fract_x
_atom_site_fract_y
_atom_site_fract_z
Si Si1 0.000000 0.177201 0.543800
Si Si2 0.000000 0.321385 0.364096
Si Si3 0.847814 0.324803 0.610440
Si Si4 0.410145 0.318481 0.203048
Si Si5 0.319665 0.680957 0.548789
Si Si6 0.314405 0.318556 0.364919
Si Si7 0.841924 0.824823 0.304810
O O1 0.922557 0.226002 0.591506
O O2 0.000000 0.267202 0.458348
O O3 0.000000 0.000000 0.528525
O O4 0.077154 0.254877 0.323369
O O5 0.000000 0.500000 0.358390
O O6 0.866172 0.500000 0.591709
O O7 0.771236 0.280413 0.560223
O O8 0.827019 0.315222 0.706880
O O9 0.500000 0.273380 0.204331
O O10 0.406508 0.500000 0.200055
O O11 0.367768 0.254282 0.122497
O O12 0.367325 0.270650 0.287660
O O13 0.325375 0.500000 0.556832
O O14 0.344303 0.724367 0.456038
O O15 0.309448 0.500000 0.363675
O O16 0.229115 0.252404 0.351185
O O17 0.847510 0.000000 0.327824
#
# Coordination Sequence:
#
# PCOD9359035 Si02
#       7
#     4   4   8   8   8   8   8
#     4  12  25  38  57  87 119 157 209 257 302 357
#     4  12  25  40  57  81 119 163 207 253 306 361
#     4  10  21  38  59  85 122 161 200 250 306 359
#     4  10  22  40  61  89 125 160 198 250 307 365
#     4  10  21  39  63  91 119 159 206 249 302 365
#     4  10  21  38  63  91 123 163 205 248 304 370
#     4  11  22  38  61  89 121 158 205 254 301 358
#
# _framework density 19.291077999999999
#
# number of rings (size 3 to 8) (size 9 to 14) (size 15 to 20)
#    0.000    1.500    1.667    3.500    0.000    7.000 
#    0.000    1.667    0.000    0.000    0.000    0.000 
#    0.000    0.000    0.000    0.000    0.000    0.000 
#
# Total GULP energy -134133.739511 kJ/mol
# GULP energy per Si atom -5588.905813 kJ/mol
# Density = 1.924717 g / cm^3
# Si number density = 19.291078 Si / 1000 Ang^3
#
#
#
# Elastic Constant Matrix: (Units=GPa)
#
#
# Indices 1 2 3 4 5 6 
#
# 1 126.4552 35.0407 68.0450 0.0000 0.0000 0.0000
# 2 35.0407 37.2690 40.1022 0.0000 0.0000 0.0000
# 3 68.0450 40.1022 141.5073 0.0000 0.0000 0.0000
# 4 0.0000 0.0000 0.0000 28.8858 0.0000 0.0000
# 5 0.0000 0.0000 0.0000 0.0000 5.9802 0.0000
# 6 0.0000 0.0000 0.0000 0.0000 0.0000 7.5978
#
#
#
# Elastic Compliance Matrix: (Units=1/GPa)
#
#
# Indices 1 2 3 4 5 6 
#
# 1 0.011884 -0.007229 -0.003666 0.000000 0.000000 0.000000
# 2 -0.007229 0.043001 -0.008710 0.000000 0.000000 0.000000
# 3 -0.003666 -0.008710 0.011298 0.000000 0.000000 0.000000
# 4 0.000000 0.000000 0.000000 0.034619 0.000000 0.000000
# 5 0.000000 0.000000 0.000000 0.000000 0.167218 0.000000
# 6 0.000000 0.000000 0.000000 0.000000 0.000000 0.131617
#
#
# Mechanical properties :
#
#
# Convention : Reuss Voigt Hill
#
# Bulk Modulus (GPa) = 37.07408 65.73415 51.40411
# Shear Modulus (GPa) = 11.16478 19.29566 15.23022
#
# Velocity S-wave (km/s) = 2.40834 3.16608 2.81284
# Velocity P-wave (km/s) = 5.19552 6.89306 6.10360
#
# Compressibility (1/GPa) = 0.02697302
#
# Stress axis : x y z
#
# Youngs Moduli (GPa) = 84.15022 23.25548 88.51209
#
# Poissons Ratio (x) = 0.16810 0.32446
# Poissons Ratio (y) = 0.60829 0.77096
# Poissons Ratio (z) = 0.30847 0.20256
#
# Static dielectric constant tensor:
#      x y z
#    x 1.659200 0.000000 0.000000 
#    y 0.000000 1.653090 0.000000 
#    z 0.000000 0.000000 1.684720 
# 
# From -- ./inp_files/15005.got.cif
#   From: 2010.05.17/outbox.cif.g08.bks.cpg/sg38_8_cif.got.tgz:15005.got - 2010.06.03 18:07:57.
