data_PCOD9359328
_publ_section_title
;
Structure prediction by ZEFSAII (Michael W. Deem and Ramdas Pophale) SiO2 
 PCOD9359328
Probable space group: A M M 2
;
_chemical_formula_sum "Si O2"
_cell_formula_units_Z 32
_cell_length_a 15.403096
_cell_length_b 14.938004
_cell_length_c 5.342731
_cell_angle_alpha 90.000000
_cell_angle_beta 90.000000
_cell_angle_gamma 90.000000
_cell_volume 1229.317041
_symmetry_space_group_name_H-M "A M M 2"
_symmetry_group_IT_number 38
_symmetry_cell_setting 'orthorhombic'
loop_
_space_group_symop_operation_xyz
x,y,z
-x,-y,z
-x,y,z
x,-y,z
x,1/2+y,1/2+z
-x,1/2-y,1/2+z
-x,1/2+y,1/2+z
x,1/2-y,1/2+z
loop_
_atom_site_type_symbol
_atom_site_label
_atom_site_fract_x
_atom_site_fract_y
_atom_site_fract_z
Si Si1 0.161301 0.642720 0.295960
Si Si2 0.602414 0.000000 0.875389
Si Si3 0.000000 0.696924 0.013132
Si Si4 0.097462 0.000000 0.165286
Si Si5 0.330480 0.302761 0.496221
Si Si6 0.734304 0.500000 0.003492
O O1 0.103024 0.585317 0.485259
O O2 0.223873 0.702506 0.473074
O O3 0.234132 0.585868 0.156938
O O4 0.092456 0.655568 0.072870
O O5 0.638057 0.093033 0.001825
O O6 0.633167 0.000000 0.580117
O O7 0.500000 0.000000 0.891188
O O8 0.000000 0.769726 0.234722
O O9 0.195604 0.000000 0.281050
O O10 0.000000 0.000000 0.291063
O O11 0.359323 0.250578 0.746458
#
# Coordination Sequence:
#
# PCOD9359328 Si02
#       6
#     8   4   4   4   8   4
#     4  10  23  40  60  98 141 196 256 313 377 460
#     4  10  25  52  81 117 158 205 268 337 411 498
#     4  12  26  37  56  87 130 186 244 306 366 431
#     4  11  22  37  68 100 148 210 267 323 393 463
#     4  11  26  48  79 114 158 204 257 326 400 477
#     4   9  23  39  69  97 140 191 255 318 394 457
#
# _framework density 26.030712000000001
#
# number of rings (size 3 to 8) (size 9 to 14) (size 15 to 20)
#    0.000    1.500    1.250    2.250   12.250    2.000 
#    0.000    1.250    0.000    0.000    0.000    0.000 
#    0.000    0.000    0.000    0.000    0.000    0.000 
#
# Total GULP energy -89135.890207 kJ/mol
# GULP energy per Si atom -5570.993138 kJ/mol
# Density = 2.597146 g / cm^3
# Si number density = 26.030712 Si / 1000 Ang^3
#
#
#
# Elastic Constant Matrix: (Units=GPa)
#
#
# Indices 1 2 3 4 5 6 
#
# 1 129.5537 29.5140 -5.5864 0.0000 0.0000 0.0000
# 2 29.5140 103.4615 44.7288 0.0000 0.0000 0.0000
# 3 -5.5864 44.7288 95.2664 0.0000 0.0000 0.0000
# 4 0.0000 0.0000 0.0000 51.9861 0.0000 0.0000
# 5 0.0000 0.0000 0.0000 0.0000 79.6649 0.0000
# 6 0.0000 0.0000 0.0000 0.0000 0.0000 28.2166
#
#
#
# Elastic Compliance Matrix: (Units=1/GPa)
#
#
# Indices 1 2 3 4 5 6 
#
# 1 0.008569 -0.003339 0.002070 0.000000 0.000000 0.000000
# 2 -0.003339 0.013428 -0.006501 0.000000 0.000000 0.000000
# 3 0.002070 -0.006501 0.013670 0.000000 0.000000 0.000000
# 4 0.000000 0.000000 0.000000 0.019236 0.000000 0.000000
# 5 0.000000 0.000000 0.000000 0.000000 0.012553 0.000000
# 6 0.000000 0.000000 0.000000 0.000000 0.000000 0.035440
#
#
# Mechanical properties :
#
#
# Convention : Reuss Voigt Hill
#
# Bulk Modulus (GPa) = 49.68136 51.73272 50.70704
# Shear Modulus (GPa) = 39.95356 49.28185 44.61771
#
# Velocity S-wave (km/s) = 3.92198 4.35583 4.14459
# Velocity P-wave (km/s) = 6.29574 6.72418 6.51348
#
# Compressibility (1/GPa) = 0.02012827
#
# Stress axis : x y z
#
# Youngs Moduli (GPa) = 116.70158 74.46876 73.15058
#
# Poissons Ratio (x) = 0.24869 -0.15145
# Poissons Ratio (y) = 0.38972 0.47553
# Poissons Ratio (z) = -0.24162 0.48410
#
# Static dielectric constant tensor:
#      x y z
#    x 0.948560 0.000000 0.000000 
#    y 0.000000 2.225920 0.000000 
#    z 0.000000 0.000000 2.096640 
# 
# From -- ./inp_files/1498.got.cif
#   From: 2010.05.17/outbox.cif.g08.bks.cpg/sg38_1_cif.got.tgz:1498.got - 2010.06.03 18:07:57.
