data_PCOD9359290
_publ_section_title
;
Structure prediction by ZEFSAII (Michael W. Deem and Ramdas Pophale) SiO2 
 PCOD9359290
Probable space group: A M M 2
;
_chemical_formula_sum "Si O2"
_cell_formula_units_Z 38
_cell_length_a 20.231226
_cell_length_b 9.607350
_cell_length_c 8.993187
_cell_angle_alpha 90.000000
_cell_angle_beta 90.000000
_cell_angle_gamma 90.000000
_cell_volume 1747.991990
_symmetry_space_group_name_H-M "A M M 2"
_symmetry_group_IT_number 38
_symmetry_cell_setting 'orthorhombic'
loop_
_space_group_symop_operation_xyz
x,y,z
-x,-y,z
-x,y,z
x,-y,z
x,1/2+y,1/2+z
-x,1/2-y,1/2+z
-x,1/2+y,1/2+z
x,1/2-y,1/2+z
loop_
_atom_site_type_symbol
_atom_site_label
_atom_site_fract_x
_atom_site_fract_y
_atom_site_fract_z
Si Si1 0.364404 0.349510 0.148310
Si Si2 0.161868 0.845379 0.509973
Si Si3 0.500000 0.500000 0.619949
Si Si4 0.289211 0.341110 0.447564
Si Si5 0.500000 0.207743 0.813756
Si Si6 0.922618 0.152577 0.212052
O O1 0.358678 0.500000 0.071467
O O2 0.308239 0.338345 0.274975
O O3 0.433312 0.343311 0.233388
O O4 0.350590 0.225784 0.035449
O O5 0.225569 0.750818 0.481972
O O6 0.119434 0.855674 0.360894
O O7 0.111939 0.773110 0.621865
O O8 0.181923 0.000000 0.558456
O O9 0.500000 0.373973 0.755985
O O10 0.500000 0.628086 0.480426
O O11 0.279124 0.500000 0.494698
O O12 0.000000 0.177819 0.240141
O O13 0.917304 0.000000 0.135922
#
# Coordination Sequence:
#
# PCOD9359290 Si02
#       6
#     8   8   2   8   4   8
#     4  11  24  44  69  99 137 179 234 294 363 441
#     4  11  23  41  63  93 132 173 223 281 345 421
#     4  12  28  52  76 120 152 212 252 328 398 480
#     4  11  25  42  66  96 133 178 231 287 355 432
#     4  12  26  50  80 110 162 194 264 320 404 470
#     4  10  22  40  64  94 129 169 218 277 343 417
#
# _framework density 21.739231
#
# number of rings (size 3 to 8) (size 9 to 14) (size 15 to 20)
#    0.000    1.053    1.053    4.421    4.421    8.421 
#    3.789    0.000    0.000    0.000    0.000    0.000 
#    0.000    0.000    0.000    0.000    0.000    0.000 
#
# Total GULP energy -105781.962043 kJ/mol
# GULP energy per Si atom -5567.471686 kJ/mol
# Density = 2.168975 g / cm^3
# Si number density = 21.739231 Si / 1000 Ang^3
#
#
#
# Elastic Constant Matrix: (Units=GPa)
#
#
# Indices 1 2 3 4 5 6 
#
# 1 116.2076 51.7944 11.2075 0.0000 0.0000 0.0000
# 2 51.7944 199.9962 47.4814 0.0000 0.0000 0.0000
# 3 11.2075 47.4814 63.2470 0.0000 0.0000 0.0000
# 4 0.0000 0.0000 0.0000 35.4406 0.0000 0.0000
# 5 0.0000 0.0000 0.0000 0.0000 31.3679 0.0000
# 6 0.0000 0.0000 0.0000 0.0000 0.0000 131.0688
#
#
#
# Elastic Compliance Matrix: (Units=1/GPa)
#
#
# Indices 1 2 3 4 5 6 
#
# 1 0.009730 -0.002568 0.000204 0.000000 0.000000 0.000000
# 2 -0.002568 0.006762 -0.004622 0.000000 0.000000 0.000000
# 3 0.000204 -0.004622 0.019245 0.000000 0.000000 0.000000
# 4 0.000000 0.000000 0.000000 0.028216 0.000000 0.000000
# 5 0.000000 0.000000 0.000000 0.000000 0.031880 0.000000
# 6 0.000000 0.000000 0.000000 0.000000 0.000000 0.007630
#
#
# Mechanical properties :
#
#
# Convention : Reuss Voigt Hill
#
# Bulk Modulus (GPa) = 45.94510 66.71304 56.32907
# Shear Modulus (GPa) = 40.09942 57.50665 48.80303
#
# Velocity S-wave (km/s) = 4.29950 5.14882 4.74321
# Velocity P-wave (km/s) = 6.76965 8.13029 7.48097
#
# Compressibility (1/GPa) = 0.02176511
#
# Stress axis : x y z
#
# Youngs Moduli (GPa) = 102.77123 147.87485 51.96282
#
# Poissons Ratio (x) = 0.37979 -0.01059
# Poissons Ratio (y) = 0.26395 0.24016
# Poissons Ratio (z) = -0.02095 0.68343
#
# Static dielectric constant tensor:
#      x y z
#    x 1.764790 0.000000 0.000000 
#    y 0.000000 1.825200 0.000000 
#    z 0.000000 0.000000 1.797430 
# 
# From -- ./inp_files/6898.got.cif
#   From: 2010.05.17/outbox.cif.g08.bks.cpg/sg38_4_cif.got.tgz:6898.got - 2010.06.03 18:07:57.
