data_PCOD9359907
_publ_section_title
;
Structure prediction by ZEFSAII (Michael W. Deem and Ramdas Pophale) SiO2 
 PCOD9359907
Probable space group: A B M 2
;
_chemical_formula_sum "Si O2"
_cell_formula_units_Z 52
_cell_length_a 21.374446
_cell_length_b 9.766885
_cell_length_c 14.100790
_cell_angle_alpha 90.000000
_cell_angle_beta 90.000000
_cell_angle_gamma 90.000000
_cell_volume 2943.705682
_symmetry_space_group_name_H-M "A B M 2"
_symmetry_group_IT_number 39
_symmetry_cell_setting 'orthorhombic'
loop_
_space_group_symop_operation_xyz
x,y,z
-x,-y,z
-x,1/2+y,z
x,1/2-y,z
x,1/2+y,1/2+z
-x,1/2-y,1/2+z
-x,y,1/2+z
x,-y,1/2+z
loop_
_atom_site_type_symbol
_atom_site_label
_atom_site_fract_x
_atom_site_fract_y
_atom_site_fract_z
Si Si1 0.500000 0.000000 0.570431
Si Si2 0.606561 0.590523 0.431289
Si Si3 0.938406 0.911098 0.433669
Si Si4 0.696331 0.585244 0.059898
Si Si5 0.604071 0.909757 0.216579
Si Si6 0.843735 0.411555 0.549997
Si Si7 0.057633 0.905455 0.707719
O O1 0.454287 0.080866 0.499149
O O2 0.546729 0.074985 0.643328
O O3 0.626007 0.750000 0.430350
O O4 0.659416 0.495542 0.478308
O O5 0.593313 0.538912 0.323642
O O6 0.944055 0.750000 0.460035
O O7 0.932245 0.918153 0.319879
O O8 0.879368 0.986900 0.479435
O O9 0.000000 0.000000 0.458893
O O10 0.686039 0.750000 0.050613
O O11 0.664365 0.536992 0.158828
O O12 0.770170 0.561185 0.057049
O O13 0.614857 0.750000 0.229749
O O14 0.851906 0.250000 0.523632
O O15 0.879547 0.432705 0.649518
O O16 0.038830 0.750000 0.687108
O O17 0.000000 0.000000 0.679544
#
# Coordination Sequence:
#
# PCOD9359907 Si02
#       7
#     4   8   8   8   8   8   8
#     4  10  18  32  52  80 110 134 164 210 258 304
#     4  10  20  34  55  80 104 134 174 215 251 298
#     4  10  20  34  53  78 106 135 169 213 261 308
#     4   9  20  37  53  72 104 141 173 209 257 309
#     4   9  18  33  52  74 103 139 171 204 254 308
#     4  10  20  35  54  75 101 137 176 212 255 307
#     4   9  19  34  52  75 103 134 169 209 257 311
#
# _framework density 17.664809000000002
#
# number of rings (size 3 to 8) (size 9 to 14) (size 15 to 20)
#    0.000    2.462    0.000    1.846    0.000    4.923 
#    0.000    6.923    0.000    0.000    0.000    0.000 
#    0.000    0.000    0.000    0.000    0.000    0.000 
#
# Total GULP energy -144805.428328 kJ/mol
# GULP energy per Si atom -5569.439551 kJ/mol
# Density = 1.762460 g / cm^3
# Si number density = 17.664809 Si / 1000 Ang^3
#
#
#
# Elastic Constant Matrix: (Units=GPa)
#
#
# Indices 1 2 3 4 5 6 
#
# 1 141.5162 64.0021 64.9204 0.0000 0.0000 0.0000
# 2 64.0021 68.1981 49.1002 0.0000 0.0000 0.0000
# 3 64.9204 49.1002 131.5434 0.0000 0.0000 0.0000
# 4 0.0000 0.0000 0.0000 12.4577 0.0000 0.0000
# 5 0.0000 0.0000 0.0000 0.0000 20.9688 0.0000
# 6 0.0000 0.0000 0.0000 0.0000 0.0000 24.7937
#
#
#
# Elastic Compliance Matrix: (Units=1/GPa)
#
#
# Indices 1 2 3 4 5 6 
#
# 1 0.012860 -0.010255 -0.002519 0.000000 0.000000 0.000000
# 2 -0.010255 0.028230 -0.005476 0.000000 0.000000 0.000000
# 3 -0.002519 -0.005476 0.010889 0.000000 0.000000 0.000000
# 4 0.000000 0.000000 0.000000 0.080271 0.000000 0.000000
# 5 0.000000 0.000000 0.000000 0.000000 0.047690 0.000000
# 6 0.000000 0.000000 0.000000 0.000000 0.000000 0.040333
#
#
# Mechanical properties :
#
#
# Convention : Reuss Voigt Hill
#
# Bulk Modulus (GPa) = 64.60373 77.47813 71.04093
# Shear Modulus (GPa) = 19.08890 22.52639 20.80765
#
# Velocity S-wave (km/s) = 3.29084 3.57489 3.43580
# Velocity P-wave (km/s) = 7.14779 7.80994 7.48619
#
# Compressibility (1/GPa) = 0.01547898
#
# Stress axis : x y z
#
# Youngs Moduli (GPa) = 77.76147 35.42349 91.83476
#
# Poissons Ratio (x) = 0.36327 0.23132
# Poissons Ratio (y) = 0.79746 0.50288
# Poissons Ratio (z) = 0.19587 0.19398
#
# Static dielectric constant tensor:
#      x y z
#    x 1.585310 0.000000 0.000000 
#    y 0.000000 1.602410 0.000000 
#    z 0.000000 0.000000 1.634050 
# 
# From -- ./inp_files/10302.got.cif
#   From: 2010.05.17/outbox.cif.g08.bks.cpg/sg39_6_cif.got.tgz:10302.got - 2010.06.03 18:22:40.
