data_PCOD9359154
_publ_section_title
;
Structure prediction by ZEFSAII (Michael W. Deem and Ramdas Pophale) SiO2 
 PCOD9359154
Probable space group: A M M 2
;
_chemical_formula_sum "Si O2"
_cell_formula_units_Z 58
_cell_length_a 7.526612
_cell_length_b 18.125828
_cell_length_c 17.656227
_cell_angle_alpha 90.000000
_cell_angle_beta 90.000000
_cell_angle_gamma 90.000000
_cell_volume 2408.769741
_symmetry_space_group_name_H-M "A M M 2"
_symmetry_group_IT_number 38
_symmetry_cell_setting 'orthorhombic'
loop_
_space_group_symop_operation_xyz
x,y,z
-x,-y,z
-x,y,z
x,-y,z
x,1/2+y,1/2+z
-x,1/2-y,1/2+z
-x,1/2+y,1/2+z
x,1/2-y,1/2+z
loop_
_atom_site_type_symbol
_atom_site_label
_atom_site_fract_x
_atom_site_fract_y
_atom_site_fract_z
Si Si1 0.213840 0.213110 0.006670
Si Si2 0.000000 0.500000 0.436701
Si Si3 0.292986 0.111684 0.885911
Si Si4 0.714562 0.580819 0.897208
Si Si5 0.208339 0.819381 0.258678
Si Si6 0.708201 0.150716 0.723121
Si Si7 0.217280 0.083759 0.119977
Si Si8 0.296333 0.373982 0.058931
O O1 0.272887 0.145124 0.059565
O O2 0.294838 0.287559 0.038287
O O3 0.000000 0.220098 0.009203
O O4 0.276341 0.192637 0.922592
O O5 0.156026 0.562818 0.432273
O O6 0.500000 0.089565 0.888927
O O7 0.225459 0.112414 0.799517
O O8 0.500000 0.582398 0.900293
O O9 0.770182 0.500000 0.867690
O O10 0.767607 0.647074 0.842016
O O11 0.782216 0.589631 0.983446
O O12 0.281232 0.738869 0.237393
O O13 0.272890 0.882534 0.200623
O O14 0.000000 0.810887 0.244741
O O15 0.500000 0.133280 0.720110
O O16 0.785596 0.123735 0.643054
O O17 0.000000 0.080576 0.116461
O O18 0.278677 0.000000 0.107742
O O19 0.500000 0.400836 0.064416
#
# Coordination Sequence:
#
# PCOD9359154 Si02
#       8
#     8   2   8   8   8   8   8   8
#     4  11  21  37  63  94 130 172 217 264 324 392
#     4  12  26  48  68  94 132 172 218 280 332 398
#     4  11  25  44  68  97 129 173 222 272 331 395
#     4  10  22  40  62  88 122 165 212 262 324 390
#     4  11  21  36  62  90 124 165 208 261 322 390
#     4  10  22  41  64  92 126 165 217 272 323 385
#     4   9  19  33  53  84 124 168 211 260 320 384
#     4  10  21  40  64  91 126 168 216 271 324 389
#
# _framework density 24.078683000000002
#
# number of rings (size 3 to 8) (size 9 to 14) (size 15 to 20)
#    0.000    1.655    2.069    2.276    1.931    4.690 
#    1.241    0.000    0.000    2.483    0.000    0.000 
#    0.000    0.000    0.000    0.000    0.000    0.000 
#
# Total GULP energy -161841.404374 kJ/mol
# GULP energy per Si atom -5580.738082 kJ/mol
# Density = 2.402388 g / cm^3
# Si number density = 24.078683 Si / 1000 Ang^3
#
#
#
# Elastic Constant Matrix: (Units=GPa)
#
#
# Indices 1 2 3 4 5 6 
#
# 1 88.9486 -3.3640 -2.9179 0.0000 0.0000 0.0000
# 2 -3.3640 54.2720 -8.6784 0.0000 0.0000 0.0000
# 3 -2.9179 -8.6784 112.7119 0.0000 0.0000 0.0000
# 4 0.0000 0.0000 0.0000 12.2016 0.0000 0.0000
# 5 0.0000 0.0000 0.0000 0.0000 19.1489 0.0000
# 6 0.0000 0.0000 0.0000 0.0000 0.0000 61.6523
#
#
#
# Elastic Compliance Matrix: (Units=1/GPa)
#
#
# Indices 1 2 3 4 5 6 
#
# 1 0.011283 0.000755 0.000350 0.000000 0.000000 0.000000
# 2 0.000755 0.018706 0.001460 0.000000 0.000000 0.000000
# 3 0.000350 0.001460 0.008994 0.000000 0.000000 0.000000
# 4 0.000000 0.000000 0.000000 0.081957 0.000000 0.000000
# 5 0.000000 0.000000 0.000000 0.000000 0.052222 0.000000
# 6 0.000000 0.000000 0.000000 0.000000 0.000000 0.016220
#
#
# Mechanical properties :
#
#
# Convention : Reuss Voigt Hill
#
# Bulk Modulus (GPa) = 22.66906 25.11241 23.89074
# Shear Modulus (GPa) = 25.13136 36.66008 30.89572
#
# Velocity S-wave (km/s) = 3.23417 3.90617 3.58595
# Velocity P-wave (km/s) = 4.83544 5.54943 5.20469
#
# Compressibility (1/GPa) = 0.04411299
#
# Stress axis : x y z
#
# Youngs Moduli (GPa) = 88.63276 53.45891 111.18954
#
# Poissons Ratio (x) = -0.04038 -0.03894
# Poissons Ratio (y) = -0.06695 -0.16232
# Poissons Ratio (z) = -0.03104 -0.07804
#
# Static dielectric constant tensor:
#      x y z
#    x 1.894950 0.000000 0.000000 
#    y 0.000000 1.919620 0.000000 
#    z 0.000000 0.000000 2.002820 
# 
# From -- ./inp_files/16978.got.cif
#   From: 2010.05.17/outbox.cif.g08.bks.cpg/sg38_9_cif.got.tgz:16978.got - 2010.06.03 18:07:57.
