data_PCOD9359194
_publ_section_title
;
Structure prediction by ZEFSAII (Michael W. Deem and Ramdas Pophale) SiO2 
 PCOD9359194
Probable space group: A M M 2
;
_chemical_formula_sum "Si O2"
_cell_formula_units_Z 64
_cell_length_a 8.729935
_cell_length_b 21.223682
_cell_length_c 20.228453
_cell_angle_alpha 90.000000
_cell_angle_beta 90.000000
_cell_angle_gamma 90.000000
_cell_volume 3747.955370
_symmetry_space_group_name_H-M "A M M 2"
_symmetry_group_IT_number 38
_symmetry_cell_setting 'orthorhombic'
loop_
_space_group_symop_operation_xyz
x,y,z
-x,-y,z
-x,y,z
x,-y,z
x,1/2+y,1/2+z
-x,1/2-y,1/2+z
-x,1/2+y,1/2+z
x,1/2-y,1/2+z
loop_
_atom_site_type_symbol
_atom_site_label
_atom_site_fract_x
_atom_site_fract_y
_atom_site_fract_z
Si Si1 0.183882 0.312358 0.817970
Si Si2 0.184934 0.381798 0.180469
Si Si3 0.817477 0.116934 0.531570
Si Si4 0.817016 0.731868 0.531155
Si Si5 0.684602 0.069444 0.814877
Si Si6 0.317399 0.929318 0.396860
Si Si7 0.186021 0.765128 0.178073
Si Si8 0.316577 0.692145 0.395535
O O1 0.242237 0.375472 0.852334
O O2 0.234570 0.304662 0.741671
O O3 0.245479 0.251894 0.857665
O O4 0.000000 0.310959 0.820479
O O5 0.228181 0.401985 0.106075
O O6 0.256867 0.419376 0.240579
O O7 0.230049 0.308106 0.187746
O O8 0.000000 0.385060 0.184424
O O9 0.793085 0.192477 0.525401
O O10 0.731009 0.083134 0.472571
O O11 0.000000 0.106116 0.524718
O O12 0.764098 0.713778 0.605097
O O13 0.734131 0.697344 0.471474
O O14 0.000000 0.721690 0.525865
O O15 0.500000 0.070819 0.814336
O O16 0.736441 0.127645 0.860398
O O17 0.734009 0.000000 0.837926
O O18 0.500000 0.924411 0.391530
O O19 0.269676 0.000000 0.377828
O O20 0.000000 0.765345 0.176313
O O21 0.500000 0.695939 0.390989
#
# Coordination Sequence:
#
# PCOD9359194 Si02
#       8
#     8   8   8   8   8   8   8   8
#     4  11  20  34  58  81 102 134 173 216 263 311
#     4   9  17  32  52  76 105 136 175 216 255 304
#     4   9  18  32  52  76 104 140 176 212 255 306
#     4   9  17  32  54  79 105 134 167 211 262 312
#     4  10  22  37  50  70 106 147 180 213 258 309
#     4  11  24  38  51  73 108 144 176 215 258 303
#     4   8  16  31  53  80 106 130 164 211 263 309
#     4  11  21  33  52  79 106 136 176 219 259 304
#
# _framework density 17.075977000000002
#
# number of rings (size 3 to 8) (size 9 to 14) (size 15 to 20)
#    0.000    2.250    2.500    2.625    0.000    2.750 
#    0.000    5.625    0.000    0.750    0.000    3.500 
#    0.000    0.000    0.000    0.000    0.000    0.000 
#
# Total GULP energy -178518.816999 kJ/mol
# GULP energy per Si atom -5578.713031 kJ/mol
# Density = 1.703711 g / cm^3
# Si number density = 17.075977 Si / 1000 Ang^3
#
#
#
# Elastic Constant Matrix: (Units=GPa)
#
#
# Indices 1 2 3 4 5 6 
#
# 1 23.4295 35.0704 28.6964 0.0000 0.0000 0.0000
# 2 35.0704 116.0142 74.2808 0.0000 0.0000 0.0000
# 3 28.6964 74.2808 129.6027 0.0000 0.0000 0.0000
# 4 0.0000 0.0000 0.0000 17.6912 0.0000 0.0000
# 5 0.0000 0.0000 0.0000 0.0000 -2.0240 0.0000
# 6 0.0000 0.0000 0.0000 0.0000 0.0000 10.0469
#
#
#
# Elastic Compliance Matrix: (Units=1/GPa)
#
#
# Indices 1 2 3 4 5 6 
#
# 1 0.080951 -0.020528 -0.006159 0.000000 0.000000 0.000000
# 2 -0.020528 0.018822 -0.006242 0.000000 0.000000 0.000000
# 3 -0.006159 -0.006242 0.012657 0.000000 0.000000 0.000000
# 4 0.000000 0.000000 0.000000 0.056525 0.000000 0.000000
# 5 0.000000 0.000000 0.000000 0.000000 -0.494068 0.000000
# 6 0.000000 0.000000 0.000000 0.000000 0.000000 0.099533
#
#
# Mechanical properties :
#
#
# Convention : Reuss Voigt Hill
#
# Bulk Modulus (GPa) = 21.47182 60.57130 41.02156
# Shear Modulus (GPa) = -34.67488 13.87606 -10.39941
#
# Velocity S-wave (km/s) = -4.51113 2.85372 -2.47049
# Velocity P-wave (km/s) = 3.81211 6.81226 3.99216
#
# Compressibility (1/GPa) = 0.04657267
#
# Stress axis : x y z
#
# Youngs Moduli (GPa) = 12.35309 53.12960 79.00555
#
# Poissons Ratio (x) = 1.09063 0.48658
# Poissons Ratio (y) = 0.25358 0.49318
# Poissons Ratio (z) = 0.07608 0.33166
#
# Static dielectric constant tensor:
#      x y z
#    x 1.573890 0.000000 0.000000 
#    y 0.000000 1.572830 0.000000 
#    z 0.000000 0.000000 1.586930 
# 
# From -- ./inp_files/20039.got.cif
#   From: 2010.05.17/outbox.cif.g08.bks.cpg/sg38_11_cif.got.tgz:20039.got - 2010.06.03 18:07:57.
