data_PCOD9359945
_publ_section_title
;
Structure prediction by ZEFSAII (Michael W. Deem and Ramdas Pophale) SiO2 
 PCOD9359945
Probable space group: A B M 2
;
_chemical_formula_sum "Si O2"
_cell_formula_units_Z 56
_cell_length_a 15.822756
_cell_length_b 8.351393
_cell_length_c 20.999379
_cell_angle_alpha 90.000000
_cell_angle_beta 90.000000
_cell_angle_gamma 90.000000
_cell_volume 2774.901067
_symmetry_space_group_name_H-M "A B M 2"
_symmetry_group_IT_number 39
_symmetry_cell_setting 'orthorhombic'
loop_
_space_group_symop_operation_xyz
x,y,z
-x,-y,z
-x,1/2+y,z
x,1/2-y,z
x,1/2+y,1/2+z
-x,1/2-y,1/2+z
-x,y,1/2+z
x,-y,1/2+z
loop_
_atom_site_type_symbol
_atom_site_label
_atom_site_fract_x
_atom_site_fract_y
_atom_site_fract_z
Si Si1 0.910746 0.558269 0.924880
Si Si2 0.676308 0.059200 0.750801
Si Si3 0.089456 0.064568 0.649154
Si Si4 0.127846 0.937977 0.784149
Si Si5 0.729344 0.443985 0.476199
Si Si6 0.591849 0.941845 0.375244
Si Si7 0.271994 0.058753 0.116070
O O1 0.911219 0.750000 0.922876
O O2 0.902802 0.492452 0.852915
O O3 0.825684 0.505083 0.961058
O O4 0.000000 0.500000 0.952339
O O5 0.660548 0.250000 0.745179
O O6 0.770729 0.042368 0.779421
O O7 0.613022 0.994358 0.803976
O O8 0.681333 0.992132 0.679007
O O9 0.098650 0.250000 0.633901
O O10 0.091291 0.038735 0.725666
O O11 0.171919 0.971905 0.624753
O O12 0.000000 0.000000 0.625059
O O13 0.108720 0.750000 0.773844
O O14 0.728783 0.250000 0.475987
O O15 0.665110 0.502499 0.422764
O O16 0.703113 0.501870 0.546543
O O17 0.593073 0.750000 0.373361
O O18 0.500000 0.000000 0.395841
O O19 0.284291 0.250000 0.116515
#
# Coordination Sequence:
#
# PCOD9359945 Si02
#       7
#     8   8   8   8   8   8   8
#     4  11  22  34  51  80 116 157 202 246 297 348
#     4   8  16  33  59  85 110 145 186 234 290 348
#     4  11  21  33  50  77 111 151 199 249 297 348
#     4  10  18  33  54  78 109 149 194 245 301 349
#     4  10  22  40  61  87 122 161 198 247 297 351
#     4  11  22  39  64  93 120 152 194 242 300 362
#     4   9  19  38  60  82 113 154 197 238 296 354
#
# _framework density 20.180899
#
# number of rings (size 3 to 8) (size 9 to 14) (size 15 to 20)
#    0.000    2.000    1.429    3.857    0.000    1.714 
#    0.000    2.857    0.000    1.714    0.000    0.000 
#    0.000    0.000    0.000    0.000    0.000    0.000 
#
# Total GULP energy -156325.570667 kJ/mol
# GULP energy per Si atom -5583.056095 kJ/mol
# Density = 2.013497 g / cm^3
# Si number density = 20.180899 Si / 1000 Ang^3
#
#
#
# Elastic Constant Matrix: (Units=GPa)
#
#
# Indices 1 2 3 4 5 6 
#
# 1 83.0956 11.5694 47.0675 0.0000 0.0000 0.0000
# 2 11.5694 16.2683 8.5260 0.0000 0.0000 0.0000
# 3 47.0675 8.5260 126.6399 0.0000 0.0000 0.0000
# 4 0.0000 0.0000 0.0000 13.4457 0.0000 0.0000
# 5 0.0000 0.0000 0.0000 0.0000 -6.1210 0.0000
# 6 0.0000 0.0000 0.0000 0.0000 0.0000 21.7528
#
#
#
# Elastic Compliance Matrix: (Units=1/GPa)
#
#
# Indices 1 2 3 4 5 6 
#
# 1 0.016365 -0.008760 -0.005493 0.000000 0.000000 0.000000
# 2 -0.008760 0.068406 -0.001350 0.000000 0.000000 0.000000
# 3 -0.005493 -0.001350 0.010029 0.000000 0.000000 0.000000
# 4 0.000000 0.000000 0.000000 0.074373 0.000000 0.000000
# 5 0.000000 0.000000 0.000000 0.000000 -0.163371 0.000000
# 6 0.000000 0.000000 0.000000 0.000000 0.000000 0.045971
#
#
# Mechanical properties :
#
#
# Convention : Reuss Voigt Hill
#
# Bulk Modulus (GPa) = 15.72431 40.03660 27.88046
# Shear Modulus (GPa) = 47.99583 16.40489 32.20036
#
# Velocity S-wave (km/s) = 4.88205 2.85422 3.99881
# Velocity P-wave (km/s) = 6.29189 5.54473 5.93009
#
# Compressibility (1/GPa) = 0.06359580
#
# Stress axis : x y z
#
# Youngs Moduli (GPa) = 61.10578 14.61862 99.71413
#
# Poissons Ratio (x) = 0.12805 0.54769
# Poissons Ratio (y) = 0.53526 0.13459
# Poissons Ratio (z) = 0.33563 0.01973
#
# Static dielectric constant tensor:
#      x y z
#    x 1.711540 0.000000 0.000000 
#    y 0.000000 1.694060 0.000000 
#    z 0.000000 0.000000 1.750540 
# 
# From -- ./inp_files/14739.got.cif
#   From: 2010.05.17/outbox.cif.g08.bks.cpg/sg39_8_cif.got.tgz:14739.got - 2010.06.03 18:22:40.
