data_PCOD9359854
_publ_section_title
;
Structure prediction by ZEFSAII (Michael W. Deem and Ramdas Pophale) SiO2 
 PCOD9359854
Probable space group: A B M 2
;
_chemical_formula_sum "Si O2"
_cell_formula_units_Z 40
_cell_length_a 7.607800
_cell_length_b 24.369886
_cell_length_c 8.909184
_cell_angle_alpha 90.000000
_cell_angle_beta 90.000000
_cell_angle_gamma 90.000000
_cell_volume 1651.773571
_symmetry_space_group_name_H-M "A B M 2"
_symmetry_group_IT_number 39
_symmetry_cell_setting 'orthorhombic'
loop_
_space_group_symop_operation_xyz
x,y,z
-x,-y,z
-x,1/2+y,z
x,1/2-y,z
x,1/2+y,1/2+z
-x,1/2-y,1/2+z
-x,y,1/2+z
x,-y,1/2+z
loop_
_atom_site_type_symbol
_atom_site_label
_atom_site_fract_x
_atom_site_fract_y
_atom_site_fract_z
Si Si1 0.333800 0.075373 0.062550
Si Si2 0.118670 0.310985 0.661363
Si Si3 0.000000 0.500000 0.783520
Si Si4 0.749042 0.810733 0.003846
Si Si5 0.912125 0.575895 0.544199
Si Si6 0.500000 0.000000 0.811833
O O1 0.380880 0.139279 0.038069
O O2 0.122581 0.080015 0.066282
O O3 0.418002 0.046716 0.205140
O O4 0.384216 0.036461 0.925549
O O5 0.185426 0.250000 0.618254
O O6 0.909509 0.309250 0.624394
O O7 0.175052 0.365433 0.569595
O O8 0.162855 0.319278 0.837636
O O9 0.867382 0.533636 0.676591
O O10 0.902932 0.455646 0.888177
O O11 0.667932 0.750000 0.003066
#
# Coordination Sequence:
#
# PCOD9359854 Si02
#       6
#     8   8   4   8   8   4
#     4  10  20  36  54  72  97 135 176 220 265 300
#     4   9  17  30  50  76 105 133 160 192 240 309
#     4  10  20  28  44  76 106 130 158 198 246 314
#     4   9  18  34  55  79 108 138 166 202 252 311
#     4  10  18  31  48  72 103 132 162 200 252 308
#     4  10  22  38  54  72  96 134 186 232 264 292
#
# _framework density 24.216394999999999
#
# number of rings (size 3 to 8) (size 9 to 14) (size 15 to 20)
#    0.000    2.400    0.000    3.600    0.000    1.600 
#    0.000    9.000    0.000    0.000    0.000    0.000 
#    0.000    0.000    0.000    0.000    0.000    0.000 
#
# Total GULP energy -111683.508684 kJ/mol
# GULP energy per Si atom -5584.175434 kJ/mol
# Density = 2.416128 g / cm^3
# Si number density = 24.216395 Si / 1000 Ang^3
#
#
#
# Elastic Constant Matrix: (Units=GPa)
#
#
# Indices 1 2 3 4 5 6 
#
# 1 47.5665 23.2719 24.9026 0.0000 0.0000 0.0000
# 2 23.2719 236.9534 54.4754 0.0000 0.0000 0.0000
# 3 24.9026 54.4754 129.4002 0.0000 0.0000 0.0000
# 4 0.0000 0.0000 0.0000 30.8380 0.0000 0.0000
# 5 0.0000 0.0000 0.0000 0.0000 10.9858 0.0000
# 6 0.0000 0.0000 0.0000 0.0000 0.0000 20.9871
#
#
#
# Elastic Compliance Matrix: (Units=1/GPa)
#
#
# Indices 1 2 3 4 5 6 
#
# 1 0.023804 -0.001422 -0.003982 0.000000 0.000000 0.000000
# 2 -0.001422 0.004757 -0.001729 0.000000 0.000000 0.000000
# 3 -0.003982 -0.001729 0.009222 0.000000 0.000000 0.000000
# 4 0.000000 0.000000 0.000000 0.032428 0.000000 0.000000
# 5 0.000000 0.000000 0.000000 0.000000 0.091027 0.000000
# 6 0.000000 0.000000 0.000000 0.000000 0.000000 0.047648
#
#
# Mechanical properties :
#
#
# Convention : Reuss Voigt Hill
#
# Bulk Modulus (GPa) = 42.52364 68.80220 55.66292
# Shear Modulus (GPa) = 21.64575 33.31352 27.47963
#
# Velocity S-wave (km/s) = 2.99297 3.71301 3.37226
# Velocity P-wave (km/s) = 5.43524 6.84507 6.18049
#
# Compressibility (1/GPa) = 0.02351633
#
# Stress axis : x y z
#
# Youngs Moduli (GPa) = 42.00999 210.19678 108.43366
#
# Poissons Ratio (x) = 0.29897 0.43180
# Poissons Ratio (y) = 0.05975 0.18749
# Poissons Ratio (z) = 0.16729 0.36345
#
# Static dielectric constant tensor:
#      x y z
#    x 2.006230 0.000000 0.000000 
#    y 0.000000 2.069160 0.000000 
#    z 0.000000 0.000000 1.927180 
# 
# From -- ./inp_files/2242.got.cif
#   From: 2010.05.17/outbox.cif.g08.bks.cpg/sg39_2_cif.got.tgz:2242.got - 2010.06.03 18:22:40.
