data_PCOD9359071
_publ_section_title
;
Structure prediction by ZEFSAII (Michael W. Deem and Ramdas Pophale) SiO2 
 PCOD9359071
Probable space group: A M M 2
;
_chemical_formula_sum "Si O2"
_cell_formula_units_Z 64
_cell_length_a 17.635905
_cell_length_b 14.756789
_cell_length_c 12.068404
_cell_angle_alpha 90.000000
_cell_angle_beta 90.000000
_cell_angle_gamma 90.000000
_cell_volume 3140.794042
_symmetry_space_group_name_H-M "A M M 2"
_symmetry_group_IT_number 38
_symmetry_cell_setting 'orthorhombic'
loop_
_space_group_symop_operation_xyz
x,y,z
-x,-y,z
-x,y,z
x,-y,z
x,1/2+y,1/2+z
-x,1/2-y,1/2+z
-x,1/2+y,1/2+z
x,1/2-y,1/2+z
loop_
_atom_site_type_symbol
_atom_site_label
_atom_site_fract_x
_atom_site_fract_y
_atom_site_fract_z
Si Si1 0.587717 0.710393 0.859080
Si Si2 0.859500 0.397244 0.036820
Si Si3 0.307129 0.892763 0.198104
Si Si4 0.141188 0.895238 0.281150
Si Si5 0.348257 0.395624 0.303811
Si Si6 0.083960 0.210624 0.077145
Si Si7 0.678777 0.395605 0.043998
Si Si8 0.778573 0.392988 0.472121
O O1 0.500000 0.685744 0.866901
O O2 0.626607 0.666776 0.749788
O O3 0.598112 0.818330 0.851636
O O4 0.634031 0.670029 0.962638
O O5 0.874308 0.500000 0.074517
O O6 0.882147 0.388778 0.907866
O O7 0.901138 0.316438 0.096877
O O8 0.769109 0.381403 0.041478
O O9 0.230331 0.872158 0.267489
O O10 0.323780 0.000000 0.209238
O O11 0.282025 0.875352 0.071462
O O12 0.135309 0.000000 0.246761
O O13 0.094497 0.837830 0.194686
O O14 0.367635 0.500000 0.332684
O O15 0.345952 0.387498 0.171435
O O16 0.265124 0.377806 0.357266
O O17 0.149217 0.169144 0.997777
O O18 0.000000 0.195307 0.032576
O O19 0.665624 0.500000 0.007398
O O20 0.799046 0.500000 0.479793
#
# Coordination Sequence:
#
# PCOD9359071 Si02
#       8
#     8   8   8   8   8   8   8   8
#     4  12  25  37  63  98 128 161 203 263 326 368
#     4  10  21  38  62  89 119 163 212 259 307 366
#     4   9  18  36  62  91 123 157 201 258 309 362
#     4   9  19  38  63  86 115 161 210 253 306 373
#     4  10  24  44  64  89 125 173 216 252 307 383
#     4  11  23  35  57  95 131 163 202 259 325 377
#     4  10  22  42  67  93 122 161 215 266 311 372
#     4   9  20  40  66  91 121 165 215 262 307 369
#
# _framework density 20.377013000000002
#
# number of rings (size 3 to 8) (size 9 to 14) (size 15 to 20)
#    0.000    2.000    1.250    2.250    5.250    3.500 
#    0.000    2.500    0.000    3.000    0.000    7.000 
#    0.000    0.000    0.000    0.000    0.000    0.000 
#
# Total GULP energy -178817.844098 kJ/mol
# GULP energy per Si atom -5588.057628 kJ/mol
# Density = 2.033063 g / cm^3
# Si number density = 20.377013 Si / 1000 Ang^3
#
#
#
# Elastic Constant Matrix: (Units=GPa)
#
#
# Indices 1 2 3 4 5 6 
#
# 1 71.1953 51.1667 19.9849 0.0000 0.0000 0.0000
# 2 51.1667 87.3870 29.7959 0.0000 0.0000 0.0000
# 3 19.9849 29.7959 40.5112 0.0000 0.0000 0.0000
# 4 0.0000 0.0000 0.0000 22.5783 0.0000 0.0000
# 5 0.0000 0.0000 0.0000 0.0000 6.0522 0.0000
# 6 0.0000 0.0000 0.0000 0.0000 0.0000 -31.1981
#
#
#
# Elastic Compliance Matrix: (Units=1/GPa)
#
#
# Indices 1 2 3 4 5 6 
#
# 1 0.024376 -0.013577 -0.002039 0.000000 0.000000 0.000000
# 2 -0.013577 0.022836 -0.010098 0.000000 0.000000 0.000000
# 3 -0.002039 -0.010098 0.033117 0.000000 0.000000 0.000000
# 4 0.000000 0.000000 0.000000 0.044290 0.000000 0.000000
# 5 0.000000 0.000000 0.000000 0.000000 0.165229 0.000000
# 6 0.000000 0.000000 0.000000 0.000000 0.000000 -0.032053
#
#
# Mechanical properties :
#
#
# Convention : Reuss Voigt Hill
#
# Bulk Modulus (GPa) = 34.60098 44.55427 39.57762
# Shear Modulus (GPa) = 15.68094 6.02955 10.85525
#
# Velocity S-wave (km/s) = 2.77707 1.72204 2.31058
# Velocity P-wave (km/s) = 5.22495 5.08589 5.15589
#
# Compressibility (1/GPa) = 0.02890091
#
# Stress axis : x y z
#
# Youngs Moduli (GPa) = 41.02392 43.79008 30.19559
#
# Poissons Ratio (x) = 0.59455 0.06157
# Poissons Ratio (y) = 0.55700 0.30492
# Poissons Ratio (z) = 0.08365 0.44219
#
# Static dielectric constant tensor:
#      x y z
#    x 1.705110 0.000000 0.000000 
#    y 0.000000 1.747010 0.000000 
#    z 0.000000 0.000000 1.733380 
# 
# From -- ./inp_files/10600.got.cif
#   From: 2010.05.17/outbox.cif.g08.bks.cpg/sg38_6_cif.got.tgz:10600.got - 2010.06.03 18:07:57.
