data_PCOD9359085
_publ_section_title
;
Structure prediction by ZEFSAII (Michael W. Deem and Ramdas Pophale) SiO2 
 PCOD9359085
Probable space group: A M M 2
;
_chemical_formula_sum "Si O2"
_cell_formula_units_Z 58
_cell_length_a 7.830216
_cell_length_b 18.757241
_cell_length_c 17.784769
_cell_angle_alpha 90.000000
_cell_angle_beta 90.000000
_cell_angle_gamma 90.000000
_cell_volume 2612.106799
_symmetry_space_group_name_H-M "A M M 2"
_symmetry_group_IT_number 38
_symmetry_cell_setting 'orthorhombic'
loop_
_space_group_symop_operation_xyz
x,y,z
-x,-y,z
-x,y,z
x,-y,z
x,1/2+y,1/2+z
-x,1/2-y,1/2+z
-x,1/2+y,1/2+z
x,1/2-y,1/2+z
loop_
_atom_site_type_symbol
_atom_site_label
_atom_site_fract_x
_atom_site_fract_y
_atom_site_fract_z
Si Si1 0.200661 0.838015 0.077970
Si Si2 0.700666 0.676411 0.044001
Si Si3 0.208203 0.919395 0.224909
Si Si4 0.804053 0.299777 0.317390
Si Si5 0.304124 0.606709 0.196319
Si Si6 0.000000 0.500000 0.236570
Si Si7 0.793902 0.648983 0.878780
Si Si8 0.698469 0.581347 0.431448
O O1 0.219619 0.754746 0.056765
O O2 0.260382 0.862482 0.160991
O O3 0.000000 0.854857 0.073624
O O4 0.288520 0.886763 0.014845
O O5 0.500000 0.688906 0.050588
O O6 0.748816 0.623791 0.111389
O O7 0.736603 0.639929 0.964180
O O8 0.265174 0.899901 0.309518
O O9 0.000000 0.917882 0.226825
O O10 0.260025 0.000000 0.204561
O O11 0.700327 0.320829 0.244143
O O12 0.739137 0.228999 0.357233
O O13 0.793306 0.364032 0.376942
O O14 0.000000 0.286244 0.295500
O O15 0.500000 0.579572 0.198756
O O16 0.153659 0.560324 0.232007
O O17 0.000000 0.645867 0.880342
O O18 0.500000 0.580915 0.407970
O O19 0.763382 0.500000 0.427261
#
# Coordination Sequence:
#
# PCOD9359085 Si02
#       8
#     8   8   8   8   8   2   8   8
#     4  11  21  37  65  93 125 168 218 270 327 400
#     4  11  24  42  64  94 130 167 217 274 332 390
#     4   9  19  37  61  94 129 163 209 269 329 390
#     4  11  22  39  63  95 128 171 222 273 332 398
#     4  11  26  45  68  99 132 174 225 278 333 402
#     4  12  26  48  72  94 132 176 222 280 340 406
#     4  10  21  38  65  96 128 168 221 272 325 398
#     4  11  24  38  56  88 131 173 214 269 334 400
#
# _framework density 22.204298999999999
#
# number of rings (size 3 to 8) (size 9 to 14) (size 15 to 20)
#    0.000    1.379    2.069    3.103    2.897    3.310 
#    1.241    1.379    0.000    1.655    0.000    0.000 
#    0.000    0.000    0.000    0.000    0.000    0.000 
#
# Total GULP energy -161795.597544 kJ/mol
# GULP energy per Si atom -5579.158536 kJ/mol
# Density = 2.215376 g / cm^3
# Si number density = 22.204299 Si / 1000 Ang^3
#
#
#
# Elastic Constant Matrix: (Units=GPa)
#
#
# Indices 1 2 3 4 5 6 
#
# 1 47.3802 8.2765 -8.2348 0.0000 0.0000 0.0000
# 2 8.2765 31.8766 -2.0014 0.0000 0.0000 0.0000
# 3 -8.2348 -2.0014 120.1278 0.0000 0.0000 0.0000
# 4 0.0000 0.0000 0.0000 0.4753 0.0000 0.0000
# 5 0.0000 0.0000 0.0000 0.0000 39.1759 0.0000
# 6 0.0000 0.0000 0.0000 0.0000 0.0000 261.8207
#
#
#
# Elastic Compliance Matrix: (Units=1/GPa)
#
#
# Indices 1 2 3 4 5 6 
#
# 1 0.022354 -0.005714 0.001437 0.000000 0.000000 0.000000
# 2 -0.005714 0.032864 0.000156 0.000000 0.000000 0.000000
# 3 0.001437 0.000156 0.008426 0.000000 0.000000 0.000000
# 4 0.000000 0.000000 0.000000 2.103982 0.000000 0.000000
# 5 0.000000 0.000000 0.000000 0.000000 0.025526 0.000000
# 6 0.000000 0.000000 0.000000 0.000000 0.000000 0.003819
#
#
# Mechanical properties :
#
#
# Convention : Reuss Voigt Hill
#
# Bulk Modulus (GPa) = 18.04982 21.71834 19.88408
# Shear Modulus (GPa) = 2.24853 73.71735 37.98294
#
# Velocity S-wave (km/s) = 1.00740 5.76816 4.14044
# Velocity P-wave (km/s) = 3.08217 7.35966 5.64200
#
# Compressibility (1/GPa) = 0.05540221
#
# Stress axis : x y z
#
# Youngs Moduli (GPa) = 44.73529 30.42822 118.68616
#
# Poissons Ratio (x) = 0.17386 -0.17057
# Poissons Ratio (y) = 0.25560 -0.01850
# Poissons Ratio (z) = -0.06429 -0.00474
#
# Static dielectric constant tensor:
#      x y z
#    x 1.789810 0.000000 0.000000 
#    y 0.000000 1.841340 0.000000 
#    z 0.000000 0.000000 1.836680 
# 
# From -- ./inp_files/16989.got.cif
#   From: 2010.05.17/outbox.cif.g08.bks.cpg/sg38_9_cif.got.tgz:16989.got - 2010.06.03 18:07:57.
