data_PCOD9359055
_publ_section_title
;
Structure prediction by ZEFSAII (Michael W. Deem and Ramdas Pophale) SiO2 
 PCOD9359055
Probable space group: A M M 2
;
_chemical_formula_sum "Si O2"
_cell_formula_units_Z 48
_cell_length_a 7.813547
_cell_length_b 23.843724
_cell_length_c 11.967216
_cell_angle_alpha 90.000000
_cell_angle_beta 90.000000
_cell_angle_gamma 90.000000
_cell_volume 2229.540905
_symmetry_space_group_name_H-M "A M M 2"
_symmetry_group_IT_number 38
_symmetry_cell_setting 'orthorhombic'
loop_
_space_group_symop_operation_xyz
x,y,z
-x,-y,z
-x,y,z
x,-y,z
x,1/2+y,1/2+z
-x,1/2-y,1/2+z
-x,1/2+y,1/2+z
x,1/2-y,1/2+z
loop_
_atom_site_type_symbol
_atom_site_label
_atom_site_fract_x
_atom_site_fract_y
_atom_site_fract_z
Si Si1 0.792627 0.848345 0.959130
Si Si2 0.697681 0.142456 0.215399
Si Si3 0.794281 0.854135 0.585816
Si Si4 0.793295 0.438199 0.289388
Si Si5 0.793808 0.233606 0.762151
Si Si6 0.800178 0.563840 0.896191
O O1 0.736291 0.905675 0.899238
O O2 0.735496 0.799806 0.872810
O O3 0.000000 0.845803 0.961999
O O4 0.731491 0.848065 0.084854
O O5 0.500000 0.131828 0.234041
O O6 0.748911 0.201685 0.269572
O O7 0.791178 0.090022 0.272578
O O8 0.762253 0.899463 0.683176
O O9 0.731891 0.796785 0.646732
O O10 0.726698 0.886587 0.476316
O O11 0.000000 0.845732 0.568896
O O12 0.722538 0.500000 0.276956
O O13 0.000000 0.441612 0.296318
O O14 0.000000 0.228586 0.759696
O O15 0.729738 0.500000 0.905011
O O16 0.000000 0.559222 0.928574
#
# Coordination Sequence:
#
# PCOD9359055 Si02
#       6
#     8   8   8   8   8   8
#     4   9  19  36  57  82 110 143 188 237 284 339
#     4  12  26  39  54  79 117 158 195 236 288 355
#     4   8  15  30  56  89 116 140 176 234 294 339
#     4   8  13  25  51  86 115 135 166 222 285 334
#     4   9  19  37  61  86 112 144 190 245 297 347
#     4  10  21  38  61  88 117 153 199 243 289 349
#
# _framework density 21.529095000000002
#
# number of rings (size 3 to 8) (size 9 to 14) (size 15 to 20)
#    0.000    2.667    0.000    4.000    2.333    3.667 
#    0.000    1.667    0.000    1.000    0.000    0.000 
#    0.000    0.000    0.000    0.000    0.000    0.000 
#
# Total GULP energy -133780.110900 kJ/mol
# GULP energy per Si atom -5574.171287 kJ/mol
# Density = 2.148009 g / cm^3
# Si number density = 21.529095 Si / 1000 Ang^3
#
#
#
# Elastic Constant Matrix: (Units=GPa)
#
#
# Indices 1 2 3 4 5 6 
#
# 1 27.5930 -3.9669 -3.1988 0.0000 0.0000 0.0000
# 2 -3.9669 85.6852 17.0911 0.0000 0.0000 0.0000
# 3 -3.1988 17.0911 83.7416 0.0000 0.0000 0.0000
# 4 0.0000 0.0000 0.0000 40.9447 0.0000 0.0000
# 5 0.0000 0.0000 0.0000 0.0000 -35.4666 0.0000
# 6 0.0000 0.0000 0.0000 0.0000 0.0000 -40.3919
#
#
#
# Elastic Compliance Matrix: (Units=1/GPa)
#
#
# Indices 1 2 3 4 5 6 
#
# 1 0.036580 0.001475 0.001096 0.000000 0.000000 0.000000
# 2 0.001475 0.012225 -0.002439 0.000000 0.000000 0.000000
# 3 0.001096 -0.002439 0.012481 0.000000 0.000000 0.000000
# 4 0.000000 0.000000 0.000000 0.024423 0.000000 0.000000
# 5 0.000000 0.000000 0.000000 0.000000 -0.028196 0.000000
# 6 0.000000 0.000000 0.000000 0.000000 0.000000 -0.024757
#
#
# Mechanical properties :
#
#
# Convention : Reuss Voigt Hill
#
# Bulk Modulus (GPa) = 16.24656 24.09672 20.17164
# Shear Modulus (GPa) = 94.32313 5.49021 49.90667
#
# Velocity S-wave (km/s) = 6.62624 1.59865 4.81989
# Velocity P-wave (km/s) = 8.13053 3.82420 6.35334
#
# Compressibility (1/GPa) = 0.06155148
#
# Stress axis : x y z
#
# Youngs Moduli (GPa) = 27.33716 81.79725 80.12111
#
# Poissons Ratio (x) = -0.12064 -0.08784
# Poissons Ratio (y) = -0.04032 0.19540
# Poissons Ratio (z) = -0.02997 0.19948
#
# Static dielectric constant tensor:
#      x y z
#    x 1.814840 0.000000 0.000000 
#    y 0.000000 1.794030 0.000000 
#    z 0.000000 0.000000 1.803880 
# 
# From -- ./inp_files/8131.got.cif
#   From: 2010.05.17/outbox.cif.g08.bks.cpg/sg38_5_cif.got.tgz:8131.got - 2010.06.03 18:07:57.
