data_PCOD9359635
_publ_section_title
;
Structure prediction by ZEFSAII (Michael W. Deem and Ramdas Pophale) SiO2 
 PCOD9359635
Probable space group: A M M 2
;
_chemical_formula_sum "Si O2"
_cell_formula_units_Z 22
_cell_length_a 15.000000
_cell_length_b 18.000000
_cell_length_c 9.000000
_cell_angle_alpha 90.000000
_cell_angle_beta 90.000000
_cell_angle_gamma 90.000000
_cell_volume 2430.000000
_symmetry_space_group_name_H-M "A M M 2"
_symmetry_group_IT_number 38
_symmetry_cell_setting 'orthorhombic'
loop_
_space_group_symop_operation_xyz
x,y,z
-x,-y,z
-x,y,z
x,-y,z
x,1/2+y,1/2+z
-x,1/2-y,1/2+z
-x,1/2+y,1/2+z
x,1/2-y,1/2+z
loop_
_atom_site_type_symbol
_atom_site_label
_atom_site_fract_x
_atom_site_fract_y
_atom_site_fract_z
Si Si1 0.000000 0.412522 0.285931
Si Si2 0.500000 0.212988 0.717827
Si Si3 0.500000 0.913297 0.970531
Si Si4 0.626239 0.855481 0.217927
Si Si5 0.500000 0.086537 0.465535
Si Si6 0.000000 0.911753 0.126423
Si Si7 0.168396 0.168161 0.266304
Si Si8 0.897384 0.809561 0.591510
O O1 0.000000 0.385491 0.455158
O O2 0.000000 0.500000 0.283782
O O3 0.915683 0.380170 0.196387
O O4 0.500000 0.154719 0.853772
O O5 0.583191 0.271561 0.718050
O O6 0.500000 0.154853 0.581644
O O7 0.500000 0.000000 0.919442
O O8 0.585267 0.897543 0.075774
O O9 0.584815 0.897992 0.359541
O O10 0.732152 0.854999 0.223786
O O11 0.500000 0.000000 0.517696
O O12 0.911021 0.883877 0.207219
O O13 0.000000 0.000000 0.125621
O O14 0.156283 0.174798 0.442983
O O15 0.147754 0.246686 0.189211
O O16 0.000000 0.786474 0.550341
#
# Coordination Sequence:
#
# PCOD9359635 Si02
#       8
#     4   4   4   8   4   4   8   8
#     4   9  20  41  60  77 115 163 202 247 296 347
#     4  10  21  40  63  94 114 156 196 254 293 364
#     4  10  21  42  63  88 122 154 192 248 309 362
#     4  10  22  38  65  86 121 156 205 239 300 360
#     4  10  21  42  63  88 120 154 194 248 309 360
#     4  11  22  39  58  85 121 163 202 243 294 351
#     4  12  23  37  61  88 119 155 200 253 288 355
#     4  10  21  37  59  84 115 155 202 243 297 336
#
# _framework density 9.0534979999999994
#
# number of rings (size 3 to 8) (size 9 to 14) (size 15 to 20)
#    0.545    1.273    1.818    4.636    5.091    2.909 
#    0.000    0.000    0.000    0.000    0.000    0.000 
#    0.000    0.000    0.000    0.000    0.000    0.000 
#
# Total GULP energy -122635.813594 kJ/mol
# GULP energy per Si atom -5574.355163 kJ/mol
# Density = 0.903289 g / cm^3
# Si number density = 9.053498 Si / 1000 Ang^3
#
#
#
# Elastic Constant Matrix: (Units=GPa)
#
#
# Indices 1 2 3 4 5 6 
#
# 1 126.8361 28.7483 10.3057 0.0000 0.0000 0.0000
# 2 28.7483 116.5355 33.0963 0.0000 0.0000 0.0000
# 3 10.3057 33.0963 77.8038 0.0000 0.0000 0.0000
# 4 0.0000 0.0000 0.0000 30.7344 0.0000 0.0000
# 5 0.0000 0.0000 0.0000 0.0000 2.3359 0.0000
# 6 0.0000 0.0000 0.0000 0.0000 0.0000 -3.7761
#
#
#
# Elastic Compliance Matrix: (Units=1/GPa)
#
#
# Indices 1 2 3 4 5 6 
#
# 1 0.008356 -0.001987 -0.000262 0.000000 0.000000 0.000000
# 2 -0.001987 0.010233 -0.004090 0.000000 0.000000 0.000000
# 3 -0.000262 -0.004090 0.014627 0.000000 0.000000 0.000000
# 4 0.000000 0.000000 0.000000 0.032537 0.000000 0.000000
# 5 0.000000 0.000000 0.000000 0.000000 0.428102 0.000000
# 6 0.000000 0.000000 0.000000 0.000000 0.000000 -0.264820
#
#
# Mechanical properties :
#
#
# Convention : Reuss Voigt Hill
#
# Bulk Modulus (GPa) = 48.68719 51.71957 50.20338
# Shear Modulus (GPa) = 20.11607 22.46050 21.28828
#
# Velocity S-wave (km/s) = 3.33672 3.52580 3.43256
# Velocity P-wave (km/s) = 6.46466 6.72312 6.59516
#
# Compressibility (1/GPa) = 0.02053928
#
# Stress axis : x y z
#
# Youngs Moduli (GPa) = 119.67709 97.72579 68.36616
#
# Poissons Ratio (x) = 0.19418 0.01788
# Poissons Ratio (y) = 0.23780 0.27959
# Poissons Ratio (z) = 0.03130 0.39966
#
# Static dielectric constant tensor:
#      x y z
#    x 1.603420 0.000000 0.000000 
#    y 0.000000 1.613580 0.000000 
#    z 0.000000 0.000000 1.657850 
# 
# From -- ./inp_files/5438.got.cif
#   From: 2010.05.17/outbox.ucp.g08.bks.cvg/sg38_3_cif.got.tgz:5438.got - 2010.06.11 10:39:43.
