data_PCOD9359960
_publ_section_title
;
Structure prediction by ZEFSAII (Michael W. Deem and Ramdas Pophale) SiO2 
 PCOD9359960
Probable space group: A B M 2
;
_chemical_formula_sum "Si O2"
_cell_formula_units_Z 36
_cell_length_a 7.713097
_cell_length_b 16.507943
_cell_length_c 12.610683
_cell_angle_alpha 90.000000
_cell_angle_beta 90.000000
_cell_angle_gamma 90.000000
_cell_volume 1605.685045
_symmetry_space_group_name_H-M "A B M 2"
_symmetry_group_IT_number 39
_symmetry_cell_setting 'orthorhombic'
loop_
_space_group_symop_operation_xyz
x,y,z
-x,-y,z
-x,1/2+y,z
x,1/2-y,z
x,1/2+y,1/2+z
-x,1/2-y,1/2+z
-x,y,1/2+z
x,-y,1/2+z
loop_
_atom_site_type_symbol
_atom_site_label
_atom_site_fract_x
_atom_site_fract_y
_atom_site_fract_z
Si Si1 0.666558 0.750000 0.672310
Si Si2 0.761051 0.080658 0.213407
Si Si3 0.853278 0.911438 0.248395
Si Si4 0.253625 0.750000 0.633315
Si Si5 0.464872 0.084116 0.392764
Si Si6 0.369543 0.250000 0.922555
O O1 0.742574 0.661364 0.641381
O O2 0.461231 0.750000 0.652661
O O3 0.690153 0.750000 0.801052
O O4 0.593944 0.079474 0.289837
O O5 0.943756 0.088157 0.275624
O O6 0.790533 0.988017 0.175557
O O7 0.818585 0.829462 0.186933
O O8 0.730024 0.913643 0.350519
O O9 0.219231 0.750000 0.508371
O O10 0.519333 0.168939 0.442361
O O11 0.500000 0.000000 0.453521
#
# Coordination Sequence:
#
# PCOD9359960 Si02
#       6
#     4   8   8   4   8   4
#     4  10  19  38  57  76 114 142 182 232 273 332
#     4   9  18  32  61  82 106 144 185 224 285 330
#     4  10  18  33  59  84 105 146 185 230 279 332
#     4  12  21  33  59  79 113 154 183 229 285 329
#     4   9  17  35  57  80 110 140 182 229 277 332
#     4  10  20  35  54  83 109 146 189 219 280 335
#
# _framework density 22.420335999999999
#
# number of rings (size 3 to 8) (size 9 to 14) (size 15 to 20)
#    0.000    2.222    4.444    0.667    0.000    0.000 
#    4.000    0.000   19.556   10.667    0.000    0.000 
#    0.000    0.000    0.000    0.000    0.000    0.000 
#
# Total GULP energy -100263.025229 kJ/mol
# GULP energy per Si atom -5570.168068 kJ/mol
# Density = 2.236931 g / cm^3
# Si number density = 22.420336 Si / 1000 Ang^3
#
#
#
# Elastic Constant Matrix: (Units=GPa)
#
#
# Indices 1 2 3 4 5 6 
#
# 1 115.1098 5.1831 -7.2414 0.0000 0.0000 0.0000
# 2 5.1831 217.6277 0.2425 0.0000 0.0000 0.0000
# 3 -7.2414 0.2425 35.5192 0.0000 0.0000 0.0000
# 4 0.0000 0.0000 0.0000 -16.3553 0.0000 0.0000
# 5 0.0000 0.0000 0.0000 0.0000 10.0568 0.0000
# 6 0.0000 0.0000 0.0000 0.0000 0.0000 40.0197
#
#
#
# Elastic Compliance Matrix: (Units=1/GPa)
#
#
# Indices 1 2 3 4 5 6 
#
# 1 0.008810 -0.000212 0.001798 0.000000 0.000000 0.000000
# 2 -0.000212 0.004600 -0.000075 0.000000 0.000000 0.000000
# 3 0.001798 -0.000075 0.028521 0.000000 0.000000 0.000000
# 4 0.000000 0.000000 0.000000 -0.061142 0.000000 0.000000
# 5 0.000000 0.000000 0.000000 0.000000 0.099435 0.000000
# 6 0.000000 0.000000 0.000000 0.000000 0.000000 0.024988
#
#
# Mechanical properties :
#
#
# Convention : Reuss Voigt Hill
#
# Bulk Modulus (GPa) = 22.24538 40.51391 31.37964
# Shear Modulus (GPa) = 42.67173 31.41574 37.04373
#
# Velocity S-wave (km/s) = 4.36737 3.74734 4.06918
# Velocity P-wave (km/s) = 5.94772 6.06901 6.00867
#
# Compressibility (1/GPa) = 0.04495316
#
# Stress axis : x y z
#
# Youngs Moduli (GPa) = 113.50762 217.38512 35.06218
#
# Poissons Ratio (x) = 0.04605 -0.06303
# Poissons Ratio (y) = 0.02404 0.00262
# Poissons Ratio (z) = -0.20404 0.01622
#
# Static dielectric constant tensor:
#      x y z
#    x 1.800200 0.000000 0.000000 
#    y 0.000000 1.970700 0.000000 
#    z 0.000000 0.000000 1.804300 
# 
# From -- ./inp_files/8168.got.cif
#   From: 2010.05.17/outbox.cif.g08.bks.cpg/sg39_5_cif.got.tgz:8168.got - 2010.06.03 18:22:40.
