data_PCOD9359320
_publ_section_title
;
Structure prediction by ZEFSAII (Michael W. Deem and Ramdas Pophale) SiO2 
 PCOD9359320
Probable space group: A M M 2
;
_chemical_formula_sum "Si O2"
_cell_formula_units_Z 48
_cell_length_a 15.520438
_cell_length_b 16.624521
_cell_length_c 9.447593
_cell_angle_alpha 90.000000
_cell_angle_beta 90.000000
_cell_angle_gamma 90.000000
_cell_volume 2437.666505
_symmetry_space_group_name_H-M "A M M 2"
_symmetry_group_IT_number 38
_symmetry_cell_setting 'orthorhombic'
loop_
_space_group_symop_operation_xyz
x,y,z
-x,-y,z
-x,y,z
x,-y,z
x,1/2+y,1/2+z
-x,1/2-y,1/2+z
-x,1/2+y,1/2+z
x,1/2-y,1/2+z
loop_
_atom_site_type_symbol
_atom_site_label
_atom_site_fract_x
_atom_site_fract_y
_atom_site_fract_z
Si Si1 0.741943 0.347307 0.973080
Si Si2 0.196967 0.589572 0.260891
Si Si3 0.000000 0.151144 0.758562
Si Si4 0.712826 0.162824 0.023135
Si Si5 0.000000 0.693441 0.579874
Si Si6 0.850411 0.905770 0.226964
Si Si7 0.400023 0.403540 0.745183
O O1 0.824171 0.360328 0.870549
O O2 0.661234 0.370320 0.872204
O O3 0.760651 0.403125 0.106844
O O4 0.732023 0.257620 0.034732
O O5 0.204069 0.500000 0.317787
O O6 0.094003 0.608249 0.252304
O O7 0.254486 0.643660 0.365576
O O8 0.000000 0.217011 0.636719
O O9 0.000000 0.192134 0.912167
O O10 0.770246 0.105510 0.122822
O O11 0.621838 0.140665 0.095292
O O12 0.078478 0.643601 0.644019
O O13 0.869879 0.000000 0.250399
O O14 0.500000 0.390048 0.780303
O O15 0.386433 0.500000 0.733005
#
# Coordination Sequence:
#
# PCOD9359320 Si02
#       7
#     8   8   4   8   4   8   8
#     4  11  23  41  62  93 126 164 202 254 313 378
#     4  12  24  39  62  91 127 163 207 262 313 361
#     4  12  27  41  60  92 128 170 212 264 314 356
#     4  11  21  39  64  90 122 159 207 252 311 368
#     4  12  25  41  62  88 124 168 218 270 310 362
#     4  11  23  40  63  87 120 167 216 255 304 372
#     4  10  22  43  68  92 123 164 208 253 309 382
#
# _framework density 19.690961999999999
#
# number of rings (size 3 to 8) (size 9 to 14) (size 15 to 20)
#    0.000    0.833    1.667    8.500    2.333    1.333 
#    0.000    2.500    0.000    3.000    0.000    0.000 
#    0.000    0.000    0.000    0.000    0.000    0.000 
#
# Total GULP energy -133826.282309 kJ/mol
# GULP energy per Si atom -5576.095096 kJ/mol
# Density = 1.964614 g / cm^3
# Si number density = 19.690962 Si / 1000 Ang^3
#
#
#
# Elastic Constant Matrix: (Units=GPa)
#
#
# Indices 1 2 3 4 5 6 
#
# 1 61.2252 -12.1411 20.7951 0.0000 0.0000 0.0000
# 2 -12.1411 71.6969 -1.4194 0.0000 0.0000 0.0000
# 3 20.7951 -1.4194 88.7669 0.0000 0.0000 0.0000
# 4 0.0000 0.0000 0.0000 29.9970 0.0000 0.0000
# 5 0.0000 0.0000 0.0000 0.0000 -24.7082 0.0000
# 6 0.0000 0.0000 0.0000 0.0000 0.0000 23.2623
#
#
#
# Elastic Compliance Matrix: (Units=1/GPa)
#
#
# Indices 1 2 3 4 5 6 
#
# 1 0.018380 0.003028 -0.004257 0.000000 0.000000 0.000000
# 2 0.003028 0.014451 -0.000478 0.000000 0.000000 0.000000
# 3 -0.004257 -0.000478 0.012255 0.000000 0.000000 0.000000
# 4 0.000000 0.000000 0.000000 0.033337 0.000000 0.000000
# 5 0.000000 0.000000 0.000000 0.000000 -0.040472 0.000000
# 6 0.000000 0.000000 0.000000 0.000000 0.000000 0.042988
#
#
# Mechanical properties :
#
#
# Convention : Reuss Voigt Hill
#
# Bulk Modulus (GPa) = 23.99768 26.23979 25.11874
# Shear Modulus (GPa) = 50.89402 20.00716 35.45059
#
# Velocity S-wave (km/s) = 5.08945 3.19102 4.24765
# Velocity P-wave (km/s) = 6.83742 5.18957 6.06967
#
# Compressibility (1/GPa) = 0.04167069
#
# Stress axis : x y z
#
# Youngs Moduli (GPa) = 54.40805 69.19975 81.59829
#
# Poissons Ratio (x) = -0.20954 0.34739
# Poissons Ratio (y) = -0.16475 0.03903
# Poissons Ratio (z) = 0.23163 0.03310
#
# Static dielectric constant tensor:
#      x y z
#    x 3.689210 0.000000 0.000000 
#    y 0.000000 1.657780 0.000000 
#    z 0.000000 0.000000 1.705790 
# 
# From -- ./inp_files/5503.got.cif
#   From: 2010.05.17/outbox.cif.g08.bks.cpg/sg38_3_cif.got.tgz:5503.got - 2010.06.03 18:07:57.
