data_PCOD9360594
_publ_section_title
;
Structure prediction by ZEFSAII (Michael W. Deem and Ramdas Pophale) SiO2 
 PCOD9360594
Probable space group: A B M 2
;
_chemical_formula_sum "Si O2"
_cell_formula_units_Z 64
_cell_length_a 9.078566
_cell_length_b 21.009339
_cell_length_c 15.675966
_cell_angle_alpha 90.000000
_cell_angle_beta 90.000000
_cell_angle_gamma 90.000000
_cell_volume 2989.950213
_symmetry_space_group_name_H-M "A B M 2"
_symmetry_group_IT_number 39
_symmetry_cell_setting 'orthorhombic'
loop_
_space_group_symop_operation_xyz
x,y,z
-x,-y,z
-x,1/2+y,z
x,1/2-y,z
x,1/2+y,1/2+z
-x,1/2-y,1/2+z
-x,y,1/2+z
x,-y,1/2+z
loop_
_atom_site_type_symbol
_atom_site_label
_atom_site_fract_x
_atom_site_fract_y
_atom_site_fract_z
Si Si1 0.540235 0.827026 0.869320
Si Si2 0.982595 0.821477 0.444100
Si Si3 0.158015 0.137884 0.099312
Si Si4 0.463165 0.674731 0.681429
Si Si5 0.104482 0.937883 0.166968
Si Si6 0.337082 0.827109 0.025438
Si Si7 0.175482 0.494135 0.008855
Si Si8 0.813002 0.914865 0.855240
O O1 0.550102 0.750000 0.872071
O O2 0.476262 0.848839 0.778141
O O3 0.697006 0.859791 0.874859
O O4 0.442849 0.848610 0.948851
O O5 0.973499 0.750000 0.405338
O O6 0.827912 0.837411 0.489912
O O7 0.100918 0.820568 0.520780
O O8 0.033821 0.879821 0.383663
O O9 0.298065 0.164282 0.147742
O O10 0.208868 0.071225 0.057983
O O11 0.010605 0.119931 0.152338
O O12 0.487135 0.750000 0.687456
O O13 0.587869 0.651105 0.614607
O O14 0.186734 0.929476 0.255466
O O15 0.201635 0.952344 0.081568
O O16 0.000000 0.000000 0.177101
O O17 0.345235 0.750000 0.030351
O O18 0.000000 0.500000 0.997529
O O19 0.225135 0.477152 0.912831
#
# Coordination Sequence:
#
# PCOD9360594 Si02
#       8
#     8   8   8   8   8   8   8   8
#     4  10  22  37  55  88 127 164 202 231 286 371
#     4  10  20  33  54  89 124 154 200 249 286 348
#     4   9  18  33  57  84 109 155 199 236 294 355
#     4  10  20  35  56  82 123 170 199 233 291 364
#     4   9  20  36  58  91 111 141 194 267 309 349
#     4   9  19  35  51  75 121 166 194 238 286 335
#     4   8  17  35  56  86 109 136 192 253 304 351
#     4  11  20  34  62  88 110 159 199 242 303 361
#
# _framework density 21.405038000000001
#
# number of rings (size 3 to 8) (size 9 to 14) (size 15 to 20)
#    0.000    2.750    0.000    2.625    3.500    1.000 
#    0.000    1.250    0.000    3.000   13.000    0.000 
#    0.000    0.000    0.000    0.000    0.000    0.000 
#
# Total GULP energy -178178.557344 kJ/mol
# GULP energy per Si atom -5568.079917 kJ/mol
# Density = 2.135632 g / cm^3
# Si number density = 21.405038 Si / 1000 Ang^3
#
#
#
# Elastic Constant Matrix: (Units=GPa)
#
#
# Indices 1 2 3 4 5 6 
#
# 1 17.6202 -3.1915 11.7921 0.0000 0.0000 0.0000
# 2 -3.1915 41.1720 20.3488 0.0000 0.0000 0.0000
# 3 11.7921 20.3488 130.4447 0.0000 0.0000 0.0000
# 4 0.0000 0.0000 0.0000 15.8209 0.0000 0.0000
# 5 0.0000 0.0000 0.0000 0.0000 29.3322 0.0000
# 6 0.0000 0.0000 0.0000 0.0000 0.0000 16.5946
#
#
#
# Elastic Compliance Matrix: (Units=1/GPa)
#
#
# Indices 1 2 3 4 5 6 
#
# 1 0.062940 0.008333 -0.006990 0.000000 0.000000 0.000000
# 2 0.008333 0.027421 -0.005031 0.000000 0.000000 0.000000
# 3 -0.006990 -0.005031 0.009083 0.000000 0.000000 0.000000
# 4 0.000000 0.000000 0.000000 0.063208 0.000000 0.000000
# 5 0.000000 0.000000 0.000000 0.000000 0.034092 0.000000
# 6 0.000000 0.000000 0.000000 0.000000 0.000000 0.060261
#
#
# Mechanical properties :
#
#
# Convention : Reuss Voigt Hill
#
# Bulk Modulus (GPa) = 10.86136 27.45954 19.16045
# Shear Modulus (GPa) = 16.94522 23.03536 19.99029
#
# Velocity S-wave (km/s) = 2.81667 3.28405 3.05930
# Velocity P-wave (km/s) = 3.95770 5.21885 4.63141
#
# Compressibility (1/GPa) = 0.09206950
#
# Stress axis : x y z
#
# Youngs Moduli (GPa) = 15.88808 36.46868 110.09877
#
# Poissons Ratio (x) = -0.30391 0.76956
# Poissons Ratio (y) = -0.13240 0.55389
# Poissons Ratio (z) = 0.11105 0.18347
#
# Static dielectric constant tensor:
#      x y z
#    x 1.801040 0.000000 0.000000 
#    y 0.000000 1.846280 0.000000 
#    z 0.000000 0.000000 1.827700 
# 
# From -- ./inp_files/8800.got.cif
#   From: 2010.05.17/outbox.cif.g08.bks.cpg/sg39_5_cif.got.tgz:8800.got - 2010.06.03 18:22:40.
