data_PCOD9360749
_publ_section_title
;
Structure prediction by ZEFSAII (Michael W. Deem and Ramdas Pophale) SiO2 
 PCOD9360749
Probable space group: A B M 2
;
_chemical_formula_sum "Si O2"
_cell_formula_units_Z 64
_cell_length_a 14.847874
_cell_length_b 9.028629
_cell_length_c 24.860954
_cell_angle_alpha 90.000000
_cell_angle_beta 90.000000
_cell_angle_gamma 90.000000
_cell_volume 3332.758702
_symmetry_space_group_name_H-M "A B M 2"
_symmetry_group_IT_number 39
_symmetry_cell_setting 'orthorhombic'
loop_
_space_group_symop_operation_xyz
x,y,z
-x,-y,z
-x,1/2+y,z
x,1/2-y,z
x,1/2+y,1/2+z
-x,1/2-y,1/2+z
-x,y,1/2+z
x,-y,1/2+z
loop_
_atom_site_type_symbol
_atom_site_label
_atom_site_fract_x
_atom_site_fract_y
_atom_site_fract_z
Si Si1 0.900813 0.427487 0.823910
Si Si2 0.406961 0.927143 0.695727
Si Si3 0.214060 0.574042 0.931574
Si Si4 0.408832 0.573001 0.961314
Si Si5 0.157628 0.083765 0.611669
Si Si6 0.910412 0.577483 0.014766
Si Si7 0.368092 0.920731 0.084569
Si Si8 0.219940 0.572870 0.231189
O O1 0.909035 0.250000 0.816344
O O2 0.845768 0.453693 0.879120
O O3 0.839785 0.499303 0.777315
O O4 0.000000 0.500000 0.825548
O O5 0.407661 0.750000 0.701216
O O6 0.500000 0.000000 0.716135
O O7 0.400167 0.974235 0.632656
O O8 0.317919 0.997039 0.723498
O O9 0.210259 0.750000 0.943541
O O10 0.319212 0.533187 0.928220
O O11 0.171659 0.486578 0.980865
O O12 0.500000 0.500000 0.941389
O O13 0.417835 0.750000 0.960105
O O14 0.394173 0.532259 0.024433
O O15 0.120950 0.250000 0.602989
O O16 0.260112 0.083103 0.589918
O O17 0.167150 0.053242 0.674646
O O18 0.103587 0.967673 0.576607
O O19 0.917608 0.750000 0.008100
O O20 0.000000 0.500000 0.993707
O O21 0.399408 0.750000 0.093884
O O22 0.231255 0.750000 0.239023
#
# Coordination Sequence:
#
# PCOD9360749 Si02
#       8
#     8   8   8   8   8   8   8   8
#     4  11  24  43  69  93 116 152 201 254 310 367
#     4  11  21  34  55  86 125 164 208 251 298 359
#     4  10  22  43  64  85 120 160 200 251 303 354
#     4  10  20  35  56  84 120 160 200 244 293 352
#     4   9  18  36  58  82 118 159 193 237 297 355
#     4  12  24  36  57  87 119 156 197 243 299 363
#     4   9  17  32  54  80 117 163 203 244 296 350
#     4  10  22  41  64  89 121 158 200 252 308 362
#
# _framework density 19.203310999999999
#
# number of rings (size 3 to 8) (size 9 to 14) (size 15 to 20)
#    0.000    1.750    1.250    4.500    0.000    7.000 
#    0.000    0.625    0.000    1.500    0.000    0.000 
#    0.000    0.000    0.000    0.000    0.000    0.000 
#
# Total GULP energy -178726.563702 kJ/mol
# GULP energy per Si atom -5585.205116 kJ/mol
# Density = 1.915960 g / cm^3
# Si number density = 19.203311 Si / 1000 Ang^3
#
#
#
# Elastic Constant Matrix: (Units=GPa)
#
#
# Indices 1 2 3 4 5 6 
#
# 1 146.6974 75.1334 55.9432 0.0000 0.0000 0.0000
# 2 75.1334 101.3942 69.3225 0.0000 0.0000 0.0000
# 3 55.9432 69.3225 74.8901 0.0000 0.0000 0.0000
# 4 0.0000 0.0000 0.0000 -28.5548 0.0000 0.0000
# 5 0.0000 0.0000 0.0000 0.0000 23.9185 0.0000
# 6 0.0000 0.0000 0.0000 0.0000 0.0000 34.5888
#
#
#
# Elastic Compliance Matrix: (Units=1/GPa)
#
#
# Indices 1 2 3 4 5 6 
#
# 1 0.011079 -0.006949 -0.001843 0.000000 0.000000 0.000000
# 2 -0.006949 0.031222 -0.023710 0.000000 0.000000 0.000000
# 3 -0.001843 -0.023710 0.036677 0.000000 0.000000 0.000000
# 4 0.000000 0.000000 0.000000 -0.035020 0.000000 0.000000
# 5 0.000000 0.000000 0.000000 0.000000 0.041809 0.000000
# 6 0.000000 0.000000 0.000000 0.000000 0.000000 0.028911
#
#
# Mechanical properties :
#
#
# Convention : Reuss Voigt Hill
#
# Bulk Modulus (GPa) = 71.56565 80.42000 75.99282
# Shear Modulus (GPa) = 27.12371 14.16267 20.64319
#
# Velocity S-wave (km/s) = 3.76233 2.71866 3.28225
# Velocity P-wave (km/s) = 7.49812 7.19889 7.35003
#
# Compressibility (1/GPa) = 0.01397318
#
# Stress axis : x y z
#
# Youngs Moduli (GPa) = 90.26205 32.02854 27.26480
#
# Poissons Ratio (x) = 0.22257 0.05026
# Poissons Ratio (y) = 0.62724 0.64645
# Poissons Ratio (z) = 0.16640 0.75940
#
# Static dielectric constant tensor:
#      x y z
#    x 1.665870 0.000000 0.000000 
#    y 0.000000 1.657810 0.000000 
#    z 0.000000 0.000000 1.666390 
# 
# From -- ./inp_files/16183.got.cif
#   From: 2010.05.17/outbox.cif.g08.bks.cpg/sg39_9_cif.got.tgz:16183.got - 2010.06.03 18:22:40.
