data_PCOD9360158
_publ_section_title
;
Structure prediction by ZEFSAII (Michael W. Deem and Ramdas Pophale) SiO2 
 PCOD9360158
Probable space group: A B M 2
;
_chemical_formula_sum "Si O2"
_cell_formula_units_Z 64
_cell_length_a 14.989755
_cell_length_b 8.828064
_cell_length_c 25.125549
_cell_angle_alpha 90.000000
_cell_angle_beta 90.000000
_cell_angle_gamma 90.000000
_cell_volume 3324.876876
_symmetry_space_group_name_H-M "A B M 2"
_symmetry_group_IT_number 39
_symmetry_cell_setting 'orthorhombic'
loop_
_space_group_symop_operation_xyz
x,y,z
-x,-y,z
-x,1/2+y,z
x,1/2-y,z
x,1/2+y,1/2+z
-x,1/2-y,1/2+z
-x,y,1/2+z
x,-y,1/2+z
loop_
_atom_site_type_symbol
_atom_site_label
_atom_site_fract_x
_atom_site_fract_y
_atom_site_fract_z
Si Si1 0.316368 0.573898 0.690110
Si Si2 0.718488 0.069162 0.809554
Si Si3 0.907622 0.068563 0.280021
Si Si4 0.093059 0.069957 0.045823
Si Si5 0.863319 0.572153 0.659278
Si Si6 0.272940 0.430836 0.508444
Si Si7 0.591186 0.926477 0.086508
Si Si8 0.400584 0.567098 0.909502
O O1 0.284379 0.750000 0.685343
O O2 0.328109 0.543328 0.752270
O O3 0.240492 0.463135 0.668539
O O4 0.398517 0.560762 0.650192
O O5 0.732088 0.250000 0.815666
O O6 0.653187 0.018176 0.856561
O O7 0.816443 0.993697 0.806284
O O8 0.908633 0.250000 0.283757
O O9 0.902894 0.027516 0.216850
O O10 0.000000 0.000000 0.301575
O O11 0.091305 0.250000 0.043588
O O12 0.105461 0.018343 0.107529
O O13 0.176318 0.006634 0.012285
O O14 0.000000 0.000000 0.026938
O O15 0.879688 0.750000 0.650132
O O16 0.262536 0.250000 0.509184
O O17 0.327365 0.487877 0.559454
O O18 0.335721 0.473217 0.458681
O O19 0.594812 0.750000 0.072251
O O20 0.500000 0.000000 0.067799
O O21 0.500000 0.500000 0.913437
O O22 0.408844 0.750000 0.908769
#
# Coordination Sequence:
#
# PCOD9360158 Si02
#       8
#     8   8   8   8   8   8   8   8
#     4   9  18  33  54  80 116 157 195 236 290 347
#     4   9  19  38  60  84 116 153 194 245 294 344
#     4  10  20  33  53  85 120 159 201 240 286 344
#     4  12  24  38  58  86 119 157 198 240 291 352
#     4  10  19  32  53  82 118 158 199 239 284 340
#     4  11  23  41  62  86 117 152 194 249 298 350
#     4  11  22  35  54  84 117 155 195 237 292 357
#     4  10  23  42  66  91 115 149 197 246 299 352
#
# _framework density 19.248833000000001
#
# number of rings (size 3 to 8) (size 9 to 14) (size 15 to 20)
#    0.000    1.750    1.250    3.375    0.000    6.000 
#    0.000    0.625    0.000    0.000    0.000    0.000 
#    0.000    0.000    0.000    0.000    0.000    0.000 
#
# Total GULP energy -178622.424264 kJ/mol
# GULP energy per Si atom -5581.950758 kJ/mol
# Density = 1.920502 g / cm^3
# Si number density = 19.248833 Si / 1000 Ang^3
#
#
#
# Elastic Constant Matrix: (Units=GPa)
#
#
# Indices 1 2 3 4 5 6 
#
# 1 153.7104 58.5912 65.0776 0.0000 0.0000 0.0000
# 2 58.5912 63.5926 40.1073 0.0000 0.0000 0.0000
# 3 65.0776 40.1073 98.1335 0.0000 0.0000 0.0000
# 4 0.0000 0.0000 0.0000 16.4655 0.0000 0.0000
# 5 0.0000 0.0000 0.0000 0.0000 12.4704 0.0000
# 6 0.0000 0.0000 0.0000 0.0000 0.0000 32.7203
#
#
#
# Elastic Compliance Matrix: (Units=1/GPa)
#
#
# Indices 1 2 3 4 5 6 
#
# 1 0.011253 -0.007627 -0.004345 0.000000 0.000000 0.000000
# 2 -0.007627 0.026356 -0.005714 0.000000 0.000000 0.000000
# 3 -0.004345 -0.005714 0.015407 0.000000 0.000000 0.000000
# 4 0.000000 0.000000 0.000000 0.060733 0.000000 0.000000
# 5 0.000000 0.000000 0.000000 0.000000 0.080190 0.000000
# 6 0.000000 0.000000 0.000000 0.000000 0.000000 0.030562
#
#
# Mechanical properties :
#
#
# Convention : Reuss Voigt Hill
#
# Bulk Modulus (GPa) = 56.67774 71.44318 64.06046
# Shear Modulus (GPa) = 18.81440 22.44193 20.62816
#
# Velocity S-wave (km/s) = 3.12978 3.41821 3.27717
# Velocity P-wave (km/s) = 6.52452 7.26464 6.90451
#
# Compressibility (1/GPa) = 0.01764361
#
# Stress axis : x y z
#
# Youngs Moduli (GPa) = 88.86767 37.94174 64.90662
#
# Poissons Ratio (x) = 0.28940 0.28201
# Poissons Ratio (y) = 0.67783 0.37086
# Poissons Ratio (z) = 0.38612 0.21679
#
# Static dielectric constant tensor:
#      x y z
#    x 1.671140 0.000000 0.000000 
#    y 0.000000 1.653830 0.000000 
#    z 0.000000 0.000000 1.690790 
# 
# From -- ./inp_files/16203.got.cif
#   From: 2010.05.17/outbox.cif.g08.bks.cpg/sg39_9_cif.got.tgz:16203.got - 2010.06.03 18:22:40.
