data_PCOD9360485
_publ_section_title
;
Structure prediction by ZEFSAII (Michael W. Deem and Ramdas Pophale) SiO2 
 PCOD9360485
Probable space group: A B M 2
;
_chemical_formula_sum "Si O2"
_cell_formula_units_Z 64
_cell_length_a 9.850980
_cell_length_b 14.809341
_cell_length_c 18.945064
_cell_angle_alpha 90.000000
_cell_angle_beta 90.000000
_cell_angle_gamma 90.000000
_cell_volume 2763.829496
_symmetry_space_group_name_H-M "A B M 2"
_symmetry_group_IT_number 39
_symmetry_cell_setting 'orthorhombic'
loop_
_space_group_symop_operation_xyz
x,y,z
-x,-y,z
-x,1/2+y,z
x,1/2-y,z
x,1/2+y,1/2+z
-x,1/2-y,1/2+z
-x,y,1/2+z
x,-y,1/2+z
loop_
_atom_site_type_symbol
_atom_site_label
_atom_site_fract_x
_atom_site_fract_y
_atom_site_fract_z
Si Si1 0.877677 0.640121 0.341850
Si Si2 0.671516 0.647014 0.784933
Si Si3 0.741687 0.354285 0.565752
Si Si4 0.766640 0.140457 0.135572
Si Si5 0.852267 0.139696 0.416433
Si Si6 0.937072 0.140021 0.683083
Si Si7 0.544905 0.397217 0.026263
Si Si8 0.570658 0.402031 0.869242
O O1 0.865727 0.750000 0.342853
O O2 0.928439 0.610992 0.264204
O O3 0.729762 0.600370 0.355299
O O4 0.992750 0.615550 0.398872
O O5 0.721153 0.750000 0.777785
O O6 0.694708 0.606884 0.707836
O O7 0.759865 0.609692 0.850176
O O8 0.516170 0.647285 0.809267
O O9 0.786576 0.250000 0.563591
O O10 0.792764 0.394121 0.490863
O O11 0.813262 0.393437 0.634766
O O12 0.579624 0.354306 0.568680
O O13 0.759757 0.250000 0.131502
O O14 0.685292 0.108180 0.067514
O O15 0.923278 0.114787 0.144638
O O16 0.844243 0.250000 0.417641
O O17 0.935328 0.250000 0.687215
O O18 0.500000 0.500000 0.020143
O O19 0.549627 0.359932 0.946907
O O20 0.500000 0.500000 0.869068
#
# Coordination Sequence:
#
# PCOD9360485 Si02
#       8
#     8   8   8   8   8   8   8   8
#     4  10  20  37  63  93 121 153 202 261 312 363
#     4  10  19  37  63  88 116 153 194 248 305 357
#     4  10  20  36  61  88 117 154 199 251 308 362
#     4  10  21  38  64  92 120 156 199 249 310 368
#     4   9  17  33  60  89 115 148 193 251 309 355
#     4   9  19  36  59  92 123 145 189 256 313 366
#     4  11  25  42  58  82 125 168 206 246 294 361
#     4  11  25  41  58  84 125 165 206 248 297 356
#
# _framework density 23.156276999999999
#
# number of rings (size 3 to 8) (size 9 to 14) (size 15 to 20)
#    0.000    2.000    2.500    0.750    3.500    2.000 
#    0.000    1.250    0.000    0.000    0.000    0.000 
#    0.000    0.000    0.000    0.000    0.000    0.000 
#
# Total GULP energy -178822.011797 kJ/mol
# GULP energy per Si atom -5588.187869 kJ/mol
# Density = 2.310357 g / cm^3
# Si number density = 23.156277 Si / 1000 Ang^3
#
#
#
# Elastic Constant Matrix: (Units=GPa)
#
#
# Indices 1 2 3 4 5 6 
#
# 1 121.1698 3.4168 4.6551 0.0000 0.0000 0.0000
# 2 3.4168 50.1391 5.6282 0.0000 0.0000 0.0000
# 3 4.6551 5.6282 44.4422 0.0000 0.0000 0.0000
# 4 0.0000 0.0000 0.0000 -11.8778 0.0000 0.0000
# 5 0.0000 0.0000 0.0000 0.0000 45.0250 0.0000
# 6 0.0000 0.0000 0.0000 0.0000 0.0000 16.2090
#
#
#
# Elastic Compliance Matrix: (Units=1/GPa)
#
#
# Indices 1 2 3 4 5 6 
#
# 1 0.008297 -0.000475 -0.000809 0.000000 0.000000 0.000000
# 2 -0.000475 0.020259 -0.002516 0.000000 0.000000 0.000000
# 3 -0.000809 -0.002516 0.022904 0.000000 0.000000 0.000000
# 4 0.000000 0.000000 0.000000 -0.084191 0.000000 0.000000
# 5 0.000000 0.000000 0.000000 0.000000 0.022210 0.000000
# 6 0.000000 0.000000 0.000000 0.000000 0.000000 0.061694
#
#
# Mechanical properties :
#
#
# Convention : Reuss Voigt Hill
#
# Bulk Modulus (GPa) = 22.79881 27.01684 24.90782
# Shear Modulus (GPa) = 68.12539 23.34132 45.73335
#
# Velocity S-wave (km/s) = 5.42989 3.17833 4.44890
# Velocity P-wave (km/s) = 7.01275 5.01613 6.09673
#
# Compressibility (1/GPa) = 0.04386194
#
# Stress axis : x y z
#
# Youngs Moduli (GPa) = 120.52051 49.36011 43.65959
#
# Poissons Ratio (x) = 0.02343 0.03532
# Poissons Ratio (y) = 0.05720 0.10985
# Poissons Ratio (z) = 0.09750 0.12419
#
# Static dielectric constant tensor:
#      x y z
#    x 1.834500 0.000000 0.000000 
#    y 0.000000 2.020450 0.000000 
#    z 0.000000 0.000000 1.856440 
# 
# From -- ./inp_files/11927.got.cif
#   From: 2010.05.17/outbox.cif.g08.bks.cpg/sg39_6_cif.got.tgz:11927.got - 2010.06.03 18:22:40.
