data_PCOD9360633
_publ_section_title
;
Structure prediction by ZEFSAII (Michael W. Deem and Ramdas Pophale) SiO2 
 PCOD9360633
Probable space group: A B M 2
;
_chemical_formula_sum "Si O2"
_cell_formula_units_Z 64
_cell_length_a 20.801954
_cell_length_b 8.849080
_cell_length_c 19.934352
_cell_angle_alpha 90.000000
_cell_angle_beta 90.000000
_cell_angle_gamma 90.000000
_cell_volume 3669.478739
_symmetry_space_group_name_H-M "A B M 2"
_symmetry_group_IT_number 39
_symmetry_cell_setting 'orthorhombic'
loop_
_space_group_symop_operation_xyz
x,y,z
-x,-y,z
-x,1/2+y,z
x,1/2-y,z
x,1/2+y,1/2+z
-x,1/2-y,1/2+z
-x,y,1/2+z
x,-y,1/2+z
loop_
_atom_site_type_symbol
_atom_site_label
_atom_site_fract_x
_atom_site_fract_y
_atom_site_fract_z
Si Si1 0.569642 0.430241 0.920080
Si Si2 0.430329 0.069622 0.578242
Si Si3 0.325029 0.568502 0.322059
Si Si4 0.931650 0.569562 0.418744
Si Si5 0.184967 0.067930 0.670199
Si Si6 0.931758 0.931850 0.574395
Si Si7 0.323338 0.069445 0.174555
Si Si8 0.822807 0.569758 0.826531
O O1 0.500000 0.500000 0.903678
O O2 0.568256 0.250000 0.909901
O O3 0.624190 0.504562 0.874618
O O4 0.581709 0.459319 0.999127
O O5 0.431421 0.250000 0.588477
O O6 0.500000 0.000000 0.594513
O O7 0.375850 0.994757 0.623456
O O8 0.329659 0.750000 0.317030
O O9 0.336027 0.497296 0.248754
O O10 0.251437 0.531126 0.342353
O O11 0.935882 0.750000 0.416070
O O12 0.920938 0.524294 0.496653
O O13 0.873902 0.512840 0.372768
O O14 0.000000 0.500000 0.397445
O O15 0.194141 0.250000 0.665309
O O16 0.127480 0.021870 0.621127
O O17 0.167929 0.034434 0.747689
O O18 0.252273 0.988074 0.654581
O O19 0.936125 0.750000 0.577244
O O20 0.000000 0.000000 0.596017
O O21 0.325251 0.250000 0.176396
O O22 0.830491 0.750000 0.834728
#
# Coordination Sequence:
#
# PCOD9360633 Si02
#       8
#     8   8   8   8   8   8   8   8
#     4  10  21  37  58  83 111 143 180 222 267 319
#     4  10  21  38  58  81 111 144 179 222 270 318
#     4  10  21  38  58  80 110 144 178 221 272 321
#     4  10  20  34  53  76 104 137 173 215 260 311
#     4   9  19  37  56  76 105 139 175 217 268 317
#     4   9  19  35  54  76 103 136 174 216 262 312
#     4  11  22  36  56  82 110 142 183 224 265 318
#     4   9  19  35  54  76 104 137 171 213 262 312
#
# _framework density 17.441168000000001
#
# number of rings (size 3 to 8) (size 9 to 14) (size 15 to 20)
#    0.000    2.250    0.000    3.375    0.000    7.000 
#    0.000    7.500    0.000    0.000    0.000    0.000 
#    0.000    0.000    0.000    0.000    0.000    0.000 
#
# Total GULP energy -178649.196832 kJ/mol
# GULP energy per Si atom -5582.787401 kJ/mol
# Density = 1.740147 g / cm^3
# Si number density = 17.441168 Si / 1000 Ang^3
#
#
#
# Elastic Constant Matrix: (Units=GPa)
#
#
# Indices 1 2 3 4 5 6 
#
# 1 188.1504 85.3261 120.7667 0.0000 0.0000 0.0000
# 2 85.3261 77.0891 62.8957 0.0000 0.0000 0.0000
# 3 120.7667 62.8957 93.0704 0.0000 0.0000 0.0000
# 4 0.0000 0.0000 0.0000 26.3516 0.0000 0.0000
# 5 0.0000 0.0000 0.0000 0.0000 41.9535 0.0000
# 6 0.0000 0.0000 0.0000 0.0000 0.0000 37.4220
#
#
#
# Elastic Compliance Matrix: (Units=1/GPa)
#
#
# Indices 1 2 3 4 5 6 
#
# 1 0.032210 -0.003459 -0.039457 0.000000 0.000000 0.000000
# 2 -0.003459 0.029286 -0.015303 0.000000 0.000000 0.000000
# 3 -0.039457 -0.015303 0.072286 0.000000 0.000000 0.000000
# 4 0.000000 0.000000 0.000000 0.037948 0.000000 0.000000
# 5 0.000000 0.000000 0.000000 0.000000 0.023836 0.000000
# 6 0.000000 0.000000 0.000000 0.000000 0.000000 0.026722
#
#
# Mechanical properties :
#
#
# Convention : Reuss Voigt Hill
#
# Bulk Modulus (GPa) = 57.66142 99.58744 78.62443
# Shear Modulus (GPa) = 14.51352 27.10017 20.80685
#
# Velocity S-wave (km/s) = 2.88782 3.94611 3.45769
# Velocity P-wave (km/s) = 6.65219 8.83093 7.81783
#
# Compressibility (1/GPa) = 0.01734262
#
# Stress axis : x y z
#
# Youngs Moduli (GPa) = 31.04662 34.14650 13.83402
#
# Poissons Ratio (x) = 0.11810 0.54586
# Poissons Ratio (y) = 0.10738 0.21170
# Poissons Ratio (z) = 1.22502 0.52255
#
# Static dielectric constant tensor:
#      x y z
#    x 1.562200 0.000000 0.000000 
#    y 0.000000 1.581730 0.000000 
#    z 0.000000 0.000000 1.576670 
# 
# From -- ./inp_files/13231.got.cif
#   From: 2010.05.17/outbox.cif.g08.bks.cpg/sg39_7_cif.got.tgz:13231.got - 2010.06.03 18:22:40.
