data_PCOD9360109
_publ_section_title
;
Structure prediction by ZEFSAII (Michael W. Deem and Ramdas Pophale) SiO2 
 PCOD9360109
Probable space group: A B M 2
;
_chemical_formula_sum "Si O2"
_cell_formula_units_Z 64
_cell_length_a 17.960202
_cell_length_b 9.151965
_cell_length_c 23.415255
_cell_angle_alpha 90.000000
_cell_angle_beta 90.000000
_cell_angle_gamma 90.000000
_cell_volume 3848.792160
_symmetry_space_group_name_H-M "A B M 2"
_symmetry_group_IT_number 39
_symmetry_cell_setting 'orthorhombic'
loop_
_space_group_symop_operation_xyz
x,y,z
-x,-y,z
-x,1/2+y,z
x,1/2-y,z
x,1/2+y,1/2+z
-x,1/2-y,1/2+z
-x,y,1/2+z
x,-y,1/2+z
loop_
_atom_site_type_symbol
_atom_site_label
_atom_site_fract_x
_atom_site_fract_y
_atom_site_fract_z
Si Si1 0.425628 0.075145 0.818250
Si Si2 0.637015 0.081563 0.710058
Si Si3 0.076285 0.926921 0.046949
Si Si4 0.138243 0.083848 0.666985
Si Si5 0.801289 0.415661 0.768763
Si Si6 0.226414 0.574162 0.502742
Si Si7 0.300990 0.418856 0.606024
Si Si8 0.267362 0.076174 0.872409
O O1 0.433182 0.250000 0.816073
O O2 0.352043 0.037458 0.854865
O O3 0.500000 0.000000 0.841265
O O4 0.410777 0.010109 0.755163
O O5 0.612298 0.250000 0.705576
O O6 0.720389 0.083639 0.737328
O O7 0.644218 0.002597 0.649119
O O8 0.076870 0.750000 0.041644
O O9 0.086859 0.963491 0.114395
O O10 0.147409 0.997641 0.015907
O O11 0.000000 0.000000 0.026596
O O12 0.120020 0.250000 0.682584
O O13 0.220930 0.084339 0.638618
O O14 0.142932 0.987891 0.723500
O O15 0.822475 0.250000 0.780280
O O16 0.787732 0.500365 0.827512
O O17 0.221214 0.750000 0.510603
O O18 0.284604 0.506157 0.547991
O O19 0.250167 0.542355 0.437932
O O20 0.322306 0.250000 0.596191
O O21 0.260501 0.250000 0.864484
#
# Coordination Sequence:
#
# PCOD9360109 Si02
#       8
#     8   8   8   8   8   8   8   8
#     4  10  19  32  49  71  98 128 162 203 251 303
#     4   9  16  27  44  68  94 121 152 189 235 287
#     4  10  20  33  50  73  99 129 161 201 251 302
#     4   8  15  27  43  64  92 121 148 181 230 284
#     4   9  16  25  43  69  93 117 150 191 233 276
#     4  10  19  32  50  72  97 130 171 212 249 292
#     4   9  16  27  44  68  95 122 152 192 238 283
#     4   9  19  33  49  69  97 132 168 205 248 295
#
# _framework density 16.628594
#
# number of rings (size 3 to 8) (size 9 to 14) (size 15 to 20)
#    0.000    2.750    0.000    3.000    0.000    8.000 
#    0.000    0.000    0.000    1.500    0.000    7.000 
#    0.000    0.000    0.000    0.000    0.000    0.000 
#
# Total GULP energy -178271.827054 kJ/mol
# GULP energy per Si atom -5570.994595 kJ/mol
# Density = 1.659075 g / cm^3
# Si number density = 16.628594 Si / 1000 Ang^3
#
#
#
# Elastic Constant Matrix: (Units=GPa)
#
#
# Indices 1 2 3 4 5 6 
#
# 1 52.6887 37.4788 38.6943 0.0000 0.0000 0.0000
# 2 37.4788 90.0207 73.2565 0.0000 0.0000 0.0000
# 3 38.6943 73.2565 131.7494 0.0000 0.0000 0.0000
# 4 0.0000 0.0000 0.0000 27.6747 0.0000 0.0000
# 5 0.0000 0.0000 0.0000 0.0000 12.1228 0.0000
# 6 0.0000 0.0000 0.0000 0.0000 0.0000 18.4260
#
#
#
# Elastic Compliance Matrix: (Units=1/GPa)
#
#
# Indices 1 2 3 4 5 6 
#
# 1 0.027660 -0.008959 -0.003142 0.000000 0.000000 0.000000
# 2 -0.008959 0.023190 -0.010263 0.000000 0.000000 0.000000
# 3 -0.003142 -0.010263 0.014220 0.000000 0.000000 0.000000
# 4 0.000000 0.000000 0.000000 0.036134 0.000000 0.000000
# 5 0.000000 0.000000 0.000000 0.000000 0.082489 0.000000
# 6 0.000000 0.000000 0.000000 0.000000 0.000000 0.054271
#
#
# Mechanical properties :
#
#
# Convention : Reuss Voigt Hill
#
# Bulk Modulus (GPa) = 49.16128 63.70201 56.43165
# Shear Modulus (GPa) = 17.27277 19.97999 18.62638
#
# Velocity S-wave (km/s) = 3.22644 3.47009 3.35048
# Velocity P-wave (km/s) = 6.59609 7.37884 6.99842
#
# Compressibility (1/GPa) = 0.02034121
#
# Stress axis : x y z
#
# Youngs Moduli (GPa) = 36.15393 43.12122 70.32427
#
# Poissons Ratio (x) = 0.38630 0.22098
# Poissons Ratio (y) = 0.32389 0.72177
# Poissons Ratio (z) = 0.11361 0.44257
#
# Static dielectric constant tensor:
#      x y z
#    x 1.572670 0.000000 0.000000 
#    y 0.000000 1.561460 0.000000 
#    z 0.000000 0.000000 1.549900 
# 
# From -- ./inp_files/16342.got.cif
#   From: 2010.05.17/outbox.cif.g08.bks.cpg/sg39_9_cif.got.tgz:16342.got - 2010.06.03 18:22:40.
