data_PCOD9360978
_publ_section_title
;
Structure prediction by ZEFSAII (Michael W. Deem and Ramdas Pophale) SiO2 
 PCOD9360978
Probable space group: A B M 2
;
_chemical_formula_sum "Si O2"
_cell_formula_units_Z 64
_cell_length_a 24.540294
_cell_length_b 8.638530
_cell_length_c 15.698841
_cell_angle_alpha 90.000000
_cell_angle_beta 90.000000
_cell_angle_gamma 90.000000
_cell_volume 3328.029736
_symmetry_space_group_name_H-M "A B M 2"
_symmetry_group_IT_number 39
_symmetry_cell_setting 'orthorhombic'
loop_
_space_group_symop_operation_xyz
x,y,z
-x,-y,z
-x,1/2+y,z
x,1/2-y,z
x,1/2+y,1/2+z
-x,1/2-y,1/2+z
-x,y,1/2+z
x,-y,1/2+z
loop_
_atom_site_type_symbol
_atom_site_label
_atom_site_fract_x
_atom_site_fract_y
_atom_site_fract_z
Si Si1 0.825035 0.936083 0.479540
Si Si2 0.942909 0.435911 0.917944
Si Si3 0.758413 0.934668 0.819790
Si Si4 0.942920 0.935835 0.218460
Si Si5 0.363446 0.936397 0.818765
Si Si6 0.560002 0.563876 0.163081
Si Si7 0.175508 0.564021 0.659783
Si Si8 0.560640 0.563554 0.967361
O O1 0.823776 0.750000 0.481811
O O2 0.887854 0.986877 0.464135
O O3 0.789530 0.994875 0.400951
O O4 0.805284 0.005425 0.568364
O O5 0.944925 0.250000 0.920490
O O6 0.938488 0.482786 0.818203
O O7 0.000000 0.500000 0.951901
O O8 0.760567 0.750000 0.823518
O O9 0.696438 0.992313 0.819089
O O10 0.789060 0.994751 0.735731
O O11 0.945171 0.750000 0.215712
O O12 0.887586 0.986350 0.172832
O O13 0.000000 0.000000 0.184435
O O14 0.359766 0.750000 0.819360
O O15 0.396598 0.985334 0.733887
O O16 0.397390 0.992992 0.900440
O O17 0.500000 0.500000 0.183210
O O18 0.557163 0.750000 0.165222
O O19 0.573734 0.519437 0.065596
O O20 0.177494 0.750000 0.664544
O O21 0.500000 0.500000 0.949278
O O22 0.560614 0.750000 0.961000
#
# Coordination Sequence:
#
# PCOD9360978 Si02
#       8
#     8   8   8   8   8   8   8   8
#     4  11  23  42  64  89 120 157 202 252 306 367
#     4   9  18  34  57  85 118 154 192 240 300 362
#     4  12  26  44  64  88 118 160 208 257 310 364
#     4   9  18  34  57  85 118 155 192 240 300 360
#     4  11  23  40  62  88 120 161 203 252 305 357
#     4   9  20  37  60  89 124 161 196 238 292 347
#     4  11  23  42  64  89 121 158 201 251 306 366
#     4  10  20  37  60  91 127 162 202 246 296 359
#
# _framework density 19.230598000000001
#
# number of rings (size 3 to 8) (size 9 to 14) (size 15 to 20)
#    0.000    1.750    1.250    3.000    0.000    6.000 
#    0.000    6.250    0.000    0.000    0.000    0.000 
#    0.000    0.000    0.000    0.000    0.000    0.000 
#
# Total GULP energy -178838.830751 kJ/mol
# GULP energy per Si atom -5588.713461 kJ/mol
# Density = 1.918683 g / cm^3
# Si number density = 19.230598 Si / 1000 Ang^3
#
#
#
# Elastic Constant Matrix: (Units=GPa)
#
#
# Indices 1 2 3 4 5 6 
#
# 1 123.5555 13.4781 55.6712 0.0000 0.0000 0.0000
# 2 13.4781 31.5228 2.0427 0.0000 0.0000 0.0000
# 3 55.6712 2.0427 90.1584 0.0000 0.0000 0.0000
# 4 0.0000 0.0000 0.0000 25.5833 0.0000 0.0000
# 5 0.0000 0.0000 0.0000 0.0000 -55.0517 0.0000
# 6 0.0000 0.0000 0.0000 0.0000 0.0000 35.2929
#
#
#
# Elastic Compliance Matrix: (Units=1/GPa)
#
#
# Indices 1 2 3 4 5 6 
#
# 1 0.011843 -0.004597 -0.007209 0.000000 0.000000 0.000000
# 2 -0.004597 0.033554 0.002078 0.000000 0.000000 0.000000
# 3 -0.007209 0.002078 0.015496 0.000000 0.000000 0.000000
# 4 0.000000 0.000000 0.000000 0.039088 0.000000 0.000000
# 5 0.000000 0.000000 0.000000 0.000000 -0.018165 0.000000
# 6 0.000000 0.000000 0.000000 0.000000 0.000000 0.028334
#
#
# Mechanical properties :
#
#
# Convention : Reuss Voigt Hill
#
# Bulk Modulus (GPa) = 24.13235 43.06895 33.60065
# Shear Modulus (GPa) = 34.86332 12.76789 23.81560
#
# Velocity S-wave (km/s) = 4.26245 2.57949 3.52294
# Velocity P-wave (km/s) = 6.06636 5.59610 5.83597
#
# Compressibility (1/GPa) = 0.04143815
#
# Stress axis : x y z
#
# Youngs Moduli (GPa) = 84.43788 29.80294 64.53376
#
# Poissons Ratio (x) = 0.13699 0.46521
# Poissons Ratio (y) = 0.38812 -0.13411
# Poissons Ratio (z) = 0.60869 -0.06193
#
# Static dielectric constant tensor:
#      x y z
#    x 1.647680 0.000000 0.000000 
#    y 0.000000 1.647780 0.000000 
#    z 0.000000 0.000000 1.677560 
# 
# From -- ./inp_files/10687.got.cif
#   From: 2010.05.17/outbox.cif.g08.bks.cpg/sg39_6_cif.got.tgz:10687.got - 2010.06.03 18:22:40.
