data_PCOD9360744
_publ_section_title
;
Structure prediction by ZEFSAII (Michael W. Deem and Ramdas Pophale) SiO2 
 PCOD9360744
Probable space group: A B M 2
;
_chemical_formula_sum "Si O2"
_cell_formula_units_Z 64
_cell_length_a 14.316747
_cell_length_b 8.690627
_cell_length_c 26.648000
_cell_angle_alpha 90.000000
_cell_angle_beta 90.000000
_cell_angle_gamma 90.000000
_cell_volume 3315.584346
_symmetry_space_group_name_H-M "A B M 2"
_symmetry_group_IT_number 39
_symmetry_cell_setting 'orthorhombic'
loop_
_space_group_symop_operation_xyz
x,y,z
-x,-y,z
-x,1/2+y,z
x,1/2-y,z
x,1/2+y,1/2+z
-x,1/2-y,1/2+z
-x,y,1/2+z
x,-y,1/2+z
loop_
_atom_site_type_symbol
_atom_site_label
_atom_site_fract_x
_atom_site_fract_y
_atom_site_fract_z
Si Si1 0.715470 0.565810 0.148290
Si Si2 0.708515 0.564684 0.451405
Si Si3 0.105311 0.934537 0.302999
Si Si4 0.395439 0.065123 0.553615
Si Si5 0.394963 0.066359 0.854545
Si Si6 0.104433 0.934459 0.190848
Si Si7 0.896633 0.066922 0.907305
Si Si8 0.395042 0.434767 0.249704
O O1 0.716966 0.750000 0.144724
O O2 0.660128 0.496474 0.101613
O O3 0.820270 0.501804 0.152800
O O4 0.661922 0.523664 0.199907
O O5 0.700304 0.750000 0.446586
O O6 0.658430 0.518311 0.502749
O O7 0.658857 0.489599 0.403610
O O8 0.818705 0.527042 0.448486
O O9 0.105888 0.750000 0.307448
O O10 0.139572 0.976573 0.247437
O O11 0.143799 0.005728 0.354103
O O12 0.000000 0.000000 0.302842
O O13 0.399015 0.250000 0.555404
O O14 0.500000 0.000000 0.553238
O O15 0.397260 0.250000 0.852568
O O16 0.500000 0.000000 0.857801
O O17 0.355475 0.003891 0.801578
O O18 0.100680 0.750000 0.187928
O O19 0.000000 0.000000 0.184415
O O20 0.905653 0.250000 0.903739
O O21 0.000000 0.000000 0.915802
O O22 0.500000 0.500000 0.244439
O O23 0.398393 0.250000 0.254179
#
# Coordination Sequence:
#
# PCOD9360744 Si02
#       8
#     8   8   8   8   8   8   8   8
#     4  11  24  40  62  90 120 158 204 250 305 363
#     4  10  23  41  61  87 119 158 202 248 302 359
#     4   9  17  30  50  79 114 155 198 239 287 343
#     4  11  24  44  68  91 119 154 200 254 308 365
#     4  11  22  36  58  86 119 155 193 241 298 362
#     4  10  21  37  58  86 123 162 205 252 300 359
#     4  10  20  35  56  83 119 158 199 246 294 350
#     4  10  21  37  57  84 119 156 193 240 298 363
#
# _framework density 19.302781
#
# number of rings (size 3 to 8) (size 9 to 14) (size 15 to 20)
#    0.000    1.750    0.000    5.625    1.750    7.500 
#    0.000    0.625    0.000    1.500    0.000    0.000 
#    0.000    0.000    0.000    0.000    0.000    0.000 
#
# Total GULP energy -178766.992487 kJ/mol
# GULP energy per Si atom -5586.468515 kJ/mol
# Density = 1.925885 g / cm^3
# Si number density = 19.302781 Si / 1000 Ang^3
#
#
#
# Elastic Constant Matrix: (Units=GPa)
#
#
# Indices 1 2 3 4 5 6 
#
# 1 141.4598 48.6203 97.4857 0.0000 0.0000 0.0000
# 2 48.6203 61.4470 60.3788 0.0000 0.0000 0.0000
# 3 97.4857 60.3788 157.3213 0.0000 0.0000 0.0000
# 4 0.0000 0.0000 0.0000 7.7347 0.0000 0.0000
# 5 0.0000 0.0000 0.0000 0.0000 39.2442 0.0000
# 6 0.0000 0.0000 0.0000 0.0000 0.0000 24.1912
#
#
#
# Elastic Compliance Matrix: (Units=1/GPa)
#
#
# Indices 1 2 3 4 5 6 
#
# 1 0.012858 -0.003765 -0.006523 0.000000 0.000000 0.000000
# 2 -0.003765 0.027230 -0.008118 0.000000 0.000000 0.000000
# 3 -0.006523 -0.008118 0.013514 0.000000 0.000000 0.000000
# 4 0.000000 0.000000 0.000000 0.129288 0.000000 0.000000
# 5 0.000000 0.000000 0.000000 0.000000 0.025481 0.000000
# 6 0.000000 0.000000 0.000000 0.000000 0.000000 0.041337
#
#
# Mechanical properties :
#
#
# Convention : Reuss Voigt Hill
#
# Bulk Modulus (GPa) = 59.55495 85.91088 72.73292
# Shear Modulus (GPa) = 17.11647 24.48356 20.80002
#
# Velocity S-wave (km/s) = 2.98104 3.56532 3.28619
# Velocity P-wave (km/s) = 6.53979 7.84553 7.22223
#
# Compressibility (1/GPa) = 0.01679122
#
# Stress axis : x y z
#
# Youngs Moduli (GPa) = 77.77091 36.72476 73.99778
#
# Poissons Ratio (x) = 0.13826 0.48268
# Poissons Ratio (y) = 0.29278 0.60069
# Poissons Ratio (z) = 0.50729 0.29812
#
# Static dielectric constant tensor:
#      x y z
#    x 1.676260 0.000000 0.000000 
#    y 0.000000 1.646050 0.000000 
#    z 0.000000 0.000000 1.672820 
# 
# From -- ./inp_files/16246.got.cif
#   From: 2010.05.17/outbox.cif.g08.bks.cpg/sg39_9_cif.got.tgz:16246.got - 2010.06.03 18:22:40.
