data_PCOD9360872
_publ_section_title
;
Structure prediction by ZEFSAII (Michael W. Deem and Ramdas Pophale) SiO2 
 PCOD9360872
Probable space group: A B M 2
;
_chemical_formula_sum "Si O2"
_cell_formula_units_Z 64
_cell_length_a 24.729256
_cell_length_b 8.781425
_cell_length_c 14.524330
_cell_angle_alpha 90.000000
_cell_angle_beta 90.000000
_cell_angle_gamma 90.000000
_cell_volume 3154.076006
_symmetry_space_group_name_H-M "A B M 2"
_symmetry_group_IT_number 39
_symmetry_cell_setting 'orthorhombic'
loop_
_space_group_symop_operation_xyz
x,y,z
-x,-y,z
-x,1/2+y,z
x,1/2-y,z
x,1/2+y,1/2+z
-x,1/2-y,1/2+z
-x,y,1/2+z
x,-y,1/2+z
loop_
_atom_site_type_symbol
_atom_site_label
_atom_site_fract_x
_atom_site_fract_y
_atom_site_fract_z
Si Si1 0.264313 0.924153 0.597030
Si Si2 0.058116 0.431095 0.426900
Si Si3 0.847449 0.067155 0.065336
Si Si4 0.126908 0.570725 0.277496
Si Si5 0.558391 0.432044 0.487099
Si Si6 0.236791 0.575658 0.816665
Si Si7 0.644604 0.565887 0.345297
Si Si8 0.626133 0.931247 0.643023
O O1 0.275392 0.750000 0.569375
O O2 0.250611 0.922533 0.707041
O O3 0.210780 0.990626 0.549887
O O4 0.317929 0.025512 0.590823
O O5 0.054844 0.250000 0.432072
O O6 0.105205 0.482611 0.496990
O O7 0.078902 0.482040 0.326848
O O8 0.000000 0.500000 0.448426
O O9 0.840713 0.250000 0.058522
O O10 0.866005 0.032970 0.169891
O O11 0.117913 0.750000 0.286374
O O12 0.183533 0.524320 0.325426
O O13 0.500000 0.500000 0.463602
O O14 0.557058 0.250000 0.486950
O O15 0.602901 0.493609 0.415812
O O16 0.577580 0.495574 0.585714
O O17 0.224618 0.750000 0.844392
O O18 0.292491 0.523147 0.863341
O O19 0.642102 0.750000 0.347000
O O20 0.630193 0.505197 0.243714
O O21 0.620933 0.750000 0.648901
#
# Coordination Sequence:
#
# PCOD9360872 Si02
#       8
#     8   8   8   8   8   8   8   8
#     4   9  17  32  57  89 120 151 190 237 287 346
#     4  11  24  41  58  79 110 147 191 237 283 337
#     4   9  20  38  59  84 115 150 186 231 286 344
#     4  10  20  36  59  86 115 147 186 230 280 336
#     4  12  26  44  63  87 118 156 204 252 297 351
#     4   8  16  32  56  86 119 151 185 228 282 341
#     4  10  21  40  64  92 124 158 196 242 296 354
#     4  11  22  39  63  91 123 160 198 243 297 351
#
# _framework density 20.291202999999999
#
# number of rings (size 3 to 8) (size 9 to 14) (size 15 to 20)
#    0.000    2.000    0.000    4.500    0.000    7.000 
#    0.000    5.000    0.000    0.000    0.000    0.000 
#    0.000    0.000    0.000    0.000    0.000    0.000 
#
# Total GULP energy -178898.378837 kJ/mol
# GULP energy per Si atom -5590.574339 kJ/mol
# Density = 2.024502 g / cm^3
# Si number density = 20.291203 Si / 1000 Ang^3
#
#
#
# Elastic Constant Matrix: (Units=GPa)
#
#
# Indices 1 2 3 4 5 6 
#
# 1 91.4512 32.2071 25.2837 0.0000 0.0000 0.0000
# 2 32.2071 86.7307 13.1708 0.0000 0.0000 0.0000
# 3 25.2837 13.1708 59.7355 0.0000 0.0000 0.0000
# 4 0.0000 0.0000 0.0000 23.5134 0.0000 0.0000
# 5 0.0000 0.0000 0.0000 0.0000 26.3764 0.0000
# 6 0.0000 0.0000 0.0000 0.0000 0.0000 38.2801
#
#
#
# Elastic Compliance Matrix: (Units=1/GPa)
#
#
# Indices 1 2 3 4 5 6 
#
# 1 0.013833 -0.004395 -0.004886 0.000000 0.000000 0.000000
# 2 -0.004395 0.013326 -0.001078 0.000000 0.000000 0.000000
# 3 -0.004886 -0.001078 0.019046 0.000000 0.000000 0.000000
# 4 0.000000 0.000000 0.000000 0.042529 0.000000 0.000000
# 5 0.000000 0.000000 0.000000 0.000000 0.037913 0.000000
# 6 0.000000 0.000000 0.000000 0.000000 0.000000 0.026123
#
#
# Mechanical properties :
#
#
# Convention : Reuss Voigt Hill
#
# Bulk Modulus (GPa) = 39.23513 42.13783 40.68648
# Shear Modulus (GPa) = 27.47494 28.78438 28.12966
#
# Velocity S-wave (km/s) = 3.68371 3.77047 3.72734
# Velocity P-wave (km/s) = 6.12135 6.30610 6.21441
#
# Compressibility (1/GPa) = 0.02548736
#
# Stress axis : x y z
#
# Youngs Moduli (GPa) = 72.28836 75.04303 52.50382
#
# Poissons Ratio (x) = 0.32981 0.25654
# Poissons Ratio (y) = 0.31771 0.05659
# Poissons Ratio (z) = 0.35321 0.08089
#
# Static dielectric constant tensor:
#      x y z
#    x 1.699800 0.000000 0.000000 
#    y 0.000000 1.676010 0.000000 
#    z 0.000000 0.000000 1.774880 
# 
# From -- ./inp_files/10681.got.cif
#   From: 2010.05.17/outbox.cif.g08.bks.cpg/sg39_6_cif.got.tgz:10681.got - 2010.06.03 18:22:40.
