data_PCOD9360625
_publ_section_title
;
Structure prediction by ZEFSAII (Michael W. Deem and Ramdas Pophale) SiO2 
 PCOD9360625
Probable space group: A B M 2
;
_chemical_formula_sum "Si O2"
_cell_formula_units_Z 48
_cell_length_a 16.261246
_cell_length_b 9.036391
_cell_length_c 15.217323
_cell_angle_alpha 90.000000
_cell_angle_beta 90.000000
_cell_angle_gamma 90.000000
_cell_volume 2236.078744
_symmetry_space_group_name_H-M "A B M 2"
_symmetry_group_IT_number 39
_symmetry_cell_setting 'orthorhombic'
loop_
_space_group_symop_operation_xyz
x,y,z
-x,-y,z
-x,1/2+y,z
x,1/2-y,z
x,1/2+y,1/2+z
-x,1/2-y,1/2+z
-x,y,1/2+z
x,-y,1/2+z
loop_
_atom_site_type_symbol
_atom_site_label
_atom_site_fract_x
_atom_site_fract_y
_atom_site_fract_z
Si Si1 0.747475 0.426738 0.526240
Si Si2 0.420150 0.084225 0.573592
Si Si3 0.742314 0.071238 0.834538
Si Si4 0.084427 0.422262 0.530432
Si Si5 0.420921 0.083895 0.781198
Si Si6 0.081762 0.080367 0.314989
O O1 0.749237 0.250000 0.532141
O O2 0.663737 0.492453 0.565466
O O3 0.743745 0.485530 0.426505
O O4 0.833208 0.494632 0.561320
O O5 0.410399 0.250000 0.535480
O O6 0.435339 0.100638 0.677381
O O7 0.500000 0.000000 0.536374
O O8 0.743493 0.250000 0.846339
O O9 0.827688 0.028079 0.786671
O O10 0.659479 0.016448 0.790374
O O11 0.086561 0.250000 0.555053
O O12 0.083749 0.427469 0.422552
O O13 0.000000 0.500000 0.559120
O O14 0.409507 0.250000 0.818344
O O15 0.500000 0.000000 0.819475
O O16 0.074061 0.250000 0.289563
O O17 0.000000 0.000000 0.284576
#
# Coordination Sequence:
#
# PCOD9360625 Si02
#       6
#     8   8   8   8   8   8
#     4  11  21  33  52  79 108 138 174 215 260 305
#     4  10  21  38  57  77 102 133 171 213 259 313
#     4  10  20  34  52  77 108 137 170 214 259 302
#     4   9  16  28  46  71 103 137 172 210 255 304
#     4  10  21  37  57  78 101 133 171 211 257 312
#     4   8  15  26  43  68  98 132 165 201 244 292
#
# _framework density 21.466149999999999
#
# number of rings (size 3 to 8) (size 9 to 14) (size 15 to 20)
#    0.000    2.333    0.000    4.500    0.000    7.333 
#    0.000    3.333    0.000    1.000    0.000    2.333 
#    0.000    0.000    0.000    0.000    0.000    0.000 
#
# Total GULP energy -133931.815429 kJ/mol
# GULP energy per Si atom -5580.492310 kJ/mol
# Density = 2.141729 g / cm^3
# Si number density = 21.466150 Si / 1000 Ang^3
#
#
#
# Elastic Constant Matrix: (Units=GPa)
#
#
# Indices 1 2 3 4 5 6 
#
# 1 231.5489 114.5363 7.2089 0.0000 0.0000 0.0000
# 2 114.5363 184.2154 9.4454 0.0000 0.0000 0.0000
# 3 7.2089 9.4454 23.2775 0.0000 0.0000 0.0000
# 4 0.0000 0.0000 0.0000 13.8910 0.0000 0.0000
# 5 0.0000 0.0000 0.0000 0.0000 17.8516 0.0000
# 6 0.0000 0.0000 0.0000 0.0000 0.0000 32.0882
#
#
#
# Elastic Compliance Matrix: (Units=1/GPa)
#
#
# Indices 1 2 3 4 5 6 
#
# 1 0.006240 -0.003861 -0.000366 0.000000 0.000000 0.000000
# 2 -0.003861 0.007933 -0.002023 0.000000 0.000000 0.000000
# 3 -0.000366 -0.002023 0.043894 0.000000 0.000000 0.000000
# 4 0.000000 0.000000 0.000000 0.071989 0.000000 0.000000
# 5 0.000000 0.000000 0.000000 0.000000 0.056017 0.000000
# 6 0.000000 0.000000 0.000000 0.000000 0.000000 0.031164
#
#
# Mechanical properties :
#
#
# Convention : Reuss Voigt Hill
#
# Bulk Modulus (GPa) = 21.94574 77.93589 49.94082
# Shear Modulus (GPa) = 20.41431 33.28958 26.85195
#
# Velocity S-wave (km/s) = 3.08717 3.94228 3.54064
# Velocity P-wave (km/s) = 4.79094 7.55694 6.32695
#
# Compressibility (1/GPa) = 0.04556693
#
# Stress axis : x y z
#
# Youngs Moduli (GPa) = 160.25735 126.06016 22.78209
#
# Poissons Ratio (x) = 0.48671 0.00833
# Poissons Ratio (y) = 0.61875 0.04609
# Poissons Ratio (z) = 0.05862 0.25504
#
# Static dielectric constant tensor:
#      x y z
#    x 1.792580 0.000000 0.000000 
#    y 0.000000 1.746710 0.000000 
#    z 0.000000 0.000000 1.812840 
# 
# From -- ./inp_files/12637.got.cif
#   From: 2010.05.17/outbox.cif.g08.bks.cpg/sg39_7_cif.got.tgz:12637.got - 2010.06.03 18:22:40.
