data_PCOD9360239
_publ_section_title
;
Structure prediction by ZEFSAII (Michael W. Deem and Ramdas Pophale) SiO2 
 PCOD9360239
Probable space group: A B M 2
;
_chemical_formula_sum "Si O2"
_cell_formula_units_Z 64
_cell_length_a 21.195725
_cell_length_b 8.352200
_cell_length_c 18.986243
_cell_angle_alpha 90.000000
_cell_angle_beta 90.000000
_cell_angle_gamma 90.000000
_cell_volume 3361.152338
_symmetry_space_group_name_H-M "A B M 2"
_symmetry_group_IT_number 39
_symmetry_cell_setting 'orthorhombic'
loop_
_space_group_symop_operation_xyz
x,y,z
-x,-y,z
-x,1/2+y,z
x,1/2-y,z
x,1/2+y,1/2+z
-x,1/2-y,1/2+z
-x,y,1/2+z
x,-y,1/2+z
loop_
_atom_site_type_symbol
_atom_site_label
_atom_site_fract_x
_atom_site_fract_y
_atom_site_fract_z
Si Si1 0.310245 0.941547 0.690040
Si Si2 0.310947 0.554208 0.528293
Si Si3 0.430405 0.441965 0.775833
Si Si4 0.189172 0.945736 0.438873
Si Si5 0.569238 0.443071 0.438451
Si Si6 0.069421 0.558191 0.188304
Si Si7 0.810307 0.943469 0.777321
Si Si8 0.069209 0.941836 0.528564
O O1 0.307030 0.750000 0.689232
O O2 0.307900 0.998968 0.609131
O O3 0.374988 0.993246 0.727120
O O4 0.250994 0.005263 0.734028
O O5 0.311246 0.750000 0.528421
O O6 0.249855 0.503471 0.483907
O O7 0.374559 0.501383 0.488809
O O8 0.500000 0.500000 0.754296
O O9 0.428922 0.250000 0.774627
O O10 0.420463 0.495270 0.857268
O O11 0.189285 0.750000 0.438447
O O12 0.192645 0.999332 0.358097
O O13 0.125104 0.997182 0.477555
O O14 0.500000 0.500000 0.460715
O O15 0.569562 0.250000 0.438465
O O16 0.068962 0.750000 0.188228
O O17 0.126053 0.501048 0.238147
O O18 0.080232 0.500610 0.108313
O O19 0.000000 0.500000 0.210426
O O20 0.811744 0.750000 0.778530
O O21 0.069029 0.750000 0.529690
O O22 0.000000 0.000000 0.506307
#
# Coordination Sequence:
#
# PCOD9360239 Si02
#       8
#     8   8   8   8   8   8   8   8
#     4  11  22  35  54  81 110 140 176 218 265 317
#     4   9  18  33  53  76 102 134 173 214 256 307
#     4  10  20  36  58  81 108 142 178 218 263 313
#     4   9  18  34  55  76 100 135 177 217 261 311
#     4   9  18  34  56  78 102 135 172 211 255 304
#     4  10  20  34  54  79 108 141 176 216 263 316
#     4  10  21  37  56  78 105 139 179 221 265 315
#     4  10  19  33  55  79 105 138 174 215 263 315
#
# _framework density 19.041088999999999
#
# number of rings (size 3 to 8) (size 9 to 14) (size 15 to 20)
#    0.000    2.250    0.000    3.750    0.000    5.500 
#    0.000    3.750    0.000    4.500    0.000    0.000 
#    0.000    0.000    0.000    0.000    0.000    0.000 
#
# Total GULP energy -178692.728041 kJ/mol
# GULP energy per Si atom -5584.147751 kJ/mol
# Density = 1.899775 g / cm^3
# Si number density = 19.041089 Si / 1000 Ang^3
#
#
#
# Elastic Constant Matrix: (Units=GPa)
#
#
# Indices 1 2 3 4 5 6 
#
# 1 207.7875 17.6831 145.0248 0.0000 0.0000 0.0000
# 2 17.6831 17.2381 18.0230 0.0000 0.0000 0.0000
# 3 145.0248 18.0230 162.5621 0.0000 0.0000 0.0000
# 4 0.0000 0.0000 0.0000 8.3751 0.0000 0.0000
# 5 0.0000 0.0000 0.0000 0.0000 41.9280 0.0000
# 6 0.0000 0.0000 0.0000 0.0000 0.0000 24.8093
#
#
#
# Elastic Compliance Matrix: (Units=1/GPa)
#
#
# Indices 1 2 3 4 5 6 
#
# 1 0.012781 -0.001346 -0.011253 0.000000 0.000000 0.000000
# 2 -0.001346 0.065759 -0.006090 0.000000 0.000000 0.000000
# 3 -0.011253 -0.006090 0.016866 0.000000 0.000000 0.000000
# 4 0.000000 0.000000 0.000000 0.119402 0.000000 0.000000
# 5 0.000000 0.000000 0.000000 0.000000 0.023850 0.000000
# 6 0.000000 0.000000 0.000000 0.000000 0.000000 0.040307
#
#
# Mechanical properties :
#
#
# Convention : Reuss Voigt Hill
#
# Bulk Modulus (GPa) = 17.23301 83.22772 50.23036
# Shear Modulus (GPa) = 14.89483 28.81292 21.85388
#
# Velocity S-wave (km/s) = 2.79990 3.89420 3.39148
# Velocity P-wave (km/s) = 4.41845 8.00151 6.46324
#
# Compressibility (1/GPa) = 0.05802817
#
# Stress axis : x y z
#
# Youngs Moduli (GPa) = 78.23921 15.20705 59.29099
#
# Poissons Ratio (x) = 0.02046 0.66722
# Poissons Ratio (y) = 0.10528 0.36109
# Poissons Ratio (z) = 0.88045 0.09261
#
# Static dielectric constant tensor:
#      x y z
#    x 1.643640 0.000000 0.000000 
#    y 0.000000 1.664260 0.000000 
#    z 0.000000 0.000000 1.646680 
# 
# From -- ./inp_files/13147.got.cif
#   From: 2010.05.17/outbox.cif.g08.bks.cpg/sg39_7_cif.got.tgz:13147.got - 2010.06.03 18:22:40.
