data_PCOD9360959
_publ_section_title
;
Structure prediction by ZEFSAII (Michael W. Deem and Ramdas Pophale) SiO2 
 PCOD9360959
Probable space group: A B M 2
;
_chemical_formula_sum "Si O2"
_cell_formula_units_Z 64
_cell_length_a 19.233596
_cell_length_b 7.735261
_cell_length_c 20.654949
_cell_angle_alpha 90.000000
_cell_angle_beta 90.000000
_cell_angle_gamma 90.000000
_cell_volume 3072.978973
_symmetry_space_group_name_H-M "A B M 2"
_symmetry_group_IT_number 39
_symmetry_cell_setting 'orthorhombic'
loop_
_space_group_symop_operation_xyz
x,y,z
-x,-y,z
-x,1/2+y,z
x,1/2-y,z
x,1/2+y,1/2+z
-x,1/2-y,1/2+z
-x,y,1/2+z
x,-y,1/2+z
loop_
_atom_site_type_symbol
_atom_site_label
_atom_site_fract_x
_atom_site_fract_y
_atom_site_fract_z
Si Si1 0.152782 0.039134 0.629510
Si Si2 0.419395 0.458296 0.320313
Si Si3 0.319647 0.050261 0.430885
Si Si4 0.920243 0.044180 0.997932
Si Si5 0.081653 0.041640 0.761517
Si Si6 0.419094 0.456506 0.174910
Si Si7 0.173786 0.448789 0.880697
Si Si8 0.700213 0.545710 0.575529
O O1 0.154494 0.250000 0.633443
O O2 0.103755 0.991871 0.569453
O O3 0.118859 0.977576 0.696171
O O4 0.230546 0.977898 0.611551
O O5 0.500000 0.500000 0.330644
O O6 0.411061 0.250000 0.318640
O O7 0.373634 0.527952 0.379514
O O8 0.401070 0.521462 0.247663
O O9 0.341323 0.250000 0.440458
O O10 0.312058 0.972842 0.503100
O O11 0.244870 0.044927 0.396532
O O12 0.909707 0.250000 0.991899
O O13 0.872448 0.955584 0.944937
O O14 0.000000 0.000000 0.987004
O O15 0.085483 0.250000 0.762267
O O16 0.126221 0.979289 0.822926
O O17 0.000000 0.000000 0.764549
O O18 0.500000 0.500000 0.162585
O O19 0.412787 0.250000 0.174858
O O20 0.366598 0.524899 0.120962
O O21 0.192130 0.250000 0.865603
O O22 0.713944 0.750000 0.566257
#
# Coordination Sequence:
#
# PCOD9360959 Si02
#       8
#     8   8   8   8   8   8   8   8
#     4   9  19  37  58  81 112 149 188 229 281 338
#     4   9  20  38  60  86 117 150 190 231 278 335
#     4  10  21  39  60  84 116 153 189 231 285 337
#     4  11  21  37  60  83 111 149 189 234 283 336
#     4  10  22  39  57  81 111 145 189 236 284 339
#     4  10  21  38  59  87 118 151 189 233 277 331
#     4  11  23  37  56  84 114 148 191 236 282 339
#     4  10  20  37  60  84 114 154 189 229 284 338
#
# _framework density 20.826696999999999
#
# number of rings (size 3 to 8) (size 9 to 14) (size 15 to 20)
#    0.000    2.000    1.250    1.875    1.750    4.000 
#    0.000    2.500    0.000    0.000    0.000    0.000 
#    0.000    0.000    0.000    0.000    0.000    0.000 
#
# Total GULP energy -178697.450852 kJ/mol
# GULP energy per Si atom -5584.295339 kJ/mol
# Density = 2.077929 g / cm^3
# Si number density = 20.826697 Si / 1000 Ang^3
#
#
#
# Elastic Constant Matrix: (Units=GPa)
#
#
# Indices 1 2 3 4 5 6 
#
# 1 98.1254 -13.7004 67.4819 0.0000 0.0000 0.0000
# 2 -13.7004 33.4798 -1.1235 0.0000 0.0000 0.0000
# 3 67.4819 -1.1235 157.4365 0.0000 0.0000 0.0000
# 4 0.0000 0.0000 0.0000 34.6317 0.0000 0.0000
# 5 0.0000 0.0000 0.0000 0.0000 45.7709 0.0000
# 6 0.0000 0.0000 0.0000 0.0000 0.0000 18.2705
#
#
#
# Elastic Compliance Matrix: (Units=1/GPa)
#
#
# Indices 1 2 3 4 5 6 
#
# 1 0.015630 0.006173 -0.006655 0.000000 0.000000 0.000000
# 2 0.006173 0.032314 -0.002415 0.000000 0.000000 0.000000
# 3 -0.006655 -0.002415 0.009187 0.000000 0.000000 0.000000
# 4 0.000000 0.000000 0.000000 0.028875 0.000000 0.000000
# 5 0.000000 0.000000 0.000000 0.000000 0.021848 0.000000
# 6 0.000000 0.000000 0.000000 0.000000 0.000000 0.054733
#
#
# Mechanical properties :
#
#
# Convention : Reuss Voigt Hill
#
# Bulk Modulus (GPa) = 19.47997 43.81753 31.64875
# Shear Modulus (GPa) = 26.95498 35.49352 31.22425
#
# Velocity S-wave (km/s) = 3.60147 4.13271 3.87620
# Velocity P-wave (km/s) = 5.16409 6.62248 5.93823
#
# Compressibility (1/GPa) = 0.05133477
#
# Stress axis : x y z
#
# Youngs Moduli (GPa) = 63.98020 30.94675 108.84688
#
# Poissons Ratio (x) = -0.19102 0.72442
# Poissons Ratio (y) = -0.39492 0.26288
# Poissons Ratio (z) = 0.42581 0.07474
#
# Static dielectric constant tensor:
#      x y z
#    x 1.701230 0.000000 0.000000 
#    y 0.000000 1.784800 0.000000 
#    z 0.000000 0.000000 1.750790 
# 
# From -- ./inp_files/13173.got.cif
#   From: 2010.05.17/outbox.cif.g08.bks.cpg/sg39_7_cif.got.tgz:13173.got - 2010.06.03 18:22:40.
