data_PCOD9360910
_publ_section_title
;
Structure prediction by ZEFSAII (Michael W. Deem and Ramdas Pophale) SiO2 
 PCOD9360910
Probable space group: A B M 2
;
_chemical_formula_sum "Si O2"
_cell_formula_units_Z 64
_cell_length_a 5.376404
_cell_length_b 19.263223
_cell_length_c 27.279404
_cell_angle_alpha 90.000000
_cell_angle_beta 90.000000
_cell_angle_gamma 90.000000
_cell_volume 2825.242466
_symmetry_space_group_name_H-M "A B M 2"
_symmetry_group_IT_number 39
_symmetry_cell_setting 'orthorhombic'
loop_
_space_group_symop_operation_xyz
x,y,z
-x,-y,z
-x,1/2+y,z
x,1/2-y,z
x,1/2+y,1/2+z
-x,1/2-y,1/2+z
-x,y,1/2+z
x,-y,1/2+z
loop_
_atom_site_type_symbol
_atom_site_label
_atom_site_fract_x
_atom_site_fract_y
_atom_site_fract_z
Si Si1 0.506908 0.579491 0.590280
Si Si2 0.059445 0.171618 0.624490
Si Si3 0.255780 0.672795 0.523833
Si Si4 0.636018 0.073644 0.690297
Si Si5 0.102158 0.572792 0.790152
Si Si6 0.794205 0.670354 0.730477
Si Si7 0.912580 0.666800 0.919058
Si Si8 0.412793 0.165221 0.360701
O O1 0.500000 0.500000 0.577390
O O2 0.753512 0.608270 0.615206
O O3 0.471804 0.623015 0.541485
O O4 0.299435 0.592035 0.633637
O O5 0.189239 0.250000 0.624308
O O6 0.009726 0.168511 0.684235
O O7 0.907258 0.176987 0.573368
O O8 0.351265 0.750000 0.513080
O O9 0.122569 0.645136 0.475463
O O10 0.448983 0.132019 0.710481
O O11 0.813248 0.055302 0.734937
O O12 0.500000 0.000000 0.681851
O O13 0.894145 0.630637 0.778176
O O14 0.000000 0.500000 0.812091
O O15 0.325682 0.613601 0.817091
O O16 0.746408 0.750000 0.742610
O O17 0.900907 0.750000 0.919028
O O18 0.675879 0.645701 0.885636
O O19 0.183339 0.650752 0.897983
O O20 0.411658 0.250000 0.349628
#
# Coordination Sequence:
#
# PCOD9360910 Si02
#       8
#     8   8   8   8   8   8   8   8
#     4  10  21  35  55  88 125 167 200 248 308 379
#     4   9  19  35  58  88 123 159 206 259 309 368
#     4  10  20  36  62  89 118 161 209 259 314 380
#     4  10  21  39  58  86 126 165 209 254 317 383
#     4  12  24  38  63  89 122 169 214 265 321 398
#     4  10  21  37  58  90 127 164 208 263 315 377
#     4   9  21  41  68  95 124 160 211 274 332 385
#     4  10  23  43  65  95 125 161 214 275 334 387
#
# _framework density 22.652925
#
# number of rings (size 3 to 8) (size 9 to 14) (size 15 to 20)
#    0.000    2.000    1.250    1.500    3.500    2.000 
#    0.000    1.250    0.000    0.000    0.000    0.000 
#    0.000    0.000    0.000    0.000    0.000    0.000 
#
# Total GULP energy -178229.826202 kJ/mol
# GULP energy per Si atom -5569.682069 kJ/mol
# Density = 2.260137 g / cm^3
# Si number density = 22.652925 Si / 1000 Ang^3
#
#
#
# Elastic Constant Matrix: (Units=GPa)
#
#
# Indices 1 2 3 4 5 6 
#
# 1 25.0379 -32.3855 20.3142 0.0000 0.0000 0.0000
# 2 -32.3855 32.1601 27.1728 0.0000 0.0000 0.0000
# 3 20.3142 27.1728 104.1671 0.0000 0.0000 0.0000
# 4 0.0000 0.0000 0.0000 10.7962 0.0000 0.0000
# 5 0.0000 0.0000 0.0000 0.0000 50.0624 0.0000
# 6 0.0000 0.0000 0.0000 0.0000 0.0000 -58.8927
#
#
#
# Elastic Compliance Matrix: (Units=1/GPa)
#
#
# Indices 1 2 3 4 5 6 
#
# 1 -0.028117 -0.042261 0.016507 0.000000 0.000000 0.000000
# 2 -0.042261 -0.023636 0.014407 0.000000 0.000000 0.000000
# 3 0.016507 0.014407 0.002623 0.000000 0.000000 0.000000
# 4 0.000000 0.000000 0.000000 0.092625 0.000000 0.000000
# 5 0.000000 0.000000 0.000000 0.000000 0.019975 0.000000
# 6 0.000000 0.000000 0.000000 0.000000 0.000000 -0.016980
#
#
# Mechanical properties :
#
#
# Convention : Reuss Voigt Hill
#
# Bulk Modulus (GPa) = -13.92311 21.28535 3.68112
# Shear Modulus (GPa) = 110.51508 10.14408 60.32958
#
# Velocity S-wave (km/s) = 6.99229 2.11843 5.16623
# Velocity P-wave (km/s) = 7.68309 3.92433 6.10042
#
# Compressibility (1/GPa) = -0.07182301
#
# Stress axis : x y z
#
# Youngs Moduli (GPa) = -35.56618 -42.30878 381.30749
#
# Poissons Ratio (x) = -1.78801 -6.29436
# Poissons Ratio (y) = -1.50306 -5.49355
# Poissons Ratio (z) = 0.58710 0.60955
#
# Static dielectric constant tensor:
#      x y z
#    x 1.877330 0.000000 0.000000 
#    y 0.000000 1.855610 0.000000 
#    z 0.000000 0.000000 1.879930 
# 
# From -- ./inp_files/16614.got.cif
#   From: 2010.05.17/outbox.cif.g08.bks.cpg/sg39_9_cif.got.tgz:16614.got - 2010.06.03 18:22:40.
