data_PCOD9360605
_publ_section_title
;
Structure prediction by ZEFSAII (Michael W. Deem and Ramdas Pophale) SiO2 
 PCOD9360605
Probable space group: A B M 2
;
_chemical_formula_sum "Si O2"
_cell_formula_units_Z 64
_cell_length_a 21.445221
_cell_length_b 9.397655
_cell_length_c 18.400321
_cell_angle_alpha 90.000000
_cell_angle_beta 90.000000
_cell_angle_gamma 90.000000
_cell_volume 3708.304798
_symmetry_space_group_name_H-M "A B M 2"
_symmetry_group_IT_number 39
_symmetry_cell_setting 'orthorhombic'
loop_
_space_group_symop_operation_xyz
x,y,z
-x,-y,z
-x,1/2+y,z
x,1/2-y,z
x,1/2+y,1/2+z
-x,1/2-y,1/2+z
-x,y,1/2+z
x,-y,1/2+z
loop_
_atom_site_type_symbol
_atom_site_label
_atom_site_fract_x
_atom_site_fract_y
_atom_site_fract_z
Si Si1 0.439833 0.913892 0.020740
Si Si2 0.062526 0.082144 0.028226
Si Si3 0.188301 0.081469 0.946991
Si Si4 0.698988 0.422283 0.022172
Si Si5 0.697096 0.422712 0.191613
Si Si6 0.560463 0.085507 0.197991
Si Si7 0.936488 0.418568 0.701952
Si Si8 0.822185 0.918894 0.774450
O O1 0.446175 0.750000 0.998987
O O2 0.371061 0.965650 0.998440
O O3 0.439262 0.916940 0.109357
O O4 0.500000 0.000000 0.995701
O O5 0.054011 0.250000 0.014144
O O6 0.071326 0.063379 0.114829
O O7 0.124634 0.034580 0.986693
O O8 0.000000 0.000000 0.006294
O O9 0.196961 0.250000 0.962590
O O10 0.181150 0.064805 0.860870
O O11 0.246939 0.994866 0.976652
O O12 0.702215 0.250000 0.018037
O O13 0.706284 0.462757 0.107274
O O14 0.693395 0.250000 0.192721
O O15 0.628970 0.472451 0.218578
O O16 0.756483 0.464305 0.238816
O O17 0.555084 0.250000 0.220238
O O18 0.500000 0.000000 0.222987
O O19 0.940968 0.250000 0.716970
O O20 0.878271 0.490559 0.741419
O O21 0.000000 0.500000 0.722722
O O22 0.831389 0.750000 0.758221
#
# Coordination Sequence:
#
# PCOD9360605 Si02
#       8
#     8   8   8   8   8   8   8   8
#     4   8  14  24  40  65  93 118 149 193 241 285
#     4   9  19  35  53  74  98 123 155 194 235 281
#     4  10  21  34  48  71 101 129 159 197 238 280
#     4   9  17  30  49  71  94 124 163 201 237 284
#     4   8  15  29  49  70  93 125 162 198 239 287
#     4   8  13  23  40  64  92 118 149 192 240 286
#     4  10  20  35  55  76  98 124 155 194 237 281
#     4  10  20  34  51  71  98 131 164 197 235 282
#
# _framework density 17.258559999999999
#
# number of rings (size 3 to 8) (size 9 to 14) (size 15 to 20)
#    0.000    3.000    0.000    2.625    0.000    2.500 
#    0.000    3.750    0.000    0.750    0.000    3.500 
#    0.000    0.000    0.000    0.000    0.000    0.000 
#
# Total GULP energy -178304.400102 kJ/mol
# GULP energy per Si atom -5572.012503 kJ/mol
# Density = 1.721928 g / cm^3
# Si number density = 17.258560 Si / 1000 Ang^3
#
#
#
# Elastic Constant Matrix: (Units=GPa)
#
#
# Indices 1 2 3 4 5 6 
#
# 1 211.9927 82.0154 60.3378 0.0000 0.0000 0.0000
# 2 82.0154 55.2012 34.1458 0.0000 0.0000 0.0000
# 3 60.3378 34.1458 31.6509 0.0000 0.0000 0.0000
# 4 0.0000 0.0000 0.0000 13.0641 0.0000 0.0000
# 5 0.0000 0.0000 0.0000 0.0000 -7.0352 0.0000
# 6 0.0000 0.0000 0.0000 0.0000 0.0000 36.5970
#
#
#
# Elastic Compliance Matrix: (Units=1/GPa)
#
#
# Indices 1 2 3 4 5 6 
#
# 1 0.012289 -0.011323 -0.011211 0.000000 0.000000 0.000000
# 2 -0.011323 0.064889 -0.048417 0.000000 0.000000 0.000000
# 3 -0.011211 -0.048417 0.105199 0.000000 0.000000 0.000000
# 4 0.000000 0.000000 0.000000 0.076546 0.000000 0.000000
# 5 0.000000 0.000000 0.000000 0.000000 -0.142141 0.000000
# 6 0.000000 0.000000 0.000000 0.000000 0.000000 0.027325
#
#
# Mechanical properties :
#
#
# Convention : Reuss Voigt Hill
#
# Bulk Modulus (GPa) = 24.70677 72.42699 48.56688
# Shear Modulus (GPa) = 16.69454 16.68156 16.68805
#
# Velocity S-wave (km/s) = 3.11355 3.11234 3.11294
# Velocity P-wave (km/s) = 5.22229 7.41434 6.41268
#
# Compressibility (1/GPa) = 0.04047474
#
# Stress axis : x y z
#
# Youngs Moduli (GPa) = 81.37528 15.41103 9.50576
#
# Poissons Ratio (x) = 0.17451 0.10657
# Poissons Ratio (y) = 0.92145 0.46024
# Poissons Ratio (z) = 0.91227 0.74615
#
# Static dielectric constant tensor:
#      x y z
#    x 1.589450 0.000000 0.000000 
#    y 0.000000 1.578230 0.000000 
#    z 0.000000 0.000000 1.563000 
# 
# From -- ./inp_files/13104.got.cif
#   From: 2010.05.17/outbox.cif.g08.bks.cpg/sg39_7_cif.got.tgz:13104.got - 2010.06.03 18:22:40.
