data_PCOD9360188
_publ_section_title
;
Structure prediction by ZEFSAII (Michael W. Deem and Ramdas Pophale) SiO2 
 PCOD9360188
Probable space group: A B M 2
;
_chemical_formula_sum "Si O2"
_cell_formula_units_Z 64
_cell_length_a 14.657432
_cell_length_b 8.658901
_cell_length_c 32.079192
_cell_angle_alpha 90.000000
_cell_angle_beta 90.000000
_cell_angle_gamma 90.000000
_cell_volume 4071.402914
_symmetry_space_group_name_H-M "A B M 2"
_symmetry_group_IT_number 39
_symmetry_cell_setting 'orthorhombic'
loop_
_space_group_symop_operation_xyz
x,y,z
-x,-y,z
-x,1/2+y,z
x,1/2-y,z
x,1/2+y,1/2+z
-x,1/2-y,1/2+z
-x,y,1/2+z
x,-y,1/2+z
loop_
_atom_site_type_symbol
_atom_site_label
_atom_site_fract_x
_atom_site_fract_y
_atom_site_fract_z
Si Si1 0.603059 0.564655 0.179330
Si Si2 0.709997 0.437163 0.505527
Si Si3 0.902582 0.564418 0.971942
Si Si4 0.398198 0.564795 0.926200
Si Si5 0.715160 0.564804 0.343334
Si Si6 0.603137 0.565906 0.765871
Si Si7 0.098444 0.564670 0.374475
Si Si8 0.397288 0.436263 0.087336
O O1 0.500000 0.500000 0.178168
O O2 0.601828 0.750000 0.183343
O O3 0.642512 0.492609 0.221471
O O4 0.640232 0.522882 0.133465
O O5 0.708122 0.250000 0.504306
O O6 0.814459 0.486775 0.497949
O O7 0.650210 0.498699 0.467226
O O8 0.665855 0.487731 0.549169
O O9 0.906638 0.750000 0.973055
O O10 0.888999 0.518968 0.923336
O O11 0.000000 0.500000 0.985914
O O12 0.500000 0.500000 0.922805
O O13 0.401137 0.750000 0.928737
O O14 0.340280 0.520994 0.885271
O O15 0.715025 0.750000 0.340126
O O16 0.663991 0.493799 0.303799
O O17 0.817589 0.503580 0.348855
O O18 0.500000 0.500000 0.770255
O O19 0.597828 0.750000 0.765810
O O20 0.098836 0.750000 0.372220
O O21 0.000000 0.500000 0.361420
O O22 0.500000 0.500000 0.082577
O O23 0.403407 0.250000 0.086096
#
# Coordination Sequence:
#
# PCOD9360188 Si02
#       8
#     8   8   8   8   8   8   8   8
#     4   9  16  29  47  68  93 123 158 199 242 286
#     4  10  19  33  49  69  96 128 163 199 240 285
#     4   9  18  31  49  69  93 124 159 202 244 283
#     4  11  23  34  46  65  94 131 166 197 232 278
#     4  11  22  35  50  71  97 129 166 203 242 291
#     4  11  21  33  50  72  98 129 163 202 245 293
#     4  10  19  33  52  73  96 127 162 205 249 289
#     4   9  18  30  47  69  96 127 161 197 237 285
#
# _framework density 15.719397000000001
#
# number of rings (size 3 to 8) (size 9 to 14) (size 15 to 20)
#    0.000    2.000    1.250    4.125    0.000    5.500 
#    0.000    0.000    0.000    0.000    0.000    0.875 
#    0.000    4.000    0.000    0.000    0.000    0.000 
#
# Total GULP energy -178512.770375 kJ/mol
# GULP energy per Si atom -5578.524074 kJ/mol
# Density = 1.568362 g / cm^3
# Si number density = 15.719397 Si / 1000 Ang^3
#
#
#
# Elastic Constant Matrix: (Units=GPa)
#
#
# Indices 1 2 3 4 5 6 
#
# 1 120.9658 34.0608 73.8674 0.0000 0.0000 0.0000
# 2 34.0608 49.1374 45.1188 0.0000 0.0000 0.0000
# 3 73.8674 45.1188 148.1515 0.0000 0.0000 0.0000
# 4 0.0000 0.0000 0.0000 20.8400 0.0000 0.0000
# 5 0.0000 0.0000 0.0000 0.0000 7.1746 0.0000
# 6 0.0000 0.0000 0.0000 0.0000 0.0000 24.9405
#
#
#
# Elastic Compliance Matrix: (Units=1/GPa)
#
#
# Indices 1 2 3 4 5 6 
#
# 1 0.012444 -0.004066 -0.004966 0.000000 0.000000 0.000000
# 2 -0.004066 0.029580 -0.006981 0.000000 0.000000 0.000000
# 3 -0.004966 -0.006981 0.011352 0.000000 0.000000 0.000000
# 4 0.000000 0.000000 0.000000 0.047985 0.000000 0.000000
# 5 0.000000 0.000000 0.000000 0.000000 0.139381 0.000000
# 6 0.000000 0.000000 0.000000 0.000000 0.000000 0.040095
#
#
# Mechanical properties :
#
#
# Convention : Reuss Voigt Hill
#
# Bulk Modulus (GPa) = 46.83987 69.37207 58.10597
# Shear Modulus (GPa) = 15.62593 21.60485 18.61539
#
# Velocity S-wave (km/s) = 3.15628 3.71132 3.44500
# Velocity P-wave (km/s) = 6.56849 7.91154 7.27109
#
# Compressibility (1/GPa) = 0.02134934
#
# Stress axis : x y z
#
# Youngs Moduli (GPa) = 80.35747 33.80701 88.08883
#
# Poissons Ratio (x) = 0.13745 0.43749
# Poissons Ratio (y) = 0.32672 0.61496
# Poissons Ratio (z) = 0.39909 0.23601
#
# Static dielectric constant tensor:
#      x y z
#    x 1.488560 0.000000 0.000000 
#    y 0.000000 1.530550 0.000000 
#    z 0.000000 0.000000 1.540260 
# 
# From -- ./inp_files/17986.got.cif
#   From: 2010.05.17/outbox.cif.g08.bks.cpg/sg39_9_cif.got.tgz:17986.got - 2010.06.03 18:22:40.
