data_PCOD9360972
_publ_section_title
;
Structure prediction by ZEFSAII (Michael W. Deem and Ramdas Pophale) SiO2 
 PCOD9360972
Probable space group: A B M 2
;
_chemical_formula_sum "Si O2"
_cell_formula_units_Z 64
_cell_length_a 24.669271
_cell_length_b 8.585704
_cell_length_c 15.838487
_cell_angle_alpha 90.000000
_cell_angle_beta 90.000000
_cell_angle_gamma 90.000000
_cell_volume 3354.639992
_symmetry_space_group_name_H-M "A B M 2"
_symmetry_group_IT_number 39
_symmetry_cell_setting 'orthorhombic'
loop_
_space_group_symop_operation_xyz
x,y,z
-x,-y,z
-x,1/2+y,z
x,1/2-y,z
x,1/2+y,1/2+z
-x,1/2-y,1/2+z
-x,y,1/2+z
x,-y,1/2+z
loop_
_atom_site_type_symbol
_atom_site_label
_atom_site_fract_x
_atom_site_fract_y
_atom_site_fract_z
Si Si1 0.673561 0.437994 0.952560
Si Si2 0.442893 0.937268 0.014130
Si Si3 0.060481 0.937134 0.961632
Si Si4 0.557127 0.062729 0.212379
Si Si5 0.133778 0.063086 0.112194
Si Si6 0.673655 0.437967 0.273933
Si Si7 0.060165 0.562219 0.768681
Si Si8 0.744675 0.061448 0.113239
O O1 0.672967 0.250000 0.951678
O O2 0.693345 0.499853 0.863241
O O3 0.611640 0.491979 0.968523
O O4 0.711089 0.487362 0.030422
O O5 0.444135 0.750000 0.010801
O O6 0.438642 0.982210 0.113250
O O7 0.500000 0.000000 0.980788
O O8 0.059879 0.750000 0.965695
O O9 0.101764 0.001785 0.030508
O O10 0.074407 0.984452 0.864938
O O11 0.000000 0.000000 0.979158
O O12 0.555861 0.250000 0.215725
O O13 0.611716 0.008089 0.257879
O O14 0.500000 0.000000 0.245708
O O15 0.133446 0.250000 0.110940
O O16 0.101910 0.010251 0.196790
O O17 0.194976 0.003105 0.112887
O O18 0.673017 0.250000 0.274765
O O19 0.711255 0.487505 0.196162
O O20 0.058275 0.750000 0.767193
O O21 0.000000 0.500000 0.750139
O O22 0.746650 0.250000 0.113075
#
# Coordination Sequence:
#
# PCOD9360972 Si02
#       8
#     8   8   8   8   8   8   8   8
#     4  10  21  38  59  80 107 144 185 228 281 339
#     4   9  17  32  54  79 107 141 177 220 274 336
#     4  10  20  37  60  88 121 157 190 227 277 330
#     4   9  17  32  54  79 108 141 177 221 274 336
#     4  11  23  38  58  86 116 149 192 239 279 328
#     4  10  21  38  59  81 108 143 185 231 281 336
#     4   9  20  37  58  85 119 152 184 224 272 324
#     4  10  22  42  60  76 107 151 190 230 282 335
#
# _framework density 19.078053000000001
#
# number of rings (size 3 to 8) (size 9 to 14) (size 15 to 20)
#    0.000    2.250    1.250    1.125    0.000    6.000 
#    0.000    6.250    0.000    0.000    0.000    0.000 
#    0.000    0.000    0.000    0.000    0.000    0.000 
#
# Total GULP energy -178668.942083 kJ/mol
# GULP energy per Si atom -5583.404440 kJ/mol
# Density = 1.903463 g / cm^3
# Si number density = 19.078053 Si / 1000 Ang^3
#
#
#
# Elastic Constant Matrix: (Units=GPa)
#
#
# Indices 1 2 3 4 5 6 
#
# 1 165.1376 30.8139 111.7400 0.0000 0.0000 0.0000
# 2 30.8139 13.6826 31.2360 0.0000 0.0000 0.0000
# 3 111.7400 31.2360 160.7735 0.0000 0.0000 0.0000
# 4 0.0000 0.0000 0.0000 26.1520 0.0000 0.0000
# 5 0.0000 0.0000 0.0000 0.0000 -3.0035 0.0000
# 6 0.0000 0.0000 0.0000 0.0000 0.0000 33.7227
#
#
#
# Elastic Compliance Matrix: (Units=1/GPa)
#
#
# Indices 1 2 3 4 5 6 
#
# 1 0.013057 -0.015612 -0.006041 0.000000 0.000000 0.000000
# 2 -0.015612 0.150008 -0.018294 0.000000 0.000000 0.000000
# 3 -0.006041 -0.018294 0.013973 0.000000 0.000000 0.000000
# 4 0.000000 0.000000 0.000000 0.038238 0.000000 0.000000
# 5 0.000000 0.000000 0.000000 0.000000 -0.332940 0.000000
# 6 0.000000 0.000000 0.000000 0.000000 0.000000 0.029654
#
#
# Mechanical properties :
#
#
# Convention : Reuss Voigt Hill
#
# Bulk Modulus (GPa) = 10.29410 76.35261 43.32335
# Shear Modulus (GPa) = 206.05996 22.42780 114.24388
#
# Velocity S-wave (km/s) = 10.40401 3.43239 7.74676
# Velocity P-wave (km/s) = 12.23650 7.47104 10.13776
#
# Compressibility (1/GPa) = 0.09714302
#
# Stress axis : x y z
#
# Youngs Moduli (GPa) = 76.58997 6.66630 71.56740
#
# Poissons Ratio (x) = 0.10408 0.43235
# Poissons Ratio (y) = 1.19576 1.30922
# Poissons Ratio (z) = 0.46270 0.12195
#
# Static dielectric constant tensor:
#      x y z
#    x 1.635540 0.000000 0.000000 
#    y 0.000000 1.652430 0.000000 
#    z 0.000000 0.000000 1.671160 
# 
# From -- ./inp_files/10555.got.cif
#   From: 2010.05.17/outbox.cif.g08.bks.cpg/sg39_6_cif.got.tgz:10555.got - 2010.06.03 18:22:40.
