data_PCOD9360990
_publ_section_title
;
Structure prediction by ZEFSAII (Michael W. Deem and Ramdas Pophale) SiO2 
 PCOD9360990
Probable space group: A B M 2
;
_chemical_formula_sum "Si O2"
_cell_formula_units_Z 48
_cell_length_a 5.878718
_cell_length_b 27.337314
_cell_length_c 14.260620
_cell_angle_alpha 90.000000
_cell_angle_beta 90.000000
_cell_angle_gamma 90.000000
_cell_volume 2291.800851
_symmetry_space_group_name_H-M "A B M 2"
_symmetry_group_IT_number 39
_symmetry_cell_setting 'orthorhombic'
loop_
_space_group_symop_operation_xyz
x,y,z
-x,-y,z
-x,1/2+y,z
x,1/2-y,z
x,1/2+y,1/2+z
-x,1/2-y,1/2+z
-x,y,1/2+z
x,-y,1/2+z
loop_
_atom_site_type_symbol
_atom_site_label
_atom_site_fract_x
_atom_site_fract_y
_atom_site_fract_z
Si Si1 0.351841 0.542344 0.195470
Si Si2 0.093085 0.371056 0.612572
Si Si3 0.667288 0.192280 0.270808
Si Si4 0.066607 0.624775 0.411358
Si Si5 0.289708 0.377430 0.255874
Si Si6 0.246412 0.021796 0.902722
O O1 0.500000 0.500000 0.148178
O O2 0.191543 0.574270 0.129211
O O3 0.521094 0.582299 0.239590
O O4 0.237880 0.520036 0.288432
O O5 0.239692 0.333249 0.675127
O O6 0.063340 0.359501 0.504458
O O7 0.847611 0.370700 0.660714
O O8 0.689001 0.250000 0.267664
O O9 0.805256 0.167872 0.356540
O O10 0.410406 0.173200 0.282206
O O11 0.233005 0.579134 0.431670
O O12 0.882657 0.606050 0.335953
O O13 0.500000 0.000000 0.926391
O O14 0.000000 0.000000 0.936732
#
# Coordination Sequence:
#
# PCOD9360990 Si02
#       6
#     8   8   8   8   8   8
#     4  10  20  37  62  87 127 178 223 266 335 405
#     4  10  23  40  63  94 132 166 220 288 339 413
#     4  10  23  43  66  94 124 174 229 283 360 421
#     4  11  22  42  66  94 136 173 225 283 353 406
#     4  10  20  42  61  87 127 174 212 289 342 411
#     4  11  22  39  68  96 135 184 230 278 338 415
#
# _framework density 20.944227999999999
#
# number of rings (size 3 to 8) (size 9 to 14) (size 15 to 20)
#    0.000    1.667    5.000    2.000    0.000    6.000 
#    3.000    2.500    0.000    0.000    0.000    0.000 
#    0.000    0.000    0.000    0.000    0.000    0.000 
#
# Total GULP energy -133965.193256 kJ/mol
# GULP energy per Si atom -5581.883052 kJ/mol
# Density = 2.089656 g / cm^3
# Si number density = 20.944228 Si / 1000 Ang^3
#
#
#
# Elastic Constant Matrix: (Units=GPa)
#
#
# Indices 1 2 3 4 5 6 
#
# 1 80.4244 42.8953 -10.6104 0.0000 0.0000 0.0000
# 2 42.8953 147.8207 23.5390 0.0000 0.0000 0.0000
# 3 -10.6104 23.5390 61.5694 0.0000 0.0000 0.0000
# 4 0.0000 0.0000 0.0000 9.3525 0.0000 0.0000
# 5 0.0000 0.0000 0.0000 0.0000 -11.8832 0.0000
# 6 0.0000 0.0000 0.0000 0.0000 0.0000 25.7438
#
#
#
# Elastic Compliance Matrix: (Units=1/GPa)
#
#
# Indices 1 2 3 4 5 6 
#
# 1 0.015945 -0.005393 0.004810 0.000000 0.000000 0.000000
# 2 -0.005393 0.009027 -0.004381 0.000000 0.000000 0.000000
# 3 0.004810 -0.004381 0.018745 0.000000 0.000000 0.000000
# 4 0.000000 0.000000 0.000000 0.106923 0.000000 0.000000
# 5 0.000000 0.000000 0.000000 0.000000 -0.084153 0.000000
# 6 0.000000 0.000000 0.000000 0.000000 0.000000 0.038844
#
#
# Mechanical properties :
#
#
# Convention : Reuss Voigt Hill
#
# Bulk Modulus (GPa) = 29.59462 44.60691 37.10077
# Shear Modulus (GPa) = 39.51822 20.24199 29.88011
#
# Velocity S-wave (km/s) = 4.34848 3.11218 3.78120
# Velocity P-wave (km/s) = 6.27481 5.85307 6.06761
#
# Compressibility (1/GPa) = 0.03378993
#
# Stress axis : x y z
#
# Youngs Moduli (GPa) = 62.71600 110.77318 53.34616
#
# Poissons Ratio (x) = 0.59738 -0.25657
# Poissons Ratio (y) = 0.33822 0.23369
# Poissons Ratio (z) = -0.30164 0.48526
#
# Static dielectric constant tensor:
#      x y z
#    x 1.819500 0.000000 0.000000 
#    y 0.000000 1.768290 0.000000 
#    z 0.000000 0.000000 1.748870 
# 
# From -- ./inp_files/7555.got.cif
#   From: 2010.05.17/outbox.cif.g08.bks.cpg/sg39_4_cif.got.tgz:7555.got - 2010.06.03 18:22:40.
