data_PCOD9360074
_publ_section_title
;
Structure prediction by ZEFSAII (Michael W. Deem and Ramdas Pophale) SiO2 
 PCOD9360074
Probable space group: A B M 2
;
_chemical_formula_sum "Si O2"
_cell_formula_units_Z 64
_cell_length_a 20.901384
_cell_length_b 8.139739
_cell_length_c 20.588417
_cell_angle_alpha 90.000000
_cell_angle_beta 90.000000
_cell_angle_gamma 90.000000
_cell_volume 3502.744660
_symmetry_space_group_name_H-M "A B M 2"
_symmetry_group_IT_number 39
_symmetry_cell_setting 'orthorhombic'
loop_
_space_group_symop_operation_xyz
x,y,z
-x,-y,z
-x,1/2+y,z
x,1/2-y,z
x,1/2+y,1/2+z
-x,1/2-y,1/2+z
-x,y,1/2+z
x,-y,1/2+z
loop_
_atom_site_type_symbol
_atom_site_label
_atom_site_fract_x
_atom_site_fract_y
_atom_site_fract_z
Si Si1 0.928781 0.054293 0.373440
Si Si2 0.928389 0.051396 0.521316
Si Si3 0.822423 0.447760 0.771600
Si Si4 0.177073 0.049316 0.123677
Si Si5 0.572053 0.053729 0.874426
Si Si6 0.572047 0.946299 0.021950
Si Si7 0.322912 0.549490 0.623929
Si Si8 0.322713 0.549262 0.772561
O O1 0.928249 0.250000 0.376132
O O2 0.917446 0.992028 0.447251
O O3 0.874854 0.999671 0.323399
O O4 0.000000 0.000000 0.353513
O O5 0.925954 0.250000 0.520675
O O6 0.874876 0.991932 0.571653
O O7 0.000000 0.000000 0.540486
O O8 0.821102 0.250000 0.770136
O O9 0.837191 0.502847 0.697768
O O10 0.750044 0.502954 0.788017
O O11 0.176152 0.250000 0.123184
O O12 0.250035 0.999664 0.108105
O O13 0.573452 0.250000 0.872965
O O14 0.624841 0.990444 0.823822
O O15 0.500000 0.000000 0.857711
O O16 0.585521 0.999970 0.948186
O O17 0.573526 0.750000 0.023401
O O18 0.624724 0.009655 0.072650
O O19 0.500000 0.000000 0.038633
O O20 0.323669 0.750000 0.622991
O O21 0.336974 0.500120 0.698243
O O22 0.323266 0.750000 0.773678
#
# Coordination Sequence:
#
# PCOD9360074 Si02
#       8
#     8   8   8   8   8   8   8   8
#     4  10  20  33  49  70  98 128 159 196 235 279
#     4   9  18  32  49  69  93 122 154 190 230 271
#     4   9  17  32  53  73  95 124 157 194 237 285
#     4   8  15  30  51  72  93 120 156 194 231 275
#     4  10  19  32  49  69  96 127 160 197 236 282
#     4  10  19  31  49  71  96 125 157 196 238 281
#     4   8  15  29  49  71  93 121 158 193 228 277
#     4   8  16  31  50  71  95 125 159 194 235 284
#
# _framework density 18.271384999999999
#
# number of rings (size 3 to 8) (size 9 to 14) (size 15 to 20)
#    0.000    3.000    0.000    3.375    0.000    2.500 
#    0.000    4.375    0.000    9.750    0.000    0.000 
#    0.000    0.000    0.000    0.000    0.000    0.000 
#
# Total GULP energy -178385.030125 kJ/mol
# GULP energy per Si atom -5574.532191 kJ/mol
# Density = 1.822980 g / cm^3
# Si number density = 18.271385 Si / 1000 Ang^3
#
#
#
# Elastic Constant Matrix: (Units=GPa)
#
#
# Indices 1 2 3 4 5 6 
#
# 1 187.8130 14.3775 151.4499 0.0000 0.0000 0.0000
# 2 14.3775 16.5185 13.3228 0.0000 0.0000 0.0000
# 3 151.4499 13.3228 143.0337 0.0000 0.0000 0.0000
# 4 0.0000 0.0000 0.0000 12.6119 0.0000 0.0000
# 5 0.0000 0.0000 0.0000 0.0000 43.6537 0.0000
# 6 0.0000 0.0000 0.0000 0.0000 0.0000 18.5796
#
#
#
# Elastic Compliance Matrix: (Units=1/GPa)
#
#
# Indices 1 2 3 4 5 6 
#
# 1 0.036434 -0.000646 -0.038518 0.000000 0.000000 0.000000
# 2 -0.000646 0.065467 -0.005414 0.000000 0.000000 0.000000
# 3 -0.038518 -0.005414 0.048280 0.000000 0.000000 0.000000
# 4 0.000000 0.000000 0.000000 0.079290 0.000000 0.000000
# 5 0.000000 0.000000 0.000000 0.000000 0.022908 0.000000
# 6 0.000000 0.000000 0.000000 0.000000 0.000000 0.053822
#
#
# Mechanical properties :
#
#
# Convention : Reuss Voigt Hill
#
# Bulk Modulus (GPa) = 16.38653 78.40728 47.39691
# Shear Modulus (GPa) = 12.02795 26.18338 19.10567
#
# Velocity S-wave (km/s) = 2.56851 3.78964 3.23718
# Velocity P-wave (km/s) = 4.21713 7.88380 6.32212
#
# Compressibility (1/GPa) = 0.06102574
#
# Stress axis : x y z
#
# Youngs Moduli (GPa) = 27.44687 15.27484 20.71261
#
# Poissons Ratio (x) = 0.00986 0.79780
# Poissons Ratio (y) = 0.01772 0.11214
# Poissons Ratio (z) = 1.05719 0.08270
#
# Static dielectric constant tensor:
#      x y z
#    x 1.625270 0.000000 0.000000 
#    y 0.000000 1.643610 0.000000 
#    z 0.000000 0.000000 1.625630 
# 
# From -- ./inp_files/15054.got.cif
#   From: 2010.05.17/outbox.cif.g08.bks.cpg/sg39_8_cif.got.tgz:15054.got - 2010.06.03 18:22:40.
