data_PCOD9360209
_publ_section_title
;
Structure prediction by ZEFSAII (Michael W. Deem and Ramdas Pophale) SiO2 
 PCOD9360209
Probable space group: A B M 2
;
_chemical_formula_sum "Si O2"
_cell_formula_units_Z 64
_cell_length_a 17.572398
_cell_length_b 7.903022
_cell_length_c 22.716882
_cell_angle_alpha 90.000000
_cell_angle_beta 90.000000
_cell_angle_gamma 90.000000
_cell_volume 3154.808078
_symmetry_space_group_name_H-M "A B M 2"
_symmetry_group_IT_number 39
_symmetry_cell_setting 'orthorhombic'
loop_
_space_group_symop_operation_xyz
x,y,z
-x,-y,z
-x,1/2+y,z
x,1/2-y,z
x,1/2+y,1/2+z
-x,1/2-y,1/2+z
-x,y,1/2+z
x,-y,1/2+z
loop_
_atom_site_type_symbol
_atom_site_label
_atom_site_fract_x
_atom_site_fract_y
_atom_site_fract_z
Si Si1 0.919804 0.452666 0.540630
Si Si2 0.115752 0.949568 0.669942
Si Si3 0.415470 0.954575 0.319676
Si Si4 0.752256 0.557154 0.858591
Si Si5 0.765954 0.445054 0.988603
Si Si6 0.085154 0.451303 0.300720
Si Si7 0.580098 0.047564 0.185350
Si Si8 0.726292 0.455998 0.117716
O O1 0.907009 0.250000 0.540699
O O2 0.918253 0.517732 0.608527
O O3 0.854555 0.543020 0.504518
O O4 0.000000 0.500000 0.514259
O O5 0.098102 0.750000 0.671335
O O6 0.092259 0.021881 0.733261
O O7 0.204879 0.975536 0.657136
O O8 0.413289 0.750000 0.322108
O O9 0.331933 0.016310 0.342043
O O10 0.417670 0.016797 0.252091
O O11 0.500000 0.000000 0.345369
O O12 0.750537 0.750000 0.837434
O O13 0.753131 0.545189 0.929132
O O14 0.834671 0.492005 0.834306
O O15 0.743262 0.250000 0.979036
O O16 0.730074 0.510295 0.049661
O O17 0.084325 0.250000 0.297435
O O18 0.000000 0.500000 0.323795
O O19 0.586180 0.250000 0.188759
O O20 0.649430 0.985467 0.147250
O O21 0.500000 0.000000 0.158170
O O22 0.732056 0.250000 0.117558
#
# Coordination Sequence:
#
# PCOD9360209 Si02
#       8
#     8   8   8   8   8   8   8   8
#     4  10  19  33  53  78 106 137 174 219 267 319
#     4   9  19  33  52  79 109 138 173 217 268 322
#     4   9  19  35  58  85 112 141 178 222 272 327
#     4  11  23  40  59  80 108 146 188 234 281 325
#     4  10  21  37  55  76 102 138 181 224 267 318
#     4  11  23  38  56  82 114 149 186 227 274 329
#     4   9  17  31  51  79 109 136 166 206 257 317
#     4   9  18  33  54  77 105 139 175 215 265 319
#
# _framework density 20.286494999999999
#
# number of rings (size 3 to 8) (size 9 to 14) (size 15 to 20)
#    0.000    2.250    0.000    2.625    0.000    5.000 
#    0.000    5.625    0.000    3.000    0.000    0.000 
#    0.000    0.000    0.000    0.000    0.000    0.000 
#
# Total GULP energy -178222.247834 kJ/mol
# GULP energy per Si atom -5569.445245 kJ/mol
# Density = 2.024032 g / cm^3
# Si number density = 20.286495 Si / 1000 Ang^3
#
#
#
# Elastic Constant Matrix: (Units=GPa)
#
#
# Indices 1 2 3 4 5 6 
#
# 1 178.8458 -0.1279 50.7656 0.0000 0.0000 0.0000
# 2 -0.1279 32.9845 -2.3259 0.0000 0.0000 0.0000
# 3 50.7656 -2.3259 55.3480 0.0000 0.0000 0.0000
# 4 0.0000 0.0000 0.0000 14.1097 0.0000 0.0000
# 5 0.0000 0.0000 0.0000 0.0000 -42.5663 0.0000
# 6 0.0000 0.0000 0.0000 0.0000 0.0000 23.6795
#
#
#
# Elastic Compliance Matrix: (Units=1/GPa)
#
#
# Indices 1 2 3 4 5 6 
#
# 1 0.007567 -0.000461 -0.006959 0.000000 0.000000 0.000000
# 2 -0.000461 0.030436 0.001702 0.000000 0.000000 0.000000
# 3 -0.006959 0.001702 0.024522 0.000000 0.000000 0.000000
# 4 0.000000 0.000000 0.000000 0.070873 0.000000 0.000000
# 5 0.000000 0.000000 0.000000 0.000000 -0.023493 0.000000
# 6 0.000000 0.000000 0.000000 0.000000 0.000000 0.042231
#
#
# Mechanical properties :
#
#
# Convention : Reuss Voigt Hill
#
# Bulk Modulus (GPa) = 19.57441 40.42241 29.99841
# Shear Modulus (GPa) = 27.68524 13.63570 20.66047
#
# Velocity S-wave (km/s) = 3.69821 2.59541 3.19475
# Velocity P-wave (km/s) = 5.28258 5.38057 5.33180
#
# Compressibility (1/GPa) = 0.05108710
#
# Stress axis : x y z
#
# Youngs Moduli (GPa) = 132.16086 32.85633 40.77913
#
# Poissons Ratio (x) = 0.01516 0.28380
# Poissons Ratio (y) = 0.06098 -0.06942
# Poissons Ratio (z) = 0.91977 -0.05593
#
# Static dielectric constant tensor:
#      x y z
#    x 1.782350 0.000000 0.000000 
#    y 0.000000 1.717790 0.000000 
#    z 0.000000 0.000000 1.717860 
# 
# From -- ./inp_files/16243.got.cif
#   From: 2010.05.17/outbox.cif.g08.bks.cpg/sg39_9_cif.got.tgz:16243.got - 2010.06.03 18:22:40.
