data_PCOD9360777
_publ_section_title
;
Structure prediction by ZEFSAII (Michael W. Deem and Ramdas Pophale) SiO2 
 PCOD9360777
Probable space group: A B M 2
;
_chemical_formula_sum "Si O2"
_cell_formula_units_Z 48
_cell_length_a 7.404613
_cell_length_b 11.295492
_cell_length_c 22.463983
_cell_angle_alpha 90.000000
_cell_angle_beta 90.000000
_cell_angle_gamma 90.000000
_cell_volume 1878.859389
_symmetry_space_group_name_H-M "A B M 2"
_symmetry_group_IT_number 39
_symmetry_cell_setting 'orthorhombic'
loop_
_space_group_symop_operation_xyz
x,y,z
-x,-y,z
-x,1/2+y,z
x,1/2-y,z
x,1/2+y,1/2+z
-x,1/2-y,1/2+z
-x,y,1/2+z
x,-y,1/2+z
loop_
_atom_site_type_symbol
_atom_site_label
_atom_site_fract_x
_atom_site_fract_y
_atom_site_fract_z
Si Si1 0.000141 0.375429 0.404220
Si Si2 0.785275 0.879505 0.577234
Si Si3 0.806473 0.377892 0.528550
Si Si4 0.278404 0.120499 0.717620
Si Si5 0.594933 0.621591 0.407628
Si Si6 0.317883 0.378519 0.266588
O O1 0.970859 0.250000 0.372655
O O2 0.201216 0.371553 0.431456
O O3 0.000000 0.500000 0.370481
O O4 0.862810 0.382087 0.459074
O O5 0.711938 0.750000 0.558353
O O6 0.759379 0.888229 0.647839
O O7 0.998833 0.876639 0.561757
O O8 0.713050 0.001414 0.548908
O O9 0.719602 0.250000 0.541428
O O10 0.211123 0.250000 0.738740
O O11 0.493907 0.123390 0.730378
O O12 0.217654 0.998387 0.748325
O O13 0.500000 0.500000 0.425085
O O14 0.506393 0.750000 0.419737
O O15 0.625700 0.615590 0.336025
O O16 0.229031 0.250000 0.256378
#
# Coordination Sequence:
#
# PCOD9360777 Si02
#       6
#     8   8   8   8   8   8
#     4  10  20  35  58  85 112 148 191 236 288 343
#     4   9  16  27  48  74  97 128 172 215 261 323
#     4   9  17  31  50  73 102 136 172 219 277 330
#     4   9  16  27  48  74  97 130 174 214 264 323
#     4  10  20  35  58  85 112 148 193 239 286 341
#     4   9  17  31  50  73 102 136 175 222 274 328
#
# _framework density 25.547415000000001
#
# number of rings (size 3 to 8) (size 9 to 14) (size 15 to 20)
#    0.000    2.667    3.333    0.000    0.000    1.333 
#    0.000    0.000    7.333    0.000    0.000    0.000 
#    0.000    0.000    0.000    0.000    0.000    0.000 
#
# Total GULP energy -133972.231890 kJ/mol
# GULP energy per Si atom -5582.176329 kJ/mol
# Density = 2.548927 g / cm^3
# Si number density = 25.547415 Si / 1000 Ang^3
#
#
#
# Elastic Constant Matrix: (Units=GPa)
#
#
# Indices 1 2 3 4 5 6 
#
# 1 84.8740 29.8886 27.4650 0.0000 0.0000 0.0000
# 2 29.8886 391.7664 43.3734 0.0000 0.0000 0.0000
# 3 27.4650 43.3734 94.9192 0.0000 0.0000 0.0000
# 4 0.0000 0.0000 0.0000 -3.4611 0.0000 0.0000
# 5 0.0000 0.0000 0.0000 0.0000 14.2887 0.0000
# 6 0.0000 0.0000 0.0000 0.0000 0.0000 -1.2748
#
#
#
# Elastic Compliance Matrix: (Units=1/GPa)
#
#
# Indices 1 2 3 4 5 6 
#
# 1 0.013137 -0.000612 -0.003521 0.000000 0.000000 0.000000
# 2 -0.000612 0.002717 -0.001064 0.000000 0.000000 0.000000
# 3 -0.003521 -0.001064 0.012041 0.000000 0.000000 0.000000
# 4 0.000000 0.000000 0.000000 -0.288921 0.000000 0.000000
# 5 0.000000 0.000000 0.000000 0.000000 0.069985 0.000000
# 6 0.000000 0.000000 0.000000 0.000000 0.000000 -0.784417
#
#
# Mechanical properties :
#
#
# Convention : Reuss Voigt Hill
#
# Bulk Modulus (GPa) = 57.14763 85.89041 71.51902
# Shear Modulus (GPa) = -5.21252 33.29939 14.04343
#
# Velocity S-wave (km/s) = -1.42995 3.61423 2.34711
# Velocity P-wave (km/s) = 4.43751 7.14912 5.94984
#
# Compressibility (1/GPa) = 0.01749854
#
# Stress axis : x y z
#
# Youngs Moduli (GPa) = 76.11870 368.03903 83.05239
#
# Poissons Ratio (x) = 0.22539 0.29247
# Poissons Ratio (y) = 0.04662 0.08840
# Poissons Ratio (z) = 0.26805 0.39173
#
# Static dielectric constant tensor:
#      x y z
#    x 1.974980 0.000000 0.000000 
#    y 0.000000 2.136720 0.000000 
#    z 0.000000 0.000000 1.940670 
# 
# From -- ./inp_files/15577.got.cif
#   From: 2010.05.17/outbox.cif.g08.bks.cpg/sg39_8_cif.got.tgz:15577.got - 2010.06.03 18:22:40.
