data_PCOD9360132
_publ_section_title
;
Structure prediction by ZEFSAII (Michael W. Deem and Ramdas Pophale) SiO2 
 PCOD9360132
Probable space group: A B M 2
;
_chemical_formula_sum "Si O2"
_cell_formula_units_Z 64
_cell_length_a 18.677280
_cell_length_b 20.519097
_cell_length_c 8.890700
_cell_angle_alpha 90.000000
_cell_angle_beta 90.000000
_cell_angle_gamma 90.000000
_cell_volume 3407.280048
_symmetry_space_group_name_H-M "A B M 2"
_symmetry_group_IT_number 39
_symmetry_cell_setting 'orthorhombic'
loop_
_space_group_symop_operation_xyz
x,y,z
-x,-y,z
-x,1/2+y,z
x,1/2-y,z
x,1/2+y,1/2+z
-x,1/2-y,1/2+z
-x,y,1/2+z
x,-y,1/2+z
loop_
_atom_site_type_symbol
_atom_site_label
_atom_site_fract_x
_atom_site_fract_y
_atom_site_fract_z
Si Si1 0.100440 0.177829 0.150030
Si Si2 0.926976 0.455662 0.122775
Si Si3 0.308121 0.432298 0.457408
Si Si4 0.951260 0.823808 0.807298
Si Si5 0.585361 0.173918 0.905071
Si Si6 0.485743 0.603385 0.645038
Si Si7 0.391080 0.988147 0.212120
Si Si8 0.153225 0.443259 0.316154
O O1 0.133554 0.250000 0.145030
O O2 0.149368 0.120363 0.210430
O O3 0.035288 0.179859 0.269194
O O4 0.068046 0.164701 0.982833
O O5 0.929126 0.385875 0.206946
O O6 0.866206 0.497185 0.207524
O O7 0.000000 0.500000 0.132916
O O8 0.906153 0.444810 0.949152
O O9 0.337796 0.359259 0.435753
O O10 0.362067 0.474844 0.355821
O O11 0.324944 0.455968 0.624905
O O12 0.229062 0.443867 0.398744
O O13 0.923341 0.750000 0.768921
O O14 0.586103 0.250000 0.933996
O O15 0.557683 0.156634 0.738934
O O16 0.528460 0.136807 0.011124
O O17 0.430440 0.544688 0.614529
O O18 0.548859 0.566595 0.738203
#
# Coordination Sequence:
#
# PCOD9360132 Si02
#       8
#     8   8   8   8   8   8   8   8
#     4  10  21  37  58  82 108 140 178 221 277 341
#     4  12  24  38  59  86 111 139 185 239 288 330
#     4  10  21  35  52  76 108 149 182 217 268 325
#     4  10  21  39  61  85 109 135 172 226 287 339
#     4  10  19  32  51  79 112 142 178 218 264 321
#     4   9  17  30  54  80 105 138 177 229 270 302
#     4   9  17  33  53  77 105 137 185 227 264 313
#     4  12  24  37  56  82 115 151 185 231 284 338
#
# _framework density 18.78331
#
# number of rings (size 3 to 8) (size 9 to 14) (size 15 to 20)
#    0.000    1.750    1.250    3.750    0.000    5.000 
#    0.000    0.000    0.000    0.000    0.000    7.875 
#    0.000    0.000    0.000    0.000    0.000    0.000 
#
# Total GULP energy -178380.552124 kJ/mol
# GULP energy per Si atom -5574.392254 kJ/mol
# Density = 1.874056 g / cm^3
# Si number density = 18.783310 Si / 1000 Ang^3
#
#
#
# Elastic Constant Matrix: (Units=GPa)
#
#
# Indices 1 2 3 4 5 6 
#
# 1 46.1447 22.2981 3.5226 0.0000 0.0000 0.0000
# 2 22.2981 119.0548 29.8639 0.0000 0.0000 0.0000
# 3 3.5226 29.8639 61.0766 0.0000 0.0000 0.0000
# 4 0.0000 0.0000 0.0000 23.8132 0.0000 0.0000
# 5 0.0000 0.0000 0.0000 0.0000 16.3976 0.0000
# 6 0.0000 0.0000 0.0000 0.0000 0.0000 13.2183
#
#
#
# Elastic Compliance Matrix: (Units=1/GPa)
#
#
# Indices 1 2 3 4 5 6 
#
# 1 0.023873 -0.004703 0.000923 0.000000 0.000000 0.000000
# 2 -0.004703 0.010500 -0.004863 0.000000 0.000000 0.000000
# 3 0.000923 -0.004863 0.018697 0.000000 0.000000 0.000000
# 4 0.000000 0.000000 0.000000 0.041993 0.000000 0.000000
# 5 0.000000 0.000000 0.000000 0.000000 0.060984 0.000000
# 6 0.000000 0.000000 0.000000 0.000000 0.000000 0.075653
#
#
# Mechanical properties :
#
#
# Convention : Reuss Voigt Hill
#
# Bulk Modulus (GPa) = 27.94509 37.51615 32.73062
# Shear Modulus (GPa) = 19.16331 22.05860 20.61096
#
# Velocity S-wave (km/s) = 3.19757 3.43063 3.31615
# Velocity P-wave (km/s) = 5.34252 5.97568 5.66795
#
# Compressibility (1/GPa) = 0.03578446
#
# Stress axis : x y z
#
# Youngs Moduli (GPa) = 41.88843 95.23739 53.48331
#
# Poissons Ratio (x) = 0.44787 -0.04934
# Poissons Ratio (y) = 0.19699 0.26008
# Poissons Ratio (z) = -0.03864 0.46313
#
# Static dielectric constant tensor:
#      x y z
#    x 1.642180 0.000000 0.000000 
#    y 0.000000 1.669700 0.000000 
#    z 0.000000 0.000000 1.660170 
# 
# From -- ./inp_files/3867.got.cif
#   From: 2010.05.17/outbox.cif.g08.bks.cpg/sg39_2_cif.got.tgz:3867.got - 2010.06.03 18:22:40.
