data_PCOD9360973
_publ_section_title
;
Structure prediction by ZEFSAII (Michael W. Deem and Ramdas Pophale) SiO2 
 PCOD9360973
Probable space group: A B M 2
;
_chemical_formula_sum "Si O2"
_cell_formula_units_Z 40
_cell_length_a 7.266488
_cell_length_b 26.753219
_cell_length_c 9.338998
_cell_angle_alpha 90.000000
_cell_angle_beta 90.000000
_cell_angle_gamma 90.000000
_cell_volume 1815.519374
_symmetry_space_group_name_H-M "A B M 2"
_symmetry_group_IT_number 39
_symmetry_cell_setting 'orthorhombic'
loop_
_space_group_symop_operation_xyz
x,y,z
-x,-y,z
-x,1/2+y,z
x,1/2-y,z
x,1/2+y,1/2+z
-x,1/2-y,1/2+z
-x,y,1/2+z
x,-y,1/2+z
loop_
_atom_site_type_symbol
_atom_site_label
_atom_site_fract_x
_atom_site_fract_y
_atom_site_fract_z
Si Si1 0.199782 0.067676 0.431610
Si Si2 0.711081 0.985956 0.149061
Si Si3 0.605569 0.108049 0.459722
Si Si4 0.070372 0.849499 0.335276
Si Si5 0.797542 0.305778 0.601800
O O1 0.191999 0.033212 0.290960
O O2 0.396765 0.095557 0.426249
O O3 0.044536 0.108804 0.420517
O O4 0.196684 0.032706 0.570415
O O5 0.500000 0.000000 0.188736
O O6 0.690065 0.941090 0.034599
O O7 0.635864 0.153965 0.571375
O O8 0.728171 0.124616 0.321968
O O9 0.947383 0.830193 0.206856
O O10 0.108148 0.805001 0.445763
O O11 0.742379 0.250000 0.646407
#
# Coordination Sequence:
#
# PCOD9360973 Si02
#       5
#     8   8   8   8   8
#     4  11  21  41  62  90 126 165 205 245 310 367
#     4  10  20  37  60  88 123 166 197 248 300 359
#     4   9  22  39  62  89 125 161 206 259 302 364
#     4  10  22  40  66  90 124 163 203 263 307 366
#     4  10  21  43  66  90 124 162 208 264 313 362
#
# _framework density 22.032261999999999
#
# number of rings (size 3 to 8) (size 9 to 14) (size 15 to 20)
#    1.200    0.800    2.000    2.400    0.000    5.600 
#    0.000    8.000    0.000    0.000    0.000    0.000 
#    0.000    0.000    0.000    0.000    0.000    0.000 
#
# Total GULP energy -111652.079170 kJ/mol
# GULP energy per Si atom -5582.603958 kJ/mol
# Density = 2.198212 g / cm^3
# Si number density = 22.032262 Si / 1000 Ang^3
#
#
#
# Elastic Constant Matrix: (Units=GPa)
#
#
# Indices 1 2 3 4 5 6 
#
# 1 91.1250 42.5419 19.0681 0.0000 0.0000 0.0000
# 2 42.5419 117.3727 5.5140 0.0000 0.0000 0.0000
# 3 19.0681 5.5140 24.0767 0.0000 0.0000 0.0000
# 4 0.0000 0.0000 0.0000 -5.3062 0.0000 0.0000
# 5 0.0000 0.0000 0.0000 0.0000 23.5355 0.0000
# 6 0.0000 0.0000 0.0000 0.0000 0.0000 20.7197
#
#
#
# Elastic Compliance Matrix: (Units=1/GPa)
#
#
# Indices 1 2 3 4 5 6 
#
# 1 0.015755 -0.005180 -0.011291 0.000000 0.000000 0.000000
# 2 -0.005180 0.010316 0.001740 0.000000 0.000000 0.000000
# 3 -0.011291 0.001740 0.050078 0.000000 0.000000 0.000000
# 4 0.000000 0.000000 0.000000 -0.188458 0.000000 0.000000
# 5 0.000000 0.000000 0.000000 0.000000 0.042489 0.000000
# 6 0.000000 0.000000 0.000000 0.000000 0.000000 0.048263
#
#
# Mechanical properties :
#
#
# Convention : Reuss Voigt Hill
#
# Bulk Modulus (GPa) = 21.41976 40.75807 31.08892
# Shear Modulus (GPa) = 213.06533 18.81982 115.94258
#
# Velocity S-wave (km/s) = 9.84459 2.92583 7.26211
# Velocity P-wave (km/s) = 11.78832 5.47297 9.19015
#
# Compressibility (1/GPa) = 0.04668586
#
# Stress axis : x y z
#
# Youngs Moduli (GPa) = 63.47230 96.94049 19.96895
#
# Poissons Ratio (x) = 0.50215 0.22547
# Poissons Ratio (y) = 0.32878 -0.03474
# Poissons Ratio (z) = 0.71668 -0.16867
#
# Static dielectric constant tensor:
#      x y z
#    x 1.820670 0.000000 0.000000 
#    y 0.000000 1.812520 0.000000 
#    z 0.000000 0.000000 1.819930 
# 
# From -- ./inp_files/2199.got.cif
#   From: 2010.05.17/outbox.cif.g08.bks.cpg/sg39_2_cif.got.tgz:2199.got - 2010.06.03 18:22:40.
