data_PCOD9360369
_publ_section_title
;
Structure prediction by ZEFSAII (Michael W. Deem and Ramdas Pophale) SiO2 
 PCOD9360369
Probable space group: A B M 2
;
_chemical_formula_sum "Si O2"
_cell_formula_units_Z 64
_cell_length_a 9.345154
_cell_length_b 22.273359
_cell_length_c 14.720236
_cell_angle_alpha 90.000000
_cell_angle_beta 90.000000
_cell_angle_gamma 90.000000
_cell_volume 3063.987241
_symmetry_space_group_name_H-M "A B M 2"
_symmetry_group_IT_number 39
_symmetry_cell_setting 'orthorhombic'
loop_
_space_group_symop_operation_xyz
x,y,z
-x,-y,z
-x,1/2+y,z
x,1/2-y,z
x,1/2+y,1/2+z
-x,1/2-y,1/2+z
-x,y,1/2+z
x,-y,1/2+z
loop_
_atom_site_type_symbol
_atom_site_label
_atom_site_fract_x
_atom_site_fract_y
_atom_site_fract_z
Si Si1 0.697391 0.182390 0.872840
Si Si2 0.825454 0.503328 0.993823
Si Si3 0.812512 0.537083 0.785994
Si Si4 0.115617 0.405848 0.252375
Si Si5 0.514436 0.181176 0.520941
Si Si6 0.813181 0.867628 0.057800
Si Si7 0.301813 0.900826 0.124157
Si Si8 0.907789 0.816384 0.543508
O O1 0.694986 0.250000 0.830218
O O2 0.773748 0.129508 0.817225
O O3 0.794632 0.187099 0.962641
O O4 0.542967 0.168852 0.918405
O O5 0.788614 0.512096 0.887407
O O6 0.000000 0.500000 0.002437
O O7 0.770955 0.564807 0.036821
O O8 0.751841 0.448779 0.047788
O O9 0.839862 0.474768 0.732447
O O10 0.695308 0.570658 0.724307
O O11 0.954053 0.580173 0.787840
O O12 0.130358 0.367575 0.160708
O O13 0.472261 0.250000 0.542269
O O14 0.682683 0.174326 0.533316
O O15 0.441158 0.133530 0.588827
O O16 0.955621 0.850517 0.004129
O O17 0.175179 0.851766 0.121442
O O18 0.951562 0.750000 0.572221
#
# Coordination Sequence:
#
# PCOD9360369 Si02
#       8
#     8   8   8   8   8   8   8   8
#     4   9  20  40  64  89 121 165 213 261 318 381
#     4  12  21  37  67  97 127 165 201 263 327 378
#     4  11  21  36  63  96 130 161 204 265 319 376
#     4  11  20  37  61  96 124 160 207 262 317 375
#     4  10  24  45  65  87 127 175 213 258 320 379
#     4  12  23  38  64  91 130 165 212 261 318 379
#     4  11  21  41  64  92 127 168 211 258 319 380
#     4  10  19  34  62  93 120 159 212 261 310 371
#
# _framework density 20.887815
#
# number of rings (size 3 to 8) (size 9 to 14) (size 15 to 20)
#    0.000    1.250    5.000    3.750    0.000    1.500 
#    2.250    0.000    0.000    1.500    0.000    0.000 
#    0.000    0.000    0.000    0.000    0.000    0.000 
#
# Total GULP energy -178284.783363 kJ/mol
# GULP energy per Si atom -5571.399480 kJ/mol
# Density = 2.084027 g / cm^3
# Si number density = 20.887815 Si / 1000 Ang^3
#
#
#
# Elastic Constant Matrix: (Units=GPa)
#
#
# Indices 1 2 3 4 5 6 
#
# 1 51.5752 -0.7394 -0.1673 0.0000 0.0000 0.0000
# 2 -0.7394 80.8889 4.2254 0.0000 0.0000 0.0000
# 3 -0.1673 4.2254 55.6097 0.0000 0.0000 0.0000
# 4 0.0000 0.0000 0.0000 17.1537 0.0000 0.0000
# 5 0.0000 0.0000 0.0000 0.0000 9.5297 0.0000
# 6 0.0000 0.0000 0.0000 0.0000 0.0000 34.0035
#
#
#
# Elastic Compliance Matrix: (Units=1/GPa)
#
#
# Indices 1 2 3 4 5 6 
#
# 1 0.019392 0.000175 0.000045 0.000000 0.000000 0.000000
# 2 0.000175 0.012413 -0.000943 0.000000 0.000000 0.000000
# 3 0.000045 -0.000943 0.018054 0.000000 0.000000 0.000000
# 4 0.000000 0.000000 0.000000 0.058296 0.000000 0.000000
# 5 0.000000 0.000000 0.000000 0.000000 0.104935 0.000000
# 6 0.000000 0.000000 0.000000 0.000000 0.000000 0.029409
#
#
# Mechanical properties :
#
#
# Convention : Reuss Voigt Hill
#
# Bulk Modulus (GPa) = 20.65515 21.63458 21.14487
# Shear Modulus (GPa) = 19.22460 24.45439 21.83949
#
# Velocity S-wave (km/s) = 3.03706 3.42533 3.23702
# Velocity P-wave (km/s) = 4.71258 5.10136 4.91082
#
# Compressibility (1/GPa) = 0.04841407
#
# Stress axis : x y z
#
# Youngs Moduli (GPa) = 51.56813 80.55766 55.38871
#
# Poissons Ratio (x) = -0.01409 -0.00250
# Poissons Ratio (y) = -0.00902 0.05221
# Poissons Ratio (z) = -0.00232 0.07594
#
# Static dielectric constant tensor:
#      x y z
#    x 1.796420 0.000000 0.000000 
#    y 0.000000 1.773390 0.000000 
#    z 0.000000 0.000000 1.845740 
# 
# From -- ./inp_files/8797.got.cif
#   From: 2010.05.17/outbox.cif.g08.bks.cpg/sg39_5_cif.got.tgz:8797.got - 2010.06.03 18:22:40.
