data_PCOD9360382
_publ_section_title
;
Structure prediction by ZEFSAII (Michael W. Deem and Ramdas Pophale) SiO2 
 PCOD9360382
Probable space group: A B M 2
;
_chemical_formula_sum "Si O2"
_cell_formula_units_Z 64
_cell_length_a 19.817294
_cell_length_b 8.677474
_cell_length_c 21.064238
_cell_angle_alpha 90.000000
_cell_angle_beta 90.000000
_cell_angle_gamma 90.000000
_cell_volume 3622.291749
_symmetry_space_group_name_H-M "A B M 2"
_symmetry_group_IT_number 39
_symmetry_cell_setting 'orthorhombic'
loop_
_space_group_symop_operation_xyz
x,y,z
-x,-y,z
-x,1/2+y,z
x,1/2-y,z
x,1/2+y,1/2+z
-x,1/2-y,1/2+z
-x,y,1/2+z
x,-y,1/2+z
loop_
_atom_site_type_symbol
_atom_site_label
_atom_site_fract_x
_atom_site_fract_y
_atom_site_fract_z
Si Si1 0.214796 0.064292 0.061190
Si Si2 0.928307 0.933365 0.366733
Si Si3 0.704338 0.435535 0.434712
Si Si4 0.204338 0.435535 0.812441
Si Si5 0.072412 0.435391 0.008793
Si Si6 0.571693 0.566635 0.380421
Si Si7 0.572412 0.564609 0.738361
Si Si8 0.714796 0.564292 0.685963
O O1 0.215356 0.250000 0.063797
O O2 0.136837 0.016839 0.050614
O O3 0.250000 1.000000 0.123577
O O4 0.256850 0.018509 0.998527
O O5 0.932055 0.750000 0.372102
O O6 0.867415 0.985017 0.322045
O O7 0.916344 0.004313 0.436981
O O8 0.000000 0.000000 0.344654
O O9 0.695545 0.250000 0.435062
O O10 0.750000 0.474081 0.373577
O O11 0.632585 0.514983 0.425108
O O12 0.195545 0.250000 0.812091
O O13 0.243150 0.481491 0.748627
O O14 0.069534 0.250000 0.006593
O O15 0.000000 0.500000 0.030226
O O16 0.500000 0.500000 0.402501
O O17 0.567945 0.750000 0.375052
O O18 0.583656 0.495687 0.310173
O O19 0.500000 0.500000 0.716927
O O20 0.569535 0.750000 0.740560
O O21 0.636837 0.516838 0.696540
O O22 0.715356 0.750000 0.683357
#
# Coordination Sequence:
#
# PCOD9360382 Si02
#       8
#     8   8   8   8   8   8   8   8
#     4  10  22  38  58  82 114 151 186 230 280 332
#     4  11  21  33  54  85 115 146 186 235 283 333
#     4  10  19  37  59  80 112 148 185 229 280 330
#     4  10  19  37  59  80 112 148 185 229 280 330
#     4  10  19  35  56  82 111 147 186 228 280 333
#     4  11  21  33  54  85 115 146 186 235 283 333
#     4  10  19  35  56  82 111 147 186 228 280 333
#     4  10  22  38  58  82 114 151 186 230 280 332
#
# _framework density 17.668372999999999
#
# number of rings (size 3 to 8) (size 9 to 14) (size 15 to 20)
#    0.000    1.750    2.500    4.500    0.000    3.500 
#    0.000    1.250    0.000    3.000    0.000    0.000 
#    0.000    0.000    0.000    0.000    0.000    0.000 
#
# Total GULP energy -178682.112291 kJ/mol
# GULP energy per Si atom -5583.816009 kJ/mol
# Density = 1.762816 g / cm^3
# Si number density = 17.668373 Si / 1000 Ang^3
#
#
#
# Elastic Constant Matrix: (Units=GPa)
#
#
# Indices 1 2 3 4 5 6 
#
# 1 193.3209 56.7694 84.3338 0.0000 0.0000 0.0000
# 2 56.7694 61.0740 34.2152 0.0000 0.0000 0.0000
# 3 84.3338 34.2152 112.1014 0.0000 0.0000 0.0000
# 4 0.0000 0.0000 0.0000 26.6134 0.0000 0.0000
# 5 0.0000 0.0000 0.0000 0.0000 27.7071 0.0000
# 6 0.0000 0.0000 0.0000 0.0000 0.0000 33.0400
#
#
#
# Elastic Compliance Matrix: (Units=1/GPa)
#
#
# Indices 1 2 3 4 5 6 
#
# 1 0.009020 -0.005528 -0.005099 0.000000 0.000000 0.000000
# 2 -0.005528 0.023139 -0.002903 0.000000 0.000000 0.000000
# 3 -0.005099 -0.002903 0.013642 0.000000 0.000000 0.000000
# 4 0.000000 0.000000 0.000000 0.037575 0.000000 0.000000
# 5 0.000000 0.000000 0.000000 0.000000 0.036092 0.000000
# 6 0.000000 0.000000 0.000000 0.000000 0.000000 0.030266
#
#
# Mechanical properties :
#
#
# Convention : Reuss Voigt Hill
#
# Bulk Modulus (GPa) = 53.35957 79.68145 66.52051
# Shear Modulus (GPa) = 27.31608 30.21730 28.76669
#
# Velocity S-wave (km/s) = 3.93624 4.14000 4.03941
# Velocity P-wave (km/s) = 7.13616 8.24919 7.71278
#
# Compressibility (1/GPa) = 0.01874078
#
# Stress axis : x y z
#
# Youngs Moduli (GPa) = 110.86025 43.21769 73.30061
#
# Poissons Ratio (x) = 0.23891 0.37374
# Poissons Ratio (y) = 0.61285 0.21283
# Poissons Ratio (z) = 0.56525 0.12548
#
# Static dielectric constant tensor:
#      x y z
#    x 1.616260 0.000000 0.000000 
#    y 0.000000 1.594800 0.000000 
#    z 0.000000 0.000000 1.570730 
# 
# From -- ./inp_files/14987.got.cif
#   From: 2010.05.17/outbox.cif.g08.bks.cpg/sg39_8_cif.got.tgz:14987.got - 2010.06.03 18:22:40.
