data_PCOD9360771
_publ_section_title
;
Structure prediction by ZEFSAII (Michael W. Deem and Ramdas Pophale) SiO2 
 PCOD9360771
Probable space group: A B M 2
;
_chemical_formula_sum "Si O2"
_cell_formula_units_Z 64
_cell_length_a 24.617778
_cell_length_b 8.646132
_cell_length_c 15.801377
_cell_angle_alpha 90.000000
_cell_angle_beta 90.000000
_cell_angle_gamma 90.000000
_cell_volume 3363.300311
_symmetry_space_group_name_H-M "A B M 2"
_symmetry_group_IT_number 39
_symmetry_cell_setting 'orthorhombic'
loop_
_space_group_symop_operation_xyz
x,y,z
-x,-y,z
-x,1/2+y,z
x,1/2-y,z
x,1/2+y,1/2+z
-x,1/2-y,1/2+z
-x,y,1/2+z
x,-y,1/2+z
loop_
_atom_site_type_symbol
_atom_site_label
_atom_site_fract_x
_atom_site_fract_y
_atom_site_fract_z
Si Si1 0.832386 0.064132 0.518200
Si Si2 0.943680 0.434141 0.955767
Si Si3 0.759127 0.936786 0.859697
Si Si4 0.057203 0.934627 0.264736
Si Si5 0.366023 0.062680 0.861369
Si Si6 0.439706 0.435740 0.211748
Si Si7 0.170379 0.565687 0.706670
Si Si8 0.559965 0.563548 0.017998
O O1 0.840180 0.250000 0.511410
O O2 0.792235 0.014548 0.443326
O O3 0.810203 0.031147 0.611603
O O4 0.890528 0.984570 0.506080
O O5 0.947173 0.250000 0.948754
O O6 0.938128 0.506750 0.861802
O O7 0.000000 0.500000 0.992208
O O8 0.759835 0.750000 0.857918
O O9 0.696635 0.987658 0.861861
O O10 0.790672 0.997504 0.777957
O O11 0.056152 0.750000 0.263646
O O12 0.110157 0.996988 0.217918
O O13 0.000000 0.000000 0.231374
O O14 0.367064 0.250000 0.859097
O O15 0.397557 0.012996 0.946604
O O16 0.397819 0.000210 0.779991
O O17 0.500000 0.500000 0.229968
O O18 0.440865 0.250000 0.216115
O O19 0.426056 0.481979 0.114646
O O20 0.167220 0.750000 0.717309
O O21 0.500000 0.500000 0.998679
O O22 0.557624 0.750000 0.016319
#
# Coordination Sequence:
#
# PCOD9360771 Si02
#       8
#     8   8   8   8   8   8   8   8
#     4  10  22  40  61  84 114 153 193 237 293 351
#     4  11  21  35  59  88 118 150 188 234 288 349
#     4  10  22  41  61  81 113 155 194 240 293 342
#     4  11  21  36  59  86 118 152 188 233 292 349
#     4  10  21  37  58  84 114 152 196 237 285 340
#     4  10  20  35  57  86 119 153 189 233 286 339
#     4  11  23  39  61  88 115 149 195 242 290 346
#     4   9  19  35  56  83 117 152 189 230 281 340
#
# _framework density 19.028929000000002
#
# number of rings (size 3 to 8) (size 9 to 14) (size 15 to 20)
#    0.000    1.750    1.250    4.125    0.000    5.000 
#    0.000    2.500    0.000    0.000    0.000    0.000 
#    0.000    0.000    0.000    0.000    0.000    0.000 
#
# Total GULP energy -178800.780926 kJ/mol
# GULP energy per Si atom -5587.524404 kJ/mol
# Density = 1.898562 g / cm^3
# Si number density = 19.028929 Si / 1000 Ang^3
#
#
#
# Elastic Constant Matrix: (Units=GPa)
#
#
# Indices 1 2 3 4 5 6 
#
# 1 165.6413 39.6787 106.1362 0.0000 0.0000 0.0000
# 2 39.6787 38.7210 41.5062 0.0000 0.0000 0.0000
# 3 106.1362 41.5062 140.2558 0.0000 0.0000 0.0000
# 4 0.0000 0.0000 0.0000 19.2054 0.0000 0.0000
# 5 0.0000 0.0000 0.0000 0.0000 -10.4891 0.0000
# 6 0.0000 0.0000 0.0000 0.0000 0.0000 27.2469
#
#
#
# Elastic Compliance Matrix: (Units=1/GPa)
#
#
# Indices 1 2 3 4 5 6 
#
# 1 0.012086 -0.003781 -0.008027 0.000000 0.000000 0.000000
# 2 -0.003781 0.039007 -0.008683 0.000000 0.000000 0.000000
# 3 -0.008027 -0.008683 0.015774 0.000000 0.000000 0.000000
# 4 0.000000 0.000000 0.000000 0.052069 0.000000 0.000000
# 5 0.000000 0.000000 0.000000 0.000000 -0.095337 0.000000
# 6 0.000000 0.000000 0.000000 0.000000 0.000000 0.036701
#
#
# Mechanical properties :
#
#
# Convention : Reuss Voigt Hill
#
# Bulk Modulus (GPa) = 38.63059 79.91782 59.27420
# Shear Modulus (GPa) = 45.49200 17.67912 31.58556
#
# Velocity S-wave (km/s) = 4.89476 3.05136 4.07857
# Velocity P-wave (km/s) = 7.23118 7.38266 7.30731
#
# Compressibility (1/GPa) = 0.02588622
#
# Stress axis : x y z
#
# Youngs Moduli (GPa) = 82.73783 25.63650 63.39610
#
# Poissons Ratio (x) = 0.09692 0.50890
# Poissons Ratio (y) = 0.31279 0.55044
# Poissons Ratio (z) = 0.66417 0.22259
#
# Static dielectric constant tensor:
#      x y z
#    x 1.633100 0.000000 0.000000 
#    y 0.000000 1.643120 0.000000 
#    z 0.000000 0.000000 1.673860 
# 
# From -- ./inp_files/10686.got.cif
#   From: 2010.05.17/outbox.cif.g08.bks.cpg/sg39_6_cif.got.tgz:10686.got - 2010.06.03 18:22:40.
