data_PCOD9360148
_publ_section_title
;
Structure prediction by ZEFSAII (Michael W. Deem and Ramdas Pophale) SiO2 
 PCOD9360148
Probable space group: A B M 2
;
_chemical_formula_sum "Si O2"
_cell_formula_units_Z 36
_cell_length_a 24.157857
_cell_length_b 13.902666
_cell_length_c 5.042688
_cell_angle_alpha 90.000000
_cell_angle_beta 90.000000
_cell_angle_gamma 90.000000
_cell_volume 1693.630218
_symmetry_space_group_name_H-M "A B M 2"
_symmetry_group_IT_number 39
_symmetry_cell_setting 'orthorhombic'
loop_
_space_group_symop_operation_xyz
x,y,z
-x,-y,z
-x,1/2+y,z
x,1/2-y,z
x,1/2+y,1/2+z
-x,1/2-y,1/2+z
-x,y,1/2+z
x,-y,1/2+z
loop_
_atom_site_type_symbol
_atom_site_label
_atom_site_fract_x
_atom_site_fract_y
_atom_site_fract_z
Si Si1 0.963694 0.750000 0.731670
Si Si2 0.530583 0.364583 0.270269
Si Si3 0.885601 0.569179 0.626660
Si Si4 0.648081 0.436772 0.086760
Si Si5 0.764015 0.065487 0.221871
O O1 0.928645 0.654303 0.670369
O O2 0.016056 0.750000 0.534232
O O3 0.526029 0.250000 0.284603
O O4 0.515944 0.400108 0.563379
O O5 0.591196 0.386474 0.161950
O O6 0.891413 0.514864 0.347000
O O7 0.823226 0.611345 0.660596
O O8 0.648895 0.529469 0.283384
O O9 0.705859 0.383827 0.155951
O O10 0.763588 0.026880 0.522043
#
# Coordination Sequence:
#
# PCOD9360148 Si02
#       5
#     4   8   8   8   8
#     4  12  26  40  60  94 124 152 204 244 272 346
#     4  10  21  35  48  67 102 139 171 212 265 324
#     4  10  21  40  63  85 120 161 192 238 298 339
#     4  10  19  32  53  78 101 128 174 226 267 316
#     4   8  16  32  54  78 105 137 174 221 275 327
#
# _framework density 21.256114
#
# number of rings (size 3 to 8) (size 9 to 14) (size 15 to 20)
#    0.000    2.222    0.000    2.667    0.000    5.333 
#    2.000    0.000    0.000    0.000    0.000    0.000 
#    0.000    0.000    0.000    0.000    0.000    0.000 
#
# Total GULP energy -100440.490391 kJ/mol
# GULP energy per Si atom -5580.027244 kJ/mol
# Density = 2.120773 g / cm^3
# Si number density = 21.256114 Si / 1000 Ang^3
#
#
#
# Elastic Constant Matrix: (Units=GPa)
#
#
# Indices 1 2 3 4 5 6 
#
# 1 96.6291 15.5595 -5.7210 0.0000 0.0000 0.0000
# 2 15.5595 44.2901 -6.1998 0.0000 0.0000 0.0000
# 3 -5.7210 -6.1998 76.4850 0.0000 0.0000 0.0000
# 4 0.0000 0.0000 0.0000 7.8377 0.0000 0.0000
# 5 0.0000 0.0000 0.0000 0.0000 35.4413 0.0000
# 6 0.0000 0.0000 0.0000 0.0000 0.0000 -17.1136
#
#
#
# Elastic Compliance Matrix: (Units=1/GPa)
#
#
# Indices 1 2 3 4 5 6 
#
# 1 0.010989 -0.003789 0.000515 0.000000 0.000000 0.000000
# 2 -0.003789 0.024144 0.001674 0.000000 0.000000 0.000000
# 3 0.000515 0.001674 0.013249 0.000000 0.000000 0.000000
# 4 0.000000 0.000000 0.000000 0.127588 0.000000 0.000000
# 5 0.000000 0.000000 0.000000 0.000000 0.028216 0.000000
# 6 0.000000 0.000000 0.000000 0.000000 0.000000 -0.058433
#
#
# Mechanical properties :
#
#
# Convention : Reuss Voigt Hill
#
# Bulk Modulus (GPa) = 22.13288 24.96462 23.54875
# Shear Modulus (GPa) = 30.48546 19.48412 24.98479
#
# Velocity S-wave (km/s) = 3.79119 3.03088 3.43215
# Velocity P-wave (km/s) = 5.44052 4.90087 5.17773
#
# Compressibility (1/GPa) = 0.04518165
#
# Stress axis : x y z
#
# Youngs Moduli (GPa) = 90.99689 41.41873 75.47943
#
# Poissons Ratio (x) = 0.15692 -0.03886
# Poissons Ratio (y) = 0.34475 -0.12633
# Poissons Ratio (z) = -0.04685 -0.06932
#
# Static dielectric constant tensor:
#      x y z
#    x 1.831470 0.000000 0.000000 
#    y 0.000000 1.719950 0.000000 
#    z 0.000000 0.000000 1.743850 
# 
# From -- ./inp_files/968.got.cif
#   From: 2010.05.17/outbox.cif.g08.bks.cpg/sg39_1_cif.got.tgz:968.got - 2010.06.03 18:22:40.
