data_PCOD9360928
_publ_section_title
;
Structure prediction by ZEFSAII (Michael W. Deem and Ramdas Pophale) SiO2 
 PCOD9360928
Probable space group: A B M 2
;
_chemical_formula_sum "Si O2"
_cell_formula_units_Z 60
_cell_length_a 4.960513
_cell_length_b 21.191382
_cell_length_c 24.311076
_cell_angle_alpha 90.000000
_cell_angle_beta 90.000000
_cell_angle_gamma 90.000000
_cell_volume 2555.583370
_symmetry_space_group_name_H-M "A B M 2"
_symmetry_group_IT_number 39
_symmetry_cell_setting 'orthorhombic'
loop_
_space_group_symop_operation_xyz
x,y,z
-x,-y,z
-x,1/2+y,z
x,1/2-y,z
x,1/2+y,1/2+z
-x,1/2-y,1/2+z
-x,y,1/2+z
x,-y,1/2+z
loop_
_atom_site_type_symbol
_atom_site_label
_atom_site_fract_x
_atom_site_fract_y
_atom_site_fract_z
Si Si1 0.313357 0.818886 0.832750
Si Si2 0.195121 0.391793 0.806005
Si Si3 0.958025 0.678313 0.632174
Si Si4 0.500000 0.000000 0.601335
Si Si5 0.140888 0.939762 0.195746
Si Si6 0.286719 0.369278 0.453086
Si Si7 0.205781 0.556371 0.425443
Si Si8 0.445880 0.139409 0.065301
O O1 0.226015 0.750000 0.815662
O O2 0.621446 0.831749 0.818699
O O3 0.304755 0.827461 0.898626
O O4 0.115591 0.870501 0.806121
O O5 0.305507 0.415417 0.747753
O O6 0.218640 0.436785 0.859082
O O7 0.976521 0.750000 0.652967
O O8 0.023815 0.620869 0.673932
O O9 0.655148 0.662758 0.612244
O O10 0.161819 0.669263 0.581270
O O11 0.720423 0.971290 0.642765
O O12 0.414700 0.937638 0.567705
O O13 0.000000 0.000000 0.222124
O O14 0.972255 0.387915 0.453943
O O15 0.409264 0.342039 0.508756
O O16 0.486018 0.430049 0.442437
O O17 0.000000 0.500000 0.438539
#
# Coordination Sequence:
#
# PCOD9360928 Si02
#       8
#     8   8   8   4   8   8   8   8
#     4  10  22  41  61  91 129 168 213 267 318 392
#     4  10  23  38  63  91 125 162 216 259 323 384
#     4  11  25  43  65  95 132 166 221 276 325 388
#     4  10  24  40  66  96 132 172 220 284 322 398
#     4  11  23  44  67  96 128 176 217 272 331 391
#     4  10  22  38  61  91 121 164 212 253 325 388
#     4  10  20  37  55  92 126 159 196 261 314 387
#     4  11  23  43  64  96 129 172 220 268 334 388
#
# _framework density 23.478003999999999
#
# number of rings (size 3 to 8) (size 9 to 14) (size 15 to 20)
#    0.000    1.600    1.333    2.400    3.733    2.133 
#    2.400    0.000    0.000    0.000    0.000    0.000 
#    0.000    0.000    0.000    0.000    0.000    0.000 
#
# Total GULP energy -167270.904687 kJ/mol
# GULP energy per Si atom -5575.696823 kJ/mol
# Density = 2.342457 g / cm^3
# Si number density = 23.478004 Si / 1000 Ang^3
#
#
#
# Elastic Constant Matrix: (Units=GPa)
#
#
# Indices 1 2 3 4 5 6 
#
# 1 97.8970 6.2370 -1.2447 0.0000 0.0000 0.0000
# 2 6.2370 98.5790 0.8232 0.0000 0.0000 0.0000
# 3 -1.2447 0.8232 74.2634 0.0000 0.0000 0.0000
# 4 0.0000 0.0000 0.0000 29.3541 0.0000 0.0000
# 5 0.0000 0.0000 0.0000 0.0000 183.2946 0.0000
# 6 0.0000 0.0000 0.0000 0.0000 0.0000 11.8445
#
#
#
# Elastic Compliance Matrix: (Units=1/GPa)
#
#
# Indices 1 2 3 4 5 6 
#
# 1 0.010259 -0.000651 0.000179 0.000000 0.000000 0.000000
# 2 -0.000651 0.010186 -0.000124 0.000000 0.000000 0.000000
# 3 0.000179 -0.000124 0.013470 0.000000 0.000000 0.000000
# 4 0.000000 0.000000 0.000000 0.034067 0.000000 0.000000
# 5 0.000000 0.000000 0.000000 0.000000 0.005456 0.000000
# 6 0.000000 0.000000 0.000000 0.000000 0.000000 0.084428
#
#
# Mechanical properties :
#
#
# Convention : Reuss Voigt Hill
#
# Bulk Modulus (GPa) = 30.55822 31.37448 30.96635
# Shear Modulus (GPa) = 29.41806 62.56023 45.98914
#
# Velocity S-wave (km/s) = 3.54362 5.16761 4.43066
# Velocity P-wave (km/s) = 5.45774 6.99985 6.27634
#
# Compressibility (1/GPa) = 0.03272442
#
# Stress axis : x y z
#
# Youngs Moduli (GPa) = 97.47979 98.17063 74.23930
#
# Poissons Ratio (x) = 0.06386 -0.01330
# Poissons Ratio (y) = 0.06341 0.00919
# Poissons Ratio (z) = -0.01746 0.01216
#
# Static dielectric constant tensor:
#      x y z
#    x 1.625190 0.000000 0.000000 
#    y 0.000000 1.886530 0.000000 
#    z 0.000000 0.000000 1.886930 
# 
# From -- ./inp_files/15350.got.cif
#   From: 2010.05.17/outbox.cif.g08.bks.cpg/sg39_8_cif.got.tgz:15350.got - 2010.06.03 18:22:40.
