data_PCOD9360484
_publ_section_title
;
Structure prediction by ZEFSAII (Michael W. Deem and Ramdas Pophale) SiO2 
 PCOD9360484
Probable space group: A B M 2
;
_chemical_formula_sum "Si O2"
_cell_formula_units_Z 40
_cell_length_a 5.210424
_cell_length_b 29.543247
_cell_length_c 13.411228
_cell_angle_alpha 90.000000
_cell_angle_beta 90.000000
_cell_angle_gamma 90.000000
_cell_volume 2064.428457
_symmetry_space_group_name_H-M "A B M 2"
_symmetry_group_IT_number 39
_symmetry_cell_setting 'orthorhombic'
loop_
_space_group_symop_operation_xyz
x,y,z
-x,-y,z
-x,1/2+y,z
x,1/2-y,z
x,1/2+y,1/2+z
-x,1/2-y,1/2+z
-x,y,1/2+z
x,-y,1/2+z
loop_
_atom_site_type_symbol
_atom_site_label
_atom_site_fract_x
_atom_site_fract_y
_atom_site_fract_z
Si Si1 0.058825 0.696470 0.413480
Si Si2 0.554346 0.158988 0.805891
Si Si3 0.074879 0.047913 0.035377
Si Si4 0.722598 0.361782 0.590546
Si Si5 0.567354 0.919647 0.442452
O O1 0.058959 0.750000 0.428250
O O2 0.289208 0.682281 0.338319
O O3 0.119672 0.670533 0.516671
O O4 0.790536 0.680410 0.367071
O O5 0.626196 0.161021 0.690362
O O6 0.535323 0.106207 0.838753
O O7 0.118901 0.091253 0.107008
O O8 0.336825 0.046594 0.971013
O O9 0.000000 0.000000 0.082662
O O10 0.844657 0.060441 0.961010
O O11 0.484352 0.380027 0.524551
#
# Coordination Sequence:
#
# PCOD9360484 Si02
#       5
#     8   8   8   8   8
#     4  11  24  40  59  90 121 154 208 252 297 368
#     4  11  21  40  63  86 118 163 199 245 310 354
#     4  10  19  37  63  85 120 158 196 245 301 352
#     4   9  23  37  66  80 126 158 195 249 308 350
#     4   9  19  37  57  87 117 157 192 247 286 359
#
# _framework density 19.375821999999999
#
# number of rings (size 3 to 8) (size 9 to 14) (size 15 to 20)
#    1.200    0.800    2.000    1.200    2.800    1.600 
#    0.000    1.000    4.400    0.000    0.000    0.000 
#    0.000    0.000    0.000    0.000    0.000    0.000 
#
# Total GULP energy -111380.934101 kJ/mol
# GULP energy per Si atom -5569.046705 kJ/mol
# Density = 1.933172 g / cm^3
# Si number density = 19.375822 Si / 1000 Ang^3
#
#
#
# Elastic Constant Matrix: (Units=GPa)
#
#
# Indices 1 2 3 4 5 6 
#
# 1 107.7847 17.5108 -2.8514 0.0000 0.0000 0.0000
# 2 17.5108 100.4076 13.2633 0.0000 0.0000 0.0000
# 3 -2.8514 13.2633 61.8639 0.0000 0.0000 0.0000
# 4 0.0000 0.0000 0.0000 4.3410 0.0000 0.0000
# 5 0.0000 0.0000 0.0000 0.0000 13.9117 0.0000
# 6 0.0000 0.0000 0.0000 0.0000 0.0000 24.3955
#
#
#
# Elastic Compliance Matrix: (Units=1/GPa)
#
#
# Indices 1 2 3 4 5 6 
#
# 1 0.009589 -0.001781 0.000824 0.000000 0.000000 0.000000
# 2 -0.001781 0.010581 -0.002351 0.000000 0.000000 0.000000
# 3 0.000824 -0.002351 0.016706 0.000000 0.000000 0.000000
# 4 0.000000 0.000000 0.000000 0.230363 0.000000 0.000000
# 5 0.000000 0.000000 0.000000 0.000000 0.071882 0.000000
# 6 0.000000 0.000000 0.000000 0.000000 0.000000 0.040991
#
#
# Mechanical properties :
#
#
# Convention : Reuss Voigt Hill
#
# Bulk Modulus (GPa) = 33.04663 36.21131 34.62897
# Shear Modulus (GPa) = 12.60034 24.67186 18.63610
#
# Velocity S-wave (km/s) = 2.55289 3.57225 3.10469
# Velocity P-wave (km/s) = 5.07763 5.97864 5.54646
#
# Compressibility (1/GPa) = 0.03026027
#
# Stress axis : x y z
#
# Youngs Moduli (GPa) = 104.28720 94.51335 59.85722
#
# Poissons Ratio (x) = 0.16834 -0.04931
# Poissons Ratio (y) = 0.18575 0.14069
# Poissons Ratio (z) = -0.08591 0.22215
#
# Static dielectric constant tensor:
#      x y z
#    x 1.677720 0.000000 0.000000 
#    y 0.000000 1.715170 0.000000 
#    z 0.000000 0.000000 1.653070 
# 
# From -- ./inp_files/4609.got.cif
#   From: 2010.05.17/outbox.cif.g08.bks.cpg/sg39_3_cif.got.tgz:4609.got - 2010.06.03 18:22:40.
