data_PCOD9360445
_publ_section_title
;
Structure prediction by ZEFSAII (Michael W. Deem and Ramdas Pophale) SiO2 
 PCOD9360445
Probable space group: A B M 2
;
_chemical_formula_sum "Si O2"
_cell_formula_units_Z 60
_cell_length_a 11.746411
_cell_length_b 12.750633
_cell_length_c 21.887601
_cell_angle_alpha 90.000000
_cell_angle_beta 90.000000
_cell_angle_gamma 90.000000
_cell_volume 3278.197398
_symmetry_space_group_name_H-M "A B M 2"
_symmetry_group_IT_number 39
_symmetry_cell_setting 'orthorhombic'
loop_
_space_group_symop_operation_xyz
x,y,z
-x,-y,z
-x,1/2+y,z
x,1/2-y,z
x,1/2+y,1/2+z
-x,1/2-y,1/2+z
-x,y,1/2+z
x,-y,1/2+z
loop_
_atom_site_type_symbol
_atom_site_label
_atom_site_fract_x
_atom_site_fract_y
_atom_site_fract_z
Si Si1 0.660016 0.627473 0.627150
Si Si2 0.489872 0.877454 0.741919
Si Si3 0.203975 0.125629 0.402138
Si Si4 0.000000 0.500000 0.958864
Si Si5 0.868627 0.022759 0.653669
Si Si6 0.184377 0.630242 0.534002
Si Si7 0.624697 0.524877 0.497818
Si Si8 0.230044 0.130210 0.262277
O O1 0.680341 0.750000 0.620059
O O2 0.570274 0.613109 0.682492
O O3 0.780035 0.570945 0.640848
O O4 0.614236 0.582911 0.563060
O O5 0.512903 0.750000 0.764945
O O6 0.354803 0.873383 0.731878
O O7 0.500000 0.000000 0.771320
O O8 0.190364 0.250000 0.406380
O O9 0.299887 0.090099 0.450130
O O10 0.239254 0.098431 0.332963
O O11 0.085962 0.069669 0.419223
O O12 0.081281 0.430240 0.001380
O O13 0.829140 0.112163 0.606270
O O14 0.851721 0.058602 0.722813
O O15 0.000000 0.000000 0.641500
O O16 0.179992 0.750000 0.517512
O O17 0.301484 0.578359 0.511978
O O18 0.500000 0.500000 0.473637
O O19 0.188973 0.250000 0.260917
#
# Coordination Sequence:
#
# PCOD9360445 Si02
#       8
#     8   8   8   4   8   8   8   8
#     4  10  21  36  59  89 121 156 193 242 307 367
#     4  10  19  36  60  86 116 154 199 245 301 363
#     4  10  22  40  62  86 117 162 205 245 296 355
#     4  10  20  40  62  86 114 158 198 248 292 358
#     4  11  22  37  56  87 120 153 193 245 297 358
#     4  10  21  37  59  87 117 151 190 239 304 360
#     4  10  22  38  58  89 119 152 194 247 298 354
#     4  10  22  38  59  85 116 158 203 245 296 356
#
# _framework density 18.302741000000001
#
# number of rings (size 3 to 8) (size 9 to 14) (size 15 to 20)
#    0.000    1.867    2.000    1.600    2.800    2.667 
#    0.000    0.000    0.000    4.800    0.000    0.000 
#    0.000    0.000    0.000    0.000    0.000    0.000 
#
# Total GULP energy -167058.928891 kJ/mol
# GULP energy per Si atom -5568.630963 kJ/mol
# Density = 1.826108 g / cm^3
# Si number density = 18.302741 Si / 1000 Ang^3
#
#
#
# Elastic Constant Matrix: (Units=GPa)
#
#
# Indices 1 2 3 4 5 6 
#
# 1 116.6586 29.8955 37.1039 0.0000 0.0000 0.0000
# 2 29.8955 108.7081 25.3653 0.0000 0.0000 0.0000
# 3 37.1039 25.3653 59.2605 0.0000 0.0000 0.0000
# 4 0.0000 0.0000 0.0000 19.5839 0.0000 0.0000
# 5 0.0000 0.0000 0.0000 0.0000 7.4636 0.0000
# 6 0.0000 0.0000 0.0000 0.0000 0.0000 12.4921
#
#
#
# Elastic Compliance Matrix: (Units=1/GPa)
#
#
# Indices 1 2 3 4 5 6 
#
# 1 0.010938 -0.001567 -0.006178 0.000000 0.000000 0.000000
# 2 -0.001567 0.010444 -0.003489 0.000000 0.000000 0.000000
# 3 -0.006178 -0.003489 0.022237 0.000000 0.000000 0.000000
# 4 0.000000 0.000000 0.000000 0.051062 0.000000 0.000000
# 5 0.000000 0.000000 0.000000 0.000000 0.133983 0.000000
# 6 0.000000 0.000000 0.000000 0.000000 0.000000 0.080051
#
#
# Mechanical properties :
#
#
# Convention : Reuss Voigt Hill
#
# Bulk Modulus (GPa) = 47.28032 52.15072 49.71552
# Shear Modulus (GPa) = 14.78268 20.72542 17.75405
#
# Velocity S-wave (km/s) = 2.84505 3.36872 3.11790
# Velocity P-wave (km/s) = 6.05647 6.60956 6.33905
#
# Compressibility (1/GPa) = 0.02115045
#
# Stress axis : x y z
#
# Youngs Moduli (GPa) = 91.42022 95.74895 44.97109
#
# Poissons Ratio (x) = 0.15000 0.27784
# Poissons Ratio (y) = 0.14322 0.15693
# Poissons Ratio (z) = 0.56481 0.33411
#
# Static dielectric constant tensor:
#      x y z
#    x 1.600110 0.000000 0.000000 
#    y 0.000000 1.674210 0.000000 
#    z 0.000000 0.000000 1.631120 
# 
# From -- ./inp_files/14503.got.cif
#   From: 2010.05.17/outbox.cif.g08.bks.cpg/sg39_8_cif.got.tgz:14503.got - 2010.06.03 18:22:40.
