data_PCOD9360961
_publ_section_title
;
Structure prediction by ZEFSAII (Michael W. Deem and Ramdas Pophale) SiO2 
 PCOD9360961
Probable space group: A B M 2
;
_chemical_formula_sum "Si O2"
_cell_formula_units_Z 56
_cell_length_a 20.881384
_cell_length_b 8.221040
_cell_length_c 15.894911
_cell_angle_alpha 90.000000
_cell_angle_beta 90.000000
_cell_angle_gamma 90.000000
_cell_volume 2728.626809
_symmetry_space_group_name_H-M "A B M 2"
_symmetry_group_IT_number 39
_symmetry_cell_setting 'orthorhombic'
loop_
_space_group_symop_operation_xyz
x,y,z
-x,-y,z
-x,1/2+y,z
x,1/2-y,z
x,1/2+y,1/2+z
-x,1/2-y,1/2+z
-x,y,1/2+z
x,-y,1/2+z
loop_
_atom_site_type_symbol
_atom_site_label
_atom_site_fract_x
_atom_site_fract_y
_atom_site_fract_z
Si Si1 0.932512 0.556088 0.509900
Si Si2 0.067158 0.944259 0.705572
Si Si3 0.572992 0.944028 0.109107
Si Si4 0.206279 0.446671 0.511360
Si Si5 0.344156 0.053405 0.451195
Si Si6 0.343613 0.051011 0.266456
Si Si7 0.794174 0.946716 0.206011
O O1 0.932827 0.750000 0.506920
O O2 0.932885 0.502605 0.608147
O O3 0.863192 0.497766 0.476828
O O4 0.000000 0.500000 0.471798
O O5 0.066480 0.750000 0.705791
O O6 0.136181 0.000405 0.740346
O O7 0.000000 0.000000 0.744616
O O8 0.573887 0.750000 0.112933
O O9 0.611930 0.006901 0.190468
O O10 0.500000 0.000000 0.108725
O O11 0.610584 0.996384 0.025763
O O12 0.206082 0.250000 0.507763
O O13 0.270983 0.503255 0.466705
O O14 0.210453 0.499051 0.608859
O O15 0.343344 0.250000 0.452593
O O16 0.365907 0.000120 0.358745
O O17 0.343530 0.250000 0.264504
O O18 0.270099 0.998216 0.252005
O O19 0.794082 0.750000 0.208091
#
# Coordination Sequence:
#
# PCOD9360961 Si02
#       7
#     8   8   8   8   8   8   8
#     4   9  15  23  36  61  95 132 174 220 268 317
#     4   9  15  22  37  62  94 131 173 220 267 316
#     4  11  23  41  63  87 115 145 177 218 265 321
#     4   9  17  28  47  74 104 137 177 226 275 318
#     4  10  20  37  60  86 114 146 183 225 271 322
#     4   9  19  36  59  84 112 145 183 223 266 320
#     4   9  16  29  49  72 100 139 182 222 268 321
#
# _framework density 20.523143000000001
#
# number of rings (size 3 to 8) (size 9 to 14) (size 15 to 20)
#    0.000    2.571    1.429    2.143    0.000    1.714 
#    0.000    3.571    0.000    0.857    0.000    0.000 
#    0.000    0.000    0.000    0.000    0.000    7.714 
#
# Total GULP energy -156113.189058 kJ/mol
# GULP energy per Si atom -5575.471038 kJ/mol
# Density = 2.047643 g / cm^3
# Si number density = 20.523143 Si / 1000 Ang^3
#
#
#
# Elastic Constant Matrix: (Units=GPa)
#
#
# Indices 1 2 3 4 5 6 
#
# 1 201.9254 24.1739 85.4721 0.0000 0.0000 0.0000
# 2 24.1739 17.3331 9.8394 0.0000 0.0000 0.0000
# 3 85.4721 9.8394 114.0301 0.0000 0.0000 0.0000
# 4 0.0000 0.0000 0.0000 11.1388 0.0000 0.0000
# 5 0.0000 0.0000 0.0000 0.0000 -10.5801 0.0000
# 6 0.0000 0.0000 0.0000 0.0000 0.0000 36.4187
#
#
#
# Elastic Compliance Matrix: (Units=1/GPa)
#
#
# Indices 1 2 3 4 5 6 
#
# 1 0.008282 -0.008440 -0.005480 0.000000 0.000000 0.000000
# 2 -0.008440 0.069266 0.000350 0.000000 0.000000 0.000000
# 3 -0.005480 0.000350 0.012847 0.000000 0.000000 0.000000
# 4 0.000000 0.000000 0.000000 0.089776 0.000000 0.000000
# 5 0.000000 0.000000 0.000000 0.000000 -0.094517 0.000000
# 6 0.000000 0.000000 0.000000 0.000000 0.000000 0.027458
#
#
# Mechanical properties :
#
#
# Convention : Reuss Voigt Hill
#
# Bulk Modulus (GPa) = 15.80919 63.58439 39.69679
# Shear Modulus (GPa) = 30.99078 21.64902 26.31990
#
# Velocity S-wave (km/s) = 3.89014 3.25138 3.58502
# Velocity P-wave (km/s) = 5.28180 6.71896 6.04325
#
# Compressibility (1/GPa) = 0.06325436
#
# Stress axis : x y z
#
# Youngs Moduli (GPa) = 120.73976 14.43709 77.84034
#
# Poissons Ratio (x) = 0.12185 0.42654
# Poissons Ratio (y) = 1.01909 -0.02722
# Poissons Ratio (z) = 0.66162 -0.00505
#
# Static dielectric constant tensor:
#      x y z
#    x 1.780160 0.000000 0.000000 
#    y 0.000000 1.724530 0.000000 
#    z 0.000000 0.000000 1.734320 
# 
# From -- ./inp_files/10367.got.cif
#   From: 2010.05.17/outbox.cif.g08.bks.cpg/sg39_6_cif.got.tgz:10367.got - 2010.06.03 18:22:40.
