data_PCOD9360994
_publ_section_title
;
Structure prediction by ZEFSAII (Michael W. Deem and Ramdas Pophale) SiO2 
 PCOD9360994
Probable space group: A B M 2
;
_chemical_formula_sum "Si O2"
_cell_formula_units_Z 48
_cell_length_a 4.988442
_cell_length_b 16.548906
_cell_length_c 28.744458
_cell_angle_alpha 90.000000
_cell_angle_beta 90.000000
_cell_angle_gamma 90.000000
_cell_volume 2372.948650
_symmetry_space_group_name_H-M "A B M 2"
_symmetry_group_IT_number 39
_symmetry_cell_setting 'orthorhombic'
loop_
_space_group_symop_operation_xyz
x,y,z
-x,-y,z
-x,1/2+y,z
x,1/2-y,z
x,1/2+y,1/2+z
-x,1/2-y,1/2+z
-x,y,1/2+z
x,-y,1/2+z
loop_
_atom_site_type_symbol
_atom_site_label
_atom_site_fract_x
_atom_site_fract_y
_atom_site_fract_z
Si Si1 0.566613 0.594174 0.180370
Si Si2 0.748757 0.941717 0.925429
Si Si3 0.575722 0.153812 0.076991
Si Si4 0.084336 0.594030 0.520840
Si Si5 0.078825 0.841947 0.234027
Si Si6 0.252742 0.941939 0.322170
O O1 0.500000 0.500000 0.187385
O O2 0.501169 0.616349 0.126989
O O3 0.358282 0.649855 0.207533
O O4 0.858493 0.611252 0.202542
O O5 0.681028 0.908116 0.873968
O O6 0.500000 0.000000 0.940307
O O7 0.856074 0.884066 0.966637
O O8 0.000000 0.000000 0.918474
O O9 0.532628 0.250000 0.079388
O O10 0.368771 0.109789 0.043489
O O11 0.865996 0.138305 0.053448
O O12 0.000000 0.500000 0.521061
O O13 0.987914 0.750000 0.237946
O O14 0.154803 0.878176 0.284172
O O15 0.500000 0.000000 0.307302
O O16 0.000000 0.000000 0.325754
#
# Coordination Sequence:
#
# PCOD9360994 Si02
#       6
#     8   8   8   8   8   8
#     4  12  25  43  64  86 115 160 211 254 303 376
#     4   9  18  34  60  91 119 154 203 255 296 347
#     4  12  25  41  59  88 124 158 196 255 320 374
#     4  11  21  39  64  89 117 158 208 251 299 369
#     4  12  24  40  61  91 125 158 196 255 319 372
#     4  10  20  37  62  89 120 160 206 248 295 362
#
# _framework density 20.227999000000001
#
# number of rings (size 3 to 8) (size 9 to 14) (size 15 to 20)
#    0.000    1.000    0.000    9.500    0.000    0.000 
#    0.000    1.667    0.000    0.000    0.000    0.000 
#    0.000    0.000    0.000    0.000    0.000    0.000 
#
# Total GULP energy -133782.798077 kJ/mol
# GULP energy per Si atom -5574.283253 kJ/mol
# Density = 2.018196 g / cm^3
# Si number density = 20.227999 Si / 1000 Ang^3
#
#
#
# Elastic Constant Matrix: (Units=GPa)
#
#
# Indices 1 2 3 4 5 6 
#
# 1 82.4904 -9.2180 -1.3690 0.0000 0.0000 0.0000
# 2 -9.2180 74.6167 22.3394 0.0000 0.0000 0.0000
# 3 -1.3690 22.3394 148.9720 0.0000 0.0000 0.0000
# 4 0.0000 0.0000 0.0000 -20.7484 0.0000 0.0000
# 5 0.0000 0.0000 0.0000 0.0000 70.3455 0.0000
# 6 0.0000 0.0000 0.0000 0.0000 0.0000 28.8666
#
#
#
# Elastic Compliance Matrix: (Units=1/GPa)
#
#
# Indices 1 2 3 4 5 6 
#
# 1 0.012294 0.001555 -0.000120 0.000000 0.000000 0.000000
# 2 0.001555 0.014228 -0.002119 0.000000 0.000000 0.000000
# 3 -0.000120 -0.002119 0.007029 0.000000 0.000000 0.000000
# 4 0.000000 0.000000 0.000000 -0.048196 0.000000 0.000000
# 5 0.000000 0.000000 0.000000 0.000000 0.014216 0.000000
# 6 0.000000 0.000000 0.000000 0.000000 0.000000 0.034642
#
#
# Mechanical properties :
#
#
# Convention : Reuss Voigt Hill
#
# Bulk Modulus (GPa) = 31.07259 36.62044 33.84651
# Shear Modulus (GPa) = 107.96681 35.31451 71.64066
#
# Velocity S-wave (km/s) = 7.31374 4.18284 5.95764
# Velocity P-wave (km/s) = 9.31212 6.43982 8.00584
#
# Compressibility (1/GPa) = 0.03218271
#
# Stress axis : x y z
#
# Youngs Moduli (GPa) = 81.33806 70.28184 142.26006
#
# Poissons Ratio (x) = -0.10927 0.01710
# Poissons Ratio (y) = -0.12647 0.30150
# Poissons Ratio (z) = 0.00977 0.14895
#
# Static dielectric constant tensor:
#      x y z
#    x 1.336480 0.000000 0.000000 
#    y 0.000000 1.698380 0.000000 
#    z 0.000000 0.000000 1.891190 
# 
# From -- ./inp_files/16496.got.cif
#   From: 2010.05.17/outbox.cif.g08.bks.cpg/sg39_9_cif.got.tgz:16496.got - 2010.06.03 18:22:40.
