data_PCOD9360847
_publ_section_title
;
Structure prediction by ZEFSAII (Michael W. Deem and Ramdas Pophale) SiO2 
 PCOD9360847
Probable space group: A B M 2
;
_chemical_formula_sum "Si O2"
_cell_formula_units_Z 60
_cell_length_a 17.831714
_cell_length_b 14.100980
_cell_length_c 9.960679
_cell_angle_alpha 90.000000
_cell_angle_beta 90.000000
_cell_angle_gamma 90.000000
_cell_volume 2504.559370
_symmetry_space_group_name_H-M "A B M 2"
_symmetry_group_IT_number 39
_symmetry_cell_setting 'orthorhombic'
loop_
_space_group_symop_operation_xyz
x,y,z
-x,-y,z
-x,1/2+y,z
x,1/2-y,z
x,1/2+y,1/2+z
-x,1/2-y,1/2+z
-x,y,1/2+z
x,-y,1/2+z
loop_
_atom_site_type_symbol
_atom_site_label
_atom_site_fract_x
_atom_site_fract_y
_atom_site_fract_z
Si Si1 0.090523 0.135375 0.803880
Si Si2 0.775924 0.358740 0.976655
Si Si3 0.619965 0.353379 0.813441
Si Si4 0.500000 0.500000 0.911355
Si Si5 0.127365 0.858067 0.718297
Si Si6 0.990101 0.864513 0.546753
Si Si7 0.377346 0.642742 0.501285
Si Si8 0.777932 0.066723 0.489977
O O1 0.100054 0.250000 0.817377
O O2 0.079026 0.113928 0.646314
O O3 0.160812 0.084509 0.873078
O O4 0.017351 0.109168 0.896609
O O5 0.784739 0.250000 0.031268
O O6 0.695433 0.359494 0.900705
O O7 0.841263 0.375874 0.865746
O O8 0.774083 0.460107 0.049489
O O9 0.584960 0.250000 0.844720
O O10 0.561215 0.437083 0.834656
O O11 0.640992 0.353525 0.658314
O O12 0.550311 0.576825 0.988171
O O13 0.102063 0.750000 0.726938
O O14 0.194630 0.868157 0.612575
O O15 0.058733 0.903995 0.638252
O O16 0.987885 0.750000 0.539544
O O17 0.389694 0.750000 0.451863
O O18 0.303320 0.597176 0.436064
#
# Coordination Sequence:
#
# PCOD9360847 Si02
#       8
#     8   8   8   4   8   8   8   8
#     4   9  17  31  56  91 128 162 203 260 320 383
#     4  10  20  36  58  82 112 153 199 247 300 362
#     4  10  21  38  58  83 117 156 198 241 300 374
#     4  12  22  38  58  90 120 156 194 254 310 356
#     4   9  17  34  61  85 112 154 201 241 295 377
#     4   8  15  29  53  86 121 157 196 248 313 374
#     4  11  22  37  61  90 120 157 203 251 304 369
#     4  11  19  34  60  90 114 154 208 258 299 358
#
# _framework density 23.956309000000001
#
# number of rings (size 3 to 8) (size 9 to 14) (size 15 to 20)
#    0.000    2.133    2.667    2.800    0.000    0.000 
#    0.000    2.000    0.000    9.600    0.000    9.333 
#    0.000    0.000    0.000    0.000    0.000    0.000 
#
# Total GULP energy -167358.914357 kJ/mol
# GULP energy per Si atom -5578.630479 kJ/mol
# Density = 2.390178 g / cm^3
# Si number density = 23.956309 Si / 1000 Ang^3
#
#
#
# Elastic Constant Matrix: (Units=GPa)
#
#
# Indices 1 2 3 4 5 6 
#
# 1 108.8783 36.1630 18.3653 0.0000 0.0000 0.0000
# 2 36.1630 151.3632 6.2888 0.0000 0.0000 0.0000
# 3 18.3653 6.2888 76.8422 0.0000 0.0000 0.0000
# 4 0.0000 0.0000 0.0000 0.4919 0.0000 0.0000
# 5 0.0000 0.0000 0.0000 0.0000 24.9382 0.0000
# 6 0.0000 0.0000 0.0000 0.0000 0.0000 26.9629
#
#
#
# Elastic Compliance Matrix: (Units=1/GPa)
#
#
# Indices 1 2 3 4 5 6 
#
# 1 0.010360 -0.002380 -0.002281 0.000000 0.000000 0.000000
# 2 -0.002380 0.007176 -0.000018 0.000000 0.000000 0.000000
# 3 -0.002281 -0.000018 0.013560 0.000000 0.000000 0.000000
# 4 0.000000 0.000000 0.000000 2.033037 0.000000 0.000000
# 5 0.000000 0.000000 0.000000 0.000000 0.040099 0.000000
# 6 0.000000 0.000000 0.000000 0.000000 0.000000 0.037088
#
#
# Mechanical properties :
#
#
# Convention : Reuss Voigt Hill
#
# Bulk Modulus (GPa) = 46.00557 50.96866 48.48711
# Shear Modulus (GPa) = 2.31704 28.89637 15.60670
#
# Velocity S-wave (km/s) = 0.98453 3.47682 2.55515
# Velocity P-wave (km/s) = 4.53189 6.11879 5.38413
#
# Compressibility (1/GPa) = 0.02173650
#
# Stress axis : x y z
#
# Youngs Moduli (GPa) = 96.52529 139.35153 73.74415
#
# Poissons Ratio (x) = 0.33171 0.16823
# Poissons Ratio (y) = 0.22977 0.00136
# Poissons Ratio (z) = 0.22020 0.00256
#
# Static dielectric constant tensor:
#      x y z
#    x 1.942690 0.000000 0.000000 
#    y 0.000000 1.973950 0.000000 
#    z 0.000000 0.000000 1.932110 
# 
# From -- ./inp_files/6861.got.cif
#   From: 2010.05.17/outbox.cif.g08.bks.cpg/sg39_4_cif.got.tgz:6861.got - 2010.06.03 18:22:40.
