data_PCOD9360842
_publ_section_title
;
Structure prediction by ZEFSAII (Michael W. Deem and Ramdas Pophale) SiO2 
 PCOD9360842
Probable space group: A B M 2
;
_chemical_formula_sum "Si O2"
_cell_formula_units_Z 48
_cell_length_a 13.639026
_cell_length_b 13.466703
_cell_length_c 14.018239
_cell_angle_alpha 90.000000
_cell_angle_beta 90.000000
_cell_angle_gamma 90.000000
_cell_volume 2574.767980
_symmetry_space_group_name_H-M "A B M 2"
_symmetry_group_IT_number 39
_symmetry_cell_setting 'orthorhombic'
loop_
_space_group_symop_operation_xyz
x,y,z
-x,-y,z
-x,1/2+y,z
x,1/2-y,z
x,1/2+y,1/2+z
-x,1/2-y,1/2+z
-x,y,1/2+z
x,-y,1/2+z
loop_
_atom_site_type_symbol
_atom_site_label
_atom_site_fract_x
_atom_site_fract_y
_atom_site_fract_z
Si Si1 0.355006 0.867950 0.922490
Si Si2 0.635998 0.443522 0.130148
Si Si3 0.135998 0.943523 0.916407
Si Si4 0.058360 0.635497 0.327397
Si Si5 0.558360 0.635497 0.219157
Si Si6 0.144994 0.132050 0.624064
O O1 0.353302 0.750000 0.943347
O O2 0.422204 0.884808 0.830649
O O3 0.385227 0.924181 0.018633
O O4 0.244761 0.903253 0.898236
O O5 0.622968 0.558054 0.158825
O O6 0.553626 0.386024 0.190507
O O7 0.744761 0.403252 0.148318
O O8 0.114773 0.924181 0.027921
O O9 0.053626 0.886025 0.856047
O O10 0.122968 0.058054 0.887729
O O11 0.083153 0.750000 0.345970
O O12 0.077796 0.615191 0.215905
O O13 0.583154 0.750000 0.200584
O O14 0.146698 0.250000 0.603207
#
# Coordination Sequence:
#
# PCOD9360842 Si02
#       6
#     8   8   8   8   8   8
#     4  10  20  37  59  80 107 147 186 218 266 329
#     4  10  20  36  58  80 110 146 182 219 268 328
#     4  10  20  36  58  80 110 146 182 219 268 328
#     4  10  21  35  55  83 110 138 180 230 270 312
#     4  10  21  35  55  83 110 138 180 230 270 312
#     4  10  20  37  59  80 107 147 186 218 266 329
#
# _framework density 18.642455999999999
#
# number of rings (size 3 to 8) (size 9 to 14) (size 15 to 20)
#    0.000    2.000    0.000    5.000    0.000    5.333 
#    0.000    3.333    0.000    8.000    0.000    0.000 
#    0.000    0.000    0.000    0.000    0.000    0.000 
#
# Total GULP energy -133998.834234 kJ/mol
# GULP energy per Si atom -5583.284760 kJ/mol
# Density = 1.860003 g / cm^3
# Si number density = 18.642456 Si / 1000 Ang^3
#
#
#
# Elastic Constant Matrix: (Units=GPa)
#
#
# Indices 1 2 3 4 5 6 
#
# 1 65.0283 8.3208 71.3263 0.0000 0.0000 0.0000
# 2 8.3208 125.0190 73.2918 0.0000 0.0000 0.0000
# 3 71.3263 73.2918 152.3885 0.0000 0.0000 0.0000
# 4 0.0000 0.0000 0.0000 34.9284 0.0000 0.0000
# 5 0.0000 0.0000 0.0000 0.0000 36.6586 0.0000
# 6 0.0000 0.0000 0.0000 0.0000 0.0000 17.6025
#
#
#
# Elastic Compliance Matrix: (Units=1/GPa)
#
#
# Indices 1 2 3 4 5 6 
#
# 1 0.041455 0.011999 -0.025174 0.000000 0.000000 0.000000
# 2 0.011999 0.014613 -0.012644 0.000000 0.000000 0.000000
# 3 -0.025174 -0.012644 0.024426 0.000000 0.000000 0.000000
# 4 0.000000 0.000000 0.000000 0.028630 0.000000 0.000000
# 5 0.000000 0.000000 0.000000 0.000000 0.027279 0.000000
# 6 0.000000 0.000000 0.000000 0.000000 0.000000 0.056810
#
#
# Mechanical properties :
#
#
# Convention : Reuss Voigt Hill
#
# Bulk Modulus (GPa) = 34.65561 72.03485 53.34523
# Shear Modulus (GPa) = 19.64865 30.47104 25.05984
#
# Velocity S-wave (km/s) = 3.25002 4.04728 3.67036
# Velocity P-wave (km/s) = 5.71957 7.78233 6.82928
#
# Compressibility (1/GPa) = 0.02885535
#
# Stress axis : x y z
#
# Youngs Moduli (GPa) = 24.12259 68.43275 40.93915
#
# Poissons Ratio (x) = -0.82114 1.03061
# Poissons Ratio (y) = -0.28945 0.51765
# Poissons Ratio (z) = 0.60727 0.86529
#
# Static dielectric constant tensor:
#      x y z
#    x 1.631400 0.000000 0.000000 
#    y 0.000000 1.651520 0.000000 
#    z 0.000000 0.000000 1.635550 
# 
# From -- ./inp_files/6417.got.cif
#   From: 2010.05.17/outbox.cif.g08.bks.cpg/sg39_4_cif.got.tgz:6417.got - 2010.06.03 18:22:40.
