data_PCOD9360032
_publ_section_title
;
Structure prediction by ZEFSAII (Michael W. Deem and Ramdas Pophale) SiO2 
 PCOD9360032
Probable space group: A B M 2
;
_chemical_formula_sum "Si O2"
_cell_formula_units_Z 64
_cell_length_a 22.153610
_cell_length_b 8.686384
_cell_length_c 18.395069
_cell_angle_alpha 90.000000
_cell_angle_beta 90.000000
_cell_angle_gamma 90.000000
_cell_volume 3539.850752
_symmetry_space_group_name_H-M "A B M 2"
_symmetry_group_IT_number 39
_symmetry_cell_setting 'orthorhombic'
loop_
_space_group_symop_operation_xyz
x,y,z
-x,-y,z
-x,1/2+y,z
x,1/2-y,z
x,1/2+y,1/2+z
-x,1/2-y,1/2+z
-x,y,1/2+z
x,-y,1/2+z
loop_
_atom_site_type_symbol
_atom_site_label
_atom_site_fract_x
_atom_site_fract_y
_atom_site_fract_z
Si Si1 0.192978 0.065419 0.065300
Si Si2 0.316690 0.934880 0.401293
Si Si3 0.316690 0.565119 0.064455
Si Si4 0.192979 0.934581 0.900448
Si Si5 0.563071 0.064669 0.148544
Si Si6 0.938789 0.065793 0.565315
Si Si7 0.061211 0.065793 0.400431
Si Si8 0.436929 0.064669 0.817204
O O1 0.197978 0.250000 0.062352
O O2 0.127068 0.026243 0.097978
O O3 0.253979 0.996259 0.098446
O O4 0.191753 0.999999 0.982874
O O5 0.314231 0.750000 0.403605
O O6 0.376745 0.984105 0.358935
O O7 0.320506 0.999999 0.482874
O O8 0.253979 0.996260 0.367302
O O9 0.314230 0.750000 0.062141
O O10 0.376745 0.515896 0.106813
O O11 0.197977 0.750000 0.903396
O O12 0.127069 0.973758 0.867770
O O13 0.560428 0.250000 0.146293
O O14 0.567521 0.016265 0.232874
O O15 0.500000 0.000000 0.118599
O O16 0.943329 0.250000 0.561586
O O17 0.937511 0.999999 0.482873
O O18 0.000000 0.000000 0.600054
O O19 0.056671 0.250000 0.404159
O O20 0.000000 0.000000 0.365693
O O21 0.439572 0.250000 0.819455
O O22 0.500000 0.000000 0.847149
#
# Coordination Sequence:
#
# PCOD9360032 Si02
#       8
#     8   8   8   8   8   8   8   8
#     4   9  16  25  37  55  81 112 145 179 216 258
#     4  10  19  30  46  67  91 118 147 181 219 261
#     4  10  19  30  46  67  91 118 147 181 219 261
#     4   9  16  25  37  55  81 112 145 179 216 258
#     4   9  19  35  52  69  89 115 147 181 218 260
#     4   9  15  21  31  48  72 105 142 177 211 251
#     4   9  15  21  31  48  72 105 142 177 211 251
#     4   9  19  35  52  69  89 115 147 181 218 260
#
# _framework density 18.079858999999999
#
# number of rings (size 3 to 8) (size 9 to 14) (size 15 to 20)
#    0.000    2.750    0.000    4.500    0.000    5.500 
#    0.000    2.500    0.000    0.000    0.000    0.000 
#    0.000    1.000    0.000    2.250    0.000   10.250 
#
# Total GULP energy -178140.360294 kJ/mol
# GULP energy per Si atom -5566.886259 kJ/mol
# Density = 1.803871 g / cm^3
# Si number density = 18.079859 Si / 1000 Ang^3
#
#
#
# Elastic Constant Matrix: (Units=GPa)
#
#
# Indices 1 2 3 4 5 6 
#
# 1 248.2830 55.4797 38.2664 0.0000 0.0000 0.0000
# 2 55.4797 52.6958 9.4097 0.0000 0.0000 0.0000
# 3 38.2664 9.4097 12.3649 0.0000 0.0000 0.0000
# 4 0.0000 0.0000 0.0000 8.4240 0.0000 0.0000
# 5 0.0000 0.0000 0.0000 0.0000 -5.4625 0.0000
# 6 0.0000 0.0000 0.0000 0.0000 0.0000 35.8317
#
#
#
# Elastic Compliance Matrix: (Units=1/GPa)
#
#
# Indices 1 2 3 4 5 6 
#
# 1 0.008726 -0.005051 -0.023161 0.000000 0.000000 0.000000
# 2 -0.005051 0.024885 -0.003305 0.000000 0.000000 0.000000
# 3 -0.023161 -0.003305 0.155068 0.000000 0.000000 0.000000
# 4 0.000000 0.000000 0.000000 0.118709 0.000000 0.000000
# 5 0.000000 0.000000 0.000000 0.000000 -0.183065 0.000000
# 6 0.000000 0.000000 0.000000 0.000000 0.000000 0.027908
#
#
# Mechanical properties :
#
#
# Convention : Reuss Voigt Hill
#
# Bulk Modulus (GPa) = 7.95898 57.73949 32.84923
# Shear Modulus (GPa) = 19.44404 21.77115 20.60759
#
# Velocity S-wave (km/s) = 3.28297 3.47387 3.37977
# Velocity P-wave (km/s) = 4.33384 6.93509 5.78263
#
# Compressibility (1/GPa) = 0.12564421
#
# Stress axis : x y z
#
# Youngs Moduli (GPa) = 114.59876 40.18458 6.44878
#
# Poissons Ratio (x) = 0.20298 0.14936
# Poissons Ratio (y) = 0.57887 0.02131
# Poissons Ratio (z) = 2.65425 0.13281
#
# Static dielectric constant tensor:
#      x y z
#    x 1.710190 0.000000 0.000000 
#    y 0.000000 1.612350 0.000000 
#    z 0.000000 0.000000 1.589830 
# 
# From -- ./inp_files/15077.got.cif
#   From: 2010.05.17/outbox.cif.g08.bks.cpg/sg39_8_cif.got.tgz:15077.got - 2010.06.03 18:22:40.
