data_PCOD9360712
_publ_section_title
;
Structure prediction by ZEFSAII (Michael W. Deem and Ramdas Pophale) SiO2 
 PCOD9360712
Probable space group: A B M 2
;
_chemical_formula_sum "Si O2"
_cell_formula_units_Z 64
_cell_length_a 8.631895
_cell_length_b 21.553464
_cell_length_c 16.496445
_cell_angle_alpha 90.000000
_cell_angle_beta 90.000000
_cell_angle_gamma 90.000000
_cell_volume 3069.118031
_symmetry_space_group_name_H-M "A B M 2"
_symmetry_group_IT_number 39
_symmetry_cell_setting 'orthorhombic'
loop_
_space_group_symop_operation_xyz
x,y,z
-x,-y,z
-x,1/2+y,z
x,1/2-y,z
x,1/2+y,1/2+z
-x,1/2-y,1/2+z
-x,y,1/2+z
x,-y,1/2+z
loop_
_atom_site_type_symbol
_atom_site_label
_atom_site_fract_x
_atom_site_fract_y
_atom_site_fract_z
Si Si1 0.861049 0.122647 0.841880
Si Si2 0.366979 0.178538 0.207973
Si Si3 0.587117 0.565593 0.432236
Si Si4 0.584028 0.320394 0.346344
Si Si5 0.195432 0.402014 0.084075
Si Si6 0.345048 0.032034 0.611071
Si Si7 0.111607 0.681281 0.436952
Si Si8 0.936943 0.069888 0.205201
O O1 0.755581 0.160220 0.778410
O O2 0.750417 0.071992 0.884563
O O3 0.939441 0.166575 0.907705
O O4 0.003774 0.094763 0.790932
O O5 0.348938 0.250000 0.184039
O O6 0.529826 0.170063 0.253914
O O7 0.328726 0.133638 0.134072
O O8 0.500000 0.500000 0.416445
O O9 0.490673 0.624668 0.399586
O O10 0.612735 0.568840 0.529207
O O11 0.527502 0.250000 0.368187
O O12 0.765929 0.319645 0.363259
O O13 0.242610 0.473678 0.079054
O O14 0.038302 0.395909 0.136364
O O15 0.167216 0.370414 0.999103
O O16 0.240553 0.066743 0.677168
O O17 0.500000 0.000000 0.646019
O O18 0.120801 0.750000 0.474037
O O19 0.000000 0.000000 0.204471
#
# Coordination Sequence:
#
# PCOD9360712 Si02
#       8
#     8   8   8   8   8   8   8   8
#     4  10  21  35  56  83 112 146 187 239 292 339
#     4   9  18  37  58  76 106 151 194 233 283 348
#     4  10  20  37  60  87 116 152 198 245 292 344
#     4   9  20  37  57  82 116 152 192 243 296 349
#     4  10  20  35  54  79 110 147 190 239 290 344
#     4  10  20  35  56  81 113 149 189 239 292 347
#     4  11  21  34  55  85 115 149 193 241 292 347
#     4   9  20  36  51  75 110 146 185 227 289 352
#
# _framework density 20.852896999999999
#
# number of rings (size 3 to 8) (size 9 to 14) (size 15 to 20)
#    0.000    2.250    0.000    3.000    0.000    3.500 
#    0.000    8.750    0.000    2.250    0.000    0.000 
#    0.000    0.000    0.000    0.000    0.000    0.000 
#
# Total GULP energy -178526.873127 kJ/mol
# GULP energy per Si atom -5578.964785 kJ/mol
# Density = 2.080543 g / cm^3
# Si number density = 20.852897 Si / 1000 Ang^3
#
#
#
# Elastic Constant Matrix: (Units=GPa)
#
#
# Indices 1 2 3 4 5 6 
#
# 1 86.9245 28.3422 26.3106 0.0000 0.0000 0.0000
# 2 28.3422 85.3686 11.4806 0.0000 0.0000 0.0000
# 3 26.3106 11.4806 33.4174 0.0000 0.0000 0.0000
# 4 0.0000 0.0000 0.0000 22.4402 0.0000 0.0000
# 5 0.0000 0.0000 0.0000 0.0000 9.9906 0.0000
# 6 0.0000 0.0000 0.0000 0.0000 0.0000 20.6693
#
#
#
# Elastic Compliance Matrix: (Units=1/GPa)
#
#
# Indices 1 2 3 4 5 6 
#
# 1 0.016225 -0.003846 -0.011453 0.000000 0.000000 0.000000
# 2 -0.003846 0.013193 -0.001504 0.000000 0.000000 0.000000
# 3 -0.011453 -0.001504 0.039459 0.000000 0.000000 0.000000
# 4 0.000000 0.000000 0.000000 0.044563 0.000000 0.000000
# 5 0.000000 0.000000 0.000000 0.000000 0.100094 0.000000
# 6 0.000000 0.000000 0.000000 0.000000 0.000000 0.048381
#
#
# Mechanical properties :
#
#
# Convention : Reuss Voigt Hill
#
# Bulk Modulus (GPa) = 28.35302 37.55306 32.95304
# Shear Modulus (GPa) = 16.27190 19.92517 18.09853
#
# Velocity S-wave (km/s) = 2.79645 3.09449 2.94924
# Velocity P-wave (km/s) = 4.90439 5.55117 5.23777
#
# Compressibility (1/GPa) = 0.03526961
#
# Stress axis : x y z
#
# Youngs Moduli (GPa) = 61.63317 75.79665 25.34303
#
# Poissons Ratio (x) = 0.29155 0.29025
# Poissons Ratio (y) = 0.23707 0.03812
# Poissons Ratio (z) = 0.70589 0.11401
#
# Static dielectric constant tensor:
#      x y z
#    x 1.805970 0.000000 0.000000 
#    y 0.000000 1.750600 0.000000 
#    z 0.000000 0.000000 1.736110 
# 
# From -- ./inp_files/11952.got.cif
#   From: 2010.05.17/outbox.cif.g08.bks.cpg/sg39_6_cif.got.tgz:11952.got - 2010.06.03 18:22:40.
