data_PCOD9360655
_publ_section_title
;
Structure prediction by ZEFSAII (Michael W. Deem and Ramdas Pophale) SiO2 
 PCOD9360655
Probable space group: A B M 2
;
_chemical_formula_sum "Si O2"
_cell_formula_units_Z 56
_cell_length_a 14.712972
_cell_length_b 8.665150
_cell_length_c 25.946016
_cell_angle_alpha 90.000000
_cell_angle_beta 90.000000
_cell_angle_gamma 90.000000
_cell_volume 3307.860416
_symmetry_space_group_name_H-M "A B M 2"
_symmetry_group_IT_number 39
_symmetry_cell_setting 'orthorhombic'
loop_
_space_group_symop_operation_xyz
x,y,z
-x,-y,z
-x,1/2+y,z
x,1/2-y,z
x,1/2+y,1/2+z
-x,1/2-y,1/2+z
-x,y,1/2+z
x,-y,1/2+z
loop_
_atom_site_type_symbol
_atom_site_label
_atom_site_fract_x
_atom_site_fract_y
_atom_site_fract_z
Si Si1 0.283618 0.435362 0.315580
Si Si2 0.901789 0.434648 0.355829
Si Si3 0.400533 0.434479 0.109805
Si Si4 0.283618 0.064638 0.517686
Si Si5 0.601635 0.435862 0.916633
Si Si6 0.400533 0.934479 0.223462
Si Si7 0.098211 0.565352 0.477438
O O1 0.286135 0.250000 0.312048
O O2 0.181378 0.491699 0.325139
O O3 0.343199 0.483492 0.365568
O O4 0.328508 0.508606 0.265235
O O5 0.900809 0.250000 0.350868
O O6 0.889480 0.473474 0.416633
O O7 0.000000 0.500000 0.340231
O O8 0.500000 0.500000 0.095174
O O9 0.404665 0.250000 0.111658
O O10 0.328508 0.491394 0.068031
O O11 0.380004 0.500000 0.166633
O O12 0.286136 0.250000 0.521218
O O13 0.343199 0.016508 0.467699
O O14 0.181378 0.008302 0.508127
O O15 0.500000 0.500000 0.916633
O O16 0.597431 0.250000 0.916633
O O17 0.404665 0.750000 0.221609
O O18 0.500000 0.000000 0.238092
O O19 0.099191 0.750000 0.482398
O O20 0.000000 0.500000 0.493035
#
# Coordination Sequence:
#
# PCOD9360655 Si02
#       7
#     8   8   8   8   8   8   8
#     4  11  21  36  55  80 111 147 184 227 275 328
#     4  10  20  34  54  80 110 146 185 228 274 327
#     4  11  22  38  58  82 109 145 188 232 276 325
#     4  11  21  36  55  80 111 147 184 227 275 328
#     4  10  22  34  49  74 109 146 179 216 268 324
#     4  11  22  38  58  82 109 145 188 232 276 325
#     4  10  20  34  54  80 110 146 185 228 274 327
#
# _framework density 16.929371
#
# number of rings (size 3 to 8) (size 9 to 14) (size 15 to 20)
#    0.000    1.429    1.429    6.000    0.000    5.714 
#    0.000    0.000    0.000    0.857    0.000    6.000 
#    0.000    0.000    0.000    0.000    0.000    0.000 
#
# Total GULP energy -156495.577028 kJ/mol
# GULP energy per Si atom -5589.127751 kJ/mol
# Density = 1.689084 g / cm^3
# Si number density = 16.929371 Si / 1000 Ang^3
#
#
#
# Elastic Constant Matrix: (Units=GPa)
#
#
# Indices 1 2 3 4 5 6 
#
# 1 169.1051 65.3669 89.0619 0.0000 0.0000 0.0000
# 2 65.3669 103.7481 53.6450 0.0000 0.0000 0.0000
# 3 89.0619 53.6450 87.1822 0.0000 0.0000 0.0000
# 4 0.0000 0.0000 0.0000 25.7231 0.0000 0.0000
# 5 0.0000 0.0000 0.0000 0.0000 23.1684 0.0000
# 6 0.0000 0.0000 0.0000 0.0000 0.0000 35.8973
#
#
#
# Elastic Compliance Matrix: (Units=1/GPa)
#
#
# Indices 1 2 3 4 5 6 
#
# 1 0.013064 -0.001951 -0.012145 0.000000 0.000000 0.000000
# 2 -0.001951 0.014428 -0.006885 0.000000 0.000000 0.000000
# 3 -0.012145 -0.006885 0.028114 0.000000 0.000000 0.000000
# 4 0.000000 0.000000 0.000000 0.038876 0.000000 0.000000
# 5 0.000000 0.000000 0.000000 0.000000 0.043162 0.000000
# 6 0.000000 0.000000 0.000000 0.000000 0.000000 0.027857
#
#
# Mechanical properties :
#
#
# Convention : Reuss Voigt Hill
#
# Bulk Modulus (GPa) = 73.29403 86.24255 79.76829
# Shear Modulus (GPa) = 23.58374 27.08853 25.33614
#
# Velocity S-wave (km/s) = 3.73643 4.00445 3.87276
# Velocity P-wave (km/s) = 7.87417 8.51082 8.19868
#
# Compressibility (1/GPa) = 0.01364368
#
# Stress axis : x y z
#
# Youngs Moduli (GPa) = 76.54496 69.31033 35.57002
#
# Poissons Ratio (x) = 0.13524 0.43201
# Poissons Ratio (y) = 0.14935 0.24488
# Poissons Ratio (z) = 0.92966 0.47717
#
# Static dielectric constant tensor:
#      x y z
#    x 1.547580 0.000000 0.000000 
#    y 0.000000 1.564870 0.000000 
#    z 0.000000 0.000000 1.554660 
# 
# From -- ./inp_files/14731.got.cif
#   From: 2010.05.17/outbox.cif.g08.bks.cpg/sg39_8_cif.got.tgz:14731.got - 2010.06.03 18:22:40.
