data_PCOD9360902
_publ_section_title
;
Structure prediction by ZEFSAII (Michael W. Deem and Ramdas Pophale) SiO2 
 PCOD9360902
Probable space group: A B M 2
;
_chemical_formula_sum "Si O2"
_cell_formula_units_Z 60
_cell_length_a 16.867339
_cell_length_b 9.543640
_cell_length_c 19.329891
_cell_angle_alpha 90.000000
_cell_angle_beta 90.000000
_cell_angle_gamma 90.000000
_cell_volume 3111.644884
_symmetry_space_group_name_H-M "A B M 2"
_symmetry_group_IT_number 39
_symmetry_cell_setting 'orthorhombic'
loop_
_space_group_symop_operation_xyz
x,y,z
-x,-y,z
-x,1/2+y,z
x,1/2-y,z
x,1/2+y,1/2+z
-x,1/2-y,1/2+z
-x,y,1/2+z
x,-y,1/2+z
loop_
_atom_site_type_symbol
_atom_site_label
_atom_site_fract_x
_atom_site_fract_y
_atom_site_fract_z
Si Si1 0.397608 0.901464 0.928670
Si Si2 0.378496 0.409410 0.689960
Si Si3 0.081634 0.084965 0.150208
Si Si4 0.625759 0.086464 0.555737
Si Si5 0.500000 0.000000 0.805344
Si Si6 0.190059 0.909368 0.516160
Si Si7 0.787195 0.588337 0.388109
Si Si8 0.201313 0.417641 0.748516
O O1 0.408159 0.750000 0.962749
O O2 0.306964 0.913561 0.903433
O O3 0.449928 0.909429 0.859870
O O4 0.410366 0.019712 0.986239
O O5 0.380353 0.250000 0.664568
O O6 0.398546 0.510466 0.626299
O O7 0.438289 0.425558 0.754171
O O8 0.289812 0.439182 0.717764
O O9 0.071154 0.250000 0.168789
O O10 0.126227 0.081555 0.076591
O O11 0.139190 0.002635 0.202321
O O12 0.000000 0.000000 0.147348
O O13 0.608030 0.250000 0.559594
O O14 0.721457 0.068040 0.547205
O O15 0.190344 0.750000 0.487649
O O16 0.174834 0.021978 0.456687
O O17 0.810415 0.750000 0.375494
O O18 0.802239 0.487129 0.323883
O O19 0.186597 0.250000 0.749613
#
# Coordination Sequence:
#
# PCOD9360902 Si02
#       8
#     8   8   8   8   4   8   8   8
#     4  10  22  39  60  86 119 158 205 261 317 372
#     4  11  24  40  62  91 123 163 212 264 316 374
#     4  11  23  41  65  97 132 166 205 254 311 372
#     4  10  21  39  64  88 117 158 205 255 310 371
#     4  12  24  42  60  88 124 166 212 266 324 372
#     4   9  19  37  61  90 122 158 201 250 304 369
#     4  10  20  36  61  91 120 159 207 257 308 370
#     4  11  22  39  63  92 127 167 210 259 312 374
#
# _framework density 19.282406000000002
#
# number of rings (size 3 to 8) (size 9 to 14) (size 15 to 20)
#    0.000    1.600    2.667    2.000    0.000    5.333 
#    0.000    0.667    0.000    1.600    0.000    0.000 
#    0.000    0.000    0.000    0.000    0.000    0.000 
#
# Total GULP energy -167553.717986 kJ/mol
# GULP energy per Si atom -5585.123933 kJ/mol
# Density = 1.923852 g / cm^3
# Si number density = 19.282406 Si / 1000 Ang^3
#
#
#
# Elastic Constant Matrix: (Units=GPa)
#
#
# Indices 1 2 3 4 5 6 
#
# 1 90.5532 50.7435 33.0328 0.0000 0.0000 0.0000
# 2 50.7435 148.4453 84.9809 0.0000 0.0000 0.0000
# 3 33.0328 84.9809 127.1916 0.0000 0.0000 0.0000
# 4 0.0000 0.0000 0.0000 34.3500 0.0000 0.0000
# 5 0.0000 0.0000 0.0000 0.0000 13.3092 0.0000
# 6 0.0000 0.0000 0.0000 0.0000 0.0000 -16.6218
#
#
#
# Elastic Compliance Matrix: (Units=1/GPa)
#
#
# Indices 1 2 3 4 5 6 
#
# 1 0.013698 -0.004285 -0.000695 0.000000 0.000000 0.000000
# 2 -0.004285 0.012249 -0.007071 0.000000 0.000000 0.000000
# 3 -0.000695 -0.007071 0.012767 0.000000 0.000000 0.000000
# 4 0.000000 0.000000 0.000000 0.029112 0.000000 0.000000
# 5 0.000000 0.000000 0.000000 0.000000 0.075136 0.000000
# 6 0.000000 0.000000 0.000000 0.000000 0.000000 -0.060162
#
#
# Mechanical properties :
#
#
# Convention : Reuss Voigt Hill
#
# Bulk Modulus (GPa) = 68.43362 78.18939 73.31151
# Shear Modulus (GPa) = 44.73374 19.36968 32.05171
#
# Velocity S-wave (km/s) = 4.82179 3.17286 4.08146
# Velocity P-wave (km/s) = 8.15884 7.35258 7.76618
#
# Compressibility (1/GPa) = 0.01461270
#
# Stress axis : x y z
#
# Youngs Moduli (GPa) = 73.00537 81.63734 78.32555
#
# Poissons Ratio (x) = 0.34978 0.05441
# Poissons Ratio (y) = 0.31280 0.55387
# Poissons Ratio (z) = 0.05072 0.57729
#
# Static dielectric constant tensor:
#      x y z
#    x 1.674770 0.000000 0.000000 
#    y 0.000000 1.671160 0.000000 
#    z 0.000000 0.000000 1.636210 
# 
# From -- ./inp_files/12997.got.cif
#   From: 2010.05.17/outbox.cif.g08.bks.cpg/sg39_7_cif.got.tgz:12997.got - 2010.06.03 18:22:40.
