data_PCOD9360841
_publ_section_title
;
Structure prediction by ZEFSAII (Michael W. Deem and Ramdas Pophale) SiO2 
 PCOD9360841
Probable space group: A B M 2
;
_chemical_formula_sum "Si O2"
_cell_formula_units_Z 40
_cell_length_a 15.101471
_cell_length_b 14.823329
_cell_length_c 7.803200
_cell_angle_alpha 90.000000
_cell_angle_beta 90.000000
_cell_angle_gamma 90.000000
_cell_volume 1746.778103
_symmetry_space_group_name_H-M "A B M 2"
_symmetry_group_IT_number 39
_symmetry_cell_setting 'orthorhombic'
loop_
_space_group_symop_operation_xyz
x,y,z
-x,-y,z
-x,1/2+y,z
x,1/2-y,z
x,1/2+y,1/2+z
-x,1/2-y,1/2+z
-x,y,1/2+z
x,-y,1/2+z
loop_
_atom_site_type_symbol
_atom_site_label
_atom_site_fract_x
_atom_site_fract_y
_atom_site_fract_z
Si Si1 0.957440 0.750000 0.471261
Si Si2 0.763060 0.416370 0.232361
Si Si3 0.858650 0.250000 0.343364
Si Si4 0.347186 0.648006 0.703226
Si Si5 0.602255 0.976634 0.532369
Si Si6 0.832211 0.606857 0.350550
O O1 0.911966 0.750000 0.659330
O O2 0.922940 0.661570 0.366709
O O3 0.062732 0.750000 0.478870
O O4 0.794946 0.335415 0.348870
O O5 0.659304 0.431270 0.186533
O O6 0.818464 0.504328 0.289807
O O7 0.797851 0.393523 0.043917
O O8 0.384105 0.750000 0.685665
O O9 0.356878 0.578315 0.545100
O O10 0.243549 0.655957 0.743337
O O11 0.386660 0.590743 0.868693
O O12 0.500000 0.000000 0.561908
#
# Coordination Sequence:
#
# PCOD9360841 Si02
#       6
#     4   8   4   8   8   8
#     4  10  20  36  58  79 114 146 200 239 292 372
#     4   9  20  36  59  80 116 153 194 241 309 354
#     4  10  22  38  56  87 112 158 194 247 304 356
#     4  10  20  38  61  85 121 161 196 249 317 361
#     4  10  21  37  61  88 121 158 207 254 298 375
#     4   9  18  36  58  79 109 154 187 242 299 361
#
# _framework density 22.899301999999999
#
# number of rings (size 3 to 8) (size 9 to 14) (size 15 to 20)
#    0.000    2.400    1.000    0.600    4.200    3.200 
#    0.000    5.000   15.400    0.000    0.000    0.000 
#    0.000    0.000    0.000    0.000    0.000    0.000 
#
# Total GULP energy -111351.550765 kJ/mol
# GULP energy per Si atom -5567.577538 kJ/mol
# Density = 2.284718 g / cm^3
# Si number density = 22.899302 Si / 1000 Ang^3
#
#
#
# Elastic Constant Matrix: (Units=GPa)
#
#
# Indices 1 2 3 4 5 6 
#
# 1 100.2720 21.0011 10.1884 0.0000 0.0000 0.0000
# 2 21.0011 152.5377 19.7652 0.0000 0.0000 0.0000
# 3 10.1884 19.7652 101.3564 0.0000 0.0000 0.0000
# 4 0.0000 0.0000 0.0000 29.9597 0.0000 0.0000
# 5 0.0000 0.0000 0.0000 0.0000 6.4710 0.0000
# 6 0.0000 0.0000 0.0000 0.0000 0.0000 33.2413
#
#
#
# Elastic Compliance Matrix: (Units=1/GPa)
#
#
# Indices 1 2 3 4 5 6 
#
# 1 0.010329 -0.001321 -0.000781 0.000000 0.000000 0.000000
# 2 -0.001321 0.006895 -0.001212 0.000000 0.000000 0.000000
# 3 -0.000781 -0.001212 0.010181 0.000000 0.000000 0.000000
# 4 0.000000 0.000000 0.000000 0.033378 0.000000 0.000000
# 5 0.000000 0.000000 0.000000 0.000000 0.154536 0.000000
# 6 0.000000 0.000000 0.000000 0.000000 0.000000 0.030083
#
#
# Mechanical properties :
#
#
# Convention : Reuss Voigt Hill
#
# Bulk Modulus (GPa) = 48.12822 50.67503 49.40163
# Shear Modulus (GPa) = 19.30844 34.14850 26.72847
#
# Velocity S-wave (km/s) = 2.90692 3.86586 3.42016
# Velocity P-wave (km/s) = 5.68594 6.48876 6.10057
#
# Compressibility (1/GPa) = 0.02077783
#
# Stress axis : x y z
#
# Youngs Moduli (GPa) = 96.81618 145.04050 98.22274
#
# Poissons Ratio (x) = 0.19158 0.07668
# Poissons Ratio (y) = 0.12788 0.11902
# Poissons Ratio (z) = 0.07558 0.17575
#
# Static dielectric constant tensor:
#      x y z
#    x 1.902400 0.000000 0.000000 
#    y 0.000000 1.922740 0.000000 
#    z 0.000000 0.000000 1.915710 
# 
# From -- ./inp_files/3090.got.cif
#   From: 2010.05.17/outbox.cif.g08.bks.cpg/sg39_2_cif.got.tgz:3090.got - 2010.06.03 18:22:40.
