data_PCOD9360649
_publ_section_title
;
Structure prediction by ZEFSAII (Michael W. Deem and Ramdas Pophale) SiO2 
 PCOD9360649
Probable space group: A B M 2
;
_chemical_formula_sum "Si O2"
_cell_formula_units_Z 60
_cell_length_a 30.160030
_cell_length_b 11.129066
_cell_length_c 8.545500
_cell_angle_alpha 90.000000
_cell_angle_beta 90.000000
_cell_angle_gamma 90.000000
_cell_volume 2868.322408
_symmetry_space_group_name_H-M "A B M 2"
_symmetry_group_IT_number 39
_symmetry_cell_setting 'orthorhombic'
loop_
_space_group_symop_operation_xyz
x,y,z
-x,-y,z
-x,1/2+y,z
x,1/2-y,z
x,1/2+y,1/2+z
-x,1/2-y,1/2+z
-x,y,1/2+z
x,-y,1/2+z
loop_
_atom_site_type_symbol
_atom_site_label
_atom_site_fract_x
_atom_site_fract_y
_atom_site_fract_z
Si Si1 0.155632 0.942408 0.474160
Si Si2 0.090266 0.551117 0.223378
Si Si3 0.443997 0.115892 0.626980
Si Si4 0.033896 0.387361 0.437939
Si Si5 0.651532 0.611741 0.474745
Si Si6 0.211408 0.879410 0.761025
Si Si7 0.500000 0.000000 0.380547
Si Si8 0.688922 0.886415 0.145679
O O1 0.117971 0.885229 0.361709
O O2 0.186920 0.873406 0.593644
O O3 0.126514 0.021105 0.592837
O O4 0.187738 0.020851 0.364977
O O5 0.069965 0.431751 0.307921
O O6 0.052857 0.611642 0.116140
O O7 0.442572 0.250000 0.689111
O O8 0.396982 0.091366 0.547024
O O9 0.481966 0.102413 0.495375
O O10 0.459284 0.033542 0.769127
O O11 0.018966 0.250000 0.404871
O O12 0.000000 0.500000 0.433026
O O13 0.665558 0.750000 0.518140
O O14 0.653595 0.608677 0.287085
O O15 0.680794 0.500265 0.535423
O O16 0.206403 0.750000 0.841417
O O17 0.262943 0.899581 0.726154
O O18 0.687093 0.750000 0.076316
#
# Coordination Sequence:
#
# PCOD9360649 Si02
#       8
#     8   8   8   8   8   8   4   8
#     4   9  19  37  58  86 115 147 189 229 283 342
#     4   9  21  38  59  87 117 153 190 236 287 338
#     4  10  20  35  54  78 107 141 183 231 283 340
#     4  11  24  42  63  89 121 156 196 241 290 343
#     4  10  21  37  57  81 112 149 190 236 286 341
#     4  10  20  36  58  82 115 153 190 236 285 338
#     4  10  20  34  54  78 106 140 180 228 286 344
#     4  10  21  37  57  84 117 153 192 236 287 341
#
# _framework density 20.918149
#
# number of rings (size 3 to 8) (size 9 to 14) (size 15 to 20)
#    0.000    2.133    0.000    2.400    0.000    8.000 
#    0.000   10.000    0.000    0.000    0.000    0.000 
#    0.000    0.000    0.000    0.000    0.000    0.000 
#
# Total GULP energy -167033.936949 kJ/mol
# GULP energy per Si atom -5567.797898 kJ/mol
# Density = 2.087054 g / cm^3
# Si number density = 20.918149 Si / 1000 Ang^3
#
#
#
# Elastic Constant Matrix: (Units=GPa)
#
#
# Indices 1 2 3 4 5 6 
#
# 1 44.8717 25.2678 -3.6448 0.0000 0.0000 0.0000
# 2 25.2678 115.2096 23.0803 0.0000 0.0000 0.0000
# 3 -3.6448 23.0803 66.1510 0.0000 0.0000 0.0000
# 4 0.0000 0.0000 0.0000 2.9649 0.0000 0.0000
# 5 0.0000 0.0000 0.0000 0.0000 33.4710 0.0000
# 6 0.0000 0.0000 0.0000 0.0000 0.0000 68.3332
#
#
#
# Elastic Compliance Matrix: (Units=1/GPa)
#
#
# Indices 1 2 3 4 5 6 
#
# 1 0.026248 -0.006501 0.003714 0.000000 0.000000 0.000000
# 2 -0.006501 0.010942 -0.004176 0.000000 0.000000 0.000000
# 3 0.003714 -0.004176 0.016779 0.000000 0.000000 0.000000
# 4 0.000000 0.000000 0.000000 0.337276 0.000000 0.000000
# 5 0.000000 0.000000 0.000000 0.000000 0.029877 0.000000
# 6 0.000000 0.000000 0.000000 0.000000 0.000000 0.014634
#
#
# Mechanical properties :
#
#
# Convention : Reuss Voigt Hill
#
# Bulk Modulus (GPa) = 24.97245 35.07098 30.02172
# Shear Modulus (GPa) = 10.79847 33.05575 21.92711
#
# Velocity S-wave (km/s) = 2.27452 3.97954 3.24116
# Velocity P-wave (km/s) = 4.34304 6.15775 5.32822
#
# Compressibility (1/GPa) = 0.04004412
#
# Stress axis : x y z
#
# Youngs Moduli (GPa) = 38.09788 91.38936 59.59971
#
# Poissons Ratio (x) = 0.59411 -0.22138
# Poissons Ratio (y) = 0.24767 0.24889
# Poissons Ratio (z) = -0.14151 0.38164
#
# Static dielectric constant tensor:
#      x y z
#    x 1.791460 0.000000 0.000000 
#    y 0.000000 1.771140 0.000000 
#    z 0.000000 0.000000 1.737810 
# 
# From -- ./inp_files/4125.got.cif
#   From: 2010.05.17/outbox.cif.g08.bks.cpg/sg39_3_cif.got.tgz:4125.got - 2010.06.03 18:22:40.
