data_PCOD9360693
_publ_section_title
;
Structure prediction by ZEFSAII (Michael W. Deem and Ramdas Pophale) SiO2 
 PCOD9360693
Probable space group: A B M 2
;
_chemical_formula_sum "Si O2"
_cell_formula_units_Z 48
_cell_length_a 14.420521
_cell_length_b 8.714435
_cell_length_c 21.011154
_cell_angle_alpha 90.000000
_cell_angle_beta 90.000000
_cell_angle_gamma 90.000000
_cell_volume 2640.402238
_symmetry_space_group_name_H-M "A B M 2"
_symmetry_group_IT_number 39
_symmetry_cell_setting 'orthorhombic'
loop_
_space_group_symop_operation_xyz
x,y,z
-x,-y,z
-x,1/2+y,z
x,1/2-y,z
x,1/2+y,1/2+z
-x,1/2-y,1/2+z
-x,y,1/2+z
x,-y,1/2+z
loop_
_atom_site_type_symbol
_atom_site_label
_atom_site_fract_x
_atom_site_fract_y
_atom_site_fract_z
Si Si1 0.600904 0.434103 0.198940
Si Si2 0.785485 0.935090 0.397914
Si Si3 0.895866 0.434547 0.025560
Si Si4 0.102766 0.934748 0.772590
Si Si5 0.214530 0.934402 0.645725
Si Si6 0.600442 0.433380 0.347568
O O1 0.500000 0.500000 0.182211
O O2 0.600261 0.250000 0.195103
O O3 0.682083 0.502268 0.155755
O O4 0.618433 0.478165 0.273322
O O5 0.778573 0.750000 0.396700
O O6 0.841187 0.978965 0.461198
O O7 0.843152 0.985689 0.335769
O O8 0.683131 0.003337 0.390668
O O9 0.900556 0.250000 0.028521
O O10 0.838359 0.497425 0.085337
O O11 0.000000 0.500000 0.025500
O O12 0.098366 0.750000 0.773823
O O13 0.158032 0.980058 0.709287
O O14 0.000000 0.000000 0.771547
O O15 0.216319 0.750000 0.641757
O O16 0.500000 0.500000 0.364864
O O17 0.597682 0.250000 0.350441
#
# Coordination Sequence:
#
# PCOD9360693 Si02
#       6
#     8   8   8   8   8   8
#     4  10  20  35  58  89 121 154 192 238 293 351
#     4  10  21  39  59  83 116 153 194 241 290 345
#     4  11  24  41  61  84 117 159 199 242 293 351
#     4  10  21  35  55  82 111 145 188 239 290 338
#     4  11  22  38  60  85 117 155 195 243 292 347
#     4  10  20  34  58  89 120 154 190 237 290 348
#
# _framework density 18.179047000000001
#
# number of rings (size 3 to 8) (size 9 to 14) (size 15 to 20)
#    0.000    1.667    1.667    3.000    0.000    6.000 
#    0.000    0.833    0.000    4.000    0.000    0.000 
#    0.000    0.000    0.000    0.000    0.000    0.000 
#
# Total GULP energy -134106.895752 kJ/mol
# GULP energy per Si atom -5587.787323 kJ/mol
# Density = 1.813767 g / cm^3
# Si number density = 18.179047 Si / 1000 Ang^3
#
#
#
# Elastic Constant Matrix: (Units=GPa)
#
#
# Indices 1 2 3 4 5 6 
#
# 1 199.4446 53.3899 100.8433 0.0000 0.0000 0.0000
# 2 53.3899 42.5259 49.5576 0.0000 0.0000 0.0000
# 3 100.8433 49.5576 150.4246 0.0000 0.0000 0.0000
# 4 0.0000 0.0000 0.0000 24.9190 0.0000 0.0000
# 5 0.0000 0.0000 0.0000 0.0000 33.5348 0.0000
# 6 0.0000 0.0000 0.0000 0.0000 0.0000 40.7688
#
#
#
# Elastic Compliance Matrix: (Units=1/GPa)
#
#
# Indices 1 2 3 4 5 6 
#
# 1 0.008597 -0.006618 -0.003583 0.000000 0.000000 0.000000
# 2 -0.006618 0.043263 -0.009817 0.000000 0.000000 0.000000
# 3 -0.003583 -0.009817 0.012284 0.000000 0.000000 0.000000
# 4 0.000000 0.000000 0.000000 0.040130 0.000000 0.000000
# 5 0.000000 0.000000 0.000000 0.000000 0.029820 0.000000
# 6 0.000000 0.000000 0.000000 0.000000 0.000000 0.024529
#
#
# Mechanical properties :
#
#
# Convention : Reuss Voigt Hill
#
# Bulk Modulus (GPa) = 41.47779 88.88631 65.18205
# Shear Modulus (GPa) = 24.19025 32.41815 28.30420
#
# Velocity S-wave (km/s) = 3.65179 4.22746 3.95012
# Velocity P-wave (km/s) = 6.37546 8.53403 7.53247
#
# Compressibility (1/GPa) = 0.02410929
#
# Stress axis : x y z
#
# Youngs Moduli (GPa) = 116.31662 23.11427 81.40566
#
# Poissons Ratio (x) = 0.15296 0.29170
# Poissons Ratio (y) = 0.76976 0.79913
# Poissons Ratio (z) = 0.41679 0.22691
#
# Static dielectric constant tensor:
#      x y z
#    x 1.593930 0.000000 0.000000 
#    y 0.000000 1.612210 0.000000 
#    z 0.000000 0.000000 1.614190 
# 
# From -- ./inp_files/12631.got.cif
#   From: 2010.05.17/outbox.cif.g08.bks.cpg/sg39_7_cif.got.tgz:12631.got - 2010.06.03 18:22:40.
