data_PCOD9360338
_publ_section_title
;
Structure prediction by ZEFSAII (Michael W. Deem and Ramdas Pophale) SiO2 
 PCOD9360338
Probable space group: A B M 2
;
_chemical_formula_sum "Si O2"
_cell_formula_units_Z 60
_cell_length_a 15.996018
_cell_length_b 8.789975
_cell_length_c 22.806837
_cell_angle_alpha 90.000000
_cell_angle_beta 90.000000
_cell_angle_gamma 90.000000
_cell_volume 3206.746155
_symmetry_space_group_name_H-M "A B M 2"
_symmetry_group_IT_number 39
_symmetry_cell_setting 'orthorhombic'
loop_
_space_group_symop_operation_xyz
x,y,z
-x,-y,z
-x,1/2+y,z
x,1/2-y,z
x,1/2+y,1/2+z
-x,1/2-y,1/2+z
-x,y,1/2+z
x,-y,1/2+z
loop_
_atom_site_type_symbol
_atom_site_label
_atom_site_fract_x
_atom_site_fract_y
_atom_site_fract_z
Si Si1 0.914313 0.071870 0.171140
Si Si2 0.407581 0.066128 0.047412
Si Si3 0.261089 0.565931 0.357861
Si Si4 0.158621 0.575315 0.469287
Si Si5 0.117551 0.579197 0.790026
Si Si6 0.590974 0.432749 0.918462
Si Si7 0.000000 0.000000 0.896456
Si Si8 0.225842 0.933518 0.592723
O O1 0.916606 0.250000 0.161237
O O2 0.914403 0.034073 0.240280
O O3 0.829467 0.003453 0.144365
O O4 0.000000 0.000000 0.145913
O O5 0.414326 0.250000 0.043269
O O6 0.325119 0.030202 0.086716
O O7 0.500000 0.000000 0.064032
O O8 0.386581 0.998146 0.983141
O O9 0.256322 0.750000 0.352933
O O10 0.216494 0.511449 0.418200
O O11 0.207731 0.484798 0.308151
O O12 0.352606 0.503296 0.367396
O O13 0.184869 0.750000 0.474950
O O14 0.178433 0.510478 0.533026
O O15 0.066120 0.574017 0.441403
O O16 0.120161 0.750000 0.766146
O O17 0.060405 0.581425 0.848848
O O18 0.500000 0.500000 0.908649
O O19 0.593439 0.250000 0.919400
O O20 0.219964 0.750000 0.597249
#
# Coordination Sequence:
#
# PCOD9360338 Si02
#       8
#     8   8   8   8   8   8   4   8
#     4  12  26  43  62  84 113 154 200 247 293 344
#     4  10  19  34  57  84 116 154 193 239 293 353
#     4  10  19  35  56  82 115 151 188 234 288 342
#     4   9  18  33  52  77 113 150 183 225 282 339
#     4  11  22  38  60  85 113 148 197 244 288 340
#     4  11  20  31  51  81 118 156 194 234 284 347
#     4  10  20  32  56  84 112 152 190 240 278 334
#     4  10  21  39  59  83 119 157 192 239 294 348
#
# _framework density 18.710553999999998
#
# number of rings (size 3 to 8) (size 9 to 14) (size 15 to 20)
#    0.000    1.600    2.000    4.800    0.933    2.133 
#    0.000    0.667    0.000    0.800    0.000    3.733 
#    0.000    0.000    0.000    0.000    0.000    0.000 
#
# Total GULP energy -167066.273383 kJ/mol
# GULP energy per Si atom -5568.875779 kJ/mol
# Density = 1.866797 g / cm^3
# Si number density = 18.710554 Si / 1000 Ang^3
#
#
#
# Elastic Constant Matrix: (Units=GPa)
#
#
# Indices 1 2 3 4 5 6 
#
# 1 124.6863 32.7060 24.0284 0.0000 0.0000 0.0000
# 2 32.7060 75.9026 -3.3693 0.0000 0.0000 0.0000
# 3 24.0284 -3.3693 35.0983 0.0000 0.0000 0.0000
# 4 0.0000 0.0000 0.0000 20.6707 0.0000 0.0000
# 5 0.0000 0.0000 0.0000 0.0000 30.5615 0.0000
# 6 0.0000 0.0000 0.0000 0.0000 0.0000 21.8855
#
#
#
# Elastic Compliance Matrix: (Units=1/GPa)
#
#
# Indices 1 2 3 4 5 6 
#
# 1 0.010868 -0.005035 -0.007923 0.000000 0.000000 0.000000
# 2 -0.005035 0.015563 0.004941 0.000000 0.000000 0.000000
# 3 -0.007923 0.004941 0.034390 0.000000 0.000000 0.000000
# 4 0.000000 0.000000 0.000000 0.048378 0.000000 0.000000
# 5 0.000000 0.000000 0.000000 0.000000 0.032721 0.000000
# 6 0.000000 0.000000 0.000000 0.000000 0.000000 0.045692
#
#
# Mechanical properties :
#
#
# Convention : Reuss Voigt Hill
#
# Bulk Modulus (GPa) = 22.32801 38.04638 30.18720
# Shear Modulus (GPa) = 22.87543 26.77836 24.82689
#
# Velocity S-wave (km/s) = 3.50036 3.78721 3.64661
# Velocity P-wave (km/s) = 5.31939 6.28508 5.82229
#
# Compressibility (1/GPa) = 0.04478680
#
# Stress axis : x y z
#
# Youngs Moduli (GPa) = 92.01643 64.25312 29.07822
#
# Poissons Ratio (x) = 0.32348 0.23040
# Poissons Ratio (y) = 0.46326 -0.14367
# Poissons Ratio (z) = 0.72907 -0.31745
#
# Static dielectric constant tensor:
#      x y z
#    x 1.578900 0.000000 0.000000 
#    y 0.000000 1.641200 0.000000 
#    z 0.000000 0.000000 1.654060 
# 
# From -- ./inp_files/16100.got.cif
#   From: 2010.05.17/outbox.cif.g08.bks.cpg/sg39_9_cif.got.tgz:16100.got - 2010.06.03 18:22:40.
