data_PCOD9360592
_publ_section_title
;
Structure prediction by ZEFSAII (Michael W. Deem and Ramdas Pophale) SiO2 
 PCOD9360592
Probable space group: A B M 2
;
_chemical_formula_sum "Si O2"
_cell_formula_units_Z 64
_cell_length_a 16.711912
_cell_length_b 9.215385
_cell_length_c 20.884004
_cell_angle_alpha 90.000000
_cell_angle_beta 90.000000
_cell_angle_gamma 90.000000
_cell_volume 3216.276605
_symmetry_space_group_name_H-M "A B M 2"
_symmetry_group_IT_number 39
_symmetry_cell_setting 'orthorhombic'
loop_
_space_group_symop_operation_xyz
x,y,z
-x,-y,z
-x,1/2+y,z
x,1/2-y,z
x,1/2+y,1/2+z
-x,1/2-y,1/2+z
-x,y,1/2+z
x,-y,1/2+z
loop_
_atom_site_type_symbol
_atom_site_label
_atom_site_fract_x
_atom_site_fract_y
_atom_site_fract_z
Si Si1 0.245731 0.575970 0.623990
Si Si2 0.070730 0.594587 0.937316
Si Si3 0.920129 0.083679 0.089490
Si Si4 0.569895 0.415997 0.299957
Si Si5 0.745512 0.586541 0.748880
Si Si6 0.610262 0.081660 0.443199
Si Si7 0.209998 0.907793 0.396747
Si Si8 0.414647 0.926962 0.075622
O O1 0.250134 0.750000 0.611733
O O2 0.164242 0.503917 0.595089
O O3 0.233636 0.536899 0.698893
O O4 0.330799 0.498008 0.603434
O O5 0.062418 0.750000 0.908161
O O6 0.156145 0.532290 0.922611
O O7 0.000000 0.500000 0.910273
O O8 0.064135 0.598857 0.013766
O O9 0.913417 0.250000 0.114937
O O10 0.000000 0.000000 0.115438
O O11 0.500000 0.500000 0.266256
O O12 0.546697 0.250000 0.306649
O O13 0.650955 0.423059 0.261294
O O14 0.582383 0.469510 0.372831
O O15 0.763407 0.750000 0.724112
O O16 0.779929 0.577003 0.820487
O O17 0.583682 0.250000 0.455758
O O18 0.705418 0.089494 0.432322
O O19 0.589191 0.974767 0.500573
O O20 0.172672 0.750000 0.409906
O O21 0.414984 0.750000 0.083769
O O22 0.500000 0.000000 0.098614
#
# Coordination Sequence:
#
# PCOD9360592 Si02
#       8
#     8   8   8   8   8   8   8   8
#     4  12  25  41  61  85 114 153 197 244 293 343
#     4  10  20  33  54  84 116 145 177 218 271 333
#     4  10  21  39  63  92 122 154 191 236 287 343
#     4   9  18  32  53  79 108 142 180 225 279 333
#     4   9  20  39  57  76 106 146 189 233 278 330
#     4   9  18  34  55  82 113 145 181 225 280 341
#     4   9  18  34  57  81 110 146 182 224 277 331
#     4  12  25  40  58  83 116 155 196 241 291 346
#
# _framework density 19.898785
#
# number of rings (size 3 to 8) (size 9 to 14) (size 15 to 20)
#    0.000    2.000    0.000    5.625    0.000    7.000 
#    0.000    4.375    0.000    3.000    0.000    0.000 
#    0.000    0.000    0.000    0.000    0.000    0.000 
#
# Total GULP energy -178245.413513 kJ/mol
# GULP energy per Si atom -5570.169172 kJ/mol
# Density = 1.985349 g / cm^3
# Si number density = 19.898785 Si / 1000 Ang^3
#
#
#
# Elastic Constant Matrix: (Units=GPa)
#
#
# Indices 1 2 3 4 5 6 
#
# 1 104.3945 64.3131 1.4691 0.0000 0.0000 0.0000
# 2 64.3131 132.3366 19.7498 0.0000 0.0000 0.0000
# 3 1.4691 19.7498 24.9107 0.0000 0.0000 0.0000
# 4 0.0000 0.0000 0.0000 30.1909 0.0000 0.0000
# 5 0.0000 0.0000 0.0000 0.0000 -57.0301 0.0000
# 6 0.0000 0.0000 0.0000 0.0000 0.0000 12.2651
#
#
#
# Elastic Compliance Matrix: (Units=1/GPa)
#
#
# Indices 1 2 3 4 5 6 
#
# 1 0.014259 -0.007717 0.005277 0.000000 0.000000 0.000000
# 2 -0.007717 0.012747 -0.009651 0.000000 0.000000 0.000000
# 3 0.005277 -0.009651 0.047484 0.000000 0.000000 0.000000
# 4 0.000000 0.000000 0.000000 0.033123 0.000000 0.000000
# 5 0.000000 0.000000 0.000000 0.000000 -0.017535 0.000000
# 6 0.000000 0.000000 0.000000 0.000000 0.000000 0.081532
#
#
# Mechanical properties :
#
#
# Convention : Reuss Voigt Hill
#
# Bulk Modulus (GPa) = 19.87745 48.07843 33.97794
# Shear Modulus (GPa) = 23.52257 8.82582 16.17420
#
# Velocity S-wave (km/s) = 3.44191 2.10831 2.85410
# Velocity P-wave (km/s) = 5.08003 5.49004 5.28901
#
# Compressibility (1/GPa) = 0.05030827
#
# Stress axis : x y z
#
# Youngs Moduli (GPa) = 70.13097 78.44824 21.05975
#
# Poissons Ratio (x) = 0.60540 -0.11114
# Poissons Ratio (y) = 0.54122 0.20325
# Poissons Ratio (z) = -0.37011 0.75712
#
# Static dielectric constant tensor:
#      x y z
#    x 1.753620 0.000000 0.000000 
#    y 0.000000 1.710640 0.000000 
#    z 0.000000 0.000000 1.719400 
# 
# From -- ./inp_files/16212.got.cif
#   From: 2010.05.17/outbox.cif.g08.bks.cpg/sg39_9_cif.got.tgz:16212.got - 2010.06.03 18:22:40.
