data_PCOD9360725
_publ_section_title
;
Structure prediction by ZEFSAII (Michael W. Deem and Ramdas Pophale) SiO2 
 PCOD9360725
Probable space group: A B M 2
;
_chemical_formula_sum "Si O2"
_cell_formula_units_Z 64
_cell_length_a 14.356281
_cell_length_b 8.676011
_cell_length_c 26.606904
_cell_angle_alpha 90.000000
_cell_angle_beta 90.000000
_cell_angle_gamma 90.000000
_cell_volume 3314.029629
_symmetry_space_group_name_H-M "A B M 2"
_symmetry_group_IT_number 39
_symmetry_cell_setting 'orthorhombic'
loop_
_space_group_symop_operation_xyz
x,y,z
-x,-y,z
-x,1/2+y,z
x,1/2-y,z
x,1/2+y,1/2+z
-x,1/2-y,1/2+z
-x,y,1/2+z
x,-y,1/2+z
loop_
_atom_site_type_symbol
_atom_site_label
_atom_site_fract_x
_atom_site_fract_y
_atom_site_fract_z
Si Si1 0.714682 0.566361 0.148290
Si Si2 0.711334 0.564296 0.452146
Si Si3 0.895062 0.434543 0.301898
Si Si4 0.395410 0.064338 0.552968
Si Si5 0.395454 0.065419 0.856179
Si Si6 0.104433 0.934756 0.188907
Si Si7 0.896532 0.066149 0.906537
Si Si8 0.394807 0.564378 0.243590
O O1 0.712660 0.750000 0.146166
O O2 0.659977 0.496434 0.101182
O O3 0.820644 0.506299 0.151474
O O4 0.663578 0.508250 0.198742
O O5 0.707105 0.750000 0.450495
O O6 0.658755 0.514091 0.502440
O O7 0.660715 0.500964 0.402806
O O8 0.820215 0.520595 0.447970
O O9 0.894392 0.250000 0.307424
O O10 0.860322 0.471447 0.245975
O O11 0.856616 0.507814 0.352771
O O12 0.000000 0.500000 0.301087
O O13 0.398547 0.250000 0.554303
O O14 0.500000 0.000000 0.552771
O O15 0.397722 0.250000 0.859687
O O16 0.358938 0.026933 0.799985
O O17 0.500000 0.000000 0.858857
O O18 0.101801 0.750000 0.184508
O O19 0.000000 0.000000 0.183150
O O20 0.904231 0.250000 0.904379
O O21 0.000000 0.000000 0.914153
O O22 0.500000 0.500000 0.240468
O O23 0.395144 0.750000 0.238513
#
# Coordination Sequence:
#
# PCOD9360725 Si02
#       8
#     8   8   8   8   8   8   8   8
#     4  12  25  40  62  90 119 158 205 251 306 363
#     4  10  23  40  61  88 119 157 202 249 303 360
#     4   9  17  30  51  79 114 156 198 239 287 342
#     4  11  24  45  68  90 119 154 199 255 309 367
#     4  10  21  36  58  86 120 156 193 240 298 363
#     4  10  21  38  59  87 124 162 205 251 300 359
#     4  10  20  35  55  84 120 159 201 246 294 349
#     4  10  21  38  58  86 121 158 196 243 303 367
#
# _framework density 19.311837000000001
#
# number of rings (size 3 to 8) (size 9 to 14) (size 15 to 20)
#    0.000    1.750    0.000    4.875    1.750    6.000 
#    0.000    0.625    0.000    1.500    0.000    0.000 
#    0.000    0.000    0.000    0.000    0.000    0.000 
#
# Total GULP energy -178747.178801 kJ/mol
# GULP energy per Si atom -5585.849338 kJ/mol
# Density = 1.926788 g / cm^3
# Si number density = 19.311837 Si / 1000 Ang^3
#
#
#
# Elastic Constant Matrix: (Units=GPa)
#
#
# Indices 1 2 3 4 5 6 
#
# 1 141.5061 47.7710 98.2944 0.0000 0.0000 0.0000
# 2 47.7710 67.9523 51.5037 0.0000 0.0000 0.0000
# 3 98.2944 51.5037 145.6255 0.0000 0.0000 0.0000
# 4 0.0000 0.0000 0.0000 17.1349 0.0000 0.0000
# 5 0.0000 0.0000 0.0000 0.0000 42.0493 0.0000
# 6 0.0000 0.0000 0.0000 0.0000 0.0000 26.0512
#
#
#
# Elastic Compliance Matrix: (Units=1/GPa)
#
#
# Indices 1 2 3 4 5 6 
#
# 1 0.013936 -0.003644 -0.008117 0.000000 0.000000 0.000000
# 2 -0.003644 0.021059 -0.004988 0.000000 0.000000 0.000000
# 3 -0.008117 -0.004988 0.014110 0.000000 0.000000 0.000000
# 4 0.000000 0.000000 0.000000 0.058360 0.000000 0.000000
# 5 0.000000 0.000000 0.000000 0.000000 0.023782 0.000000
# 6 0.000000 0.000000 0.000000 0.000000 0.000000 0.038386
#
#
# Mechanical properties :
#
#
# Convention : Reuss Voigt Hill
#
# Bulk Modulus (GPa) = 64.08191 83.35803 73.71997
# Shear Modulus (GPa) = 23.99990 27.54806 25.77398
#
# Velocity S-wave (km/s) = 3.52910 3.78098 3.65721
# Velocity P-wave (km/s) = 7.06122 7.89424 7.48932
#
# Compressibility (1/GPa) = 0.01560503
#
# Stress axis : x y z
#
# Youngs Moduli (GPa) = 71.75769 47.48588 70.87080
#
# Poissons Ratio (x) = 0.17306 0.57529
# Poissons Ratio (y) = 0.26152 0.35351
# Poissons Ratio (z) = 0.58249 0.23686
#
# Static dielectric constant tensor:
#      x y z
#    x 1.682120 0.000000 0.000000 
#    y 0.000000 1.646090 0.000000 
#    z 0.000000 0.000000 1.674210 
# 
# From -- ./inp_files/16245.got.cif
#   From: 2010.05.17/outbox.cif.g08.bks.cpg/sg39_9_cif.got.tgz:16245.got - 2010.06.03 18:22:40.
