data_PCOD9360600
_publ_section_title
;
Structure prediction by ZEFSAII (Michael W. Deem and Ramdas Pophale) SiO2 
 PCOD9360600
Probable space group: A B M 2
;
_chemical_formula_sum "Si O2"
_cell_formula_units_Z 40
_cell_length_a 8.260467
_cell_length_b 10.158289
_cell_length_c 22.992280
_cell_angle_alpha 90.000000
_cell_angle_beta 90.000000
_cell_angle_gamma 90.000000
_cell_volume 1929.333052
_symmetry_space_group_name_H-M "A B M 2"
_symmetry_group_IT_number 39
_symmetry_cell_setting 'orthorhombic'
loop_
_space_group_symop_operation_xyz
x,y,z
-x,-y,z
-x,1/2+y,z
x,1/2-y,z
x,1/2+y,1/2+z
-x,1/2-y,1/2+z
-x,y,1/2+z
x,-y,1/2+z
loop_
_atom_site_type_symbol
_atom_site_label
_atom_site_fract_x
_atom_site_fract_y
_atom_site_fract_z
Si Si1 0.638380 0.250000 0.580050
Si Si2 0.283666 0.250000 0.365380
Si Si3 0.347414 0.750000 0.165040
Si Si4 0.175004 0.750000 0.738194
Si Si5 0.406186 0.750000 0.450657
Si Si6 0.805146 0.250000 0.285698
Si Si7 0.813877 0.529237 0.140112
Si Si8 0.692034 0.530996 0.873701
O O1 0.519450 0.250000 0.634860
O O2 0.552160 0.250000 0.517991
O O3 0.743257 0.119029 0.588815
O O4 0.289386 0.250000 0.294944
O O5 0.443133 0.250000 0.406035
O O6 0.213507 0.393575 0.379088
O O7 0.324719 0.750000 0.233916
O O8 0.269171 0.611971 0.145644
O O9 0.199623 0.879545 0.698261
O O10 0.987269 0.750000 0.760119
O O11 0.311739 0.881664 0.431975
O O12 0.770087 0.122332 0.324699
O O13 0.000000 0.500000 0.130711
O O14 0.500000 0.500000 0.859096
#
# Coordination Sequence:
#
# PCOD9360600 Si02
#       8
#     4   4   4   4   4   4   8   8
#     4  11  26  43  71  94 135 178 240 295 354 396
#     4  10  20  33  63  96 118 165 222 265 343 402
#     4  12  23  37  64 104 129 171 232 290 343 421
#     4  11  23  40  64  91 140 189 209 268 347 433
#     4   9  21  45  63  85 128 173 218 290 334 399
#     4  11  21  38  59  88 140 176 217 270 345 427
#     4  11  23  44  65  98 140 184 225 276 355 424
#     4   9  20  36  61  88 123 164 215 275 344 394
#
# _framework density 20.732554
#
# number of rings (size 3 to 8) (size 9 to 14) (size 15 to 20)
#    0.000    1.600    2.000    3.000    0.000   12.800 
#    0.000    0.000   17.600    0.000    0.000    0.000 
#    0.000    0.000    0.000    0.000    0.000    0.000 
#
# Total GULP energy -111550.544487 kJ/mol
# GULP energy per Si atom -5577.527224 kJ/mol
# Density = 2.068537 g / cm^3
# Si number density = 20.732554 Si / 1000 Ang^3
#
#
#
# Elastic Constant Matrix: (Units=GPa)
#
#
# Indices 1 2 3 4 5 6 
#
# 1 66.4472 36.8390 45.1289 0.0000 0.0000 0.0000
# 2 36.8390 188.9679 22.6607 0.0000 0.0000 0.0000
# 3 45.1289 22.6607 81.8417 0.0000 0.0000 0.0000
# 4 0.0000 0.0000 0.0000 7.3770 0.0000 0.0000
# 5 0.0000 0.0000 0.0000 0.0000 9.7886 0.0000
# 6 0.0000 0.0000 0.0000 0.0000 0.0000 44.5693
#
#
#
# Elastic Compliance Matrix: (Units=1/GPa)
#
#
# Indices 1 2 3 4 5 6 
#
# 1 0.026097 -0.003477 -0.013427 0.000000 0.000000 0.000000
# 2 -0.003477 0.005937 0.000274 0.000000 0.000000 0.000000
# 3 -0.013427 0.000274 0.019547 0.000000 0.000000 0.000000
# 4 0.000000 0.000000 0.000000 0.135557 0.000000 0.000000
# 5 0.000000 0.000000 0.000000 0.000000 0.102160 0.000000
# 6 0.000000 0.000000 0.000000 0.000000 0.000000 0.022437
#
#
# Mechanical properties :
#
#
# Convention : Reuss Voigt Hill
#
# Bulk Modulus (GPa) = 54.58935 60.72379 57.65657
# Shear Modulus (GPa) = 14.24079 27.85551 21.04815
#
# Velocity S-wave (km/s) = 2.62368 3.66944 3.18971
# Velocity P-wave (km/s) = 5.96370 6.87792 6.43706
#
# Compressibility (1/GPa) = 0.01831859
#
# Stress axis : x y z
#
# Youngs Moduli (GPa) = 38.31863 168.43532 51.15849
#
# Poissons Ratio (x) = 0.58571 0.68693
# Poissons Ratio (y) = 0.13325 -0.01400
# Poissons Ratio (z) = 0.51452 -0.04609
#
# Static dielectric constant tensor:
#      x y z
#    x 1.780490 0.000000 0.000000 
#    y 0.000000 1.770450 0.000000 
#    z 0.000000 0.000000 1.709490 
# 
# From -- ./inp_files/15513.got.cif
#   From: 2010.05.17/outbox.cif.g08.bks.cpg/sg39_8_cif.got.tgz:15513.got - 2010.06.03 18:22:40.
