data_PCOD9360145
_publ_section_title
;
Structure prediction by ZEFSAII (Michael W. Deem and Ramdas Pophale) SiO2 
 PCOD9360145
Probable space group: A B M 2
;
_chemical_formula_sum "Si O2"
_cell_formula_units_Z 64
_cell_length_a 17.345651
_cell_length_b 8.475550
_cell_length_c 22.290271
_cell_angle_alpha 90.000000
_cell_angle_beta 90.000000
_cell_angle_gamma 90.000000
_cell_volume 3276.980392
_symmetry_space_group_name_H-M "A B M 2"
_symmetry_group_IT_number 39
_symmetry_cell_setting 'orthorhombic'
loop_
_space_group_symop_operation_xyz
x,y,z
-x,-y,z
-x,1/2+y,z
x,1/2-y,z
x,1/2+y,1/2+z
-x,1/2-y,1/2+z
-x,y,1/2+z
x,-y,1/2+z
loop_
_atom_site_type_symbol
_atom_site_label
_atom_site_fract_x
_atom_site_fract_y
_atom_site_fract_z
Si Si1 0.764431 0.563818 0.266400
Si Si2 0.730177 0.566233 0.135306
Si Si3 0.080368 0.561757 0.219897
Si Si4 0.249008 0.057804 0.401117
Si Si5 0.420109 0.430103 0.588306
Si Si6 0.084748 0.435286 0.954962
Si Si7 0.582804 0.929621 0.444214
Si Si8 0.879907 0.935005 0.583469
O O1 0.748663 0.750000 0.268082
O O2 0.728722 0.503606 0.203856
O O3 0.853654 0.528112 0.255153
O O4 0.744398 0.502779 0.331907
O O5 0.754811 0.750000 0.135839
O O6 0.647007 0.544363 0.108557
O O7 0.789681 0.469268 0.094578
O O8 0.089395 0.750000 0.225199
O O9 0.086321 0.521814 0.148802
O O10 0.000000 0.500000 0.243023
O O11 0.246523 0.250000 0.404753
O O12 0.331102 0.004056 0.429908
O O13 0.165844 0.002984 0.427843
O O14 0.500000 0.500000 0.610846
O O15 0.406903 0.250000 0.608451
O O16 0.421909 0.428246 0.516236
O O17 0.084930 0.250000 0.943504
O O18 0.000000 0.500000 0.934805
O O19 0.090315 0.470026 0.026518
O O20 0.584087 0.750000 0.421539
O O21 0.500000 0.000000 0.423200
O O22 0.893479 0.750000 0.572391
#
# Coordination Sequence:
#
# PCOD9360145 Si02
#       8
#     8   8   8   8   8   8   8   8
#     4   9  20  37  56  76 104 142 183 224 269 322
#     4  10  19  33  54  81 110 142 180 223 274 334
#     4  10  20  33  53  78 105 137 177 224 274 325
#     4  10  21  40  61  81 110 150 191 234 280 329
#     4  10  19  32  52  80 111 142 175 219 275 336
#     4  12  25  39  57  83 114 150 189 233 283 338
#     4   9  19  35  58  85 112 141 179 225 276 332
#     4  10  20  35  55  80 109 142 179 224 277 334
#
# _framework density 19.530176000000001
#
# number of rings (size 3 to 8) (size 9 to 14) (size 15 to 20)
#    0.000    2.000    0.000    3.750    0.000    6.000 
#    0.000    0.625    0.000    1.500    0.000    0.000 
#    0.000    0.000    0.000    0.000    0.000    0.000 
#
# Total GULP energy -178317.830607 kJ/mol
# GULP energy per Si atom -5572.432206 kJ/mol
# Density = 1.948572 g / cm^3
# Si number density = 19.530176 Si / 1000 Ang^3
#
#
#
# Elastic Constant Matrix: (Units=GPa)
#
#
# Indices 1 2 3 4 5 6 
#
# 1 134.4115 19.2007 16.3649 0.0000 0.0000 0.0000
# 2 19.2007 33.2753 9.8674 0.0000 0.0000 0.0000
# 3 16.3649 9.8674 28.8209 0.0000 0.0000 0.0000
# 4 0.0000 0.0000 0.0000 -8.8564 0.0000 0.0000
# 5 0.0000 0.0000 0.0000 0.0000 -11.4833 0.0000
# 6 0.0000 0.0000 0.0000 0.0000 0.0000 28.8820
#
#
#
# Elastic Compliance Matrix: (Units=1/GPa)
#
#
# Indices 1 2 3 4 5 6 
#
# 1 0.008408 -0.003824 -0.003465 0.000000 0.000000 0.000000
# 2 -0.003824 0.035188 -0.009876 0.000000 0.000000 0.000000
# 3 -0.003465 -0.009876 0.040046 0.000000 0.000000 0.000000
# 4 0.000000 0.000000 0.000000 -0.112913 0.000000 0.000000
# 5 0.000000 0.000000 0.000000 0.000000 -0.087083 0.000000
# 6 0.000000 0.000000 0.000000 0.000000 0.000000 0.034624
#
#
# Mechanical properties :
#
#
# Convention : Reuss Voigt Hill
#
# Bulk Modulus (GPa) = 20.27923 31.93042 26.10482
# Shear Modulus (GPa) = -161.47976 11.78009 -74.84984
#
# Velocity S-wave (km/s) = -9.10284 2.45862 -6.19745
# Velocity P-wave (km/s) = 10.00381 4.94414 6.14946
#
# Compressibility (1/GPa) = 0.04931154
#
# Stress axis : x y z
#
# Youngs Moduli (GPa) = 118.93465 28.41914 24.97148
#
# Poissons Ratio (x) = 0.10868 0.08652
# Poissons Ratio (y) = 0.45482 0.24661
# Poissons Ratio (z) = 0.41210 0.28066
#
# Static dielectric constant tensor:
#      x y z
#    x 1.706410 0.000000 0.000000 
#    y 0.000000 1.693160 0.000000 
#    z 0.000000 0.000000 1.697820 
# 
# From -- ./inp_files/16269.got.cif
#   From: 2010.05.17/outbox.cif.g08.bks.cpg/sg39_9_cif.got.tgz:16269.got - 2010.06.03 18:22:40.
