data_PCOD9360459
_publ_section_title
;
Structure prediction by ZEFSAII (Michael W. Deem and Ramdas Pophale) SiO2 
 PCOD9360459
Probable space group: A B M 2
;
_chemical_formula_sum "Si O2"
_cell_formula_units_Z 60
_cell_length_a 8.174526
_cell_length_b 24.706016
_cell_length_c 13.504809
_cell_angle_alpha 90.000000
_cell_angle_beta 90.000000
_cell_angle_gamma 90.000000
_cell_volume 2727.430823
_symmetry_space_group_name_H-M "A B M 2"
_symmetry_group_IT_number 39
_symmetry_cell_setting 'orthorhombic'
loop_
_space_group_symop_operation_xyz
x,y,z
-x,-y,z
-x,1/2+y,z
x,1/2-y,z
x,1/2+y,1/2+z
-x,1/2-y,1/2+z
-x,y,1/2+z
x,-y,1/2+z
loop_
_atom_site_type_symbol
_atom_site_label
_atom_site_fract_x
_atom_site_fract_y
_atom_site_fract_z
Si Si1 0.462894 0.187810 0.279590
Si Si2 0.500000 0.000000 0.268133
Si Si3 0.985600 0.105921 0.226258
Si Si4 0.731721 0.861030 0.464676
Si Si5 0.193010 0.311729 0.107036
Si Si6 0.938165 0.187778 0.408533
Si Si7 0.833262 0.030459 0.861933
Si Si8 0.635510 0.398088 0.171231
O O1 0.506421 0.250000 0.296740
O O2 0.370832 0.163183 0.373687
O O3 0.345097 0.184871 0.182443
O O4 0.610075 0.149114 0.251305
O O5 0.336039 0.000174 0.336085
O O6 0.513358 0.053507 0.199503
O O7 0.949092 0.144275 0.321208
O O8 0.819799 0.081046 0.185000
O O9 0.068630 0.144116 0.146841
O O10 0.109816 0.060391 0.261633
O O11 0.790097 0.921372 0.436587
O O12 0.630253 0.869370 0.564698
O O13 0.891623 0.822782 0.468555
O O14 0.130933 0.250000 0.117396
O O15 0.206829 0.320105 0.988775
O O16 0.936002 0.250000 0.372710
O O17 0.000000 0.000000 0.894490
#
# Coordination Sequence:
#
# PCOD9360459 Si02
#       8
#     8   4   8   8   8   8   8   8
#     4  11  24  43  67  97 143 187 229 292 354 425
#     4  12  24  48  72  98 142 184 232 300 364 420
#     4  11  21  39  64  94 131 173 229 282 341 419
#     4  11  23  43  67  99 135 185 233 288 359 417
#     4  10  19  36  62  92 128 176 225 278 344 410
#     4  10  20  35  63  98 132 174 228 282 342 421
#     4  11  23  45  74  98 132 182 231 287 355 426
#     4  12  26  44  68 102 136 185 239 291 358 426
#
# _framework density 21.998723999999999
#
# number of rings (size 3 to 8) (size 9 to 14) (size 15 to 20)
#    0.000    1.067    6.667    0.800    0.000    3.733 
#    2.400    2.667    0.000    0.000    0.000    0.000 
#    0.000    0.000    0.000    0.000    0.000    0.000 
#
# Total GULP energy -167484.052135 kJ/mol
# GULP energy per Si atom -5582.801738 kJ/mol
# Density = 2.194865 g / cm^3
# Si number density = 21.998724 Si / 1000 Ang^3
#
#
#
# Elastic Constant Matrix: (Units=GPa)
#
#
# Indices 1 2 3 4 5 6 
#
# 1 80.8082 22.4143 8.3257 0.0000 0.0000 0.0000
# 2 22.4143 82.4210 13.7214 0.0000 0.0000 0.0000
# 3 8.3257 13.7214 55.2546 0.0000 0.0000 0.0000
# 4 0.0000 0.0000 0.0000 21.6809 0.0000 0.0000
# 5 0.0000 0.0000 0.0000 0.0000 24.1384 0.0000
# 6 0.0000 0.0000 0.0000 0.0000 0.0000 6.5903
#
#
#
# Elastic Compliance Matrix: (Units=1/GPa)
#
#
# Indices 1 2 3 4 5 6 
#
# 1 0.013456 -0.003465 -0.001167 0.000000 0.000000 0.000000
# 2 -0.003465 0.013548 -0.002842 0.000000 0.000000 0.000000
# 3 -0.001167 -0.002842 0.018980 0.000000 0.000000 0.000000
# 4 0.000000 0.000000 0.000000 0.046123 0.000000 0.000000
# 5 0.000000 0.000000 0.000000 0.000000 0.041428 0.000000
# 6 0.000000 0.000000 0.000000 0.000000 0.000000 0.151737
#
#
# Mechanical properties :
#
#
# Convention : Reuss Voigt Hill
#
# Bulk Modulus (GPa) = 32.22138 34.15630 33.18884
# Shear Modulus (GPa) = 16.09957 22.08343 19.09150
#
# Velocity S-wave (km/s) = 2.70819 3.17180 2.94912
# Velocity P-wave (km/s) = 4.94548 5.38274 5.16874
#
# Compressibility (1/GPa) = 0.03103530
#
# Stress axis : x y z
#
# Youngs Moduli (GPa) = 74.31419 73.80958 52.68776
#
# Poissons Ratio (x) = 0.25576 0.06149
# Poissons Ratio (y) = 0.25751 0.14976
# Poissons Ratio (z) = 0.08673 0.20979
#
# Static dielectric constant tensor:
#      x y z
#    x 1.960540 0.000000 0.000000 
#    y 0.000000 1.776050 0.000000 
#    z 0.000000 0.000000 1.804260 
# 
# From -- ./inp_files/8725.got.cif
#   From: 2010.05.17/outbox.cif.g08.bks.cpg/sg39_5_cif.got.tgz:8725.got - 2010.06.03 18:22:40.
