data_PCOD9360047
_publ_section_title
;
Structure prediction by ZEFSAII (Michael W. Deem and Ramdas Pophale) SiO2 
 PCOD9360047
Probable space group: A B M 2
;
_chemical_formula_sum "Si O2"
_cell_formula_units_Z 64
_cell_length_a 20.084763
_cell_length_b 8.839252
_cell_length_c 20.906872
_cell_angle_alpha 90.000000
_cell_angle_beta 90.000000
_cell_angle_gamma 90.000000
_cell_volume 3711.686499
_symmetry_space_group_name_H-M "A B M 2"
_symmetry_group_IT_number 39
_symmetry_cell_setting 'orthorhombic'
loop_
_space_group_symop_operation_xyz
x,y,z
-x,-y,z
-x,1/2+y,z
x,1/2-y,z
x,1/2+y,1/2+z
-x,1/2-y,1/2+z
-x,y,1/2+z
x,-y,1/2+z
loop_
_atom_site_type_symbol
_atom_site_label
_atom_site_fract_x
_atom_site_fract_y
_atom_site_fract_z
Si Si1 0.285876 0.430676 0.101030
Si Si2 0.566155 0.069366 0.959407
Si Si3 0.926098 0.432535 0.282029
Si Si4 0.433775 0.569535 0.602347
Si Si5 0.156532 0.068756 0.657154
Si Si6 0.073228 0.430736 0.528977
Si Si7 0.153286 0.931411 0.410297
Si Si8 0.285205 0.569062 0.957881
O O1 0.281211 0.250000 0.092832
O O2 0.359911 0.465540 0.127970
O O3 0.227135 0.490138 0.145643
O O4 0.279024 0.505647 0.030535
O O5 0.558814 0.250000 0.963921
O O6 0.639898 0.036088 0.933059
O O7 0.500000 0.000000 0.927634
O O8 0.568201 0.998559 0.030622
O O9 0.931710 0.250000 0.280539
O O10 0.883633 0.479867 0.220009
O O11 0.885822 0.474752 0.345945
O O12 0.000000 0.500000 0.281712
O O13 0.500000 0.500000 0.633826
O O14 0.441250 0.750000 0.598957
O O15 0.166625 0.250000 0.660521
O O16 0.111798 0.036919 0.594787
O O17 0.069747 0.250000 0.520827
O O18 0.113545 0.502615 0.470598
O O19 0.000000 0.500000 0.531168
O O20 0.155371 0.750000 0.414177
O O21 0.227621 0.996367 0.415466
O O22 0.276880 0.750000 0.960867
#
# Coordination Sequence:
#
# PCOD9360047 Si02
#       8
#     8   8   8   8   8   8   8   8
#     4  10  19  30  48  75 105 136 174 215 258 305
#     4   9  16  25  40  64  97 135 171 207 250 302
#     4  10  23  41  58  78 103 136 174 214 261 312
#     4   9  16  25  39  64  98 135 171 207 248 300
#     4  10  21  37  55  76 104 137 173 212 259 312
#     4  11  22  35  54  78 103 132 168 209 258 313
#     4  11  22  36  55  78 105 136 174 217 260 310
#     4  10  19  31  48  73 105 139 174 213 260 309
#
# _framework density 17.242834999999999
#
# number of rings (size 3 to 8) (size 9 to 14) (size 15 to 20)
#    0.000    2.000    1.250    3.750    0.000    6.000 
#    0.000    0.000    0.000    0.000    0.000    0.875 
#    0.000    0.000    0.000    0.000    0.000    0.000 
#
# Total GULP energy -178490.374020 kJ/mol
# GULP energy per Si atom -5577.824188 kJ/mol
# Density = 1.720359 g / cm^3
# Si number density = 17.242835 Si / 1000 Ang^3
#
#
#
# Elastic Constant Matrix: (Units=GPa)
#
#
# Indices 1 2 3 4 5 6 
#
# 1 205.4438 70.5269 65.6020 0.0000 0.0000 0.0000
# 2 70.5269 58.1568 40.5634 0.0000 0.0000 0.0000
# 3 65.6020 40.5634 87.7166 0.0000 0.0000 0.0000
# 4 0.0000 0.0000 0.0000 16.3670 0.0000 0.0000
# 5 0.0000 0.0000 0.0000 0.0000 16.4939 0.0000
# 6 0.0000 0.0000 0.0000 0.0000 0.0000 38.0335
#
#
#
# Elastic Compliance Matrix: (Units=1/GPa)
#
#
# Indices 1 2 3 4 5 6 
#
# 1 0.008667 -0.008841 -0.002393 0.000000 0.000000 0.000000
# 2 -0.008841 0.034400 -0.009296 0.000000 0.000000 0.000000
# 3 -0.002393 -0.009296 0.017489 0.000000 0.000000 0.000000
# 4 0.000000 0.000000 0.000000 0.061098 0.000000 0.000000
# 5 0.000000 0.000000 0.000000 0.000000 0.060628 0.000000
# 6 0.000000 0.000000 0.000000 0.000000 0.000000 0.026293
#
#
# Mechanical properties :
#
#
# Convention : Reuss Voigt Hill
#
# Bulk Modulus (GPa) = 51.29374 78.30021 64.79697
# Shear Modulus (GPa) = 19.52103 25.82053 22.67078
#
# Velocity S-wave (km/s) = 3.36836 3.87391 3.62994
# Velocity P-wave (km/s) = 6.70374 8.09434 7.43164
#
# Compressibility (1/GPa) = 0.01949556
#
# Stress axis : x y z
#
# Youngs Moduli (GPa) = 115.38353 29.06981 57.17844
#
# Poissons Ratio (x) = 0.25700 0.13685
# Poissons Ratio (y) = 1.02009 0.53152
# Poissons Ratio (z) = 0.27616 0.27023
#
# Static dielectric constant tensor:
#      x y z
#    x 1.632130 0.000000 0.000000 
#    y 0.000000 1.578080 0.000000 
#    z 0.000000 0.000000 1.557870 
# 
# From -- ./inp_files/15067.got.cif
#   From: 2010.05.17/outbox.cif.g08.bks.cpg/sg39_8_cif.got.tgz:15067.got - 2010.06.03 18:22:40.
