data_PCOD9360249
_publ_section_title
;
Structure prediction by ZEFSAII (Michael W. Deem and Ramdas Pophale) SiO2 
 PCOD9360249
Probable space group: A B M 2
;
_chemical_formula_sum "Si O2"
_cell_formula_units_Z 64
_cell_length_a 21.524209
_cell_length_b 9.164461
_cell_length_c 16.768710
_cell_angle_alpha 90.000000
_cell_angle_beta 90.000000
_cell_angle_gamma 90.000000
_cell_volume 3307.758406
_symmetry_space_group_name_H-M "A B M 2"
_symmetry_group_IT_number 39
_symmetry_cell_setting 'orthorhombic'
loop_
_space_group_symop_operation_xyz
x,y,z
-x,-y,z
-x,1/2+y,z
x,1/2-y,z
x,1/2+y,1/2+z
-x,1/2-y,1/2+z
-x,y,1/2+z
x,-y,1/2+z
loop_
_atom_site_type_symbol
_atom_site_label
_atom_site_fract_x
_atom_site_fract_y
_atom_site_fract_z
Si Si1 0.565164 0.922929 0.028120
Si Si2 0.764971 0.410359 0.552752
Si Si3 0.319449 0.580311 0.945123
Si Si4 0.717325 0.917034 0.794870
Si Si5 0.065960 0.424401 0.446809
Si Si6 0.134149 0.421858 0.800558
Si Si7 0.351062 0.411653 0.169804
Si Si8 0.121930 0.075876 0.622814
O O1 0.562536 0.750000 0.011840
O O2 0.586606 0.940755 0.120319
O O3 0.500000 0.000000 0.012935
O O4 0.620208 0.996326 0.977404
O O5 0.782743 0.250000 0.521345
O O6 0.743932 0.521386 0.485278
O O7 0.703142 0.394826 0.604406
O O8 0.817868 0.478803 0.606338
O O9 0.326587 0.750000 0.959887
O O10 0.309043 0.535597 0.855105
O O11 0.708595 0.750000 0.822138
O O12 0.791488 0.939000 0.785675
O O13 0.675138 0.952463 0.718783
O O14 0.063152 0.250000 0.436943
O O15 0.111744 0.489605 0.378505
O O16 0.083187 0.451095 0.540830
O O17 0.000000 0.500000 0.432186
O O18 0.122749 0.250000 0.816011
O O19 0.101634 0.458863 0.714447
O O20 0.355907 0.250000 0.209219
O O21 0.135823 0.250000 0.623769
#
# Coordination Sequence:
#
# PCOD9360249 Si02
#       8
#     8   8   8   8   8   8   8   8
#     4  10  21  39  60  84 113 151 200 246 293 353
#     4  10  19  33  55  85 117 148 189 237 289 352
#     4  11  22  35  55  81 116 157 195 242 298 355
#     4  11  21  35  58  88 121 152 190 244 302 360
#     4  11  25  43  63  86 119 160 208 257 307 367
#     4  10  22  40  63  92 127 161 202 253 309 371
#     4   9  19  34  54  82 117 150 186 233 286 351
#     4  10  21  39  62  90 120 159 202 248 306 371
#
# _framework density 19.348451000000001
#
# number of rings (size 3 to 8) (size 9 to 14) (size 15 to 20)
#    0.000    1.750    1.250    4.125    0.000    7.500 
#    0.000    1.875    0.000    1.500    0.000    0.000 
#    0.000    0.000    0.000    0.000    0.000    0.000 
#
# Total GULP energy -178242.776238 kJ/mol
# GULP energy per Si atom -5570.086757 kJ/mol
# Density = 1.930441 g / cm^3
# Si number density = 19.348451 Si / 1000 Ang^3
#
#
#
# Elastic Constant Matrix: (Units=GPa)
#
#
# Indices 1 2 3 4 5 6 
#
# 1 50.9744 33.3159 19.3916 0.0000 0.0000 0.0000
# 2 33.3159 81.6743 36.2994 0.0000 0.0000 0.0000
# 3 19.3916 36.2994 78.6938 0.0000 0.0000 0.0000
# 4 0.0000 0.0000 0.0000 26.4467 0.0000 0.0000
# 5 0.0000 0.0000 0.0000 0.0000 16.3210 0.0000
# 6 0.0000 0.0000 0.0000 0.0000 0.0000 18.5414
#
#
#
# Elastic Compliance Matrix: (Units=1/GPa)
#
#
# Indices 1 2 3 4 5 6 
#
# 1 0.026992 -0.010131 -0.001978 0.000000 0.000000 0.000000
# 2 -0.010131 0.019204 -0.006362 0.000000 0.000000 0.000000
# 3 -0.001978 -0.006362 0.016129 0.000000 0.000000 0.000000
# 4 0.000000 0.000000 0.000000 0.037812 0.000000 0.000000
# 5 0.000000 0.000000 0.000000 0.000000 0.061271 0.000000
# 6 0.000000 0.000000 0.000000 0.000000 0.000000 0.053933
#
#
# Mechanical properties :
#
#
# Convention : Reuss Voigt Hill
#
# Bulk Modulus (GPa) = 39.39624 43.26182 41.32903
# Shear Modulus (GPa) = 19.17594 20.41753 19.79673
#
# Velocity S-wave (km/s) = 3.15156 3.25199 3.20217
# Velocity P-wave (km/s) = 5.80076 6.04222 5.92272
#
# Compressibility (1/GPa) = 0.02538313
#
# Stress axis : x y z
#
# Youngs Moduli (GPa) = 37.04852 52.07317 61.99857
#
# Poissons Ratio (x) = 0.52756 0.12264
# Poissons Ratio (y) = 0.37534 0.39442
# Poissons Ratio (z) = 0.07328 0.33127
#
# Static dielectric constant tensor:
#      x y z
#    x 1.686680 0.000000 0.000000 
#    y 0.000000 1.752930 0.000000 
#    z 0.000000 0.000000 1.789430 
# 
# From -- ./inp_files/13224.got.cif
#   From: 2010.05.17/outbox.cif.g08.bks.cpg/sg39_7_cif.got.tgz:13224.got - 2010.06.03 18:22:40.
