data_PCOD9360153
_publ_section_title
;
Structure prediction by ZEFSAII (Michael W. Deem and Ramdas Pophale) SiO2 
 PCOD9360153
Probable space group: A B M 2
;
_chemical_formula_sum "Si O2"
_cell_formula_units_Z 60
_cell_length_a 16.351161
_cell_length_b 30.814207
_cell_length_c 5.256609
_cell_angle_alpha 90.000000
_cell_angle_beta 90.000000
_cell_angle_gamma 90.000000
_cell_volume 2648.532245
_symmetry_space_group_name_H-M "A B M 2"
_symmetry_group_IT_number 39
_symmetry_cell_setting 'orthorhombic'
loop_
_space_group_symop_operation_xyz
x,y,z
-x,-y,z
-x,1/2+y,z
x,1/2-y,z
x,1/2+y,1/2+z
-x,1/2-y,1/2+z
-x,y,1/2+z
x,-y,1/2+z
loop_
_atom_site_type_symbol
_atom_site_label
_atom_site_fract_x
_atom_site_fract_y
_atom_site_fract_z
Si Si1 0.359406 0.514382 0.114690
Si Si2 0.819232 0.521751 0.130803
Si Si3 0.954841 0.930075 0.374042
Si Si4 0.148384 0.200026 0.079714
Si Si5 0.448850 0.250000 0.170570
Si Si6 0.879095 0.349293 0.087338
Si Si7 0.304290 0.614542 0.083858
Si Si8 0.666514 0.832061 0.072398
O O1 0.404774 0.502424 0.369374
O O2 0.278313 0.482516 0.127510
O O3 0.328169 0.563868 0.100482
O O4 0.844003 0.485504 0.340656
O O5 0.863899 0.561766 0.258954
O O6 0.947046 0.880874 0.471316
O O7 0.991531 0.947803 0.638766
O O8 0.129271 0.250000 0.036911
O O9 0.105287 0.171092 0.863181
O O10 0.244954 0.190694 0.043495
O O11 0.132042 0.186677 0.370043
O O12 0.520758 0.250000 0.961110
O O13 0.397029 0.206460 0.119205
O O14 0.793198 0.376121 0.116153
O O15 0.328869 0.635670 0.814246
O O16 0.346844 0.640394 0.315826
#
# Coordination Sequence:
#
# PCOD9360153 Si02
#       8
#     8   8   8   8   4   8   8   8
#     4  10  19  32  53  80 116 151 189 246 313 362
#     4  10  21  35  52  73 102 140 180 232 280 358
#     4  12  25  39  54  73 107 149 194 241 297 378
#     4  10  19  35  60  84 108 135 183 246 294 352
#     4  12  24  40  64  96 142 182 200 226 282 348
#     4  10  21  35  55  78 102 142 189 241 308 357
#     4  10  20  35  58  85 118 161 199 258 307 348
#     4  10  21  37  58  90 128 160 205 236 281 360
#
# _framework density 22.654057000000002
#
# number of rings (size 3 to 8) (size 9 to 14) (size 15 to 20)
#    0.000    1.600    0.667    5.200    0.000    8.000 
#    0.000    0.000    0.000    8.000    0.000    0.000 
#    0.000   37.333    0.000    0.000    0.000    0.000 
#
# Total GULP energy -167361.364399 kJ/mol
# GULP energy per Si atom -5578.712147 kJ/mol
# Density = 2.260249 g / cm^3
# Si number density = 22.654057 Si / 1000 Ang^3
#
#
#
# Elastic Constant Matrix: (Units=GPa)
#
#
# Indices 1 2 3 4 5 6 
#
# 1 50.2059 20.1102 16.7480 0.0000 0.0000 0.0000
# 2 20.1102 94.8761 28.9835 0.0000 0.0000 0.0000
# 3 16.7480 28.9835 132.6344 0.0000 0.0000 0.0000
# 4 0.0000 0.0000 0.0000 22.2894 0.0000 0.0000
# 5 0.0000 0.0000 0.0000 0.0000 13.4172 0.0000
# 6 0.0000 0.0000 0.0000 0.0000 0.0000 -609.4373
#
#
#
# Elastic Compliance Matrix: (Units=1/GPa)
#
#
# Indices 1 2 3 4 5 6 
#
# 1 0.022205 -0.004125 -0.001902 0.000000 0.000000 0.000000
# 2 -0.004125 0.012060 -0.002115 0.000000 0.000000 0.000000
# 3 -0.001902 -0.002115 0.008242 0.000000 0.000000 0.000000
# 4 0.000000 0.000000 0.000000 0.044864 0.000000 0.000000
# 5 0.000000 0.000000 0.000000 0.000000 0.074531 0.000000
# 6 0.000000 0.000000 0.000000 0.000000 0.000000 -0.001641
#
#
# Mechanical properties :
#
#
# Convention : Reuss Voigt Hill
#
# Bulk Modulus (GPa) = 38.13514 45.48889 41.81202
# Shear Modulus (GPa) = 26.98502 -100.62118 -36.81808
#
# Velocity S-wave (km/s) = 3.45509 -6.67179 -4.03579
# Velocity P-wave (km/s) = 5.72600 6.26315 1.79443
#
# Compressibility (1/GPa) = 0.02622253
#
# Stress axis : x y z
#
# Youngs Moduli (GPa) = 45.03480 82.91546 121.33258
#
# Poissons Ratio (x) = 0.34207 0.23082
# Poissons Ratio (y) = 0.18579 0.25656
# Poissons Ratio (z) = 0.08567 0.17533
#
# Static dielectric constant tensor:
#      x y z
#    x 1.885010 0.000000 0.000000 
#    y 0.000000 1.848950 0.000000 
#    z 0.000000 0.000000 1.923570 
# 
# From -- ./inp_files/868.got.cif
#   From: 2010.05.17/outbox.cif.g08.bks.cpg/sg39_1_cif.got.tgz:868.got - 2010.06.03 18:22:40.
