data_PCOD9360960
_publ_section_title
;
Structure prediction by ZEFSAII (Michael W. Deem and Ramdas Pophale) SiO2 
 PCOD9360960
Probable space group: A B M 2
;
_chemical_formula_sum "Si O2"
_cell_formula_units_Z 60
_cell_length_a 8.041475
_cell_length_b 11.521098
_cell_length_c 27.077058
_cell_angle_alpha 90.000000
_cell_angle_beta 90.000000
_cell_angle_gamma 90.000000
_cell_volume 2508.597945
_symmetry_space_group_name_H-M "A B M 2"
_symmetry_group_IT_number 39
_symmetry_cell_setting 'orthorhombic'
loop_
_space_group_symop_operation_xyz
x,y,z
-x,-y,z
-x,1/2+y,z
x,1/2-y,z
x,1/2+y,1/2+z
-x,1/2-y,1/2+z
-x,y,1/2+z
x,-y,1/2+z
loop_
_atom_site_type_symbol
_atom_site_label
_atom_site_fract_x
_atom_site_fract_y
_atom_site_fract_z
Si Si1 0.187646 0.018087 0.471600
Si Si2 0.099081 0.373367 0.721069
Si Si3 0.550356 0.872416 0.665809
Si Si4 0.690047 0.011446 0.304175
Si Si5 0.898911 0.877649 0.371214
Si Si6 0.395125 0.620577 0.403917
Si Si7 0.000000 0.000000 0.136086
Si Si8 0.721334 0.616942 0.570132
O O1 0.171200 0.109050 0.426620
O O2 0.298779 0.063682 0.516210
O O3 0.254740 0.901770 0.445363
O O4 0.000000 0.000000 0.490508
O O5 0.055914 0.250000 0.743949
O O6 0.263856 0.362761 0.687427
O O7 0.170923 0.455214 0.764155
O O8 0.962255 0.404036 0.678986
O O9 0.465473 0.750000 0.680611
O O10 0.563499 0.875690 0.606259
O O11 0.500000 0.000000 0.681304
O O12 0.675934 0.105944 0.348417
O O13 0.500000 0.000000 0.285894
O O14 0.751420 0.895287 0.331699
O O15 0.975374 0.750000 0.365803
O O16 0.000000 0.000000 0.365297
O O17 0.500000 0.500000 0.409707
O O18 0.465980 0.750000 0.409614
O O19 0.147248 0.960705 0.100676
O O20 0.784305 0.750000 0.565378
#
# Coordination Sequence:
#
# PCOD9360960 Si02
#       8
#     8   8   8   8   8   8   4   8
#     4  10  21  38  63  92 123 163 212 264 315 375
#     4  10  21  38  61  85 117 161 206 259 320 374
#     4   9  19  37  59  84 117 153 198 251 312 371
#     4  10  22  39  64  93 126 167 215 261 315 382
#     4  10  23  41  62  94 132 169 213 263 317 380
#     4  10  23  42  64  94 133 174 217 264 321 386
#     4  10  20  38  56  86 116 152 208 256 318 386
#     4  10  20  37  60  84 118 161 204 256 319 376
#
# _framework density 23.917740999999999
#
# number of rings (size 3 to 8) (size 9 to 14) (size 15 to 20)
#    0.000    2.133    0.667    2.400    0.933   12.267 
#    0.000    8.667    0.000    0.000    0.000    0.000 
#    0.000    0.000    0.000    0.000    0.000    0.000 
#
# Total GULP energy -167025.572945 kJ/mol
# GULP energy per Si atom -5567.519098 kJ/mol
# Density = 2.386330 g / cm^3
# Si number density = 23.917741 Si / 1000 Ang^3
#
#
#
# Elastic Constant Matrix: (Units=GPa)
#
#
# Indices 1 2 3 4 5 6 
#
# 1 48.0840 40.9944 12.2782 0.0000 0.0000 0.0000
# 2 40.9944 184.5317 38.5543 0.0000 0.0000 0.0000
# 3 12.2782 38.5543 150.4650 0.0000 0.0000 0.0000
# 4 0.0000 0.0000 0.0000 -4.5254 0.0000 0.0000
# 5 0.0000 0.0000 0.0000 0.0000 15.0157 0.0000
# 6 0.0000 0.0000 0.0000 0.0000 0.0000 29.7418
#
#
#
# Elastic Compliance Matrix: (Units=1/GPa)
#
#
# Indices 1 2 3 4 5 6 
#
# 1 0.025720 -0.005574 -0.000671 0.000000 0.000000 0.000000
# 2 -0.005574 0.006933 -0.001322 0.000000 0.000000 0.000000
# 3 -0.000671 -0.001322 0.007039 0.000000 0.000000 0.000000
# 4 0.000000 0.000000 0.000000 -0.220977 0.000000 0.000000
# 5 0.000000 0.000000 0.000000 0.000000 0.066597 0.000000
# 6 0.000000 0.000000 0.000000 0.000000 0.000000 0.033623
#
#
# Mechanical properties :
#
#
# Convention : Reuss Voigt Hill
#
# Bulk Modulus (GPa) = 40.71523 62.97050 51.84286
# Shear Modulus (GPa) = -86.58817 27.46333 -29.56242
#
# Velocity S-wave (km/s) = -6.02338 3.39225 -3.51950
# Velocity P-wave (km/s) = 5.59596 6.45974 2.28182
#
# Compressibility (1/GPa) = 0.02456083
#
# Stress axis : x y z
#
# Youngs Moduli (GPa) = 38.88016 144.22733 142.05604
#
# Poissons Ratio (x) = 0.80388 0.09527
# Poissons Ratio (y) = 0.21671 0.18777
# Poissons Ratio (z) = 0.02607 0.19064
#
# Static dielectric constant tensor:
#      x y z
#    x 2.081590 0.000000 0.000000 
#    y 0.000000 2.037800 0.000000 
#    z 0.000000 0.000000 1.906880 
# 
# From -- ./inp_files/16864.got.cif
#   From: 2010.05.17/outbox.cif.g08.bks.cpg/sg39_9_cif.got.tgz:16864.got - 2010.06.03 18:22:40.
