data_PCOD9360884
_publ_section_title
;
Structure prediction by ZEFSAII (Michael W. Deem and Ramdas Pophale) SiO2 
 PCOD9360884
Probable space group: A B M 2
;
_chemical_formula_sum "Si O2"
_cell_formula_units_Z 64
_cell_length_a 11.560653
_cell_length_b 26.903509
_cell_length_c 9.888540
_cell_angle_alpha 90.000000
_cell_angle_beta 90.000000
_cell_angle_gamma 90.000000
_cell_volume 3075.554793
_symmetry_space_group_name_H-M "A B M 2"
_symmetry_group_IT_number 39
_symmetry_cell_setting 'orthorhombic'
loop_
_space_group_symop_operation_xyz
x,y,z
-x,-y,z
-x,1/2+y,z
x,1/2-y,z
x,1/2+y,1/2+z
-x,1/2-y,1/2+z
-x,y,1/2+z
x,-y,1/2+z
loop_
_atom_site_type_symbol
_atom_site_label
_atom_site_fract_x
_atom_site_fract_y
_atom_site_fract_z
Si Si1 0.137585 0.509725 0.322420
Si Si2 0.378481 0.193800 0.425960
Si Si3 0.169251 0.942873 0.058180
Si Si4 0.779669 0.339965 0.703227
Si Si5 0.237150 0.838918 0.171661
Si Si6 0.083188 0.098544 0.009902
Si Si7 0.646681 0.192498 0.437516
Si Si8 0.018815 0.193564 0.826964
O O1 0.187736 0.516646 0.174432
O O2 0.192752 0.466869 0.413615
O O3 0.143975 0.562248 0.402584
O O4 0.000000 0.500000 0.311869
O O5 0.374927 0.250000 0.367732
O O6 0.316726 0.157816 0.318943
O O7 0.307022 0.193291 0.564290
O O8 0.511459 0.181329 0.455736
O O9 0.230181 0.892619 0.102585
O O10 0.033034 0.928728 0.057464
O O11 0.837575 0.388733 0.637879
O O12 0.718805 0.314735 0.574168
O O13 0.889022 0.312034 0.770805
O O14 0.301288 0.839203 0.315358
O O15 0.110238 0.817560 0.206661
O O16 0.044806 0.150041 0.935862
O O17 0.657546 0.250000 0.395652
O O18 0.037048 0.250000 0.877339
#
# Coordination Sequence:
#
# PCOD9360884 Si02
#       8
#     8   8   8   8   8   8   8   8
#     4  10  20  36  60  84 122 166 207 255 315 383
#     4  11  25  41  60  88 123 172 233 277 309 369
#     4  11  22  38  60  93 124 166 206 263 328 388
#     4  12  23  38  61  90 126 169 219 261 326 380
#     4  12  23  41  62  92 133 168 209 266 335 391
#     4  11  21  40  58  89 132 167 213 252 317 395
#     4  11  23  42  63  85 122 177 232 273 308 368
#     4  12  24  36  59  93 138 176 204 249 325 409
#
# _framework density 20.809253999999999
#
# number of rings (size 3 to 8) (size 9 to 14) (size 15 to 20)
#    0.000    0.750    3.750    4.875    0.000    6.000 
#    0.000    0.000    0.000    0.000    0.000   14.875 
#    0.000    0.000    0.000    0.000    0.000    0.000 
#
# Total GULP energy -178965.242777 kJ/mol
# GULP energy per Si atom -5592.663837 kJ/mol
# Density = 2.076189 g / cm^3
# Si number density = 20.809254 Si / 1000 Ang^3
#
#
#
# Elastic Constant Matrix: (Units=GPa)
#
#
# Indices 1 2 3 4 5 6 
#
# 1 96.6726 19.2335 34.4061 0.0000 0.0000 0.0000
# 2 19.2335 87.2489 29.6006 0.0000 0.0000 0.0000
# 3 34.4061 29.6006 104.0060 0.0000 0.0000 0.0000
# 4 0.0000 0.0000 0.0000 38.5078 0.0000 0.0000
# 5 0.0000 0.0000 0.0000 0.0000 25.3751 0.0000
# 6 0.0000 0.0000 0.0000 0.0000 0.0000 18.3955
#
#
#
# Elastic Compliance Matrix: (Units=1/GPa)
#
#
# Indices 1 2 3 4 5 6 
#
# 1 0.011882 -0.001423 -0.003526 0.000000 0.000000 0.000000
# 2 -0.001423 0.012857 -0.003188 0.000000 0.000000 0.000000
# 3 -0.003526 -0.003188 0.011689 0.000000 0.000000 0.000000
# 4 0.000000 0.000000 0.000000 0.025969 0.000000 0.000000
# 5 0.000000 0.000000 0.000000 0.000000 0.039409 0.000000
# 6 0.000000 0.000000 0.000000 0.000000 0.000000 0.054361
#
#
# Mechanical properties :
#
#
# Convention : Reuss Voigt Hill
#
# Bulk Modulus (GPa) = 49.61990 50.48976 50.05483
# Shear Modulus (GPa) = 27.90826 30.10149 29.00488
#
# Velocity S-wave (km/s) = 3.66614 3.80747 3.73747
# Velocity P-wave (km/s) = 6.46666 6.60643 6.53692
#
# Compressibility (1/GPa) = 0.02015321
#
# Stress axis : x y z
#
# Youngs Moduli (GPa) = 84.15989 77.77928 85.55369
#
# Poissons Ratio (x) = 0.11070 0.30163
# Poissons Ratio (y) = 0.11978 0.27277
# Poissons Ratio (z) = 0.29672 0.24799
#
# Static dielectric constant tensor:
#      x y z
#    x 1.725340 0.000000 0.000000 
#    y 0.000000 1.779480 0.000000 
#    z 0.000000 0.000000 1.767570 
# 
# From -- ./inp_files/2925.got.cif
#   From: 2010.05.17/outbox.cif.g08.bks.cpg/sg39_2_cif.got.tgz:2925.got - 2010.06.03 18:22:40.
