data_PCOD9360734
_publ_section_title
;
Structure prediction by ZEFSAII (Michael W. Deem and Ramdas Pophale) SiO2 
 PCOD9360734
Probable space group: A B M 2
;
_chemical_formula_sum "Si O2"
_cell_formula_units_Z 48
_cell_length_a 8.076934
_cell_length_b 17.875497
_cell_length_c 14.178049
_cell_angle_alpha 90.000000
_cell_angle_beta 90.000000
_cell_angle_gamma 90.000000
_cell_volume 2047.015507
_symmetry_space_group_name_H-M "A B M 2"
_symmetry_group_IT_number 39
_symmetry_cell_setting 'orthorhombic'
loop_
_space_group_symop_operation_xyz
x,y,z
-x,-y,z
-x,1/2+y,z
x,1/2-y,z
x,1/2+y,1/2+z
-x,1/2-y,1/2+z
-x,y,1/2+z
x,-y,1/2+z
loop_
_atom_site_type_symbol
_atom_site_label
_atom_site_fract_x
_atom_site_fract_y
_atom_site_fract_z
Si Si1 0.249613 0.163742 0.647590
Si Si2 0.260054 0.838827 0.702745
Si Si3 0.089251 0.663834 0.527775
Si Si4 0.567880 0.585025 0.793212
Si Si5 0.427483 0.422472 0.485966
Si Si6 0.914901 0.076412 0.866857
O O1 0.279877 0.250000 0.675224
O O2 0.071413 0.161886 0.596993
O O3 0.268892 0.106650 0.735231
O O4 0.375189 0.135906 0.565464
O O5 0.238187 0.750000 0.701067
O O6 0.436327 0.861191 0.742818
O O7 0.134835 0.874806 0.777353
O O8 0.231195 0.866916 0.596402
O O9 0.121851 0.750000 0.501995
O O10 0.038769 0.618147 0.437090
O O11 0.500000 0.500000 0.781277
O O12 0.556029 0.602303 0.904262
O O13 0.500000 0.500000 0.525824
O O14 0.256196 0.437176 0.426353
O O15 0.000000 0.000000 0.838528
#
# Coordination Sequence:
#
# PCOD9360734 Si02
#       6
#     8   8   8   8   8   8
#     4  10  20  35  56  80 108 143 182 225 273 325
#     4  10  21  38  59  81 110 147 184 224 272 327
#     4   9  20  37  55  78 108 143 182 222 268 323
#     4  10  21  36  56  81 108 142 182 227 273 324
#     4   9  20  37  54  75 107 142 178 221 271 325
#     4  10  21  35  56  81 108 143 181 225 274 324
#
# _framework density 23.448771000000001
#
# number of rings (size 3 to 8) (size 9 to 14) (size 15 to 20)
#    0.000    2.333    0.000    1.500    0.000   13.333 
#    0.000    0.000    0.000    5.000    0.000    0.000 
#    0.000    0.000    0.000    0.000    0.000    0.000 
#
# Total GULP energy -134247.710602 kJ/mol
# GULP energy per Si atom -5593.654608 kJ/mol
# Density = 2.339540 g / cm^3
# Si number density = 23.448771 Si / 1000 Ang^3
#
#
#
# Elastic Constant Matrix: (Units=GPa)
#
#
# Indices 1 2 3 4 5 6 
#
# 1 46.5857 8.5079 11.0362 0.0000 0.0000 0.0000
# 2 8.5079 81.7306 28.7256 0.0000 0.0000 0.0000
# 3 11.0362 28.7256 89.1593 0.0000 0.0000 0.0000
# 4 0.0000 0.0000 0.0000 50.0968 0.0000 0.0000
# 5 0.0000 0.0000 0.0000 0.0000 41.7130 0.0000
# 6 0.0000 0.0000 0.0000 0.0000 0.0000 27.4166
#
#
#
# Elastic Compliance Matrix: (Units=1/GPa)
#
#
# Indices 1 2 3 4 5 6 
#
# 1 0.022281 -0.001522 -0.002267 0.000000 0.000000 0.000000
# 2 -0.001522 0.013902 -0.004290 0.000000 0.000000 0.000000
# 3 -0.002267 -0.004290 0.012879 0.000000 0.000000 0.000000
# 4 0.000000 0.000000 0.000000 0.019961 0.000000 0.000000
# 5 0.000000 0.000000 0.000000 0.000000 0.023973 0.000000
# 6 0.000000 0.000000 0.000000 0.000000 0.000000 0.036474
#
#
# Mechanical properties :
#
#
# Convention : Reuss Voigt Hill
#
# Bulk Modulus (GPa) = 30.39429 34.89055 32.64242
# Shear Modulus (GPa) = 31.92884 35.12569 33.52727
#
# Velocity S-wave (km/s) = 3.69405 3.87457 3.78538
# Velocity P-wave (km/s) = 5.58433 5.91000 5.74948
#
# Compressibility (1/GPa) = 0.03290091
#
# Stress axis : x y z
#
# Youngs Moduli (GPa) = 44.88129 71.93336 77.64669
#
# Poissons Ratio (x) = 0.10951 0.17606
# Poissons Ratio (y) = 0.06833 0.33314
# Poissons Ratio (z) = 0.10177 0.30863
#
# Static dielectric constant tensor:
#      x y z
#    x 2.030810 0.000000 0.000000 
#    y 0.000000 1.710500 0.000000 
#    z 0.000000 0.000000 1.851850 
# 
# From -- ./inp_files/8314.got.cif
#   From: 2010.05.17/outbox.cif.g08.bks.cpg/sg39_5_cif.got.tgz:8314.got - 2010.06.03 18:22:40.
