data_PCOD9360985
_publ_section_title
;
Structure prediction by ZEFSAII (Michael W. Deem and Ramdas Pophale) SiO2 
 PCOD9360985
Probable space group: A B M 2
;
_chemical_formula_sum "Si O2"
_cell_formula_units_Z 56
_cell_length_a 15.130692
_cell_length_b 15.955064
_cell_length_c 10.006922
_cell_angle_alpha 90.000000
_cell_angle_beta 90.000000
_cell_angle_gamma 90.000000
_cell_volume 2415.782640
_symmetry_space_group_name_H-M "A B M 2"
_symmetry_group_IT_number 39
_symmetry_cell_setting 'orthorhombic'
loop_
_space_group_symop_operation_xyz
x,y,z
-x,-y,z
-x,1/2+y,z
x,1/2-y,z
x,1/2+y,1/2+z
-x,1/2-y,1/2+z
-x,y,1/2+z
x,-y,1/2+z
loop_
_atom_site_type_symbol
_atom_site_label
_atom_site_fract_x
_atom_site_fract_y
_atom_site_fract_z
Si Si1 0.326579 0.842935 0.100870
Si Si2 0.571849 0.426052 0.476735
Si Si3 0.941548 0.155495 0.046521
Si Si4 0.224982 0.156077 0.344628
Si Si5 0.254967 0.973313 0.305644
Si Si6 0.505428 0.398885 0.725474
Si Si7 0.936673 0.579269 0.840158
O O1 0.299275 0.750000 0.148386
O O2 0.274487 0.915692 0.177636
O O3 0.426470 0.860924 0.138425
O O4 0.308702 0.844682 0.944175
O O5 0.500000 0.500000 0.502850
O O6 0.660644 0.459320 0.404282
O O7 0.587292 0.388215 0.624839
O O8 0.520553 0.366410 0.371831
O O9 0.937358 0.250000 0.096881
O O10 0.857264 0.144417 0.948026
O O11 0.024594 0.143689 0.948071
O O12 0.943358 0.101921 0.182396
O O13 0.216625 0.250000 0.284654
O O14 0.235149 0.069545 0.266073
O O15 0.164810 0.940693 0.370559
O O16 0.500000 0.500000 0.750217
O O17 0.000000 0.500000 0.861946
#
# Coordination Sequence:
#
# PCOD9360985 Si02
#       7
#     8   8   8   8   8   8   8
#     4  10  21  38  65  95 128 176 231 277 339 419
#     4   9  18  34  59  92 122 169 223 266 338 403
#     4  11  24  42  66  94 132 178 227 288 344 410
#     4  10  20  37  61  94 127 171 228 280 338 405
#     4  11  22  39  67  93 134 181 229 289 336 416
#     4   9  17  33  57  88 126 165 217 267 331 405
#     4  12  24  42  65  97 135 178 236 282 351 412
#
# _framework density 23.180892
#
# number of rings (size 3 to 8) (size 9 to 14) (size 15 to 20)
#    0.000    1.714    2.857    2.571    0.000    0.571 
#    0.000    2.857    0.000   14.571    0.000    0.000 
#    0.000    0.000    0.000    0.000    0.000    0.000 
#
# Total GULP energy -156014.455758 kJ/mol
# GULP energy per Si atom -5571.944848 kJ/mol
# Density = 2.312813 g / cm^3
# Si number density = 23.180892 Si / 1000 Ang^3
#
#
#
# Elastic Constant Matrix: (Units=GPa)
#
#
# Indices 1 2 3 4 5 6 
#
# 1 110.5690 1.9952 13.4827 0.0000 0.0000 0.0000
# 2 1.9952 118.4508 15.9203 0.0000 0.0000 0.0000
# 3 13.4827 15.9203 77.7934 0.0000 0.0000 0.0000
# 4 0.0000 0.0000 0.0000 24.8057 0.0000 0.0000
# 5 0.0000 0.0000 0.0000 0.0000 21.9795 0.0000
# 6 0.0000 0.0000 0.0000 0.0000 0.0000 18.8274
#
#
#
# Elastic Compliance Matrix: (Units=1/GPa)
#
#
# Indices 1 2 3 4 5 6 
#
# 1 0.009240 0.000061 -0.001614 0.000000 0.000000 0.000000
# 2 0.000061 0.008682 -0.001787 0.000000 0.000000 0.000000
# 3 -0.001614 -0.001787 0.013500 0.000000 0.000000 0.000000
# 4 0.000000 0.000000 0.000000 0.040313 0.000000 0.000000
# 5 0.000000 0.000000 0.000000 0.000000 0.045497 0.000000
# 6 0.000000 0.000000 0.000000 0.000000 0.000000 0.053114
#
#
# Mechanical properties :
#
#
# Convention : Reuss Voigt Hill
#
# Bulk Modulus (GPa) = 40.41791 41.06775 40.74283
# Shear Modulus (GPa) = 26.98722 31.48352 29.23537
#
# Velocity S-wave (km/s) = 3.41574 3.68933 3.55517
# Velocity P-wave (km/s) = 5.74718 5.99190 5.87082
#
# Compressibility (1/GPa) = 0.02474151
#
# Stress axis : x y z
#
# Youngs Moduli (GPa) = 108.22722 115.18738 74.07388
#
# Poissons Ratio (x) = -0.00706 0.11955
# Poissons Ratio (y) = -0.00663 0.13239
# Poissons Ratio (z) = 0.17467 0.20587
#
# Static dielectric constant tensor:
#      x y z
#    x 1.940140 0.000000 0.000000 
#    y 0.000000 1.940720 0.000000 
#    z 0.000000 0.000000 1.974220 
# 
# From -- ./inp_files/6500.got.cif
#   From: 2010.05.17/outbox.cif.g08.bks.cpg/sg39_4_cif.got.tgz:6500.got - 2010.06.03 18:22:40.
