data_PCOD9360207
_publ_section_title
;
Structure prediction by ZEFSAII (Michael W. Deem and Ramdas Pophale) SiO2 
 PCOD9360207
Probable space group: A B M 2
;
_chemical_formula_sum "Si O2"
_cell_formula_units_Z 64
_cell_length_a 5.545336
_cell_length_b 26.636623
_cell_length_c 19.870102
_cell_angle_alpha 90.000000
_cell_angle_beta 90.000000
_cell_angle_gamma 90.000000
_cell_volume 2934.993382
_symmetry_space_group_name_H-M "A B M 2"
_symmetry_group_IT_number 39
_symmetry_cell_setting 'orthorhombic'
loop_
_space_group_symop_operation_xyz
x,y,z
-x,-y,z
-x,1/2+y,z
x,1/2-y,z
x,1/2+y,1/2+z
-x,1/2-y,1/2+z
-x,y,1/2+z
x,-y,1/2+z
loop_
_atom_site_type_symbol
_atom_site_label
_atom_site_fract_x
_atom_site_fract_y
_atom_site_fract_z
Si Si1 0.543001 0.689934 0.629300
Si Si2 0.251134 0.487506 0.750332
Si Si3 0.066963 0.128531 0.433180
Si Si4 0.563041 0.194892 0.863947
Si Si5 0.251602 0.025702 0.404058
Si Si6 0.785022 0.623289 0.803464
Si Si7 0.267012 0.193575 0.000719
Si Si8 0.039781 0.189027 0.199969
O O1 0.550517 0.750000 0.636555
O O2 0.480776 0.679781 0.551501
O O3 0.804843 0.673493 0.655123
O O4 0.297891 0.674405 0.668566
O O5 0.500000 0.500000 0.714460
O O6 0.250733 0.519608 0.821535
O O7 0.251679 0.428774 0.766694
O O8 0.000000 0.500000 0.715401
O O9 0.198571 0.176089 0.400108
O O10 0.249307 0.082203 0.432616
O O11 0.872593 0.109599 0.378323
O O12 0.933921 0.150531 0.497904
O O13 0.587850 0.250000 0.833697
O O14 0.455758 0.155834 0.811322
O O15 0.371234 0.197209 0.925392
O O16 0.500000 0.000000 0.425575
O O17 0.000000 0.000000 0.426123
O O18 0.981402 0.658837 0.767912
O O19 0.177327 0.250000 0.020015
O O20 0.034694 0.250000 0.208346
#
# Coordination Sequence:
#
# PCOD9360207 Si02
#       8
#     8   8   8   8   8   8   8   8
#     4   9  20  39  58  78 109 151 202 245 273 324
#     4  10  19  33  53  77 110 143 186 230 275 332
#     4  11  21  33  56  84 117 153 187 240 292 359
#     4  10  21  33  51  81 121 157 183 221 287 356
#     4  10  19  34  52  76 112 147 185 227 277 338
#     4  11  22  35  53  83 121 150 190 234 290 359
#     4   9  20  36  55  82 114 153 199 241 285 339
#     4  10  22  37  57  82 113 155 194 236 286 337
#
# _framework density 21.805842999999999
#
# number of rings (size 3 to 8) (size 9 to 14) (size 15 to 20)
#    0.000    2.000    2.500    2.250    5.250    1.500 
#    0.000    0.000    0.000    0.000    0.000    3.500 
#    0.000    0.000    0.000    0.000    0.000    0.000 
#
# Total GULP energy -178570.748424 kJ/mol
# GULP energy per Si atom -5580.335888 kJ/mol
# Density = 2.175621 g / cm^3
# Si number density = 21.805843 Si / 1000 Ang^3
#
#
#
# Elastic Constant Matrix: (Units=GPa)
#
#
# Indices 1 2 3 4 5 6 
#
# 1 133.5548 21.7350 18.6773 0.0000 0.0000 0.0000
# 2 21.7350 73.5719 11.7896 0.0000 0.0000 0.0000
# 3 18.6773 11.7896 41.4186 0.0000 0.0000 0.0000
# 4 0.0000 0.0000 0.0000 8.8213 0.0000 0.0000
# 5 0.0000 0.0000 0.0000 0.0000 24.0239 0.0000
# 6 0.0000 0.0000 0.0000 0.0000 0.0000 10.5024
#
#
#
# Elastic Compliance Matrix: (Units=1/GPa)
#
#
# Indices 1 2 3 4 5 6 
#
# 1 0.008244 -0.001928 -0.003169 0.000000 0.000000 0.000000
# 2 -0.001928 0.014693 -0.003313 0.000000 0.000000 0.000000
# 3 -0.003169 -0.003313 0.026516 0.000000 0.000000 0.000000
# 4 0.000000 0.000000 0.000000 0.113363 0.000000 0.000000
# 5 0.000000 0.000000 0.000000 0.000000 0.041625 0.000000
# 6 0.000000 0.000000 0.000000 0.000000 0.000000 0.095216
#
#
# Mechanical properties :
#
#
# Convention : Reuss Voigt Hill
#
# Bulk Modulus (GPa) = 30.64337 39.21655 34.92996
# Shear Modulus (GPa) = 15.27399 21.75908 18.51653
#
# Velocity S-wave (km/s) = 2.64948 3.16231 2.91719
# Velocity P-wave (km/s) = 4.84180 5.59974 5.23450
#
# Compressibility (1/GPa) = 0.03263348
#
# Stress axis : x y z
#
# Youngs Moduli (GPa) = 121.29332 68.06183 37.71338
#
# Poissons Ratio (x) = 0.13121 0.11951
# Poissons Ratio (y) = 0.23383 0.12494
# Poissons Ratio (z) = 0.38438 0.22548
#
# Static dielectric constant tensor:
#      x y z
#    x 1.872870 0.000000 0.000000 
#    y 0.000000 1.794300 0.000000 
#    z 0.000000 0.000000 1.830060 
# 
# From -- ./inp_files/13647.got.cif
#   From: 2010.05.17/outbox.cif.g08.bks.cpg/sg39_7_cif.got.tgz:13647.got - 2010.06.03 18:22:40.
