data_PCOD9360411
_publ_section_title
;
Structure prediction by ZEFSAII (Michael W. Deem and Ramdas Pophale) SiO2 
 PCOD9360411
Probable space group: A B M 2
;
_chemical_formula_sum "Si O2"
_cell_formula_units_Z 48
_cell_length_a 11.405257
_cell_length_b 14.033163
_cell_length_c 17.083894
_cell_angle_alpha 90.000000
_cell_angle_beta 90.000000
_cell_angle_gamma 90.000000
_cell_volume 2734.308507
_symmetry_space_group_name_H-M "A B M 2"
_symmetry_group_IT_number 39
_symmetry_cell_setting 'orthorhombic'
loop_
_space_group_symop_operation_xyz
x,y,z
-x,-y,z
-x,1/2+y,z
x,1/2-y,z
x,1/2+y,1/2+z
-x,1/2-y,1/2+z
-x,y,1/2+z
x,-y,1/2+z
loop_
_atom_site_type_symbol
_atom_site_label
_atom_site_fract_x
_atom_site_fract_y
_atom_site_fract_z
Si Si1 0.470004 0.388766 0.945800
Si Si2 0.638048 0.972984 0.663182
Si Si3 0.282044 0.639448 0.316397
Si Si4 0.865581 0.027734 0.444885
Si Si5 0.265574 0.859597 0.572805
Si Si6 0.711892 0.355460 0.009045
O O1 0.500000 0.500000 0.944669
O O2 0.399362 0.360073 0.869298
O O3 0.381919 0.366741 0.017555
O O4 0.596088 0.344872 0.957069
O O5 0.686108 0.918007 0.738485
O O6 0.665011 0.904980 0.588734
O O7 0.500000 0.000000 0.668836
O O8 0.708124 0.070432 0.644645
O O9 0.247290 0.750000 0.302798
O O10 0.188634 0.581406 0.369485
O O11 0.837399 0.097802 0.518254
O O12 0.795713 0.931054 0.466588
O O13 0.000000 0.000000 0.435793
O O14 0.245954 0.750000 0.593279
O O15 0.762603 0.250000 0.023198
#
# Coordination Sequence:
#
# PCOD9360411 Si02
#       6
#     8   8   8   8   8   8
#     4  11  16  34  55  83 116 145 181 234 287 348
#     4  11  21  35  54  89 126 149 182 228 286 360
#     4  11  23  37  57  82 116 158 193 231 290 350
#     4  10  22  40  60  82 111 151 204 249 276 325
#     4  10  19  35  61  86 114 150 185 228 289 347
#     4  11  20  34  58  86 114 147 188 240 293 341
#
# _framework density 17.554711999999999
#
# number of rings (size 3 to 8) (size 9 to 14) (size 15 to 20)
#    0.000    1.333    6.667    4.000    0.000    2.000 
#    0.000    4.167    0.000    4.000    0.000    0.000 
#    0.000    0.000    0.000    0.000    0.000    0.000 
#
# Total GULP energy -133838.576918 kJ/mol
# GULP energy per Si atom -5576.607372 kJ/mol
# Density = 1.751476 g / cm^3
# Si number density = 17.554712 Si / 1000 Ang^3
#
#
#
# Elastic Constant Matrix: (Units=GPa)
#
#
# Indices 1 2 3 4 5 6 
#
# 1 115.7129 55.4691 62.2667 0.0000 0.0000 0.0000
# 2 55.4691 198.3940 65.9657 0.0000 0.0000 0.0000
# 3 62.2667 65.9657 103.6140 0.0000 0.0000 0.0000
# 4 0.0000 0.0000 0.0000 12.9957 0.0000 0.0000
# 5 0.0000 0.0000 0.0000 0.0000 7.0153 0.0000
# 6 0.0000 0.0000 0.0000 0.0000 0.0000 8.4699
#
#
#
# Elastic Compliance Matrix: (Units=1/GPa)
#
#
# Indices 1 2 3 4 5 6 
#
# 1 0.013039 -0.001320 -0.006996 0.000000 0.000000 0.000000
# 2 -0.001320 0.006528 -0.003363 0.000000 0.000000 0.000000
# 3 -0.006996 -0.003363 0.015996 0.000000 0.000000 0.000000
# 4 0.000000 0.000000 0.000000 0.076949 0.000000 0.000000
# 5 0.000000 0.000000 0.000000 0.000000 0.142546 0.000000
# 6 0.000000 0.000000 0.000000 0.000000 0.000000 0.118066
#
#
# Mechanical properties :
#
#
# Convention : Reuss Voigt Hill
#
# Bulk Modulus (GPa) = 81.92208 87.23598 84.57903
# Shear Modulus (GPa) = 12.48289 21.29746 16.89018
#
# Velocity S-wave (km/s) = 2.66951 3.48689 3.10521
# Velocity P-wave (km/s) = 7.50132 8.12483 7.81929
#
# Compressibility (1/GPa) = 0.01220672
#
# Stress axis : x y z
#
# Youngs Moduli (GPa) = 76.69213 153.19762 62.51483
#
# Poissons Ratio (x) = 0.20215 0.43734
# Poissons Ratio (y) = 0.10120 0.21022
# Poissons Ratio (z) = 0.53652 0.51517
#
# Static dielectric constant tensor:
#      x y z
#    x 1.576980 0.000000 0.000000 
#    y 0.000000 1.628580 0.000000 
#    z 0.000000 0.000000 1.599310 
# 
# From -- ./inp_files/9205.got.cif
#   From: 2010.05.17/outbox.cif.g08.bks.cpg/sg39_5_cif.got.tgz:9205.got - 2010.06.03 18:22:40.
