data_PCOD9360846
_publ_section_title
;
Structure prediction by ZEFSAII (Michael W. Deem and Ramdas Pophale) SiO2 
 PCOD9360846
Probable space group: A B M 2
;
_chemical_formula_sum "Si O2"
_cell_formula_units_Z 64
_cell_length_a 5.322176
_cell_length_b 14.100261
_cell_length_c 37.200800
_cell_angle_alpha 90.000000
_cell_angle_beta 90.000000
_cell_angle_gamma 90.000000
_cell_volume 2791.699465
_symmetry_space_group_name_H-M "A B M 2"
_symmetry_group_IT_number 39
_symmetry_cell_setting 'orthorhombic'
loop_
_space_group_symop_operation_xyz
x,y,z
-x,-y,z
-x,1/2+y,z
x,1/2-y,z
x,1/2+y,1/2+z
-x,1/2-y,1/2+z
-x,y,1/2+z
x,-y,1/2+z
loop_
_atom_site_type_symbol
_atom_site_label
_atom_site_fract_x
_atom_site_fract_y
_atom_site_fract_z
Si Si1 0.360587 0.362672 0.810220
Si Si2 0.249784 0.938037 0.923052
Si Si3 0.250216 0.938037 0.232712
Si Si4 0.345302 0.366288 0.117273
Si Si5 0.860587 0.362673 0.845544
Si Si6 0.848497 0.637342 0.654695
Si Si7 0.154698 0.633712 0.538490
Si Si8 0.651502 0.862658 0.501069
O O1 0.376101 0.250000 0.816596
O O2 0.291126 0.379087 0.768963
O O3 0.634987 0.400941 0.820653
O O4 0.134987 0.400941 0.835110
O O5 0.208873 0.879088 0.886800
O O6 0.285550 0.880506 0.959724
O O7 0.500000 0.000000 0.918273
O O8 0.000000 0.000000 0.927499
O O9 0.214450 0.880507 0.196040
O O10 0.500000 0.000000 0.228265
O O11 0.000000 0.000000 0.237491
O O12 0.355923 0.250000 0.117363
O O13 0.621429 0.398719 0.129449
O O14 0.250000 0.394422 0.077882
O O15 0.126750 0.397861 0.144712
O O16 0.876101 0.250000 0.839168
O O17 0.858123 0.750000 0.648539
O O18 0.144076 0.750000 0.538401
O O19 0.373249 0.602138 0.511052
O O20 0.878570 0.601280 0.526314
O O21 0.641876 0.750000 0.507225
#
# Coordination Sequence:
#
# PCOD9360846 Si02
#       8
#     8   8   8   8   8   8   8   8
#     4  10  22  41  64  88 114 146 187 233 280 333
#     4  12  25  39  58  84 118 154 188 230 277 333
#     4  12  25  39  58  84 118 154 188 230 277 333
#     4   9  17  31  56  87 111 138 186 243 287 326
#     4  10  22  41  64  88 114 146 187 233 280 333
#     4  10  20  36  58  82 112 149 189 233 281 335
#     4   9  17  31  56  87 111 138 186 243 287 326
#     4  10  20  36  58  82 112 149 189 233 281 335
#
# _framework density 22.925101000000002
#
# number of rings (size 3 to 8) (size 9 to 14) (size 15 to 20)
#    0.000    1.750    0.000    4.500    0.000    6.000 
#    0.000   10.000    0.000   15.000    0.000    0.000 
#    0.000    0.000    0.000    0.000    0.000    0.000 
#
# Total GULP energy -179120.695944 kJ/mol
# GULP energy per Si atom -5597.521748 kJ/mol
# Density = 2.287292 g / cm^3
# Si number density = 22.925101 Si / 1000 Ang^3
#
#
#
# Elastic Constant Matrix: (Units=GPa)
#
#
# Indices 1 2 3 4 5 6 
#
# 1 170.5998 26.3345 24.4534 0.0000 0.0000 0.0000
# 2 26.3345 39.7692 -23.0520 0.0000 0.0000 0.0000
# 3 24.4534 -23.0520 92.5293 0.0000 0.0000 0.0000
# 4 0.0000 0.0000 0.0000 11.8621 0.0000 0.0000
# 5 0.0000 0.0000 0.0000 0.0000 46.7119 0.0000
# 6 0.0000 0.0000 0.0000 0.0000 0.0000 27.7548
#
#
#
# Elastic Compliance Matrix: (Units=1/GPa)
#
#
# Indices 1 2 3 4 5 6 
#
# 1 0.007506 -0.007153 -0.003765 0.000000 0.000000 0.000000
# 2 -0.007153 0.036206 0.010910 0.000000 0.000000 0.000000
# 3 -0.003765 0.010910 0.014521 0.000000 0.000000 0.000000
# 4 0.000000 0.000000 0.000000 0.084302 0.000000 0.000000
# 5 0.000000 0.000000 0.000000 0.000000 0.021408 0.000000
# 6 0.000000 0.000000 0.000000 0.000000 0.000000 0.036030
#
#
# Mechanical properties :
#
#
# Convention : Reuss Voigt Hill
#
# Bulk Modulus (GPa) = 17.17746 39.81887 28.49817
# Shear Modulus (GPa) = 22.79021 35.60994 29.20008
#
# Velocity S-wave (km/s) = 3.15638 3.94549 3.57279
# Velocity P-wave (km/s) = 4.55991 6.17759 5.42934
#
# Compressibility (1/GPa) = 0.05821583
#
# Stress axis : x y z
#
# Youngs Moduli (GPa) = 133.23520 27.62009 68.86757
#
# Poissons Ratio (x) = 0.19756 0.25932
# Poissons Ratio (y) = 0.95299 -0.75136
# Poissons Ratio (z) = 0.50170 -0.30134
#
# Static dielectric constant tensor:
#      x y z
#    x 1.832050 0.000000 0.000000 
#    y 0.000000 1.887900 0.000000 
#    z 0.000000 0.000000 1.805050 
# 
# From -- ./inp_files/17384.got.cif
#   From: 2010.05.17/outbox.cif.g08.bks.cpg/sg39_9_cif.got.tgz:17384.got - 2010.06.03 18:22:40.
