data_PCOD9360112
_publ_section_title
;
Structure prediction by ZEFSAII (Michael W. Deem and Ramdas Pophale) SiO2 
 PCOD9360112
Probable space group: A B M 2
;
_chemical_formula_sum "Si O2"
_cell_formula_units_Z 56
_cell_length_a 20.885038
_cell_length_b 8.503575
_cell_length_c 15.502586
_cell_angle_alpha 90.000000
_cell_angle_beta 90.000000
_cell_angle_gamma 90.000000
_cell_volume 2753.220316
_symmetry_space_group_name_H-M "A B M 2"
_symmetry_group_IT_number 39
_symmetry_cell_setting 'orthorhombic'
loop_
_space_group_symop_operation_xyz
x,y,z
-x,-y,z
-x,1/2+y,z
x,1/2-y,z
x,1/2+y,1/2+z
-x,1/2-y,1/2+z
-x,y,1/2+z
x,-y,1/2+z
loop_
_atom_site_type_symbol
_atom_site_label
_atom_site_fract_x
_atom_site_fract_y
_atom_site_fract_z
Si Si1 0.705620 0.927314 0.905880
Si Si2 0.435519 0.939954 0.347837
Si Si3 0.566623 0.064410 0.654804
Si Si4 0.159856 0.435090 0.403643
Si Si5 0.295381 0.571721 0.611752
Si Si6 0.928365 0.563309 0.751474
Si Si7 0.157708 0.939807 0.599035
O O1 0.713110 0.750000 0.870181
O O2 0.633543 0.980464 0.886708
O O3 0.766069 0.029811 0.878301
O O4 0.709750 0.917007 0.008883
O O5 0.438985 0.750000 0.338836
O O6 0.500000 0.000000 0.394545
O O7 0.436171 0.027270 0.256132
O O8 0.567502 0.250000 0.636543
O O9 0.635763 0.995013 0.628683
O O10 0.500000 0.000000 0.617043
O O11 0.148599 0.250000 0.402491
O O12 0.113942 0.515840 0.334301
O O13 0.149201 0.497888 0.501412
O O14 0.298196 0.750000 0.648692
O O15 0.226804 0.500636 0.636299
O O16 0.929334 0.750000 0.743080
O O17 0.896406 0.491170 0.665492
O O18 0.000000 0.500000 0.762037
O O19 0.161239 0.750000 0.594984
#
# Coordination Sequence:
#
# PCOD9360112 Si02
#       7
#     8   8   8   8   8   8   8
#     4   9  19  37  57  80 111 151 196 246 303 362
#     4  10  20  33  50  74 106 146 191 243 300 357
#     4  10  19  32  49  73 105 146 189 239 293 353
#     4  11  23  41  65  96 130 168 210 258 313 370
#     4   8  17  34  56  79 108 146 189 236 295 353
#     4  12  26  45  68  99 131 166 209 253 304 371
#     4  10  21  42  67  95 129 167 208 259 314 369
#
# _framework density 20.339817
#
# number of rings (size 3 to 8) (size 9 to 14) (size 15 to 20)
#    0.000    2.000    0.000    5.571    2.000    2.286 
#    0.000    9.286    0.000    0.000    0.000    0.000 
#    0.000    0.000    0.000    0.000    0.000    0.000 
#
# Total GULP energy -156153.698402 kJ/mol
# GULP energy per Si atom -5576.917800 kJ/mol
# Density = 2.029352 g / cm^3
# Si number density = 20.339817 Si / 1000 Ang^3
#
#
#
# Elastic Constant Matrix: (Units=GPa)
#
#
# Indices 1 2 3 4 5 6 
#
# 1 159.7226 22.9913 37.0512 0.0000 0.0000 0.0000
# 2 22.9913 63.0510 5.3634 0.0000 0.0000 0.0000
# 3 37.0512 5.3634 48.8100 0.0000 0.0000 0.0000
# 4 0.0000 0.0000 0.0000 22.9083 0.0000 0.0000
# 5 0.0000 0.0000 0.0000 0.0000 43.1215 0.0000
# 6 0.0000 0.0000 0.0000 0.0000 0.0000 32.6495
#
#
#
# Elastic Compliance Matrix: (Units=1/GPa)
#
#
# Indices 1 2 3 4 5 6 
#
# 1 0.007945 -0.002407 -0.005766 0.000000 0.000000 0.000000
# 2 -0.002407 0.016739 -0.000013 0.000000 0.000000 0.000000
# 3 -0.005766 -0.000013 0.024866 0.000000 0.000000 0.000000
# 4 0.000000 0.000000 0.000000 0.043652 0.000000 0.000000
# 5 0.000000 0.000000 0.000000 0.000000 0.023190 0.000000
# 6 0.000000 0.000000 0.000000 0.000000 0.000000 0.030628
#
#
# Mechanical properties :
#
#
# Convention : Reuss Voigt Hill
#
# Bulk Modulus (GPa) = 30.13965 44.71059 37.42512
# Shear Modulus (GPa) = 28.66125 33.48106 31.07116
#
# Velocity S-wave (km/s) = 3.75790 4.06160 3.91270
# Velocity P-wave (km/s) = 5.80339 6.63513 6.23315
#
# Compressibility (1/GPa) = 0.03317888
#
# Stress axis : x y z
#
# Youngs Moduli (GPa) = 125.86647 59.74148 40.21512
#
# Poissons Ratio (x) = 0.14377 0.23190
# Poissons Ratio (y) = 0.30291 0.00050
# Poissons Ratio (z) = 0.72581 0.00075
#
# Static dielectric constant tensor:
#      x y z
#    x 1.786260 0.000000 0.000000 
#    y 0.000000 1.717140 0.000000 
#    z 0.000000 0.000000 1.709270 
# 
# From -- ./inp_files/10342.got.cif
#   From: 2010.05.17/outbox.cif.g08.bks.cpg/sg39_6_cif.got.tgz:10342.got - 2010.06.03 18:22:40.
