data_PCOD9360524
_publ_section_title
;
Structure prediction by ZEFSAII (Michael W. Deem and Ramdas Pophale) SiO2 
 PCOD9360524
Probable space group: A B M 2
;
_chemical_formula_sum "Si O2"
_cell_formula_units_Z 40
_cell_length_a 11.353247
_cell_length_b 20.575625
_cell_length_c 8.973259
_cell_angle_alpha 90.000000
_cell_angle_beta 90.000000
_cell_angle_gamma 90.000000
_cell_volume 2096.154674
_symmetry_space_group_name_H-M "A B M 2"
_symmetry_group_IT_number 39
_symmetry_cell_setting 'orthorhombic'
loop_
_space_group_symop_operation_xyz
x,y,z
-x,-y,z
-x,1/2+y,z
x,1/2-y,z
x,1/2+y,1/2+z
-x,1/2-y,1/2+z
-x,y,1/2+z
x,-y,1/2+z
loop_
_atom_site_type_symbol
_atom_site_label
_atom_site_fract_x
_atom_site_fract_y
_atom_site_fract_z
Si Si1 0.588949 0.324706 0.526130
Si Si2 0.500000 0.000000 0.904665
Si Si3 0.343430 0.942608 0.662671
Si Si4 0.841223 0.055657 0.167107
Si Si5 0.000000 0.500000 0.409932
Si Si6 0.657652 0.673616 0.679022
O O1 0.602442 0.250000 0.567947
O O2 0.594926 0.467953 0.511641
O O3 0.454846 0.342437 0.574067
O O4 0.614500 0.330959 0.350866
O O5 0.435513 0.949961 0.796205
O O6 0.239863 0.880137 0.158887
O O7 0.321957 0.868414 0.622817
O O8 0.240227 0.992311 0.693801
O O9 0.931641 0.051159 0.304596
O O10 0.911857 0.039817 0.016566
O O11 0.690618 0.750000 0.653079
#
# Coordination Sequence:
#
# PCOD9360524 Si02
#       6
#     8   4   8   8   4   8
#     4  10  20  33  52  84 121 150 177 208 256 335
#     4  10  20  28  48  84 110 132 180 216 256 340
#     4  11  19  32  53  79 110 146 177 217 271 327
#     4  11  22  39  59  79 107 143 188 237 281 315
#     4  10  24  40  58  80 100 134 196 254 278 304
#     4  10  21  37  57  83 117 150 176 213 269 332
#
# _framework density 19.082561999999999
#
# number of rings (size 3 to 8) (size 9 to 14) (size 15 to 20)
#    0.000    1.600    0.000    7.200    0.000    1.600 
#    0.000    1.000    0.000    4.800    0.000    0.000 
#    0.000    0.000    0.000    0.000    0.000    0.000 
#
# Total GULP energy -111673.743429 kJ/mol
# GULP energy per Si atom -5583.687171 kJ/mol
# Density = 1.903913 g / cm^3
# Si number density = 19.082562 Si / 1000 Ang^3
#
#
#
# Elastic Constant Matrix: (Units=GPa)
#
#
# Indices 1 2 3 4 5 6 
#
# 1 60.6774 46.0895 19.0685 0.0000 0.0000 0.0000
# 2 46.0895 110.5774 24.6938 0.0000 0.0000 0.0000
# 3 19.0685 24.6938 85.5989 0.0000 0.0000 0.0000
# 4 0.0000 0.0000 0.0000 23.0884 0.0000 0.0000
# 5 0.0000 0.0000 0.0000 0.0000 24.7989 0.0000
# 6 0.0000 0.0000 0.0000 0.0000 0.0000 30.3094
#
#
#
# Elastic Compliance Matrix: (Units=1/GPa)
#
#
# Indices 1 2 3 4 5 6 
#
# 1 0.024688 -0.009686 -0.002705 0.000000 0.000000 0.000000
# 2 -0.009686 0.013466 -0.001727 0.000000 0.000000 0.000000
# 3 -0.002705 -0.001727 0.012783 0.000000 0.000000 0.000000
# 4 0.000000 0.000000 0.000000 0.043312 0.000000 0.000000
# 5 0.000000 0.000000 0.000000 0.000000 0.040324 0.000000
# 6 0.000000 0.000000 0.000000 0.000000 0.000000 0.032993
#
#
# Mechanical properties :
#
#
# Convention : Reuss Voigt Hill
#
# Bulk Modulus (GPa) = 44.05149 48.50636 46.27893
# Shear Modulus (GPa) = 24.58561 26.77280 25.67921
#
# Velocity S-wave (km/s) = 3.59330 3.74973 3.67234
# Velocity P-wave (km/s) = 6.35220 6.64994 6.50277
#
# Compressibility (1/GPa) = 0.02270071
#
# Stress axis : x y z
#
# Youngs Moduli (GPa) = 40.50529 74.25922 78.22707
#
# Poissons Ratio (x) = 0.71928 0.21164
# Poissons Ratio (y) = 0.39234 0.13511
# Poissons Ratio (z) = 0.10958 0.12825
#
# Static dielectric constant tensor:
#      x y z
#    x 1.680040 0.000000 0.000000 
#    y 0.000000 1.739650 0.000000 
#    z 0.000000 0.000000 1.669840 
# 
# From -- ./inp_files/3154.got.cif
#   From: 2010.05.17/outbox.cif.g08.bks.cpg/sg39_2_cif.got.tgz:3154.got - 2010.06.03 18:22:40.
