data_PCOD9360948
_publ_section_title
;
Structure prediction by ZEFSAII (Michael W. Deem and Ramdas Pophale) SiO2 
 PCOD9360948
Probable space group: A B M 2
;
_chemical_formula_sum "Si O2"
_cell_formula_units_Z 56
_cell_length_a 20.846938
_cell_length_b 8.571467
_cell_length_c 15.611897
_cell_angle_alpha 90.000000
_cell_angle_beta 90.000000
_cell_angle_gamma 90.000000
_cell_volume 2789.671783
_symmetry_space_group_name_H-M "A B M 2"
_symmetry_group_IT_number 39
_symmetry_cell_setting 'orthorhombic'
loop_
_space_group_symop_operation_xyz
x,y,z
-x,-y,z
-x,1/2+y,z
x,1/2-y,z
x,1/2+y,1/2+z
-x,1/2-y,1/2+z
-x,y,1/2+z
x,-y,1/2+z
loop_
_atom_site_type_symbol
_atom_site_label
_atom_site_fract_x
_atom_site_fract_y
_atom_site_fract_z
Si Si1 0.072047 0.438052 0.647380
Si Si2 0.831768 0.062081 0.504033
Si Si3 0.702631 0.567839 0.471603
Si Si4 0.437645 0.566909 0.051744
Si Si5 0.433804 0.430777 0.239845
Si Si6 0.701313 0.428028 0.291947
Si Si7 0.839933 0.060282 0.303909
O O1 0.072705 0.250000 0.642926
O O2 0.114248 0.505315 0.569481
O O3 0.104801 0.485837 0.737985
O O4 0.000000 0.500000 0.642605
O O5 0.826060 0.250000 0.507237
O O6 0.846867 0.015188 0.404212
O O7 0.763945 0.979944 0.527920
O O8 0.709962 0.750000 0.444613
O O9 0.631906 0.552991 0.509987
O O10 0.705862 0.446219 0.394030
O O11 0.500000 0.500000 0.002691
O O12 0.448006 0.750000 0.069938
O O13 0.435035 0.470388 0.139304
O O14 0.500000 0.500000 0.276745
O O15 0.435731 0.250000 0.256912
O O16 0.365380 0.493102 0.269608
O O17 0.697154 0.250000 0.262412
O O18 0.770861 0.494962 0.266227
O O19 0.836713 0.250000 0.304418
#
# Coordination Sequence:
#
# PCOD9360948 Si02
#       7
#     8   8   8   8   8   8   8
#     4  11  23  41  63  92 123 159 199 242 295 361
#     4  10  21  40  63  91 123 160 202 250 302 359
#     4  10  21  37  57  84 115 152 195 242 294 354
#     4  10  21  36  54  77 110 149 192 240 295 349
#     4  11  22  36  54  79 111 149 194 243 295 354
#     4  10  20  37  59  83 112 150 193 244 297 351
#     4   8  19  39  62  86 120 159 198 243 298 353
#
# _framework density 20.074045000000002
#
# number of rings (size 3 to 8) (size 9 to 14) (size 15 to 20)
#    0.000    2.000    0.000    5.143    2.000    3.429 
#    0.000   10.714    0.000    0.000    0.000    0.000 
#    0.000    0.000    0.000    0.000    0.000    0.000 
#
# Total GULP energy -156138.241036 kJ/mol
# GULP energy per Si atom -5576.365751 kJ/mol
# Density = 2.002836 g / cm^3
# Si number density = 20.074045 Si / 1000 Ang^3
#
#
#
# Elastic Constant Matrix: (Units=GPa)
#
#
# Indices 1 2 3 4 5 6 
#
# 1 185.0774 46.2794 47.5965 0.0000 0.0000 0.0000
# 2 46.2794 61.5155 6.9290 0.0000 0.0000 0.0000
# 3 47.5965 6.9290 52.5645 0.0000 0.0000 0.0000
# 4 0.0000 0.0000 0.0000 19.1507 0.0000 0.0000
# 5 0.0000 0.0000 0.0000 0.0000 50.7737 0.0000
# 6 0.0000 0.0000 0.0000 0.0000 0.0000 45.1237
#
#
#
# Elastic Compliance Matrix: (Units=1/GPa)
#
#
# Indices 1 2 3 4 5 6 
#
# 1 0.008653 -0.005712 -0.007082 0.000000 0.000000 0.000000
# 2 -0.005712 0.020272 0.002500 0.000000 0.000000 0.000000
# 3 -0.007082 0.002500 0.025107 0.000000 0.000000 0.000000
# 4 0.000000 0.000000 0.000000 0.052217 0.000000 0.000000
# 5 0.000000 0.000000 0.000000 0.000000 0.019695 0.000000
# 6 0.000000 0.000000 0.000000 0.000000 0.000000 0.022161
#
#
# Mechanical properties :
#
#
# Convention : Reuss Voigt Hill
#
# Bulk Modulus (GPa) = 29.90100 55.64080 42.77090
# Shear Modulus (GPa) = 27.80224 36.23313 32.01769
#
# Velocity S-wave (km/s) = 3.72558 4.25311 3.99805
# Velocity P-wave (km/s) = 5.78223 7.20392 6.53187
#
# Compressibility (1/GPa) = 0.03344370
#
# Stress axis : x y z
#
# Youngs Moduli (GPa) = 115.57064 49.32992 39.82890
#
# Poissons Ratio (x) = 0.28177 0.28207
# Poissons Ratio (y) = 0.66013 -0.09957
# Poissons Ratio (z) = 0.81847 -0.12332
#
# Static dielectric constant tensor:
#      x y z
#    x 1.871990 0.000000 0.000000 
#    y 0.000000 1.700060 0.000000 
#    z 0.000000 0.000000 1.743310 
# 
# From -- ./inp_files/10394.got.cif
#   From: 2010.05.17/outbox.cif.g08.bks.cpg/sg39_6_cif.got.tgz:10394.got - 2010.06.03 18:22:40.
