data_PCOD9360808
_publ_section_title
;
Structure prediction by ZEFSAII (Michael W. Deem and Ramdas Pophale) SiO2 
 PCOD9360808
Probable space group: A B M 2
;
_chemical_formula_sum "Si O2"
_cell_formula_units_Z 48
_cell_length_a 11.805707
_cell_length_b 21.037559
_cell_length_c 9.139357
_cell_angle_alpha 90.000000
_cell_angle_beta 90.000000
_cell_angle_gamma 90.000000
_cell_volume 2269.880476
_symmetry_space_group_name_H-M "A B M 2"
_symmetry_group_IT_number 39
_symmetry_cell_setting 'orthorhombic'
loop_
_space_group_symop_operation_xyz
x,y,z
-x,-y,z
-x,1/2+y,z
x,1/2-y,z
x,1/2+y,1/2+z
-x,1/2-y,1/2+z
-x,y,1/2+z
x,-y,1/2+z
loop_
_atom_site_type_symbol
_atom_site_label
_atom_site_fract_x
_atom_site_fract_y
_atom_site_fract_z
Si Si1 0.910895 0.397898 0.398180
Si Si2 0.261780 0.887980 0.641386
Si Si3 0.261768 0.387978 0.654974
Si Si4 0.439462 0.431038 0.898171
Si Si5 0.374978 0.820526 0.898173
Si Si6 0.148668 0.046555 0.398183
O O1 0.845383 0.371015 0.538927
O O2 0.845377 0.371001 0.257453
O O3 0.886796 0.473797 0.398163
O O4 0.046498 0.401527 0.398175
O O5 0.359762 0.916285 0.538024
O O6 0.304159 0.832332 0.749132
O O7 0.221014 0.940808 0.755202
O O8 0.359765 0.416279 0.758319
O O9 0.304137 0.332340 0.547193
O O10 0.220975 0.440817 0.541201
O O11 0.500000 0.500000 0.898167
O O12 0.534080 0.376646 0.898178
O O13 0.424145 0.750000 0.898188
#
# Coordination Sequence:
#
# PCOD9360808 Si02
#       6
#     8   8   8   8   8   8
#     4  10  20  35  61  96 131 171 205 257 335 397
#     4  10  23  38  61  92 129 164 212 274 315 399
#     4  10  23  38  61  92 129 164 212 274 315 399
#     4  11  26  40  63  99 132 169 210 276 339 390
#     4  11  26  46  65  89 127 181 229 267 323 397
#     4  10  20  35  61  94 135 169 204 256 330 409
#
# _framework density 21.146487
#
# number of rings (size 3 to 8) (size 9 to 14) (size 15 to 20)
#    0.000    1.667    0.000    3.000   14.000    6.667 
#    0.000    3.333    0.000   16.000    0.000    2.333 
#    0.000    0.000    0.000    0.000    0.000    0.000 
#
# Total GULP energy -134067.649612 kJ/mol
# GULP energy per Si atom -5586.152067 kJ/mol
# Density = 2.109836 g / cm^3
# Si number density = 21.146487 Si / 1000 Ang^3
#
#
#
# Elastic Constant Matrix: (Units=GPa)
#
#
# Indices 1 2 3 4 5 6 
#
# 1 105.6428 37.9375 56.4580 0.0000 0.0000 0.0000
# 2 37.9375 97.7087 27.5062 0.0000 0.0000 0.0000
# 3 56.4580 27.5062 168.1006 0.0000 0.0000 0.0000
# 4 0.0000 0.0000 0.0000 24.6690 0.0000 0.0000
# 5 0.0000 0.0000 0.0000 0.0000 13.5640 0.0000
# 6 0.0000 0.0000 0.0000 0.0000 0.0000 16.4305
#
#
#
# Elastic Compliance Matrix: (Units=1/GPa)
#
#
# Indices 1 2 3 4 5 6 
#
# 1 0.012846 -0.003955 -0.003667 0.000000 0.000000 0.000000
# 2 -0.003955 0.011947 -0.000626 0.000000 0.000000 0.000000
# 3 -0.003667 -0.000626 0.007283 0.000000 0.000000 0.000000
# 4 0.000000 0.000000 0.000000 0.040537 0.000000 0.000000
# 5 0.000000 0.000000 0.000000 0.000000 0.073725 0.000000
# 6 0.000000 0.000000 0.000000 0.000000 0.000000 0.060862
#
#
# Mechanical properties :
#
#
# Convention : Reuss Voigt Hill
#
# Bulk Modulus (GPa) = 64.19443 68.36172 66.27807
# Shear Modulus (GPa) = 21.84454 27.56939 24.70696
#
# Velocity S-wave (km/s) = 3.21753 3.61464 3.42185
# Velocity P-wave (km/s) = 6.65028 7.05824 6.85730
#
# Compressibility (1/GPa) = 0.01557768
#
# Stress axis : x y z
#
# Youngs Moduli (GPa) = 77.84422 83.70578 137.30621
#
# Poissons Ratio (x) = 0.33109 0.50354
# Poissons Ratio (y) = 0.30791 0.08600
# Poissons Ratio (z) = 0.28548 0.05243
#
# Static dielectric constant tensor:
#      x y z
#    x 1.850040 0.000000 0.000000 
#    y 0.000000 1.729130 0.000000 
#    z 0.000000 0.000000 2.142330 
# 
# From -- ./inp_files/2715.got.cif
#   From: 2010.05.17/outbox.cif.g08.bks.cpg/sg39_2_cif.got.tgz:2715.got - 2010.06.03 18:22:40.
