data_PCOD9360360
_publ_section_title
;
Structure prediction by ZEFSAII (Michael W. Deem and Ramdas Pophale) SiO2 
 PCOD9360360
Probable space group: A B M 2
;
_chemical_formula_sum "Si O2"
_cell_formula_units_Z 56
_cell_length_a 9.859464
_cell_length_b 14.324256
_cell_length_c 18.624962
_cell_angle_alpha 90.000000
_cell_angle_beta 90.000000
_cell_angle_gamma 90.000000
_cell_volume 2630.393817
_symmetry_space_group_name_H-M "A B M 2"
_symmetry_group_IT_number 39
_symmetry_cell_setting 'orthorhombic'
loop_
_space_group_symop_operation_xyz
x,y,z
-x,-y,z
-x,1/2+y,z
x,1/2-y,z
x,1/2+y,1/2+z
-x,1/2-y,1/2+z
-x,y,1/2+z
x,-y,1/2+z
loop_
_atom_site_type_symbol
_atom_site_label
_atom_site_fract_x
_atom_site_fract_y
_atom_site_fract_z
Si Si1 0.463594 0.854471 0.544000
Si Si2 0.276887 0.494849 0.137345
Si Si3 0.247703 0.854744 0.751909
Si Si4 0.146653 0.540717 0.893403
Si Si5 0.448297 0.904537 0.262223
Si Si6 0.208850 0.142643 0.538206
Si Si7 0.696518 0.350481 0.401358
O O1 0.430914 0.750000 0.573063
O O2 0.376849 0.933086 0.585939
O O3 0.625922 0.863823 0.542890
O O4 0.421026 0.854461 0.460669
O O5 0.201233 0.419701 0.186811
O O6 0.365293 0.559441 0.192856
O O7 0.175273 0.562225 0.095217
O O8 0.195089 0.750000 0.750668
O O9 0.210030 0.905824 0.825773
O O10 0.412184 0.853404 0.744129
O O11 0.224810 0.445855 0.912838
O O12 0.000000 0.500000 0.875053
O O13 0.154537 0.609772 0.961251
O O14 0.358766 0.852969 0.320352
O O15 0.500000 0.000000 0.299332
O O16 0.171502 0.250000 0.553462
O O17 0.768453 0.250000 0.412642
#
# Coordination Sequence:
#
# PCOD9360360 Si02
#       7
#     8   8   8   8   8   8   8
#     4  10  20  34  60  98 130 161 197 245 319 390
#     4  11  21  35  63 100 138 166 190 243 313 395
#     4  11  22  39  65  95 127 163 203 253 314 376
#     4  12  26  45  65  83 115 166 227 269 301 352
#     4  10  19  34  59  97 130 162 194 244 320 386
#     4  11  23  39  64  94 128 164 202 254 314 377
#     4  11  22  37  61  87 120 158 202 262 318 367
#
# _framework density 21.289587999999998
#
# number of rings (size 3 to 8) (size 9 to 14) (size 15 to 20)
#    0.000    1.143    4.286    5.143    0.000    4.571 
#    0.000    0.714    0.000    1.714    0.000    0.000 
#    0.000    0.000    0.000    0.000    0.000    0.000 
#
# Total GULP energy -156259.568942 kJ/mol
# GULP energy per Si atom -5580.698891 kJ/mol
# Density = 2.124113 g / cm^3
# Si number density = 21.289588 Si / 1000 Ang^3
#
#
#
# Elastic Constant Matrix: (Units=GPa)
#
#
# Indices 1 2 3 4 5 6 
#
# 1 9.9448 0.8859 -1.2736 0.0000 0.0000 0.0000
# 2 0.8859 147.1200 23.0936 0.0000 0.0000 0.0000
# 3 -1.2736 23.0936 78.8761 0.0000 0.0000 0.0000
# 4 0.0000 0.0000 0.0000 17.1824 0.0000 0.0000
# 5 0.0000 0.0000 0.0000 0.0000 -6.7311 0.0000
# 6 0.0000 0.0000 0.0000 0.0000 0.0000 6.5085
#
#
#
# Elastic Compliance Matrix: (Units=1/GPa)
#
#
# Indices 1 2 3 4 5 6 
#
# 1 0.100878 -0.000905 0.001894 0.000000 0.000000 0.000000
# 2 -0.000905 0.007133 -0.002103 0.000000 0.000000 0.000000
# 3 0.001894 -0.002103 0.013324 0.000000 0.000000 0.000000
# 4 0.000000 0.000000 0.000000 0.058199 0.000000 0.000000
# 5 0.000000 0.000000 0.000000 0.000000 -0.148563 0.000000
# 6 0.000000 0.000000 0.000000 0.000000 0.000000 0.153646
#
#
# Mechanical properties :
#
#
# Convention : Reuss Voigt Hill
#
# Bulk Modulus (GPa) = 8.39576 31.26140 19.82858
# Shear Modulus (GPa) = 22.07043 17.60762 19.83902
#
# Velocity S-wave (km/s) = 3.22324 2.87897 3.05596
# Velocity P-wave (km/s) = 4.21954 5.07613 4.66753
#
# Compressibility (1/GPa) = 0.11910778
#
# Stress axis : x y z
#
# Youngs Moduli (GPa) = 9.91292 140.19886 75.05024
#
# Poissons Ratio (x) = 0.12684 -0.14213
# Poissons Ratio (y) = 0.00897 0.15783
# Poissons Ratio (z) = -0.01877 0.29483
#
# Static dielectric constant tensor:
#      x y z
#    x 1.796590 0.000000 0.000000 
#    y 0.000000 1.826410 0.000000 
#    z 0.000000 0.000000 1.769570 
# 
# From -- ./inp_files/14085.got.cif
#   From: 2010.05.17/outbox.cif.g08.bks.cpg/sg39_8_cif.got.tgz:14085.got - 2010.06.03 18:22:40.
