data_PCOD9360197
_publ_section_title
;
Structure prediction by ZEFSAII (Michael W. Deem and Ramdas Pophale) SiO2 
 PCOD9360197
Probable space group: A B M 2
;
_chemical_formula_sum "Si O2"
_cell_formula_units_Z 56
_cell_length_a 20.109622
_cell_length_b 8.164249
_cell_length_c 16.499569
_cell_angle_alpha 90.000000
_cell_angle_beta 90.000000
_cell_angle_gamma 90.000000
_cell_volume 2708.898600
_symmetry_space_group_name_H-M "A B M 2"
_symmetry_group_IT_number 39
_symmetry_cell_setting 'orthorhombic'
loop_
_space_group_symop_operation_xyz
x,y,z
-x,-y,z
-x,1/2+y,z
x,1/2-y,z
x,1/2+y,1/2+z
-x,1/2-y,1/2+z
-x,y,1/2+z
x,-y,1/2+z
loop_
_atom_site_type_symbol
_atom_site_label
_atom_site_fract_x
_atom_site_fract_y
_atom_site_fract_z
Si Si1 0.211555 0.050258 0.936570
Si Si2 0.650658 0.054530 0.186325
Si Si3 0.347716 0.447948 0.863385
Si Si4 0.070857 0.054494 0.184824
Si Si5 0.576231 0.053840 0.025234
Si Si6 0.928962 0.445036 0.371747
Si Si7 0.786851 0.948260 0.120837
O O1 0.209756 0.250000 0.934016
O O2 0.271734 0.996112 0.879487
O O3 0.138326 0.990509 0.912590
O O4 0.227756 0.003249 0.028438
O O5 0.640653 0.250000 0.186143
O O6 0.628615 0.992232 0.274994
O O7 0.613788 0.988573 0.106085
O O8 0.729006 0.019533 0.176347
O O9 0.347134 0.250000 0.860904
O O10 0.390181 0.496904 0.941534
O O11 0.071294 0.250000 0.183982
O O12 0.138622 0.996825 0.142847
O O13 0.072868 0.995683 0.277681
O O14 0.000000 0.000000 0.148911
O O15 0.579966 0.250000 0.026505
O O16 0.500000 0.000000 0.027638
O O17 0.927747 0.250000 0.376452
O O18 0.000000 0.500000 0.406480
O O19 0.784802 0.750000 0.126289
#
# Coordination Sequence:
#
# PCOD9360197 Si02
#       7
#     8   8   8   8   8   8   8
#     4   9  18  33  55  80 109 148 191 236 291 347
#     4  10  22  39  62  93 123 155 197 243 291 347
#     4  10  20  39  65  89 119 159 199 240 293 349
#     4  10  20  33  50  74 106 144 191 242 293 350
#     4  11  24  42  63  92 126 156 193 238 287 344
#     4  10  19  33  52  74 105 145 191 241 294 350
#     4  10  20  35  56  82 112 151 197 242 292 351
#
# _framework density 20.672608
#
# number of rings (size 3 to 8) (size 9 to 14) (size 15 to 20)
#    0.000    2.000    1.429    3.000    0.000    4.571 
#    0.000    4.286    0.000    0.000    0.000    0.000 
#    0.000    0.000    0.000    0.000    0.000    0.000 
#
# Total GULP energy -156307.553380 kJ/mol
# GULP energy per Si atom -5582.412621 kJ/mol
# Density = 2.062556 g / cm^3
# Si number density = 20.672608 Si / 1000 Ang^3
#
#
#
# Elastic Constant Matrix: (Units=GPa)
#
#
# Indices 1 2 3 4 5 6 
#
# 1 130.2921 3.8245 66.9833 0.0000 0.0000 0.0000
# 2 3.8245 14.2270 11.5750 0.0000 0.0000 0.0000
# 3 66.9833 11.5750 149.0203 0.0000 0.0000 0.0000
# 4 0.0000 0.0000 0.0000 17.2777 0.0000 0.0000
# 5 0.0000 0.0000 0.0000 0.0000 18.8972 0.0000
# 6 0.0000 0.0000 0.0000 0.0000 0.0000 30.6758
#
#
#
# Elastic Compliance Matrix: (Units=1/GPa)
#
#
# Indices 1 2 3 4 5 6 
#
# 1 0.009996 0.001034 -0.004573 0.000000 0.000000 0.000000
# 2 0.001034 0.075137 -0.006301 0.000000 0.000000 0.000000
# 3 -0.004573 -0.006301 0.009256 0.000000 0.000000 0.000000
# 4 0.000000 0.000000 0.000000 0.057878 0.000000 0.000000
# 5 0.000000 0.000000 0.000000 0.000000 0.052918 0.000000
# 6 0.000000 0.000000 0.000000 0.000000 0.000000 0.032599
#
#
# Mechanical properties :
#
#
# Convention : Reuss Voigt Hill
#
# Bulk Modulus (GPa) = 13.38546 50.92277 32.15411
# Shear Modulus (GPa) = 17.70743 27.44725 22.57734
#
# Velocity S-wave (km/s) = 2.92989 3.64773 3.30834
# Velocity P-wave (km/s) = 4.23494 6.51365 5.49374
#
# Compressibility (1/GPa) = 0.07470793
#
# Stress axis : x y z
#
# Youngs Moduli (GPa) = 100.04119 13.30896 108.04286
#
# Poissons Ratio (x) = -0.01376 0.49412
# Poissons Ratio (y) = -0.10342 0.68076
# Poissons Ratio (z) = 0.45752 0.08386
#
# Static dielectric constant tensor:
#      x y z
#    x 1.742340 0.000000 0.000000 
#    y 0.000000 1.729630 0.000000 
#    z 0.000000 0.000000 1.749320 
# 
# From -- ./inp_files/10324.got.cif
#   From: 2010.05.17/outbox.cif.g08.bks.cpg/sg39_6_cif.got.tgz:10324.got - 2010.06.03 18:22:40.
