data_PCOD9360748
_publ_section_title
;
Structure prediction by ZEFSAII (Michael W. Deem and Ramdas Pophale) SiO2 
 PCOD9360748
Probable space group: A B M 2
;
_chemical_formula_sum "Si O2"
_cell_formula_units_Z 64
_cell_length_a 14.277190
_cell_length_b 8.100783
_cell_length_c 27.166230
_cell_angle_alpha 90.000000
_cell_angle_beta 90.000000
_cell_angle_gamma 90.000000
_cell_volume 3141.948853
_symmetry_space_group_name_H-M "A B M 2"
_symmetry_group_IT_number 39
_symmetry_cell_setting 'orthorhombic'
loop_
_space_group_symop_operation_xyz
x,y,z
-x,-y,z
-x,1/2+y,z
x,1/2-y,z
x,1/2+y,1/2+z
-x,1/2-y,1/2+z
-x,y,1/2+z
x,-y,1/2+z
loop_
_atom_site_type_symbol
_atom_site_label
_atom_site_fract_x
_atom_site_fract_y
_atom_site_fract_z
Si Si1 0.210045 0.948354 0.639270
Si Si2 0.788596 0.445818 0.943360
Si Si3 0.392461 0.552622 0.183037
Si Si4 0.607585 0.552546 0.898065
Si Si5 0.609170 0.051016 0.290614
Si Si6 0.108714 0.449537 0.237681
Si Si7 0.892563 0.446023 0.541763
Si Si8 0.891236 0.449660 0.845552
O O1 0.200901 0.750000 0.639639
O O2 0.161623 0.012997 0.689393
O O3 0.158859 0.013690 0.590606
O O4 0.319399 0.990096 0.643013
O O5 0.799460 0.250000 0.942777
O O6 0.679487 0.488924 0.938469
O O7 0.838188 0.513963 0.893744
O O8 0.837586 0.508593 0.992377
O O9 0.500000 0.500000 0.175852
O O10 0.390241 0.750000 0.184040
O O11 0.357900 0.489130 0.237243
O O12 0.500000 0.500000 0.904899
O O13 0.610232 0.750000 0.897339
O O14 0.642565 0.489271 0.843935
O O15 0.617156 0.250000 0.290639
O O16 0.500000 0.000000 0.290722
O O17 0.114072 0.250000 0.237660
O O18 0.143977 0.508051 0.291601
O O19 0.000000 0.500000 0.234303
O O20 0.892101 0.250000 0.545806
O O21 0.000000 0.500000 0.539216
O O22 0.885805 0.250000 0.845559
O O23 0.000000 0.500000 0.848984
#
# Coordination Sequence:
#
# PCOD9360748 Si02
#       8
#     8   8   8   8   8   8   8   8
#     4  10  22  38  59  85 115 151 194 240 293 348
#     4  11  23  38  59  87 116 153 199 243 294 351
#     4  10  20  35  56  84 119 157 198 240 287 342
#     4  10  20  36  57  84 120 158 198 243 291 346
#     4   8  16  30  49  77 112 152 193 232 279 334
#     4   9  18  34  54  80 113 147 182 229 285 345
#     4  11  24  43  65  89 116 151 196 247 298 351
#     4   9  19  34  53  80 113 147 184 228 285 347
#
# _framework density 20.369523000000001
#
# number of rings (size 3 to 8) (size 9 to 14) (size 15 to 20)
#    0.000    2.250    0.000    2.250    1.750    4.500 
#    0.000    0.625    0.000    3.000    0.000    0.000 
#    0.000    0.000    0.000    0.000    0.000    0.000 
#
# Total GULP energy -178606.847186 kJ/mol
# GULP energy per Si atom -5581.463975 kJ/mol
# Density = 2.032316 g / cm^3
# Si number density = 20.369523 Si / 1000 Ang^3
#
#
#
# Elastic Constant Matrix: (Units=GPa)
#
#
# Indices 1 2 3 4 5 6 
#
# 1 117.1900 0.0951 95.4587 0.0000 0.0000 0.0000
# 2 0.0951 26.0267 21.0826 0.0000 0.0000 0.0000
# 3 95.4587 21.0826 164.7563 0.0000 0.0000 0.0000
# 4 0.0000 0.0000 0.0000 18.6804 0.0000 0.0000
# 5 0.0000 0.0000 0.0000 0.0000 39.5796 0.0000
# 6 0.0000 0.0000 0.0000 0.0000 0.0000 29.4803
#
#
#
# Elastic Compliance Matrix: (Units=1/GPa)
#
#
# Indices 1 2 3 4 5 6 
#
# 1 0.017990 0.009346 -0.011619 0.000000 0.000000 0.000000
# 2 0.009346 0.047721 -0.011522 0.000000 0.000000 0.000000
# 3 -0.011619 -0.011522 0.014276 0.000000 0.000000 0.000000
# 4 0.000000 0.000000 0.000000 0.053532 0.000000 0.000000
# 5 0.000000 0.000000 0.000000 0.000000 0.025266 0.000000
# 6 0.000000 0.000000 0.000000 0.000000 0.000000 0.033921
#
#
# Mechanical properties :
#
#
# Convention : Reuss Voigt Hill
#
# Bulk Modulus (GPa) = 19.08472 60.13842 39.61157
# Shear Modulus (GPa) = 21.02948 30.30384 25.66666
#
# Velocity S-wave (km/s) = 3.21658 3.86126 3.55357
# Velocity P-wave (km/s) = 4.81506 7.03327 6.02709
#
# Compressibility (1/GPa) = 0.05239794
#
# Stress axis : x y z
#
# Youngs Moduli (GPa) = 55.58535 20.95514 70.04688
#
# Poissons Ratio (x) = -0.19586 0.81391
# Poissons Ratio (y) = -0.51952 0.80706
# Poissons Ratio (z) = 0.64587 0.24144
#
# Static dielectric constant tensor:
#      x y z
#    x 1.702900 0.000000 0.000000 
#    y 0.000000 1.712310 0.000000 
#    z 0.000000 0.000000 1.769000 
# 
# From -- ./inp_files/16224.got.cif
#   From: 2010.05.17/outbox.cif.g08.bks.cpg/sg39_9_cif.got.tgz:16224.got - 2010.06.03 18:22:40.
