data_PCOD9360601
_publ_section_title
;
Structure prediction by ZEFSAII (Michael W. Deem and Ramdas Pophale) SiO2 
 PCOD9360601
Probable space group: A B M 2
;
_chemical_formula_sum "Si O2"
_cell_formula_units_Z 64
_cell_length_a 17.629005
_cell_length_b 13.922894
_cell_length_c 11.951082
_cell_angle_alpha 90.000000
_cell_angle_beta 90.000000
_cell_angle_gamma 90.000000
_cell_volume 2933.354450
_symmetry_space_group_name_H-M "A B M 2"
_symmetry_group_IT_number 39
_symmetry_cell_setting 'orthorhombic'
loop_
_space_group_symop_operation_xyz
x,y,z
-x,-y,z
-x,1/2+y,z
x,1/2-y,z
x,1/2+y,1/2+z
-x,1/2-y,1/2+z
-x,y,1/2+z
x,-y,1/2+z
loop_
_atom_site_type_symbol
_atom_site_label
_atom_site_fract_x
_atom_site_fract_y
_atom_site_fract_z
Si Si1 0.359284 0.642704 0.649270
Si Si2 0.185126 0.857782 0.739676
Si Si3 0.025529 0.111712 0.147071
Si Si4 0.310500 0.460751 0.532371
Si Si5 0.420259 0.464067 0.344115
Si Si6 0.188351 0.954527 0.391791
Si Si7 0.976588 0.388640 0.397885
Si Si8 0.323711 0.859852 0.259141
O O1 0.371745 0.750000 0.606251
O O2 0.272132 0.637909 0.696293
O O3 0.358975 0.555802 0.562890
O O4 0.419923 0.613177 0.743808
O O5 0.176845 0.750000 0.789712
O O6 0.116172 0.869719 0.652075
O O7 0.173613 0.949354 0.819197
O O8 0.999770 0.147243 0.272634
O O9 0.997739 0.146790 0.022839
O O10 0.000000 0.000000 0.147761
O O11 0.357752 0.421542 0.428359
O O12 0.228106 0.500920 0.500799
O O13 0.305555 0.385264 0.630962
O O14 0.500000 0.500000 0.391143
O O15 0.385537 0.561588 0.292902
O O16 0.114020 0.892087 0.402465
O O17 0.251265 0.889260 0.332340
O O18 0.000000 0.500000 0.397254
O O19 0.345027 0.750000 0.275184
#
# Coordination Sequence:
#
# PCOD9360601 Si02
#       8
#     8   8   8   8   8   8   8   8
#     4  10  21  39  62  90 119 158 209 260 312 375
#     4  11  20  37  62  90 117 158 215 265 314 384
#     4  10  20  37  58  87 118 168 209 268 328 391
#     4  10  20  36  63  91 123 158 210 258 321 372
#     4  10  22  40  61  88 127 168 203 248 313 385
#     4  11  20  39  62  90 123 168 201 267 323 386
#     4  10  20  33  65  83 122 166 214 258 331 389
#     4  10  23  41  63  93 125 158 207 263 318 377
#
# _framework density 21.818024000000001
#
# number of rings (size 3 to 8) (size 9 to 14) (size 15 to 20)
#    0.000    1.750    6.250    0.750    0.000    5.500 
#    0.000    1.875    0.000    0.000    0.000    0.000 
#    0.000    0.000    0.000    0.000    0.000    0.000 
#
# Total GULP energy -178218.505096 kJ/mol
# GULP energy per Si atom -5569.328284 kJ/mol
# Density = 2.176837 g / cm^3
# Si number density = 21.818024 Si / 1000 Ang^3
#
#
#
# Elastic Constant Matrix: (Units=GPa)
#
#
# Indices 1 2 3 4 5 6 
#
# 1 73.2540 -20.4106 0.8229 0.0000 0.0000 0.0000
# 2 -20.4106 86.1839 -0.4916 0.0000 0.0000 0.0000
# 3 0.8229 -0.4916 105.6947 0.0000 0.0000 0.0000
# 4 0.0000 0.0000 0.0000 -11.5144 0.0000 0.0000
# 5 0.0000 0.0000 0.0000 0.0000 18.2444 0.0000
# 6 0.0000 0.0000 0.0000 0.0000 0.0000 3.0781
#
#
#
# Elastic Compliance Matrix: (Units=1/GPa)
#
#
# Indices 1 2 3 4 5 6 
#
# 1 0.014617 0.003461 -0.000098 0.000000 0.000000 0.000000
# 2 0.003461 0.012423 0.000031 0.000000 0.000000 0.000000
# 3 -0.000098 0.000031 0.009462 0.000000 0.000000 0.000000
# 4 0.000000 0.000000 0.000000 -0.086848 0.000000 0.000000
# 5 0.000000 0.000000 0.000000 0.000000 0.054811 0.000000
# 6 0.000000 0.000000 0.000000 0.000000 0.000000 0.324873
#
#
# Mechanical properties :
#
#
# Convention : Reuss Voigt Hill
#
# Bulk Modulus (GPa) = 23.10006 24.99711 24.04858
# Shear Modulus (GPa) = 14.83767 20.97576 17.90672
#
# Velocity S-wave (km/s) = 2.61063 3.10400 2.86795
# Velocity P-wave (km/s) = 4.43822 4.93238 4.69181
#
# Compressibility (1/GPa) = 0.04328994
#
# Stress axis : x y z
#
# Youngs Moduli (GPa) = 68.41552 80.49631 105.68461
#
# Poissons Ratio (x) = -0.27860 0.01033
# Poissons Ratio (y) = -0.23679 -0.00326
# Poissons Ratio (z) = 0.00668 -0.00248
#
# Static dielectric constant tensor:
#      x y z
#    x 1.867340 0.000000 0.000000 
#    y 0.000000 1.755520 0.000000 
#    z 0.000000 0.000000 1.886600 
# 
# From -- ./inp_files/6868.got.cif
#   From: 2010.05.17/outbox.cif.g08.bks.cpg/sg39_4_cif.got.tgz:6868.got - 2010.06.03 18:22:40.
