data_PCOD9360379
_publ_section_title
;
Structure prediction by ZEFSAII (Michael W. Deem and Ramdas Pophale) SiO2 
 PCOD9360379
Probable space group: A B M 2
;
_chemical_formula_sum "Si O2"
_cell_formula_units_Z 56
_cell_length_a 23.086555
_cell_length_b 8.809595
_cell_length_c 15.480498
_cell_angle_alpha 90.000000
_cell_angle_beta 90.000000
_cell_angle_gamma 90.000000
_cell_volume 3148.473213
_symmetry_space_group_name_H-M "A B M 2"
_symmetry_group_IT_number 39
_symmetry_cell_setting 'orthorhombic'
loop_
_space_group_symop_operation_xyz
x,y,z
-x,-y,z
-x,1/2+y,z
x,1/2-y,z
x,1/2+y,1/2+z
-x,1/2-y,1/2+z
-x,y,1/2+z
x,-y,1/2+z
loop_
_atom_site_type_symbol
_atom_site_label
_atom_site_fract_x
_atom_site_fract_y
_atom_site_fract_z
Si Si1 0.936989 0.932183 0.701340
Si Si2 0.721497 0.929580 0.355000
Si Si3 0.937551 0.567482 0.501790
Si Si4 0.144855 0.933623 0.846261
Si Si5 0.626739 0.572059 0.483657
Si Si6 0.607863 0.429846 0.307800
Si Si7 0.560366 0.570022 0.134955
O O1 0.939293 0.750000 0.707247
O O2 0.925098 0.975382 0.601259
O O3 0.889080 0.996805 0.765608
O O4 0.000000 0.000000 0.724087
O O5 0.716563 0.750000 0.333048
O O6 0.787666 0.977105 0.349015
O O7 0.693226 0.944854 0.450859
O O8 0.675974 0.024647 0.298117
O O9 0.941713 0.750000 0.499106
O O10 0.888963 0.519994 0.433432
O O11 0.000000 0.500000 0.477757
O O12 0.142602 0.750000 0.841011
O O13 0.614706 0.750000 0.495673
O O14 0.592746 0.506852 0.399848
O O15 0.609618 0.481105 0.567973
O O16 0.600752 0.250000 0.311668
O O17 0.573625 0.500258 0.228520
O O18 0.500000 0.500000 0.102909
O O19 0.556579 0.750000 0.140309
#
# Coordination Sequence:
#
# PCOD9360379 Si02
#       7
#     8   8   8   8   8   8   8
#     4  10  20  34  51  76 107 140 181 229 279 334
#     4   8  18  37  58  78 112 150 186 227 279 337
#     4   9  19  34  52  74 105 140 177 221 276 328
#     4  10  19  35  56  79 107 143 181 225 276 328
#     4   9  19  39  60  83 115 152 186 227 279 330
#     4  10  20  38  60  84 114 151 188 230 280 329
#     4  12  24  39  61  90 118 148 190 233 278 337
#
# _framework density 17.786397999999998
#
# number of rings (size 3 to 8) (size 9 to 14) (size 15 to 20)
#    0.857    1.429    0.000    3.429    0.000    3.429 
#    2.571    2.857    0.000    0.000    0.000    0.000 
#    0.000    0.000    0.000    0.000    0.000    0.000 
#
# Total GULP energy -156033.065713 kJ/mol
# GULP energy per Si atom -5572.609490 kJ/mol
# Density = 1.774592 g / cm^3
# Si number density = 17.786398 Si / 1000 Ang^3
#
#
#
# Elastic Constant Matrix: (Units=GPa)
#
#
# Indices 1 2 3 4 5 6 
#
# 1 60.3507 21.4765 7.6961 0.0000 0.0000 0.0000
# 2 21.4765 65.0919 12.2906 0.0000 0.0000 0.0000
# 3 7.6961 12.2906 43.5237 0.0000 0.0000 0.0000
# 4 0.0000 0.0000 0.0000 26.3239 0.0000 0.0000
# 5 0.0000 0.0000 0.0000 0.0000 11.1193 0.0000
# 6 0.0000 0.0000 0.0000 0.0000 0.0000 24.7993
#
#
#
# Elastic Compliance Matrix: (Units=1/GPa)
#
#
# Indices 1 2 3 4 5 6 
#
# 1 0.018888 -0.005917 -0.001669 0.000000 0.000000 0.000000
# 2 -0.005917 0.018082 -0.004060 0.000000 0.000000 0.000000
# 3 -0.001669 -0.004060 0.024418 0.000000 0.000000 0.000000
# 4 0.000000 0.000000 0.000000 0.037988 0.000000 0.000000
# 5 0.000000 0.000000 0.000000 0.000000 0.089934 0.000000
# 6 0.000000 0.000000 0.000000 0.000000 0.000000 0.040324
#
#
# Mechanical properties :
#
#
# Convention : Reuss Voigt Hill
#
# Bulk Modulus (GPa) = 26.24948 27.98809 27.11879
# Shear Modulus (GPa) = 18.82365 20.94872 19.88618
#
# Velocity S-wave (km/s) = 3.25671 3.43562 3.34736
# Velocity P-wave (km/s) = 5.37882 5.61318 5.49725
#
# Compressibility (1/GPa) = 0.03809599
#
# Stress axis : x y z
#
# Youngs Moduli (GPa) = 52.94303 55.30460 40.95416
#
# Poissons Ratio (x) = 0.32723 0.06836
# Poissons Ratio (y) = 0.31326 0.16627
# Poissons Ratio (z) = 0.08837 0.22453
#
# Static dielectric constant tensor:
#      x y z
#    x 1.613910 0.000000 0.000000 
#    y 0.000000 1.594620 0.000000 
#    z 0.000000 0.000000 1.601470 
# 
# From -- ./inp_files/10395.got.cif
#   From: 2010.05.17/outbox.cif.g08.bks.cpg/sg39_6_cif.got.tgz:10395.got - 2010.06.03 18:22:40.
