data_PCOD9360774
_publ_section_title
;
Structure prediction by ZEFSAII (Michael W. Deem and Ramdas Pophale) SiO2 
 PCOD9360774
Probable space group: A B M 2
;
_chemical_formula_sum "Si O2"
_cell_formula_units_Z 36
_cell_length_a 10.522336
_cell_length_b 9.329858
_cell_length_c 19.476103
_cell_angle_alpha 90.000000
_cell_angle_beta 90.000000
_cell_angle_gamma 90.000000
_cell_volume 1912.006050
_symmetry_space_group_name_H-M "A B M 2"
_symmetry_group_IT_number 39
_symmetry_cell_setting 'orthorhombic'
loop_
_space_group_symop_operation_xyz
x,y,z
-x,-y,z
-x,1/2+y,z
x,1/2-y,z
x,1/2+y,1/2+z
-x,1/2-y,1/2+z
-x,y,1/2+z
x,-y,1/2+z
loop_
_atom_site_type_symbol
_atom_site_label
_atom_site_fract_x
_atom_site_fract_y
_atom_site_fract_z
Si Si1 0.379682 0.087392 0.789600
Si Si2 0.500000 0.500000 0.655418
Si Si3 0.874470 0.584905 0.322409
Si Si4 0.379681 0.412608 0.021236
Si Si5 0.125530 0.084904 0.488426
O O1 0.371194 0.250000 0.814954
O O2 0.500000 0.000000 0.819993
O O3 0.413099 0.087798 0.708257
O O4 0.251720 0.999963 0.801535
O O5 0.586903 0.412203 0.602579
O O6 0.872764 0.750000 0.298482
O O7 0.877612 0.587648 0.405417
O O8 0.000000 0.500000 0.298900
O O9 0.500000 0.500000 0.990844
O O10 0.371194 0.250000 0.995882
O O11 0.251720 0.500037 0.009300
O O12 0.127236 0.250000 0.512352
O O13 0.000000 0.000000 0.511934
#
# Coordination Sequence:
#
# PCOD9360774 Si02
#       5
#     8   4   8   8   8
#     4  10  20  35  58  82 110 145 183 226 273 321
#     4   8  22  36  58  80 110 144 184 226 274 320
#     4  10  21  37  57  82 113 146 181 223 273 327
#     4  10  20  35  58  82 110 145 183 226 273 321
#     4  10  21  37  57  82 113 146 181 223 273 327
#
# _framework density 18.828392000000001
#
# number of rings (size 3 to 8) (size 9 to 14) (size 15 to 20)
#    1.333    0.889    0.000    3.333    0.000    3.556 
#    0.000    1.111    0.000    5.333    0.000    0.000 
#    0.000    0.000    0.000    0.000    0.000    0.000 
#
# Total GULP energy -100249.002799 kJ/mol
# GULP energy per Si atom -5569.389044 kJ/mol
# Density = 1.878554 g / cm^3
# Si number density = 18.828392 Si / 1000 Ang^3
#
#
#
# Elastic Constant Matrix: (Units=GPa)
#
#
# Indices 1 2 3 4 5 6 
#
# 1 211.6872 128.5022 9.2002 0.0000 0.0000 0.0000
# 2 128.5022 231.7001 15.0620 0.0000 0.0000 0.0000
# 3 9.2002 15.0620 27.0184 0.0000 0.0000 0.0000
# 4 0.0000 0.0000 0.0000 45.1377 0.0000 0.0000
# 5 0.0000 0.0000 0.0000 0.0000 40.6039 0.0000
# 6 0.0000 0.0000 0.0000 0.0000 0.0000 29.6991
#
#
#
# Elastic Compliance Matrix: (Units=1/GPa)
#
#
# Indices 1 2 3 4 5 6 
#
# 1 0.007123 -0.003935 -0.000232 0.000000 0.000000 0.000000
# 2 -0.003935 0.006652 -0.002369 0.000000 0.000000 0.000000
# 3 -0.000232 -0.002369 0.038411 0.000000 0.000000 0.000000
# 4 0.000000 0.000000 0.000000 0.022154 0.000000 0.000000
# 5 0.000000 0.000000 0.000000 0.000000 0.024628 0.000000
# 6 0.000000 0.000000 0.000000 0.000000 0.000000 0.033671
#
#
# Mechanical properties :
#
#
# Convention : Reuss Voigt Hill
#
# Bulk Modulus (GPa) = 25.56534 86.21493 55.89014
# Shear Modulus (GPa) = 31.49615 44.26423 37.88019
#
# Velocity S-wave (km/s) = 4.09443 4.85390 4.49025
# Velocity P-wave (km/s) = 5.99666 8.79221 7.52539
#
# Compressibility (1/GPa) = 0.03911545
#
# Stress axis : x y z
#
# Youngs Moduli (GPa) = 140.39161 150.32019 26.03418
#
# Poissons Ratio (x) = 0.59156 0.00603
# Poissons Ratio (y) = 0.55249 0.06166
# Poissons Ratio (z) = 0.03252 0.35603
#
# Static dielectric constant tensor:
#      x y z
#    x 1.615800 0.000000 0.000000 
#    y 0.000000 1.661260 0.000000 
#    z 0.000000 0.000000 1.674630 
# 
# From -- ./inp_files/16676.got.cif
#   From: 2010.05.17/outbox.cif.g08.bks.cpg/sg39_9_cif.got.tgz:16676.got - 2010.06.03 18:22:40.
