data_PCOD9360843
_publ_section_title
;
Structure prediction by ZEFSAII (Michael W. Deem and Ramdas Pophale) SiO2 
 PCOD9360843
Probable space group: A B M 2
;
_chemical_formula_sum "Si O2"
_cell_formula_units_Z 64
_cell_length_a 19.458803
_cell_length_b 8.124160
_cell_length_c 20.428780
_cell_angle_alpha 90.000000
_cell_angle_beta 90.000000
_cell_angle_gamma 90.000000
_cell_volume 3229.512879
_symmetry_space_group_name_H-M "A B M 2"
_symmetry_group_IT_number 39
_symmetry_cell_setting 'orthorhombic'
loop_
_space_group_symop_operation_xyz
x,y,z
-x,-y,z
-x,1/2+y,z
x,1/2-y,z
x,1/2+y,1/2+z
-x,1/2-y,1/2+z
-x,y,1/2+z
x,-y,1/2+z
loop_
_atom_site_type_symbol
_atom_site_label
_atom_site_fract_x
_atom_site_fract_y
_atom_site_fract_z
Si Si1 0.421645 0.551035 0.733150
Si Si2 0.301663 0.052048 0.478030
Si Si3 0.578542 0.551145 0.381658
Si Si4 0.687516 0.943353 0.128657
Si Si5 0.167583 0.054083 0.666283
Si Si6 0.079610 0.552185 0.789686
Si Si7 0.076399 0.052253 0.546977
Si Si8 0.844998 0.548814 0.420979
O O1 0.500000 0.500000 0.721608
O O2 0.417232 0.750000 0.733464
O O3 0.403310 0.495741 0.807357
O O4 0.372784 0.488152 0.675187
O O5 0.300618 0.250000 0.473192
O O6 0.366883 0.991868 0.435677
O O7 0.230401 0.993418 0.444626
O O8 0.306291 0.013100 0.555160
O O9 0.500000 0.500000 0.395197
O O10 0.580473 0.750000 0.381687
O O11 0.675777 0.750000 0.120505
O O12 0.758212 0.971911 0.167859
O O13 0.178040 0.250000 0.661531
O O14 0.130107 0.993060 0.600689
O O15 0.116793 0.015869 0.725493
O O16 0.081160 0.750000 0.787361
O O17 0.125530 0.495544 0.851370
O O18 0.000000 0.500000 0.794854
O O19 0.078869 0.250000 0.547542
O O20 0.100687 0.995535 0.476029
O O21 0.000000 0.000000 0.563224
O O22 0.843300 0.750000 0.420079
#
# Coordination Sequence:
#
# PCOD9360843 Si02
#       8
#     8   8   8   8   8   8   8   8
#     4   9  20  38  60  87 117 152 194 237 287 345
#     4  10  20  38  61  83 114 157 196 233 286 347
#     4   9  19  36  61  86 114 152 192 235 284 341
#     4  11  23  38  59  88 120 152 193 245 293 343
#     4  11  23  40  60  83 116 154 196 240 289 350
#     4  11  23  39  61  86 117 152 192 243 294 349
#     4  10  20  36  58  81 107 145 189 231 278 335
#     4   9  19  37  59  82 111 151 193 234 282 343
#
# _framework density 19.817229999999999
#
# number of rings (size 3 to 8) (size 9 to 14) (size 15 to 20)
#    0.000    2.000    1.250    1.875    1.750    4.000 
#    0.000    4.375    0.000    0.000    0.000    0.000 
#    0.000    0.000    0.000    0.000    0.000    0.000 
#
# Total GULP energy -178629.132870 kJ/mol
# GULP energy per Si atom -5582.160402 kJ/mol
# Density = 1.977213 g / cm^3
# Si number density = 19.817230 Si / 1000 Ang^3
#
#
#
# Elastic Constant Matrix: (Units=GPa)
#
#
# Indices 1 2 3 4 5 6 
#
# 1 101.2923 -4.3490 35.9507 0.0000 0.0000 0.0000
# 2 -4.3490 6.8622 -0.0337 0.0000 0.0000 0.0000
# 3 35.9507 -0.0337 83.3165 0.0000 0.0000 0.0000
# 4 0.0000 0.0000 0.0000 61.9274 0.0000 0.0000
# 5 0.0000 0.0000 0.0000 0.0000 39.6530 0.0000
# 6 0.0000 0.0000 0.0000 0.0000 0.0000 27.3761
#
#
#
# Elastic Compliance Matrix: (Units=1/GPa)
#
#
# Indices 1 2 3 4 5 6 
#
# 1 0.012042 0.007606 -0.005193 0.000000 0.000000 0.000000
# 2 0.007606 0.150531 -0.003221 0.000000 0.000000 0.000000
# 3 -0.005193 -0.003221 0.014242 0.000000 0.000000 0.000000
# 4 0.000000 0.000000 0.000000 0.016148 0.000000 0.000000
# 5 0.000000 0.000000 0.000000 0.000000 0.025219 0.000000
# 6 0.000000 0.000000 0.000000 0.000000 0.000000 0.036528
#
#
# Mechanical properties :
#
#
# Convention : Reuss Voigt Hill
#
# Bulk Modulus (GPa) = 5.70780 28.28968 16.99874
# Shear Modulus (GPa) = 15.88686 36.45150 26.16918
#
# Velocity S-wave (km/s) = 2.83445 4.29346 3.63785
# Velocity P-wave (km/s) = 3.68763 6.23576 5.12266
#
# Compressibility (1/GPa) = 0.17519887
#
# Stress axis : x y z
#
# Youngs Moduli (GPa) = 83.04199 6.64315 70.21536
#
# Poissons Ratio (x) = -0.05053 0.36463
# Poissons Ratio (y) = -0.63164 0.22618
# Poissons Ratio (z) = 0.43124 0.02140
#
# Static dielectric constant tensor:
#      x y z
#    x 1.674690 0.000000 0.000000 
#    y 0.000000 1.700550 0.000000 
#    z 0.000000 0.000000 1.691950 
# 
# From -- ./inp_files/13162.got.cif
#   From: 2010.05.17/outbox.cif.g08.bks.cpg/sg39_7_cif.got.tgz:13162.got - 2010.06.03 18:22:40.
