data_PCOD9360637
_publ_section_title
;
Structure prediction by ZEFSAII (Michael W. Deem and Ramdas Pophale) SiO2 
 PCOD9360637
Probable space group: A B M 2
;
_chemical_formula_sum "Si O2"
_cell_formula_units_Z 64
_cell_length_a 14.499972
_cell_length_b 28.465047
_cell_length_c 8.579196
_cell_angle_alpha 90.000000
_cell_angle_beta 90.000000
_cell_angle_gamma 90.000000
_cell_volume 3540.997814
_symmetry_space_group_name_H-M "A B M 2"
_symmetry_group_IT_number 39
_symmetry_cell_setting 'orthorhombic'
loop_
_space_group_symop_operation_xyz
x,y,z
-x,-y,z
-x,1/2+y,z
x,1/2-y,z
x,1/2+y,1/2+z
-x,1/2-y,1/2+z
-x,y,1/2+z
x,-y,1/2+z
loop_
_atom_site_type_symbol
_atom_site_label
_atom_site_fract_x
_atom_site_fract_y
_atom_site_fract_z
Si Si1 0.370097 0.433076 0.189030
Si Si2 0.692177 0.540178 0.699906
Si Si3 0.234322 0.893291 0.474045
Si Si4 0.056237 0.437420 0.912145
Si Si5 0.524284 0.803068 0.647072
Si Si6 0.454875 0.902289 0.012070
Si Si7 0.644374 0.697132 0.956864
Si Si8 0.112757 0.965138 0.065103
O O1 0.345380 0.487406 0.218104
O O2 0.441728 0.420862 0.048263
O O3 0.421740 0.413159 0.339170
O O4 0.274807 0.408301 0.141077
O O5 0.729840 0.566115 0.854222
O O6 0.609596 0.569558 0.629494
O O7 0.777987 0.540743 0.578961
O O8 0.124195 0.895137 0.456683
O O9 0.281340 0.843592 0.436513
O O10 0.073250 0.452595 0.735020
O O11 0.092009 0.481465 0.015824
O O12 0.947861 0.433668 0.947627
O O13 0.548030 0.750000 0.592055
O O14 0.559146 0.847749 0.551846
O O15 0.567634 0.807274 0.818989
O O16 0.413985 0.807068 0.617859
O O17 0.682292 0.750000 0.947303
#
# Coordination Sequence:
#
# PCOD9360637 Si02
#       8
#     8   8   8   8   8   8   8   8
#     4  12  24  36  51  74 110 152 188 223 258 322
#     4  11  23  37  52  75 110 147 189 217 265 321
#     4  11  21  37  55  81 109 142 186 223 270 329
#     4  10  20  34  58  77 108 137 180 221 273 322
#     4  10  20  36  56  77 103 141 186 232 275 316
#     4  12  23  36  53  75 108 150 189 224 271 318
#     4  10  20  36  57  78 106 143 186 234 277 319
#     4  10  20  34  53  77 103 142 174 223 262 320
#
# _framework density 18.074002
#
# number of rings (size 3 to 8) (size 9 to 14) (size 15 to 20)
#    0.000    1.250    3.750    4.125    1.750    2.000 
#    0.000    0.000    0.000    0.000    0.000    4.375 
#    0.000    0.000    0.000    0.000    0.000    0.000 
#
# Total GULP energy -178521.879070 kJ/mol
# GULP energy per Si atom -5578.808721 kJ/mol
# Density = 1.803286 g / cm^3
# Si number density = 18.074002 Si / 1000 Ang^3
#
#
#
# Elastic Constant Matrix: (Units=GPa)
#
#
# Indices 1 2 3 4 5 6 
#
# 1 55.2236 23.4070 2.0294 0.0000 0.0000 0.0000
# 2 23.4070 121.8981 18.5870 0.0000 0.0000 0.0000
# 3 2.0294 18.5870 44.3613 0.0000 0.0000 0.0000
# 4 0.0000 0.0000 0.0000 14.9500 0.0000 0.0000
# 5 0.0000 0.0000 0.0000 0.0000 25.6235 0.0000
# 6 0.0000 0.0000 0.0000 0.0000 0.0000 22.7996
#
#
#
# Elastic Compliance Matrix: (Units=1/GPa)
#
#
# Indices 1 2 3 4 5 6 
#
# 1 0.019735 -0.003901 0.000732 0.000000 0.000000 0.000000
# 2 -0.003901 0.009535 -0.003816 0.000000 0.000000 0.000000
# 3 0.000732 -0.003816 0.024108 0.000000 0.000000 0.000000
# 4 0.000000 0.000000 0.000000 0.066890 0.000000 0.000000
# 5 0.000000 0.000000 0.000000 0.000000 0.039027 0.000000
# 6 0.000000 0.000000 0.000000 0.000000 0.000000 0.043860
#
#
# Mechanical properties :
#
#
# Convention : Reuss Voigt Hill
#
# Bulk Modulus (GPa) = 25.37717 34.39221 29.88469
# Shear Modulus (GPa) = 21.71452 24.50526 23.10989
#
# Velocity S-wave (km/s) = 3.46991 3.68615 3.57967
# Velocity P-wave (km/s) = 5.48862 6.09810 5.80137
#
# Compressibility (1/GPa) = 0.03940550
#
# Stress axis : x y z
#
# Youngs Moduli (GPa) = 50.67193 104.88123 41.48045
#
# Poissons Ratio (x) = 0.40915 -0.03035
# Poissons Ratio (y) = 0.19767 0.15831
# Poissons Ratio (z) = -0.03708 0.40027
#
# Static dielectric constant tensor:
#      x y z
#    x 1.661050 0.000000 0.000000 
#    y 0.000000 1.628300 0.000000 
#    z 0.000000 0.000000 1.685050 
# 
# From -- ./inp_files/3572.got.cif
#   From: 2010.05.17/outbox.cif.g08.bks.cpg/sg39_2_cif.got.tgz:3572.got - 2010.06.03 18:22:40.
