data_PCOD9360907
_publ_section_title
;
Structure prediction by ZEFSAII (Michael W. Deem and Ramdas Pophale) SiO2 
 PCOD9360907
Probable space group: A B M 2
;
_chemical_formula_sum "Si O2"
_cell_formula_units_Z 48
_cell_length_a 10.954373
_cell_length_b 17.212691
_cell_length_c 11.400852
_cell_angle_alpha 90.000000
_cell_angle_beta 90.000000
_cell_angle_gamma 90.000000
_cell_volume 2149.678956
_symmetry_space_group_name_H-M "A B M 2"
_symmetry_group_IT_number 39
_symmetry_cell_setting 'orthorhombic'
loop_
_space_group_symop_operation_xyz
x,y,z
-x,-y,z
-x,1/2+y,z
x,1/2-y,z
x,1/2+y,1/2+z
-x,1/2-y,1/2+z
-x,y,1/2+z
x,-y,1/2+z
loop_
_atom_site_type_symbol
_atom_site_label
_atom_site_fract_x
_atom_site_fract_y
_atom_site_fract_z
Si Si1 0.433888 0.250000 0.483310
Si Si2 0.971521 0.910214 0.965372
Si Si3 0.631829 0.534772 0.938235
Si Si4 0.604475 0.750000 0.220183
Si Si5 0.203687 0.941808 0.250456
Si Si6 0.771021 0.120199 0.000588
Si Si7 0.763635 0.610934 0.142168
O O1 0.472151 0.250000 0.343411
O O2 0.525619 0.250000 0.596844
O O3 0.341989 0.322799 0.491876
O O4 0.898174 0.920717 0.844890
O O5 0.883157 0.871670 0.062785
O O6 0.000000 0.000000 0.004751
O O7 0.097475 0.865035 0.943312
O O8 0.500000 0.500000 0.939328
O O9 0.667465 0.572534 0.815497
O O10 0.724828 0.463476 0.956800
O O11 0.659712 0.590192 0.045912
O O12 0.698360 0.676678 0.218130
O O13 0.194613 0.890230 0.136442
O O14 0.204540 0.031912 0.211109
#
# Coordination Sequence:
#
# PCOD9360907 Si02
#       7
#     4   8   8   4   8   8   8
#     4  12  30  51  70 100 142 199 241 298 355 438
#     4  11  21  39  69 102 139 174 225 296 360 429
#     4  10  20  36  61  95 128 170 234 295 354 419
#     4  12  28  49  74  94 148 193 245 296 361 426
#     4  10  21  37  66  99 131 175 231 300 357 420
#     4  11  24  41  65  99 135 179 237 288 361 424
#     4  10  23  40  65 100 131 183 230 289 359 427
#
# _framework density 22.328916
#
# number of rings (size 3 to 8) (size 9 to 14) (size 15 to 20)
#    0.000    1.333    5.000    2.000    2.333    8.667 
#    0.000    0.833    0.000    0.000    0.000    0.000 
#    0.000    0.000    0.000    0.000    0.000    0.000 
#
# Total GULP energy -134011.978264 kJ/mol
# GULP energy per Si atom -5583.832428 kJ/mol
# Density = 2.227809 g / cm^3
# Si number density = 22.328916 Si / 1000 Ang^3
#
#
#
# Elastic Constant Matrix: (Units=GPa)
#
#
# Indices 1 2 3 4 5 6 
#
# 1 125.4974 -3.6686 32.6263 0.0000 0.0000 0.0000
# 2 -3.6686 44.6927 11.6169 0.0000 0.0000 0.0000
# 3 32.6263 11.6169 114.6140 0.0000 0.0000 0.0000
# 4 0.0000 0.0000 0.0000 4.6332 0.0000 0.0000
# 5 0.0000 0.0000 0.0000 0.0000 14.8804 0.0000
# 6 0.0000 0.0000 0.0000 0.0000 0.0000 23.1963
#
#
#
# Elastic Compliance Matrix: (Units=1/GPa)
#
#
# Indices 1 2 3 4 5 6 
#
# 1 0.008689 0.001393 -0.002615 0.000000 0.000000 0.000000
# 2 0.001393 0.023204 -0.002748 0.000000 0.000000 0.000000
# 3 -0.002615 -0.002748 0.009748 0.000000 0.000000 0.000000
# 4 0.000000 0.000000 0.000000 0.215835 0.000000 0.000000
# 5 0.000000 0.000000 0.000000 0.000000 0.067203 0.000000
# 6 0.000000 0.000000 0.000000 0.000000 0.000000 0.043110
#
#
# Mechanical properties :
#
#
# Convention : Reuss Voigt Hill
#
# Bulk Modulus (GPa) = 29.67349 40.66146 35.16747
# Shear Modulus (GPa) = 12.92118 24.82393 18.87256
#
# Velocity S-wave (km/s) = 2.40818 3.33789 2.91040
# Velocity P-wave (km/s) = 4.58809 5.75371 5.20364
#
# Compressibility (1/GPa) = 0.03370012
#
# Stress axis : x y z
#
# Youngs Moduli (GPa) = 115.09168 43.09652 102.58767
#
# Poissons Ratio (x) = -0.06003 0.26822
# Poissons Ratio (y) = -0.16030 0.28194
# Poissons Ratio (z) = 0.30091 0.11844
#
# Static dielectric constant tensor:
#      x y z
#    x 1.854260 0.000000 0.000000 
#    y 0.000000 1.872150 0.000000 
#    z 0.000000 0.000000 1.892730 
# 
# From -- ./inp_files/5853.got.cif
#   From: 2010.05.17/outbox.cif.g08.bks.cpg/sg39_3_cif.got.tgz:5853.got - 2010.06.03 18:22:40.
