data_PCOD9360528
_publ_section_title
;
Structure prediction by ZEFSAII (Michael W. Deem and Ramdas Pophale) SiO2 
 PCOD9360528
Probable space group: A B M 2
;
_chemical_formula_sum "Si O2"
_cell_formula_units_Z 44
_cell_length_a 11.758691
_cell_length_b 9.373355
_cell_length_c 23.912626
_cell_angle_alpha 90.000000
_cell_angle_beta 90.000000
_cell_angle_gamma 90.000000
_cell_volume 2635.611021
_symmetry_space_group_name_H-M "A B M 2"
_symmetry_group_IT_number 39
_symmetry_cell_setting 'orthorhombic'
loop_
_space_group_symop_operation_xyz
x,y,z
-x,-y,z
-x,1/2+y,z
x,1/2-y,z
x,1/2+y,1/2+z
-x,1/2-y,1/2+z
-x,y,1/2+z
x,-y,1/2+z
loop_
_atom_site_type_symbol
_atom_site_label
_atom_site_fract_x
_atom_site_fract_y
_atom_site_fract_z
Si Si1 0.190856 0.906650 0.498620
Si Si2 0.382290 0.582927 0.407585
Si Si3 0.878734 0.079465 0.224171
Si Si4 0.000000 0.500000 0.411677
Si Si5 0.119240 0.417410 0.599663
Si Si6 0.795772 0.584050 0.331360
O O1 0.182412 0.750000 0.524834
O O2 0.306267 0.918040 0.463613
O O3 0.086163 0.920261 0.454315
O O4 0.186122 0.023798 0.546626
O O5 0.500000 0.500000 0.414227
O O6 0.398159 0.750000 0.391925
O O7 0.304190 0.496858 0.363955
O O8 0.891461 0.250000 0.234166
O O9 0.829111 0.060048 0.161586
O O10 0.814141 0.002719 0.274304
O O11 0.000000 0.000000 0.223270
O O12 0.089135 0.423085 0.369770
O O13 0.098484 0.250000 0.593614
O O14 0.000000 0.500000 0.598040
O O15 0.770421 0.750000 0.321512
#
# Coordination Sequence:
#
# PCOD9360528 Si02
#       6
#     8   8   8   4   8   8
#     4  10  20  33  52  77 107 138 172 217 261 313
#     4  10  22  39  57  79 106 138 179 221 267 317
#     4  10  20  33  49  74 108 143 178 216 260 314
#     4  10  20  30  48  78 110 138 174 210 260 320
#     4  10  20  32  49  74 107 143 177 214 258 312
#     4  11  21  33  54  79 108 142 176 219 267 316
#
# _framework density 16.694420999999998
#
# number of rings (size 3 to 8) (size 9 to 14) (size 15 to 20)
#    0.000    1.818    1.818    2.727    0.000    7.273 
#    0.000    0.000    0.000    1.091    0.000    2.545 
#    0.000    0.000    0.000    0.000    0.000    0.000 
#
# Total GULP energy -122600.942509 kJ/mol
# GULP energy per Si atom -5572.770114 kJ/mol
# Density = 1.665642 g / cm^3
# Si number density = 16.694421 Si / 1000 Ang^3
#
#
#
# Elastic Constant Matrix: (Units=GPa)
#
#
# Indices 1 2 3 4 5 6 
#
# 1 90.8125 44.4004 31.7141 0.0000 0.0000 0.0000
# 2 44.4004 151.2453 71.4929 0.0000 0.0000 0.0000
# 3 31.7141 71.4929 109.6254 0.0000 0.0000 0.0000
# 4 0.0000 0.0000 0.0000 -402.1439 0.0000 0.0000
# 5 0.0000 0.0000 0.0000 0.0000 10.9915 0.0000
# 6 0.0000 0.0000 0.0000 0.0000 0.0000 19.1220
#
#
#
# Elastic Compliance Matrix: (Units=1/GPa)
#
#
# Indices 1 2 3 4 5 6 
#
# 1 0.013113 -0.002973 -0.001855 0.000000 0.000000 0.000000
# 2 -0.002973 0.010232 -0.005813 0.000000 0.000000 0.000000
# 3 -0.001855 -0.005813 0.013450 0.000000 0.000000 0.000000
# 4 0.000000 0.000000 0.000000 -0.002487 0.000000 0.000000
# 5 0.000000 0.000000 0.000000 0.000000 0.090980 0.000000
# 6 0.000000 0.000000 0.000000 0.000000 0.000000 0.052296
#
#
# Mechanical properties :
#
#
# Convention : Reuss Voigt Hill
#
# Bulk Modulus (GPa) = 64.45970 71.87754 68.16862
# Shear Modulus (GPa) = 24.50549 -60.80103 -18.14777
#
# Velocity S-wave (km/s) = 3.83545 -6.04144 -3.30063
# Velocity P-wave (km/s) = 7.63607 2.34885 5.13773
#
# Compressibility (1/GPa) = 0.01551357
#
# Stress axis : x y z
#
# Youngs Moduli (GPa) = 76.26088 97.73010 74.35180
#
# Poissons Ratio (x) = 0.29053 0.13791
# Poissons Ratio (y) = 0.22670 0.43221
# Poissons Ratio (z) = 0.14145 0.56811
#
# Static dielectric constant tensor:
#      x y z
#    x 1.536640 0.000000 0.000000 
#    y 0.000000 1.564820 0.000000 
#    z 0.000000 0.000000 1.585620 
# 
# From -- ./inp_files/15793.got.cif
#   From: 2010.05.17/outbox.cif.g08.bks.cpg/sg39_8_cif.got.tgz:15793.got - 2010.06.03 18:22:40.
