data_PCOD9360627
_publ_section_title
;
Structure prediction by ZEFSAII (Michael W. Deem and Ramdas Pophale) SiO2 
 PCOD9360627
Probable space group: A B M 2
;
_chemical_formula_sum "Si O2"
_cell_formula_units_Z 64
_cell_length_a 14.227716
_cell_length_b 7.623409
_cell_length_c 27.307350
_cell_angle_alpha 90.000000
_cell_angle_beta 90.000000
_cell_angle_gamma 90.000000
_cell_volume 2961.856169
_symmetry_space_group_name_H-M "A B M 2"
_symmetry_group_IT_number 39
_symmetry_cell_setting 'orthorhombic'
loop_
_space_group_symop_operation_xyz
x,y,z
-x,-y,z
-x,1/2+y,z
x,1/2-y,z
x,1/2+y,1/2+z
-x,1/2-y,1/2+z
-x,y,1/2+z
x,-y,1/2+z
loop_
_atom_site_type_symbol
_atom_site_label
_atom_site_fract_x
_atom_site_fract_y
_atom_site_fract_z
Si Si1 0.798731 0.543789 0.956490
Si Si2 0.109823 0.038529 0.056051
Si Si3 0.388593 0.959889 0.810884
Si Si4 0.609570 0.961446 0.204700
Si Si5 0.111131 0.459247 0.749178
Si Si6 0.218400 0.544661 0.650409
Si Si7 0.609760 0.958965 0.417734
Si Si8 0.111063 0.460750 0.856631
O O1 0.822022 0.750000 0.955397
O O2 0.686258 0.525543 0.955869
O O3 0.838746 0.468369 0.905333
O O4 0.845742 0.470250 0.005408
O O5 0.119257 0.250000 0.055709
O O6 0.162797 0.969097 0.104329
O O7 0.000000 0.000000 0.058568
O O8 0.375004 0.750000 0.811457
O O9 0.356111 0.028676 0.758221
O O10 0.359072 0.030663 0.863857
O O11 0.500000 0.000000 0.810129
O O12 0.617552 0.750000 0.206471
O O13 0.679158 0.030243 0.163263
O O14 0.500000 0.000000 0.197835
O O15 0.123054 0.250000 0.747976
O O16 0.160601 0.532940 0.701060
O O17 0.144291 0.526319 0.802951
O O18 0.000000 0.500000 0.746642
O O19 0.231651 0.750000 0.639418
O O20 0.616824 0.750000 0.416327
O O21 0.500000 0.000000 0.426105
O O22 0.122466 0.250000 0.855352
O O23 0.000000 0.500000 0.860346
#
# Coordination Sequence:
#
# PCOD9360627 Si02
#       8
#     8   8   8   8   8   8   8   8
#     4  10  21  37  56  79 110 144 183 230 279 326
#     4  10  22  40  61  83 108 142 184 232 280 327
#     4   8  15  28  46  71 102 138 175 214 258 308
#     4   9  18  33  52  76 109 144 181 222 268 318
#     4  10  20  34  52  78 109 141 177 220 275 336
#     4  10  21  36  56  81 110 145 184 226 276 328
#     4  10  20  34  54  81 112 147 188 227 272 325
#     4   9  19  34  52  77 108 141 176 221 277 334
#
# _framework density 21.608070000000001
#
# number of rings (size 3 to 8) (size 9 to 14) (size 15 to 20)
#    0.000    2.500    0.000    1.500    1.750    4.000 
#    0.000    0.625    0.000    1.500    0.000    0.000 
#    0.000    0.000    0.000    0.000    0.000    0.000 
#
# Total GULP energy -178584.714265 kJ/mol
# GULP energy per Si atom -5580.772321 kJ/mol
# Density = 2.155889 g / cm^3
# Si number density = 21.608070 Si / 1000 Ang^3
#
#
#
# Elastic Constant Matrix: (Units=GPa)
#
#
# Indices 1 2 3 4 5 6 
#
# 1 121.4195 -13.1577 90.9423 0.0000 0.0000 0.0000
# 2 -13.1577 51.5282 -0.2249 0.0000 0.0000 0.0000
# 3 90.9423 -0.2249 154.1161 0.0000 0.0000 0.0000
# 4 0.0000 0.0000 0.0000 7.7751 0.0000 0.0000
# 5 0.0000 0.0000 0.0000 0.0000 5.3980 0.0000
# 6 0.0000 0.0000 0.0000 0.0000 0.0000 23.1575
#
#
#
# Elastic Compliance Matrix: (Units=1/GPa)
#
#
# Indices 1 2 3 4 5 6 
#
# 1 0.015513 0.003921 -0.009148 0.000000 0.000000 0.000000
# 2 0.003921 0.020398 -0.002284 0.000000 0.000000 0.000000
# 3 -0.009148 -0.002284 0.011884 0.000000 0.000000 0.000000
# 4 0.000000 0.000000 0.000000 0.128615 0.000000 0.000000
# 5 0.000000 0.000000 0.000000 0.000000 0.185254 0.000000
# 6 0.000000 0.000000 0.000000 0.000000 0.000000 0.043182
#
#
# Mechanical properties :
#
#
# Convention : Reuss Voigt Hill
#
# Bulk Modulus (GPa) = 30.51355 53.57592 42.04473
# Shear Modulus (GPa) = 11.60653 23.89974 17.75314
#
# Velocity S-wave (km/s) = 2.32014 3.32935 2.86946
# Velocity P-wave (km/s) = 4.61838 6.29505 5.52074
#
# Compressibility (1/GPa) = 0.03277233
#
# Stress axis : x y z
#
# Youngs Moduli (GPa) = 64.46301 49.02401 84.14997
#
# Poissons Ratio (x) = -0.19223 0.76982
# Poissons Ratio (y) = -0.25277 0.19221
# Poissons Ratio (z) = 0.58972 0.11198
#
# Static dielectric constant tensor:
#      x y z
#    x 1.813370 0.000000 0.000000 
#    y 0.000000 1.786690 0.000000 
#    z 0.000000 0.000000 1.822280 
# 
# From -- ./inp_files/16153.got.cif
#   From: 2010.05.17/outbox.cif.g08.bks.cpg/sg39_9_cif.got.tgz:16153.got - 2010.06.03 18:22:40.
