data_PCOD9360227
_publ_section_title
;
Structure prediction by ZEFSAII (Michael W. Deem and Ramdas Pophale) SiO2 
 PCOD9360227
Probable space group: A B M 2
;
_chemical_formula_sum "Si O2"
_cell_formula_units_Z 64
_cell_length_a 19.292122
_cell_length_b 18.782478
_cell_length_c 9.228202
_cell_angle_alpha 90.000000
_cell_angle_beta 90.000000
_cell_angle_gamma 90.000000
_cell_volume 3343.874588
_symmetry_space_group_name_H-M "A B M 2"
_symmetry_group_IT_number 39
_symmetry_cell_setting 'orthorhombic'
loop_
_space_group_symop_operation_xyz
x,y,z
-x,-y,z
-x,1/2+y,z
x,1/2-y,z
x,1/2+y,1/2+z
-x,1/2-y,1/2+z
-x,y,1/2+z
x,-y,1/2+z
loop_
_atom_site_type_symbol
_atom_site_label
_atom_site_fract_x
_atom_site_fract_y
_atom_site_fract_z
Si Si1 0.574104 0.932958 0.628040
Si Si2 0.553894 0.585588 0.287315
Si Si3 0.298568 0.597034 0.737050
Si Si4 0.719654 0.036192 0.049275
Si Si5 0.842961 0.668127 0.191857
Si Si6 0.048967 0.833730 0.953702
Si Si7 0.086980 0.069529 0.965501
Si Si8 0.124308 0.564805 0.140876
O O1 0.550833 0.929320 0.459378
O O2 0.519299 0.888161 0.723123
O O3 0.656509 0.919322 0.622593
O O4 0.568303 0.011402 0.700826
O O5 0.624101 0.628645 0.251573
O O6 0.290483 0.545261 0.599166
O O7 0.234916 0.651084 0.741222
O O8 0.289538 0.546561 0.878079
O O9 0.795869 0.060418 0.094266
O O10 0.849989 0.750000 0.151085
O O11 0.898773 0.653863 0.319268
O O12 0.861738 0.618047 0.058853
O O13 0.031613 0.750000 0.960317
O O14 0.981922 0.883736 0.942975
O O15 0.090378 0.860558 0.094986
O O16 0.117190 0.050984 0.809674
O O17 0.082551 0.996565 0.055211
#
# Coordination Sequence:
#
# PCOD9360227 Si02
#       8
#     8   8   8   8   8   8   8   8
#     4   9  16  26  43  74 111 147 179 220 276 339
#     4   9  16  26  44  73 111 147 184 221 276 341
#     4  10  19  34  54  81 114 154 188 235 289 344
#     4  10  19  33  54  81 119 147 186 229 288 344
#     4  11  23  41  61  83 115 154 201 245 294 354
#     4  11  25  44  63  83 115 154 194 241 293 351
#     4  12  25  40  61  89 116 149 194 243 297 344
#     4  12  23  40  62  89 119 151 191 240 291 352
#
# _framework density 19.139472000000001
#
# number of rings (size 3 to 8) (size 9 to 14) (size 15 to 20)
#    0.000    1.500    2.500    4.500    0.000    4.000 
#    0.000    0.000    0.000    0.000    0.000    4.375 
#    0.000    0.000    0.000    0.000    0.000    0.000 
#
# Total GULP energy -178491.127310 kJ/mol
# GULP energy per Si atom -5577.847728 kJ/mol
# Density = 1.909591 g / cm^3
# Si number density = 19.139472 Si / 1000 Ang^3
#
#
#
# Elastic Constant Matrix: (Units=GPa)
#
#
# Indices 1 2 3 4 5 6 
#
# 1 142.3773 30.6162 12.9671 0.0000 0.0000 0.0000
# 2 30.6162 47.1584 27.3217 0.0000 0.0000 0.0000
# 3 12.9671 27.3217 98.6178 0.0000 0.0000 0.0000
# 4 0.0000 0.0000 0.0000 18.1763 0.0000 0.0000
# 5 0.0000 0.0000 0.0000 0.0000 22.7256 0.0000
# 6 0.0000 0.0000 0.0000 0.0000 0.0000 6.8817
#
#
#
# Elastic Compliance Matrix: (Units=1/GPa)
#
#
# Indices 1 2 3 4 5 6 
#
# 1 0.008182 -0.005585 0.000471 0.000000 0.000000 0.000000
# 2 -0.005585 0.029072 -0.007320 0.000000 0.000000 0.000000
# 3 0.000471 -0.007320 0.012106 0.000000 0.000000 0.000000
# 4 0.000000 0.000000 0.000000 0.055017 0.000000 0.000000
# 5 0.000000 0.000000 0.000000 0.000000 0.044003 0.000000
# 6 0.000000 0.000000 0.000000 0.000000 0.000000 0.145313
#
#
# Mechanical properties :
#
#
# Convention : Reuss Voigt Hill
#
# Bulk Modulus (GPa) = 40.82798 47.77373 44.30086
# Shear Modulus (GPa) = 15.30349 24.03994 19.67171
#
# Velocity S-wave (km/s) = 2.83075 3.54791 3.20942
# Velocity P-wave (km/s) = 5.66236 6.46518 6.07704
#
# Compressibility (1/GPa) = 0.02449301
#
# Stress axis : x y z
#
# Youngs Moduli (GPa) = 122.22563 34.39759 82.60283
#
# Poissons Ratio (x) = 0.19210 -0.03894
# Poissons Ratio (y) = 0.68261 0.60464
# Poissons Ratio (z) = -0.05763 0.25179
#
# Static dielectric constant tensor:
#      x y z
#    x 1.753740 0.000000 0.000000 
#    y 0.000000 1.649250 0.000000 
#    z 0.000000 0.000000 1.666520 
# 
# From -- ./inp_files/4033.got.cif
#   From: 2010.05.17/outbox.cif.g08.bks.cpg/sg39_3_cif.got.tgz:4033.got - 2010.06.03 18:22:40.
