data_PCOD9360359
_publ_section_title
;
Structure prediction by ZEFSAII (Michael W. Deem and Ramdas Pophale) SiO2 
 PCOD9360359
Probable space group: A B M 2
;
_chemical_formula_sum "Si O2"
_cell_formula_units_Z 64
_cell_length_a 11.182567
_cell_length_b 18.392380
_cell_length_c 16.361746
_cell_angle_alpha 90.000000
_cell_angle_beta 90.000000
_cell_angle_gamma 90.000000
_cell_volume 3365.186101
_symmetry_space_group_name_H-M "A B M 2"
_symmetry_group_IT_number 39
_symmetry_cell_setting 'orthorhombic'
loop_
_space_group_symop_operation_xyz
x,y,z
-x,-y,z
-x,1/2+y,z
x,1/2-y,z
x,1/2+y,1/2+z
-x,1/2-y,1/2+z
-x,y,1/2+z
x,-y,1/2+z
loop_
_atom_site_type_symbol
_atom_site_label
_atom_site_fract_x
_atom_site_fract_y
_atom_site_fract_z
Si Si1 0.658866 0.431548 0.496010
Si Si2 0.124718 0.042834 0.766664
Si Si3 0.558731 0.334434 0.057772
Si Si4 0.623275 0.981776 0.326623
Si Si5 0.668468 0.173192 0.875068
Si Si6 0.845270 0.166245 0.398555
Si Si7 0.229689 0.565291 0.093297
Si Si8 0.892915 0.169668 0.968631
O O1 0.555958 0.386014 0.542331
O O2 0.619256 0.479108 0.416212
O O3 0.748368 0.373100 0.455741
O O4 0.719871 0.489684 0.556947
O O5 0.246922 0.001483 0.792321
O O6 0.131884 0.117166 0.818646
O O7 0.146159 0.056020 0.671291
O O8 0.000000 0.000000 0.782668
O O9 0.536727 0.250000 0.084176
O O10 0.657791 0.379957 0.108620
O O11 0.616906 0.328413 0.967071
O O12 0.500000 0.000000 0.280854
O O13 0.618338 0.895721 0.331943
O O14 0.637812 0.250000 0.836432
O O15 0.810774 0.166666 0.887650
O O16 0.812512 0.250000 0.380368
O O17 0.969825 0.165841 0.446896
O O18 0.150642 0.604585 0.024403
O O19 0.867553 0.250000 0.005844
#
# Coordination Sequence:
#
# PCOD9360359 Si02
#       8
#     8   8   8   8   8   8   8   8
#     4  11  20  34  62  92 125 157 205 264 314 364
#     4  11  27  41  60  90 126 167 207 252 322 381
#     4  10  19  34  59  92 122 153 204 257 306 364
#     4  11  19  37  59  89 121 158 204 256 305 365
#     4   9  16  29  55  86 114 146 193 249 301 351
#     4  10  23  40  62  89 122 162 208 263 315 371
#     4  11  22  37  61  88 124 164 204 254 313 382
#     4   9  18  34  59  88 114 156 209 257 305 363
#
# _framework density 19.018263999999999
#
# number of rings (size 3 to 8) (size 9 to 14) (size 15 to 20)
#    0.000    1.750    3.750    2.625    3.500    2.000 
#    0.000    0.000    0.000    3.000    0.000    0.000 
#    0.000    0.000    0.000    0.000    0.000    0.000 
#
# Total GULP energy -178312.591926 kJ/mol
# GULP energy per Si atom -5572.268498 kJ/mol
# Density = 1.897498 g / cm^3
# Si number density = 19.018264 Si / 1000 Ang^3
#
#
#
# Elastic Constant Matrix: (Units=GPa)
#
#
# Indices 1 2 3 4 5 6 
#
# 1 105.3327 55.0116 15.4802 0.0000 0.0000 0.0000
# 2 55.0116 158.7826 28.0460 0.0000 0.0000 0.0000
# 3 15.4802 28.0460 26.0987 0.0000 0.0000 0.0000
# 4 0.0000 0.0000 0.0000 8.5270 0.0000 0.0000
# 5 0.0000 0.0000 0.0000 0.0000 17.9132 0.0000
# 6 0.0000 0.0000 0.0000 0.0000 0.0000 25.3184
#
#
#
# Elastic Compliance Matrix: (Units=1/GPa)
#
#
# Indices 1 2 3 4 5 6 
#
# 1 0.011806 -0.003522 -0.003218 0.000000 0.000000 0.000000
# 2 -0.003522 0.008824 -0.007393 0.000000 0.000000 0.000000
# 3 -0.003218 -0.007393 0.048170 0.000000 0.000000 0.000000
# 4 0.000000 0.000000 0.000000 0.117275 0.000000 0.000000
# 5 0.000000 0.000000 0.000000 0.000000 0.055825 0.000000
# 6 0.000000 0.000000 0.000000 0.000000 0.000000 0.039497
#
#
# Mechanical properties :
#
#
# Convention : Reuss Voigt Hill
#
# Bulk Modulus (GPa) = 24.67105 54.14330 39.40717
# Shear Modulus (GPa) = 15.47152 23.13011 19.30082
#
# Velocity S-wave (km/s) = 2.85530 3.49120 3.18914
# Velocity P-wave (km/s) = 4.88577 6.69195 5.85888
#
# Compressibility (1/GPa) = 0.04053334
#
# Stress axis : x y z
#
# Youngs Moduli (GPa) = 84.70244 113.32702 20.75987
#
# Poissons Ratio (x) = 0.39913 0.06680
# Poissons Ratio (y) = 0.29831 0.15349
# Poissons Ratio (z) = 0.27257 0.83787
#
# Static dielectric constant tensor:
#      x y z
#    x 1.712110 0.000000 0.000000 
#    y 0.000000 1.717050 0.000000 
#    z 0.000000 0.000000 1.650060 
# 
# From -- ./inp_files/12424.got.cif
#   From: 2010.05.17/outbox.cif.g08.bks.cpg/sg39_7_cif.got.tgz:12424.got - 2010.06.03 18:22:40.
