data_PCOD9360568
_publ_section_title
;
Structure prediction by ZEFSAII (Michael W. Deem and Ramdas Pophale) SiO2 
 PCOD9360568
Probable space group: A B M 2
;
_chemical_formula_sum "Si O2"
_cell_formula_units_Z 64
_cell_length_a 7.097475
_cell_length_b 17.138236
_cell_length_c 21.800971
_cell_angle_alpha 90.000000
_cell_angle_beta 90.000000
_cell_angle_gamma 90.000000
_cell_volume 2651.830905
_symmetry_space_group_name_H-M "A B M 2"
_symmetry_group_IT_number 39
_symmetry_cell_setting 'orthorhombic'
loop_
_space_group_symop_operation_xyz
x,y,z
-x,-y,z
-x,1/2+y,z
x,1/2-y,z
x,1/2+y,1/2+z
-x,1/2-y,1/2+z
-x,y,1/2+z
x,-y,1/2+z
loop_
_atom_site_type_symbol
_atom_site_label
_atom_site_fract_x
_atom_site_fract_y
_atom_site_fract_z
Si Si1 0.484202 0.909964 0.685970
Si Si2 0.675359 0.158024 0.436594
Si Si3 0.838378 0.338381 0.846421
Si Si4 0.933152 0.410317 0.969674
Si Si5 0.046550 0.591290 0.723053
Si Si6 0.405323 0.161363 0.806013
Si Si7 0.590803 0.657843 0.062976
Si Si8 0.034307 0.157401 0.594400
O O1 0.267486 0.896537 0.705986
O O2 0.610930 0.886608 0.743857
O O3 0.523486 0.866505 0.622576
O O4 0.500000 0.000000 0.672439
O O5 0.627721 0.250000 0.428890
O O6 0.888143 0.146320 0.457823
O O7 0.666413 0.123149 0.368882
O O8 0.559302 0.124463 0.494449
O O9 0.897621 0.250000 0.862645
O O10 0.968618 0.370346 0.790835
O O11 0.628267 0.332989 0.819933
O O12 0.821723 0.391673 0.907173
O O13 0.000000 0.500000 0.971119
O O14 0.863299 0.385831 0.037467
O O15 0.940749 0.626821 0.663681
O O16 0.000000 0.500000 0.727119
O O17 0.334467 0.250000 0.796778
O O18 0.569568 0.750000 0.056149
O O19 0.810174 0.642813 0.080692
O O20 0.068695 0.250000 0.591345
#
# Coordination Sequence:
#
# PCOD9360568 Si02
#       8
#     8   8   8   8   8   8   8   8
#     4  10  20  33  51  76 104 133 166 208 256 305
#     4   9  18  35  57  78 100 133 174 213 253 305
#     4  10  20  35  54  77 104 138 176 215 258 307
#     4  11  21  33  52  80 110 139 170 212 261 309
#     4  10  20  35  54  77 105 135 170 214 261 309
#     4   9  19  35  55  76 100 133 175 217 256 300
#     4   8  15  31  55  76  96 128 172 211 247 298
#     4   9  17  33  56  78  99 133 178 216 250 301
#
# _framework density 24.134267000000001
#
# number of rings (size 3 to 8) (size 9 to 14) (size 15 to 20)
#    0.000    2.500    0.000    3.375    0.000    6.000 
#    0.000    5.625    0.000    3.750    0.000    0.000 
#    0.000    0.000    0.000    0.000    0.000    0.000 
#
# Total GULP energy -178670.464327 kJ/mol
# GULP energy per Si atom -5583.452010 kJ/mol
# Density = 2.407934 g / cm^3
# Si number density = 24.134267 Si / 1000 Ang^3
#
#
#
# Elastic Constant Matrix: (Units=GPa)
#
#
# Indices 1 2 3 4 5 6 
#
# 1 47.3913 -15.1839 30.7908 0.0000 0.0000 0.0000
# 2 -15.1839 47.5508 48.8065 0.0000 0.0000 0.0000
# 3 30.7908 48.8065 205.6184 0.0000 0.0000 0.0000
# 4 0.0000 0.0000 0.0000 22.3777 0.0000 0.0000
# 5 0.0000 0.0000 0.0000 0.0000 44.9553 0.0000
# 6 0.0000 0.0000 0.0000 0.0000 0.0000 -4.2291
#
#
#
# Elastic Compliance Matrix: (Units=1/GPa)
#
#
# Indices 1 2 3 4 5 6 
#
# 1 0.034826 0.021780 -0.010385 0.000000 0.000000 0.000000
# 2 0.021780 0.041425 -0.013094 0.000000 0.000000 0.000000
# 3 -0.010385 -0.013094 0.009527 0.000000 0.000000 0.000000
# 4 0.000000 0.000000 0.000000 0.044687 0.000000 0.000000
# 5 0.000000 0.000000 0.000000 0.000000 0.022244 0.000000
# 6 0.000000 0.000000 0.000000 0.000000 0.000000 -0.236455
#
#
# Mechanical properties :
#
#
# Convention : Reuss Voigt Hill
#
# Bulk Modulus (GPa) = 12.13896 47.70971 29.92433
# Shear Modulus (GPa) = -94.54193 28.36391 -33.08901
#
# Velocity S-wave (km/s) = -6.26565 3.43192 -3.70677
# Velocity P-wave (km/s) = 6.87778 5.95948 2.42779
#
# Compressibility (1/GPa) = 0.08237940
#
# Stress axis : x y z
#
# Youngs Moduli (GPa) = 28.71387 24.13998 104.96893
#
# Poissons Ratio (x) = -0.52577 1.09010
# Poissons Ratio (y) = -0.62539 1.37450
# Poissons Ratio (z) = 0.29819 0.31610
#
# Static dielectric constant tensor:
#      x y z
#    x 2.039620 0.000000 0.000000 
#    y 0.000000 1.833580 0.000000 
#    z 0.000000 0.000000 1.994890 
# 
# From -- ./inp_files/12376.got.cif
#   From: 2010.05.17/outbox.cif.g08.bks.cpg/sg39_7_cif.got.tgz:12376.got - 2010.06.03 18:22:40.
