data_PCOD9360029
_publ_section_title
;
Structure prediction by ZEFSAII (Michael W. Deem and Ramdas Pophale) SiO2 
 PCOD9360029
Probable space group: A B M 2
;
_chemical_formula_sum "Si O2"
_cell_formula_units_Z 64
_cell_length_a 15.505601
_cell_length_b 8.833401
_cell_length_c 31.728979
_cell_angle_alpha 90.000000
_cell_angle_beta 90.000000
_cell_angle_gamma 90.000000
_cell_volume 4345.829139
_symmetry_space_group_name_H-M "A B M 2"
_symmetry_group_IT_number 39
_symmetry_cell_setting 'orthorhombic'
loop_
_space_group_symop_operation_xyz
x,y,z
-x,-y,z
-x,1/2+y,z
x,1/2-y,z
x,1/2+y,1/2+z
-x,1/2-y,1/2+z
-x,y,1/2+z
x,-y,1/2+z
loop_
_atom_site_type_symbol
_atom_site_label
_atom_site_fract_x
_atom_site_fract_y
_atom_site_fract_z
Si Si1 0.903432 0.931676 0.250000
Si Si2 0.410633 0.575190 0.098899
Si Si3 0.903542 0.068811 0.163555
Si Si4 0.904083 0.932085 0.928520
Si Si5 0.228013 0.931741 0.597227
Si Si6 0.768709 0.068384 0.499327
Si Si7 0.903380 0.068579 0.842490
Si Si8 0.411732 0.423153 0.496420
O O1 0.907789 0.750000 0.244850
O O2 0.863906 0.963747 0.296246
O O3 0.865871 0.007073 0.208077
O O4 0.000000 0.000000 0.251678
O O5 0.500000 0.500000 0.113627
O O6 0.404763 0.750000 0.112202
O O7 0.324067 0.484835 0.110258
O O8 0.413828 0.573592 0.047679
O O9 0.908957 0.250000 0.164362
O O10 0.842988 0.010473 0.126195
O O11 0.000000 0.000000 0.158932
O O12 0.909676 0.750000 0.926508
O O13 0.865245 0.994807 0.884550
O O14 0.844495 0.977638 0.967767
O O15 0.000000 0.000000 0.933233
O O16 0.221241 0.750000 0.600300
O O17 0.216188 0.977091 0.548021
O O18 0.764101 0.250000 0.499158
O O19 0.676518 0.005700 0.484672
O O20 0.908352 0.250000 0.847229
O O21 0.000000 0.000000 0.841140
O O22 0.500000 0.500000 0.481651
O O23 0.409157 0.250000 0.482884
#
# Coordination Sequence:
#
# PCOD9360029 Si02
#       8
#     8   8   8   8   8   8   8   8
#     4   9  16  27  43  62  82 105 135 172 215 258
#     4   9  16  27  43  64  85 108 139 175 218 261
#     4  11  21  32  45  62  85 114 148 182 216 256
#     4  10  19  30  43  60  84 114 147 181 214 250
#     4  10  19  32  46  61  85 116 149 184 218 252
#     4   9  19  32  44  60  84 115 149 182 214 250
#     4   9  16  26  42  62  82 105 135 172 214 258
#     4   9  16  26  43  63  83 107 136 174 217 259
#
# _framework density 14.726763999999999
#
# number of rings (size 3 to 8) (size 9 to 14) (size 15 to 20)
#    0.000    2.500    0.000    4.875    0.000    6.500 
#    0.000    1.250    0.000    0.000    0.000    0.000 
#    0.000    1.000    0.000    6.750    0.000    6.000 
#
# Total GULP energy -178186.860170 kJ/mol
# GULP energy per Si atom -5568.339380 kJ/mol
# Density = 1.469325 g / cm^3
# Si number density = 14.726764 Si / 1000 Ang^3
#
#
#
# Elastic Constant Matrix: (Units=GPa)
#
#
# Indices 1 2 3 4 5 6 
#
# 1 78.5729 36.6719 54.9703 0.0000 0.0000 0.0000
# 2 36.6719 76.6184 43.6998 0.0000 0.0000 0.0000
# 3 54.9703 43.6998 95.0423 0.0000 0.0000 0.0000
# 4 0.0000 0.0000 0.0000 30.4352 0.0000 0.0000
# 5 0.0000 0.0000 0.0000 0.0000 -0.9472 0.0000
# 6 0.0000 0.0000 0.0000 0.0000 0.0000 23.5316
#
#
#
# Elastic Compliance Matrix: (Units=1/GPa)
#
#
# Indices 1 2 3 4 5 6 
#
# 1 0.022481 -0.004533 -0.010919 0.000000 0.000000 0.000000
# 2 -0.004533 0.018605 -0.005933 0.000000 0.000000 0.000000
# 3 -0.010919 -0.005933 0.019565 0.000000 0.000000 0.000000
# 4 0.000000 0.000000 0.000000 0.032857 0.000000 0.000000
# 5 0.000000 0.000000 0.000000 0.000000 -1.055697 0.000000
# 6 0.000000 0.000000 0.000000 0.000000 0.000000 0.042496
#
#
# Mechanical properties :
#
#
# Convention : Reuss Voigt Hill
#
# Bulk Modulus (GPa) = 55.92022 57.87973 56.89998
# Shear Modulus (GPa) = -5.74076 18.26335 6.26129
#
# Velocity S-wave (km/s) = -1.97652 3.52539 2.06419
# Velocity P-wave (km/s) = 5.73109 7.48057 6.66349
#
# Compressibility (1/GPa) = 0.01788262
#
# Stress axis : x y z
#
# Youngs Moduli (GPa) = 44.48145 53.74886 51.11291
#
# Poissons Ratio (x) = 0.24363 0.55808
# Poissons Ratio (y) = 0.20162 0.30324
# Poissons Ratio (z) = 0.48567 0.31888
#
# Static dielectric constant tensor:
#      x y z
#    x 1.464570 0.000000 0.000000 
#    y 0.000000 1.491910 0.000000 
#    z 0.000000 0.000000 1.516760 
# 
# From -- ./inp_files/18001.got.cif
#   From: 2010.05.17/outbox.cif.g08.bks.cpg/sg39_10_cif.got.tgz:18001.got - 2010.06.03 18:22:40.
