data_PCOD9360252
_publ_section_title
;
Structure prediction by ZEFSAII (Michael W. Deem and Ramdas Pophale) SiO2 
 PCOD9360252
Probable space group: A B M 2
;
_chemical_formula_sum "Si O2"
_cell_formula_units_Z 60
_cell_length_a 5.554894
_cell_length_b 30.670431
_cell_length_c 19.039608
_cell_angle_alpha 90.000000
_cell_angle_beta 90.000000
_cell_angle_gamma 90.000000
_cell_volume 3243.796924
_symmetry_space_group_name_H-M "A B M 2"
_symmetry_group_IT_number 39
_symmetry_cell_setting 'orthorhombic'
loop_
_space_group_symop_operation_xyz
x,y,z
-x,-y,z
-x,1/2+y,z
x,1/2-y,z
x,1/2+y,1/2+z
-x,1/2-y,1/2+z
-x,y,1/2+z
x,-y,1/2+z
loop_
_atom_site_type_symbol
_atom_site_label
_atom_site_fract_x
_atom_site_fract_y
_atom_site_fract_z
Si Si1 0.112437 0.201113 0.883680
Si Si2 0.791204 0.801299 0.720511
Si Si3 0.480497 0.202324 0.011416
Si Si4 0.213470 0.415245 0.072479
Si Si5 0.834974 0.370740 0.966139
Si Si6 0.291820 0.330939 0.151220
Si Si7 0.604087 0.456918 0.967695
Si Si8 0.000000 0.500000 0.069245
O O1 0.999506 0.250000 0.886640
O O2 0.198617 0.194160 0.804638
O O3 0.328649 0.201305 0.939828
O O4 0.945116 0.161789 0.908930
O O5 0.799486 0.750000 0.703256
O O6 0.534875 0.818788 0.692961
O O7 0.036251 0.821798 0.688444
O O8 0.600725 0.250000 0.017311
O O9 0.654290 0.160788 0.008636
O O10 0.308068 0.196116 0.078304
O O11 0.306952 0.381231 0.128542
O O12 0.102919 0.458252 0.108728
O O13 0.408426 0.434706 0.018767
O O14 0.025964 0.389242 0.022573
O O15 0.718179 0.414198 0.931813
O O16 0.500000 0.500000 0.928649
O O17 0.802423 0.478496 0.018277
#
# Coordination Sequence:
#
# PCOD9360252 Si02
#       8
#     8   8   8   8   8   8   8   4
#     4  10  23  39  56  81 118 168 213 254 304 372
#     4  11  26  43  58  83 127 173 212 252 314 378
#     4  11  22  35  58  87 119 158 205 260 307 350
#     4  10  19  33  55  90 123 149 195 257 307 368
#     4  11  18  34  57  85 120 154 204 258 302 364
#     4  12  23  40  62  89 124 160 208 265 309 367
#     4   9  17  31  51  87 124 147 183 249 321 366
#     4   8  18  30  54  82 128 152 180 242 322 374
#
# _framework density 18.496842000000001
#
# number of rings (size 3 to 8) (size 9 to 14) (size 15 to 20)
#    0.000    1.600    2.667    2.400    3.733    0.000 
#    0.000    0.000    0.000    0.000    0.000   10.267 
#    0.000    0.000    0.000    0.000    0.000    0.000 
#
# Total GULP energy -167159.089382 kJ/mol
# GULP energy per Si atom -5571.969646 kJ/mol
# Density = 1.845474 g / cm^3
# Si number density = 18.496842 Si / 1000 Ang^3
#
#
#
# Elastic Constant Matrix: (Units=GPa)
#
#
# Indices 1 2 3 4 5 6 
#
# 1 84.9548 53.1420 37.3994 0.0000 0.0000 0.0000
# 2 53.1420 184.3051 35.8787 0.0000 0.0000 0.0000
# 3 37.3994 35.8787 80.8325 0.0000 0.0000 0.0000
# 4 0.0000 0.0000 0.0000 21.1782 0.0000 0.0000
# 5 0.0000 0.0000 0.0000 0.0000 20.0899 0.0000
# 6 0.0000 0.0000 0.0000 0.0000 0.0000 57.9864
#
#
#
# Elastic Compliance Matrix: (Units=1/GPa)
#
#
# Indices 1 2 3 4 5 6 
#
# 1 0.016745 -0.003634 -0.006134 0.000000 0.000000 0.000000
# 2 -0.003634 0.006728 -0.001305 0.000000 0.000000 0.000000
# 3 -0.006134 -0.001305 0.015789 0.000000 0.000000 0.000000
# 4 0.000000 0.000000 0.000000 0.047218 0.000000 0.000000
# 5 0.000000 0.000000 0.000000 0.000000 0.049776 0.000000
# 6 0.000000 0.000000 0.000000 0.000000 0.000000 0.017245
#
#
# Mechanical properties :
#
#
# Convention : Reuss Voigt Hill
#
# Bulk Modulus (GPa) = 58.42951 66.99253 62.71102
# Shear Modulus (GPa) = 27.57071 34.76240 31.16655
#
# Velocity S-wave (km/s) = 3.86497 4.33987 4.10929
# Velocity P-wave (km/s) = 7.18156 7.83643 7.51613
#
# Compressibility (1/GPa) = 0.01711464
#
# Stress axis : x y z
#
# Youngs Moduli (GPa) = 59.72069 148.64169 63.33659
#
# Poissons Ratio (x) = 0.54015 0.38853
# Poissons Ratio (y) = 0.21702 0.08264
# Poissons Ratio (z) = 0.36635 0.19395
#
# Static dielectric constant tensor:
#      x y z
#    x 1.726400 0.000000 0.000000 
#    y 0.000000 1.697450 0.000000 
#    z 0.000000 0.000000 1.609140 
# 
# From -- ./inp_files/11205.got.cif
#   From: 2010.05.17/outbox.cif.g08.bks.cpg/sg39_6_cif.got.tgz:11205.got - 2010.06.03 18:22:40.
