data_PCOD9360031
_publ_section_title
;
Structure prediction by ZEFSAII (Michael W. Deem and Ramdas Pophale) SiO2 
 PCOD9360031
Probable space group: A B M 2
;
_chemical_formula_sum "Si O2"
_cell_formula_units_Z 64
_cell_length_a 21.493195
_cell_length_b 9.531366
_cell_length_c 14.420472
_cell_angle_alpha 90.000000
_cell_angle_beta 90.000000
_cell_angle_gamma 90.000000
_cell_volume 2954.170800
_symmetry_space_group_name_H-M "A B M 2"
_symmetry_group_IT_number 39
_symmetry_cell_setting 'orthorhombic'
loop_
_space_group_symop_operation_xyz
x,y,z
-x,-y,z
-x,1/2+y,z
x,1/2-y,z
x,1/2+y,1/2+z
-x,1/2-y,1/2+z
-x,y,1/2+z
x,-y,1/2+z
loop_
_atom_site_type_symbol
_atom_site_label
_atom_site_fract_x
_atom_site_fract_y
_atom_site_fract_z
Si Si1 0.802440 0.581974 0.134680
Si Si2 0.682054 0.412421 0.149898
Si Si3 0.439333 0.411662 0.151535
Si Si4 0.054622 0.096673 0.391200
Si Si5 0.440783 0.591618 0.424931
Si Si6 0.192888 0.416392 0.449663
Si Si7 0.056520 0.406401 0.171019
Si Si8 0.673618 0.405942 0.922765
O O1 0.794869 0.750000 0.148475
O O2 0.745634 0.492344 0.176364
O O3 0.800189 0.533774 0.027938
O O4 0.872754 0.539891 0.162299
O O5 0.680329 0.250000 0.180495
O O6 0.622665 0.504250 0.178807
O O7 0.678654 0.408078 0.036103
O O8 0.500000 0.500000 0.179205
O O9 0.440144 0.250000 0.183354
O O10 0.440038 0.406737 0.038164
O O11 0.047615 0.250000 0.433606
O O12 0.126216 0.055654 0.405041
O O13 0.045843 0.106225 0.280954
O O14 0.000000 0.000000 0.427526
O O15 0.500000 0.500000 0.397410
O O16 0.446190 0.750000 0.391721
O O17 0.376475 0.520236 0.395475
O O18 0.192495 0.250000 0.481951
O O19 0.255595 0.426046 0.389515
O O20 0.055354 0.250000 0.129743
O O21 0.000000 0.500000 0.134844
O O22 0.651962 0.250000 0.896644
#
# Coordination Sequence:
#
# PCOD9360031 Si02
#       8
#     8   8   8   8   8   8   8   8
#     4  10  19  30  45  67  93 119 149 186 227 271
#     4   9  16  26  39  56  81 114 149 184 224 268
#     4   9  15  22  33  51  77 111 149 186 223 265
#     4   9  18  34  52  69  90 117 150 185 223 267
#     4   9  15  21  31  48  72 105 141 175 210 250
#     4   9  18  31  47  66  90 120 150 183 224 270
#     4   9  19  34  51  69  90 118 150 185 224 268
#     4   8  14  24  36  52  76 106 139 174 213 255
#
# _framework density 21.664286000000001
#
# number of rings (size 3 to 8) (size 9 to 14) (size 15 to 20)
#    0.000    3.000    0.000    2.250    0.000    8.000 
#    0.000    2.500    0.000    0.000    0.000    0.000 
#    0.000    1.000    0.000    5.500    0.000   10.375 
#
# Total GULP energy -178459.771918 kJ/mol
# GULP energy per Si atom -5576.867872 kJ/mol
# Density = 2.161498 g / cm^3
# Si number density = 21.664286 Si / 1000 Ang^3
#
#
#
# Elastic Constant Matrix: (Units=GPa)
#
#
# Indices 1 2 3 4 5 6 
#
# 1 228.4414 133.5430 -2.5610 0.0000 0.0000 0.0000
# 2 133.5430 161.3172 9.4509 0.0000 0.0000 0.0000
# 3 -2.5610 9.4509 42.9812 0.0000 0.0000 0.0000
# 4 0.0000 0.0000 0.0000 -71.9509 0.0000 0.0000
# 5 0.0000 0.0000 0.0000 0.0000 50.3883 0.0000
# 6 0.0000 0.0000 0.0000 0.0000 0.0000 44.1713
#
#
#
# Elastic Compliance Matrix: (Units=1/GPa)
#
#
# Indices 1 2 3 4 5 6 
#
# 1 0.008669 -0.007301 0.002122 0.000000 0.000000 0.000000
# 2 -0.007301 0.012429 -0.003168 0.000000 0.000000 0.000000
# 3 0.002122 -0.003168 0.024089 0.000000 0.000000 0.000000
# 4 0.000000 0.000000 0.000000 -0.013898 0.000000 0.000000
# 5 0.000000 0.000000 0.000000 0.000000 0.019846 0.000000
# 6 0.000000 0.000000 0.000000 0.000000 0.000000 0.022639
#
#
# Mechanical properties :
#
#
# Convention : Reuss Voigt Hill
#
# Bulk Modulus (GPa) = 35.09642 79.28952 57.19297
# Shear Modulus (GPa) = 50.01745 24.00887 37.01316
#
# Velocity S-wave (km/s) = 4.81016 3.33261 4.13787
# Velocity P-wave (km/s) = 6.86189 7.17545 7.02042
#
# Compressibility (1/GPa) = 0.02849294
#
# Stress axis : x y z
#
# Youngs Moduli (GPa) = 115.34896 80.45978 41.51277
#
# Poissons Ratio (x) = 0.58744 -0.08809
# Poissons Ratio (y) = 0.84217 0.13151
# Poissons Ratio (z) = -0.24476 0.25489
#
# Static dielectric constant tensor:
#      x y z
#    x 1.794210 0.000000 0.000000 
#    y 0.000000 1.779410 0.000000 
#    z 0.000000 0.000000 1.831820 
# 
# From -- ./inp_files/13165.got.cif
#   From: 2010.05.17/outbox.cif.g08.bks.cpg/sg39_7_cif.got.tgz:13165.got - 2010.06.03 18:22:40.
