data_PCOD9360310
_publ_section_title
;
Structure prediction by ZEFSAII (Michael W. Deem and Ramdas Pophale) SiO2 
 PCOD9360310
Probable space group: A B M 2
;
_chemical_formula_sum "Si O2"
_cell_formula_units_Z 52
_cell_length_a 22.075890
_cell_length_b 7.900485
_cell_length_c 14.262185
_cell_angle_alpha 90.000000
_cell_angle_beta 90.000000
_cell_angle_gamma 90.000000
_cell_volume 2487.471077
_symmetry_space_group_name_H-M "A B M 2"
_symmetry_group_IT_number 39
_symmetry_cell_setting 'orthorhombic'
loop_
_space_group_symop_operation_xyz
x,y,z
-x,-y,z
-x,1/2+y,z
x,1/2-y,z
x,1/2+y,1/2+z
-x,1/2-y,1/2+z
-x,y,1/2+z
x,-y,1/2+z
loop_
_atom_site_type_symbol
_atom_site_label
_atom_site_fract_x
_atom_site_fract_y
_atom_site_fract_z
Si Si1 0.595242 0.949000 0.167510
Si Si2 0.500000 0.500000 0.808645
Si Si3 0.394559 0.558246 0.957207
Si Si4 0.066845 0.452475 0.929451
Si Si5 0.699461 0.955666 0.305528
Si Si6 0.933586 0.953876 0.143744
Si Si7 0.165199 0.050787 0.284128
O O1 0.581834 0.750000 0.190185
O O2 0.661182 0.987837 0.210886
O O3 0.548893 0.059593 0.229659
O O4 0.591394 0.970116 0.055962
O O5 0.451113 0.566975 0.885082
O O6 0.378600 0.750000 0.983507
O O7 0.339710 0.482625 0.894963
O O8 0.072705 0.250000 0.926017
O O9 0.069194 0.512217 0.036764
O O10 0.000000 0.500000 0.893515
O O11 0.121927 0.531866 0.873284
O O12 0.700792 0.750000 0.315618
O O13 0.767803 0.020783 0.299074
O O14 0.930460 0.750000 0.144672
O O15 0.876967 0.022592 0.201904
O O16 0.000000 0.000000 0.181194
O O17 0.173910 0.250000 0.263842
#
# Coordination Sequence:
#
# PCOD9360310 Si02
#       7
#     8   4   8   8   8   8   8
#     4  10  21  37  58  82 109 144 182 222 268 318
#     4  10  20  34  56  82 110 140 180 222 264 320
#     4  10  21  37  57  81 110 144 180 221 269 320
#     4  10  20  34  51  76 107 136 172 218 268 321
#     4   8  18  37  55  74 105 143 180 214 259 323
#     4   9  19  33  50  73 101 133 168 210 260 312
#     4  10  19  34  56  77 101 138 178 218 265 314
#
# _framework density 20.904765000000001
#
# number of rings (size 3 to 8) (size 9 to 14) (size 15 to 20)
#    0.000    2.462    0.000    2.769    0.000    7.385 
#    0.000    5.385    0.000    0.000    0.000    0.000 
#    0.000    0.000    0.000    0.000    0.000    0.000 
#
# Total GULP energy -144741.930182 kJ/mol
# GULP energy per Si atom -5566.997315 kJ/mol
# Density = 2.085718 g / cm^3
# Si number density = 20.904765 Si / 1000 Ang^3
#
#
#
# Elastic Constant Matrix: (Units=GPa)
#
#
# Indices 1 2 3 4 5 6 
#
# 1 178.5842 7.9740 65.2661 0.0000 0.0000 0.0000
# 2 7.9740 28.9909 5.8992 0.0000 0.0000 0.0000
# 3 65.2661 5.8992 155.9816 0.0000 0.0000 0.0000
# 4 0.0000 0.0000 0.0000 -5.8593 0.0000 0.0000
# 5 0.0000 0.0000 0.0000 0.0000 22.4961 0.0000
# 6 0.0000 0.0000 0.0000 0.0000 0.0000 44.2623
#
#
#
# Elastic Compliance Matrix: (Units=1/GPa)
#
#
# Indices 1 2 3 4 5 6 
#
# 1 0.006657 -0.001274 -0.002737 0.000000 0.000000 0.000000
# 2 -0.001274 0.035005 -0.000791 0.000000 0.000000 0.000000
# 3 -0.002737 -0.000791 0.007586 0.000000 0.000000 0.000000
# 4 0.000000 0.000000 0.000000 -0.170668 0.000000 0.000000
# 5 0.000000 0.000000 0.000000 0.000000 0.044452 0.000000
# 6 0.000000 0.000000 0.000000 0.000000 0.000000 0.022593
#
#
# Mechanical properties :
#
#
# Convention : Reuss Voigt Hill
#
# Bulk Modulus (GPa) = 25.22453 57.98171 41.60312
# Shear Modulus (GPa) = -158.44322 31.14098 -63.65112
#
# Velocity S-wave (km/s) = -8.71535 3.86380 -5.52397
# Velocity P-wave (km/s) = 9.44373 6.90663 4.55425
#
# Compressibility (1/GPa) = 0.03964395
#
# Stress axis : x y z
#
# Youngs Moduli (GPa) = 150.22169 28.56743 131.81802
#
# Poissons Ratio (x) = 0.03640 0.36081
# Poissons Ratio (y) = 0.19138 0.10424
# Poissons Ratio (z) = 0.41118 0.02259
#
# Static dielectric constant tensor:
#      x y z
#    x 1.747120 0.000000 0.000000 
#    y 0.000000 1.795880 0.000000 
#    z 0.000000 0.000000 1.744750 
# 
# From -- ./inp_files/10303.got.cif
#   From: 2010.05.17/outbox.cif.g08.bks.cpg/sg39_6_cif.got.tgz:10303.got - 2010.06.03 18:22:40.
