data_PCOD9360314
_publ_section_title
;
Structure prediction by ZEFSAII (Michael W. Deem and Ramdas Pophale) SiO2 
 PCOD9360314
Probable space group: A B M 2
;
_chemical_formula_sum "Si O2"
_cell_formula_units_Z 64
_cell_length_a 19.511376
_cell_length_b 7.828783
_cell_length_c 20.655629
_cell_angle_alpha 90.000000
_cell_angle_beta 90.000000
_cell_angle_gamma 90.000000
_cell_volume 3155.154120
_symmetry_space_group_name_H-M "A B M 2"
_symmetry_group_IT_number 39
_symmetry_cell_setting 'orthorhombic'
loop_
_space_group_symop_operation_xyz
x,y,z
-x,-y,z
-x,1/2+y,z
x,1/2-y,z
x,1/2+y,1/2+z
-x,1/2-y,1/2+z
-x,y,1/2+z
x,-y,1/2+z
loop_
_atom_site_type_symbol
_atom_site_label
_atom_site_fract_x
_atom_site_fract_y
_atom_site_fract_z
Si Si1 0.920747 0.044360 0.488410
Si Si2 0.079375 0.546027 0.634207
Si Si3 0.578645 0.045112 0.296823
Si Si4 0.336952 0.959543 0.173359
Si Si5 0.659865 0.955686 0.920812
Si Si6 0.580182 0.952273 0.550309
Si Si7 0.804980 0.452767 0.234956
Si Si8 0.189580 0.459449 0.884255
O O1 0.915040 0.250000 0.489955
O O2 0.902409 0.982361 0.561312
O O3 0.872085 0.982054 0.430633
O O4 0.000000 0.000000 0.476981
O O5 0.085345 0.750000 0.633766
O O6 0.128831 0.479980 0.690356
O O7 0.000000 0.500000 0.645618
O O8 0.584756 0.250000 0.297473
O O9 0.611154 0.987348 0.229846
O O10 0.621986 0.977941 0.356929
O O11 0.500000 0.000000 0.302994
O O12 0.334389 0.750000 0.170600
O O13 0.370288 0.022747 0.106787
O O14 0.261661 0.018882 0.195848
O O15 0.661569 0.750000 0.917812
O O16 0.738669 0.012070 0.917216
O O17 0.615088 0.002218 0.982577
O O18 0.581196 0.750000 0.556880
O O19 0.500000 0.000000 0.554644
O O20 0.793874 0.250000 0.242182
O O21 0.812167 0.517597 0.309029
O O22 0.187431 0.250000 0.883027
#
# Coordination Sequence:
#
# PCOD9360314 Si02
#       8
#     8   8   8   8   8   8   8   8
#     4   9  19  36  57  82 111 144 183 223 266 320
#     4  10  21  37  57  84 115 147 184 225 269 321
#     4  10  19  34  56  79 103 140 184 224 270 324
#     4   9  19  36  56  79 108 143 184 224 271 331
#     4  10  20  36  58  81 109 144 183 226 275 329
#     4  11  23  38  55  79 110 144 184 230 279 331
#     4  10  19  36  60  83 111 147 184 225 274 327
#     4   9  18  35  59  83 109 147 186 221 270 329
#
# _framework density 20.284269999999999
#
# number of rings (size 3 to 8) (size 9 to 14) (size 15 to 20)
#    0.000    2.250    1.250    1.500    1.750    2.500 
#    0.000    5.000    0.000    0.000    0.000    0.000 
#    0.000    0.000    0.000    0.000    0.000    0.000 
#
# Total GULP energy -178581.196587 kJ/mol
# GULP energy per Si atom -5580.662393 kJ/mol
# Density = 2.023810 g / cm^3
# Si number density = 20.284270 Si / 1000 Ang^3
#
#
#
# Elastic Constant Matrix: (Units=GPa)
#
#
# Indices 1 2 3 4 5 6 
#
# 1 95.1550 -7.6618 31.5964 0.0000 0.0000 0.0000
# 2 -7.6618 19.5928 -2.6383 0.0000 0.0000 0.0000
# 3 31.5964 -2.6383 83.7488 0.0000 0.0000 0.0000
# 4 0.0000 0.0000 0.0000 12.2968 0.0000 0.0000
# 5 0.0000 0.0000 0.0000 0.0000 46.0439 0.0000
# 6 0.0000 0.0000 0.0000 0.0000 0.0000 11.8720
#
#
#
# Elastic Compliance Matrix: (Units=1/GPa)
#
#
# Indices 1 2 3 4 5 6 
#
# 1 0.012352 0.004221 -0.004527 0.000000 0.000000 0.000000
# 2 0.004221 0.052699 0.000068 0.000000 0.000000 0.000000
# 3 -0.004527 0.000068 0.013651 0.000000 0.000000 0.000000
# 4 0.000000 0.000000 0.000000 0.081322 0.000000 0.000000
# 5 0.000000 0.000000 0.000000 0.000000 0.021718 0.000000
# 6 0.000000 0.000000 0.000000 0.000000 0.000000 0.084232
#
#
# Mechanical properties :
#
#
# Convention : Reuss Voigt Hill
#
# Bulk Modulus (GPa) = 12.78378 26.78770 19.78574
# Shear Modulus (GPa) = 17.09249 25.85588 21.47419
#
# Velocity S-wave (km/s) = 2.90599 3.57413 3.25724
# Velocity P-wave (km/s) = 4.19234 5.50158 4.89097
#
# Compressibility (1/GPa) = 0.07822411
#
# Stress axis : x y z
#
# Youngs Moduli (GPa) = 80.95653 18.97580 73.25670
#
# Poissons Ratio (x) = -0.08009 0.33165
# Poissons Ratio (y) = -0.34170 -0.00496
# Poissons Ratio (z) = 0.36651 -0.00129
#
# Static dielectric constant tensor:
#      x y z
#    x 1.695740 0.000000 0.000000 
#    y 0.000000 1.744290 0.000000 
#    z 0.000000 0.000000 1.730640 
# 
# From -- ./inp_files/13160.got.cif
#   From: 2010.05.17/outbox.cif.g08.bks.cpg/sg39_7_cif.got.tgz:13160.got - 2010.06.03 18:22:40.
