data_PCOD9360919
_publ_section_title
;
Structure prediction by ZEFSAII (Michael W. Deem and Ramdas Pophale) SiO2 
 PCOD9360919
Probable space group: A B M 2
;
_chemical_formula_sum "Si O2"
_cell_formula_units_Z 56
_cell_length_a 5.439298
_cell_length_b 14.534898
_cell_length_c 30.896304
_cell_angle_alpha 90.000000
_cell_angle_beta 90.000000
_cell_angle_gamma 90.000000
_cell_volume 2442.650722
_symmetry_space_group_name_H-M "A B M 2"
_symmetry_group_IT_number 39
_symmetry_cell_setting 'orthorhombic'
loop_
_space_group_symop_operation_xyz
x,y,z
-x,-y,z
-x,1/2+y,z
x,1/2-y,z
x,1/2+y,1/2+z
-x,1/2-y,1/2+z
-x,y,1/2+z
x,-y,1/2+z
loop_
_atom_site_type_symbol
_atom_site_label
_atom_site_fract_x
_atom_site_fract_y
_atom_site_fract_z
Si Si1 0.355331 0.648134 0.572960
Si Si2 0.492377 0.611486 0.344617
Si Si3 0.376906 0.405167 0.488465
Si Si4 0.130071 0.857382 0.696193
Si Si5 0.365068 0.359807 0.657294
Si Si6 0.992150 0.110151 0.795471
Si Si7 0.420596 0.250000 0.420224
Si Si8 0.000000 0.000000 0.551594
O O1 0.253715 0.750000 0.581210
O O2 0.436044 0.639974 0.523166
O O3 0.576956 0.632974 0.606443
O O4 0.168380 0.566076 0.579587
O O5 0.500000 0.500000 0.350371
O O6 0.260725 0.636637 0.313729
O O7 0.466285 0.669082 0.388244
O O8 0.759450 0.638355 0.324944
O O9 0.500000 0.500000 0.471711
O O10 0.314453 0.331387 0.452594
O O11 0.154830 0.436089 0.519049
O O12 0.146512 0.750000 0.683233
O O13 0.893145 0.898939 0.672517
O O14 0.069567 0.860526 0.746915
O O15 0.395601 0.896356 0.682927
O O16 0.351274 0.250000 0.666907
O O17 0.000000 0.000000 0.795368
#
# Coordination Sequence:
#
# PCOD9360919 Si02
#       8
#     8   8   8   8   8   8   4   4
#     4  10  21  41  69  94 140 190 231 277 350 411
#     4  10  24  44  67 100 137 172 222 287 337 414
#     4  10  23  46  65 100 139 175 222 287 342 411
#     4  10  20  36  63  96 131 171 224 280 329 398
#     4   9  20  36  60 100 133 173 226 283 323 388
#     4  10  22  44  65  93 137 177 216 276 351 402
#     4  12  24  44  74 100 126 180 230 274 360 420
#     4  10  24  42  66 100 134 184 222 294 336 418
#
# _framework density 22.925912
#
# number of rings (size 3 to 8) (size 9 to 14) (size 15 to 20)
#    0.000    2.000    0.714    1.286    5.000    0.000 
#   15.429    0.000    0.000    0.000    0.000    0.000 
#    0.000    0.000    0.000    0.000    0.000    0.000 
#
# Total GULP energy -155963.031081 kJ/mol
# GULP energy per Si atom -5570.108253 kJ/mol
# Density = 2.287373 g / cm^3
# Si number density = 22.925912 Si / 1000 Ang^3
#
#
#
# Elastic Constant Matrix: (Units=GPa)
#
#
# Indices 1 2 3 4 5 6 
#
# 1 110.8066 36.4732 13.7628 0.0000 0.0000 0.0000
# 2 36.4732 122.1370 32.1301 0.0000 0.0000 0.0000
# 3 13.7628 32.1301 53.4208 0.0000 0.0000 0.0000
# 4 0.0000 0.0000 0.0000 31.8829 0.0000 0.0000
# 5 0.0000 0.0000 0.0000 0.0000 9.7481 0.0000
# 6 0.0000 0.0000 0.0000 0.0000 0.0000 8.4868
#
#
#
# Elastic Compliance Matrix: (Units=1/GPa)
#
#
# Indices 1 2 3 4 5 6 
#
# 1 0.010047 -0.002755 -0.000931 0.000000 0.000000 0.000000
# 2 -0.002755 0.010482 -0.005595 0.000000 0.000000 0.000000
# 3 -0.000931 -0.005595 0.022324 0.000000 0.000000 0.000000
# 4 0.000000 0.000000 0.000000 0.031365 0.000000 0.000000
# 5 0.000000 0.000000 0.000000 0.000000 0.102585 0.000000
# 6 0.000000 0.000000 0.000000 0.000000 0.000000 0.117830
#
#
# Mechanical properties :
#
#
# Convention : Reuss Voigt Hill
#
# Bulk Modulus (GPa) = 41.16745 50.12185 45.64465
# Shear Modulus (GPa) = 15.56214 23.62344 19.59279
#
# Velocity S-wave (km/s) = 2.60821 3.21351 2.92655
# Velocity P-wave (km/s) = 5.20250 5.97318 5.60111
#
# Compressibility (1/GPa) = 0.02429104
#
# Stress axis : x y z
#
# Youngs Moduli (GPa) = 99.52850 95.40053 44.79455
#
# Poissons Ratio (x) = 0.26287 0.04172
# Poissons Ratio (y) = 0.27424 0.25061
# Poissons Ratio (z) = 0.09269 0.53373
#
# Static dielectric constant tensor:
#      x y z
#    x 1.889780 0.000000 0.000000 
#    y 0.000000 1.865180 0.000000 
#    z 0.000000 0.000000 1.828820 
# 
# From -- ./inp_files/17297.got.cif
#   From: 2010.05.17/outbox.cif.g08.bks.cpg/sg39_9_cif.got.tgz:17297.got - 2010.06.03 18:22:40.
