data_PCOD9360690
_publ_section_title
;
Structure prediction by ZEFSAII (Michael W. Deem and Ramdas Pophale) SiO2 
 PCOD9360690
Probable space group: A B M 2
;
_chemical_formula_sum "Si O2"
_cell_formula_units_Z 60
_cell_length_a 17.811467
_cell_length_b 29.175762
_cell_length_c 5.319840
_cell_angle_alpha 90.000000
_cell_angle_beta 90.000000
_cell_angle_gamma 90.000000
_cell_volume 2764.524663
_symmetry_space_group_name_H-M "A B M 2"
_symmetry_group_IT_number 39
_symmetry_cell_setting 'orthorhombic'
loop_
_space_group_symop_operation_xyz
x,y,z
-x,-y,z
-x,1/2+y,z
x,1/2-y,z
x,1/2+y,1/2+z
-x,1/2-y,1/2+z
-x,y,1/2+z
x,-y,1/2+z
loop_
_atom_site_type_symbol
_atom_site_label
_atom_site_fract_x
_atom_site_fract_y
_atom_site_fract_z
Si Si1 0.328577 0.697243 0.324950
Si Si2 0.179087 0.199051 0.136454
Si Si3 0.402165 0.154767 0.241560
Si Si4 0.449091 0.250000 0.442575
Si Si5 0.459470 0.937767 0.902227
Si Si6 0.039051 0.305015 0.800846
Si Si7 0.707939 0.970613 0.526838
Si Si8 0.747362 0.872137 0.438174
O O1 0.340060 0.750000 0.242207
O O2 0.263911 0.703337 0.539104
O O3 0.400793 0.674762 0.459423
O O4 0.288745 0.660677 0.147259
O O5 0.158080 0.250000 0.242059
O O6 0.122752 0.188611 0.908257
O O7 0.183827 0.156393 0.324453
O O8 0.406721 0.201160 0.405212
O O9 0.455919 0.117453 0.366227
O O10 0.322952 0.126752 0.243739
O O11 0.497682 0.250000 0.694072
O O12 0.480440 0.951378 0.616205
O O13 0.379625 0.955219 0.003611
O O14 0.029912 0.250000 0.783133
O O15 0.985129 0.322253 0.027074
O O16 0.756865 0.923974 0.523562
O O17 0.721426 0.998685 0.780683
#
# Coordination Sequence:
#
# PCOD9360690 Si02
#       8
#     8   8   8   4   8   8   8   8
#     4  10  20  34  58  82 115 160 201 243 285 342
#     4   9  19  34  53  89 122 163 209 233 281 333
#     4  10  23  36  53  79 112 146 190 232 287 338
#     4  12  26  38  54  76 108 150 188 228 274 338
#     4  11  24  40  62  83 107 137 181 233 291 361
#     4   9  18  31  50  77 122 171 205 236 269 315
#     4  11  26  44  65  86 112 144 185 242 314 369
#     4  10  23  36  62  81 117 149 195 249 295 343
#
# _framework density 21.703551999999998
#
# number of rings (size 3 to 8) (size 9 to 14) (size 15 to 20)
#    0.000    1.867    0.667    2.000   14.933    1.600 
#    0.000    0.000    0.000    0.000    0.000    0.000 
#    0.000    3.200    0.000    0.000    0.000    0.000 
#
# Total GULP energy -167357.294759 kJ/mol
# GULP energy per Si atom -5578.576492 kJ/mol
# Density = 2.165415 g / cm^3
# Si number density = 21.703552 Si / 1000 Ang^3
#
#
#
# Elastic Constant Matrix: (Units=GPa)
#
#
# Indices 1 2 3 4 5 6 
#
# 1 43.4488 6.1475 -12.1607 0.0000 0.0000 0.0000
# 2 6.1475 120.0279 14.2123 0.0000 0.0000 0.0000
# 3 -12.1607 14.2123 73.7886 0.0000 0.0000 0.0000
# 4 0.0000 0.0000 0.0000 19.1952 0.0000 0.0000
# 5 0.0000 0.0000 0.0000 0.0000 29.7258 0.0000
# 6 0.0000 0.0000 0.0000 0.0000 0.0000 12.3920
#
#
#
# Elastic Compliance Matrix: (Units=1/GPa)
#
#
# Indices 1 2 3 4 5 6 
#
# 1 0.024492 -0.001773 0.004378 0.000000 0.000000 0.000000
# 2 -0.001773 0.008654 -0.001959 0.000000 0.000000 0.000000
# 3 0.004378 -0.001959 0.014651 0.000000 0.000000 0.000000
# 4 0.000000 0.000000 0.000000 0.052096 0.000000 0.000000
# 5 0.000000 0.000000 0.000000 0.000000 0.033641 0.000000
# 6 0.000000 0.000000 0.000000 0.000000 0.000000 0.080697
#
#
# Mechanical properties :
#
#
# Convention : Reuss Voigt Hill
#
# Bulk Modulus (GPa) = 20.37119 28.18483 24.27801
# Shear Modulus (GPa) = 21.80524 27.53365 24.66945
#
# Velocity S-wave (km/s) = 3.17312 3.56564 3.37509
# Velocity P-wave (km/s) = 4.77822 5.47414 5.13797
#
# Compressibility (1/GPa) = 0.04908895
#
# Stress axis : x y z
#
# Youngs Moduli (GPa) = 40.83012 115.55141 68.25453
#
# Poissons Ratio (x) = 0.20485 -0.29881
# Poissons Ratio (y) = 0.07238 0.13371
# Poissons Ratio (z) = -0.17875 0.22637
#
# Static dielectric constant tensor:
#      x y z
#    x 1.857550 0.000000 0.000000 
#    y 0.000000 1.852400 0.000000 
#    z 0.000000 0.000000 1.949140 
# 
# From -- ./inp_files/865.got.cif
#   From: 2010.05.17/outbox.cif.g08.bks.cpg/sg39_1_cif.got.tgz:865.got - 2010.06.03 18:22:40.
