data_PCOD9360423
_publ_section_title
;
Structure prediction by ZEFSAII (Michael W. Deem and Ramdas Pophale) SiO2 
 PCOD9360423
Probable space group: A B M 2
;
_chemical_formula_sum "Si O2"
_cell_formula_units_Z 60
_cell_length_a 11.218951
_cell_length_b 14.312370
_cell_length_c 17.753131
_cell_angle_alpha 90.000000
_cell_angle_beta 90.000000
_cell_angle_gamma 90.000000
_cell_volume 2850.616299
_symmetry_space_group_name_H-M "A B M 2"
_symmetry_group_IT_number 39
_symmetry_cell_setting 'orthorhombic'
loop_
_space_group_symop_operation_xyz
x,y,z
-x,-y,z
-x,1/2+y,z
x,1/2-y,z
x,1/2+y,1/2+z
-x,1/2-y,1/2+z
-x,y,1/2+z
x,-y,1/2+z
loop_
_atom_site_type_symbol
_atom_site_label
_atom_site_fract_x
_atom_site_fract_y
_atom_site_fract_z
Si Si1 0.775100 0.014210 0.732590
Si Si2 0.746192 0.647417 0.988705
Si Si3 0.676455 0.358999 0.137386
Si Si4 0.216167 0.359914 0.377769
Si Si5 0.000000 0.000000 0.135430
Si Si6 0.391099 0.851415 0.649740
Si Si7 0.969569 0.144303 0.010906
Si Si8 0.633786 0.038103 0.982524
O O1 0.793441 0.062312 0.813034
O O2 0.894054 0.038826 0.686019
O O3 0.662124 0.067632 0.698957
O O4 0.743573 0.907441 0.708347
O O5 0.720340 0.750000 0.954876
O O6 0.674369 0.644889 0.068390
O O7 0.888224 0.639726 0.997531
O O8 0.702782 0.552706 0.951185
O O9 0.710742 0.250000 0.127222
O O10 0.532767 0.358360 0.146644
O O11 0.685814 0.421907 0.061219
O O12 0.209744 0.250000 0.354853
O O13 0.109092 0.377133 0.437707
O O14 0.339451 0.380253 0.422855
O O15 0.946378 0.077198 0.080271
O O16 0.359382 0.750000 0.682411
O O17 0.941073 0.250000 0.031795
O O18 0.500000 0.000000 0.992402
#
# Coordination Sequence:
#
# PCOD9360423 Si02
#       8
#     8   8   8   8   4   8   8   8
#     4  12  24  42  61  94 131 174 220 269 335 406
#     4  10  19  35  64  98 126 159 208 270 326 376
#     4  11  22  39  68 100 131 170 223 279 331 384
#     4  11  27  45  65  91 131 180 220 269 338 413
#     4  12  24  38  68  96 120 164 218 284 338 390
#     4  10  19  36  65  96 127 162 210 271 327 382
#     4  10  21  40  65  94 125 164 216 272 331 393
#     4  12  22  39  64  99 135 172 220 270 327 390
#
# _framework density 21.048079999999999
#
# number of rings (size 3 to 8) (size 9 to 14) (size 15 to 20)
#    0.000    1.067    4.000    2.800    0.000    5.333 
#    0.000    0.667    0.000    0.800    0.000    0.000 
#    0.000    0.000    0.000    0.000    0.000    0.000 
#
# Total GULP energy -167347.385818 kJ/mol
# GULP energy per Si atom -5578.246194 kJ/mol
# Density = 2.100017 g / cm^3
# Si number density = 21.048080 Si / 1000 Ang^3
#
#
#
# Elastic Constant Matrix: (Units=GPa)
#
#
# Indices 1 2 3 4 5 6 
#
# 1 109.0549 36.2938 36.2394 0.0000 0.0000 0.0000
# 2 36.2938 136.6440 59.2597 0.0000 0.0000 0.0000
# 3 36.2394 59.2597 95.4347 0.0000 0.0000 0.0000
# 4 0.0000 0.0000 0.0000 63.2351 0.0000 0.0000
# 5 0.0000 0.0000 0.0000 0.0000 11.2139 0.0000
# 6 0.0000 0.0000 0.0000 0.0000 0.0000 30.3475
#
#
#
# Elastic Compliance Matrix: (Units=1/GPa)
#
#
# Indices 1 2 3 4 5 6 
#
# 1 0.010708 -0.001479 -0.003148 0.000000 0.000000 0.000000
# 2 -0.001479 0.010220 -0.005784 0.000000 0.000000 0.000000
# 3 -0.003148 -0.005784 0.015265 0.000000 0.000000 0.000000
# 4 0.000000 0.000000 0.000000 0.015814 0.000000 0.000000
# 5 0.000000 0.000000 0.000000 0.000000 0.089175 0.000000
# 6 0.000000 0.000000 0.000000 0.000000 0.000000 0.032952
#
#
# Mechanical properties :
#
#
# Convention : Reuss Voigt Hill
#
# Bulk Modulus (GPa) = 65.05764 67.19103 66.12434
# Shear Modulus (GPa) = 24.99010 34.91533 29.95272
#
# Velocity S-wave (km/s) = 3.44944 4.07730 3.77644
# Velocity P-wave (km/s) = 6.84405 7.35920 7.10629
#
# Compressibility (1/GPa) = 0.01537098
#
# Stress axis : x y z
#
# Youngs Moduli (GPa) = 93.38885 97.85116 65.50795
#
# Poissons Ratio (x) = 0.14472 0.20620
# Poissons Ratio (y) = 0.13812 0.37891
# Poissons Ratio (z) = 0.29396 0.56599
#
# Static dielectric constant tensor:
#      x y z
#    x 1.797740 0.000000 0.000000 
#    y 0.000000 1.765490 0.000000 
#    z 0.000000 0.000000 1.761350 
# 
# From -- ./inp_files/12327.got.cif
#   From: 2010.05.17/outbox.cif.g08.bks.cpg/sg39_7_cif.got.tgz:12327.got - 2010.06.03 18:22:40.
