data_PCOD9360893
_publ_section_title
;
Structure prediction by ZEFSAII (Michael W. Deem and Ramdas Pophale) SiO2 
 PCOD9360893
Probable space group: A B M 2
;
_chemical_formula_sum "Si O2"
_cell_formula_units_Z 64
_cell_length_a 24.495107
_cell_length_b 8.930102
_cell_length_c 15.583253
_cell_angle_alpha 90.000000
_cell_angle_beta 90.000000
_cell_angle_gamma 90.000000
_cell_volume 3408.740040
_symmetry_space_group_name_H-M "A B M 2"
_symmetry_group_IT_number 39
_symmetry_cell_setting 'orthorhombic'
loop_
_space_group_symop_operation_xyz
x,y,z
-x,-y,z
-x,1/2+y,z
x,1/2-y,z
x,1/2+y,1/2+z
-x,1/2-y,1/2+z
-x,y,1/2+z
x,-y,1/2+z
loop_
_atom_site_type_symbol
_atom_site_label
_atom_site_fract_x
_atom_site_fract_y
_atom_site_fract_z
Si Si1 0.860957 0.069012 0.036120
Si Si2 0.059681 0.930437 0.191898
Si Si3 0.747948 0.575780 0.330184
Si Si4 0.559439 0.569728 0.929942
Si Si5 0.627554 0.428178 0.597414
Si Si6 0.637216 0.928923 0.772883
Si Si7 0.737281 0.576156 0.536468
Si Si8 0.863273 0.429717 0.348897
O O1 0.861603 0.250000 0.025858
O O2 0.903268 0.025811 0.110058
O O3 0.798634 0.030031 0.062211
O O4 0.873022 0.996516 0.943710
O O5 0.055695 0.750000 0.190649
O O6 0.090802 0.972618 0.279728
O O7 0.000000 0.000000 0.187316
O O8 0.752244 0.750000 0.306157
O O9 0.697217 0.498607 0.284144
O O10 0.736855 0.568769 0.432807
O O11 0.805089 0.492308 0.316678
O O12 0.500000 0.500000 0.921672
O O13 0.555198 0.750000 0.928042
O O14 0.599384 0.524319 0.852526
O O15 0.588413 0.527225 0.019060
O O16 0.624837 0.250000 0.608666
O O17 0.612623 0.511418 0.684605
O O18 0.689044 0.476105 0.572789
O O19 0.641472 0.750000 0.772631
O O20 0.728472 0.750000 0.561855
O O21 0.860669 0.250000 0.354049
#
# Coordination Sequence:
#
# PCOD9360893 Si02
#       8
#     8   8   8   8   8   8   8   8
#     4   9  20  39  59  84 118 156 198 244 299 356
#     4  10  23  41  60  84 117 158 202 247 297 356
#     4  10  20  36  60  91 123 158 198 245 301 360
#     4  10  24  44  65  87 120 161 204 250 297 352
#     4  11  23  39  59  91 124 156 201 248 296 355
#     4  11  23  40  61  90 123 160 201 247 302 357
#     4   9  18  34  59  87 119 157 194 239 301 359
#     4  10  21  37  59  88 119 156 198 246 301 356
#
# _framework density 18.775265999999998
#
# number of rings (size 3 to 8) (size 9 to 14) (size 15 to 20)
#    0.000    2.000    1.250    2.250    1.750    6.500 
#    0.000    5.000    0.000    0.000    0.000    0.000 
#    0.000    0.000    0.000    0.000    0.000    0.000 
#
# Total GULP energy -178779.978892 kJ/mol
# GULP energy per Si atom -5586.874340 kJ/mol
# Density = 1.873253 g / cm^3
# Si number density = 18.775266 Si / 1000 Ang^3
#
#
#
# Elastic Constant Matrix: (Units=GPa)
#
#
# Indices 1 2 3 4 5 6 
#
# 1 70.9690 9.3053 12.5606 0.0000 0.0000 0.0000
# 2 9.3053 28.5011 6.1424 0.0000 0.0000 0.0000
# 3 12.5606 6.1424 45.8206 0.0000 0.0000 0.0000
# 4 0.0000 0.0000 0.0000 30.3560 0.0000 0.0000
# 5 0.0000 0.0000 0.0000 0.0000 -3.9498 0.0000
# 6 0.0000 0.0000 0.0000 0.0000 0.0000 37.3683
#
#
#
# Elastic Compliance Matrix: (Units=1/GPa)
#
#
# Indices 1 2 3 4 5 6 
#
# 1 0.015284 -0.004209 -0.003626 0.000000 0.000000 0.000000
# 2 -0.004209 0.037289 -0.003845 0.000000 0.000000 0.000000
# 3 -0.003626 -0.003845 0.023334 0.000000 0.000000 0.000000
# 4 0.000000 0.000000 0.000000 0.032942 0.000000 0.000000
# 5 0.000000 0.000000 0.000000 0.000000 -0.253177 0.000000
# 6 0.000000 0.000000 0.000000 0.000000 0.000000 0.026761
#
#
# Mechanical properties :
#
#
# Convention : Reuss Voigt Hill
#
# Bulk Modulus (GPa) = 19.03018 22.36750 20.69884
# Shear Modulus (GPa) = -65.19597 20.57372 -22.31112
#
# Velocity S-wave (km/s) = -5.89913 3.31386 -3.45095
# Velocity P-wave (km/s) = 6.02013 5.15571 2.19779
#
# Compressibility (1/GPa) = 0.05254811
#
# Stress axis : x y z
#
# Youngs Moduli (GPa) = 65.42714 26.81749 42.85674
#
# Poissons Ratio (x) = 0.11287 0.15538
# Poissons Ratio (y) = 0.27537 0.16479
# Poissons Ratio (z) = 0.23721 0.10311
#
# Static dielectric constant tensor:
#      x y z
#    x 1.616160 0.000000 0.000000 
#    y 0.000000 1.630230 0.000000 
#    z 0.000000 0.000000 1.658090 
# 
# From -- ./inp_files/10588.got.cif
#   From: 2010.05.17/outbox.cif.g08.bks.cpg/sg39_6_cif.got.tgz:10588.got - 2010.06.03 18:22:40.
