data_PCOD9360284
_publ_section_title
;
Structure prediction by ZEFSAII (Michael W. Deem and Ramdas Pophale) SiO2 
 PCOD9360284
Probable space group: A B M 2
;
_chemical_formula_sum "Si O2"
_cell_formula_units_Z 40
_cell_length_a 7.012377
_cell_length_b 9.679596
_cell_length_c 27.321056
_cell_angle_alpha 90.000000
_cell_angle_beta 90.000000
_cell_angle_gamma 90.000000
_cell_volume 1854.470672
_symmetry_space_group_name_H-M "A B M 2"
_symmetry_group_IT_number 39
_symmetry_cell_setting 'orthorhombic'
loop_
_space_group_symop_operation_xyz
x,y,z
-x,-y,z
-x,1/2+y,z
x,1/2-y,z
x,1/2+y,1/2+z
-x,1/2-y,1/2+z
-x,y,1/2+z
x,-y,1/2+z
loop_
_atom_site_type_symbol
_atom_site_label
_atom_site_fract_x
_atom_site_fract_y
_atom_site_fract_z
Si Si1 0.506069 0.750000 0.462400
Si Si2 0.822321 0.750000 0.390599
Si Si3 0.500000 0.000000 0.031847
Si Si4 0.199561 0.582790 0.113217
Si Si5 0.726972 0.750000 0.863520
Si Si6 0.771347 0.523048 0.312643
Si Si7 0.199744 0.585205 0.705165
O O1 0.728918 0.750000 0.444451
O O2 0.447386 0.621700 0.495256
O O3 0.397076 0.750000 0.411581
O O4 0.748233 0.621686 0.358909
O O5 0.052229 0.750000 0.383339
O O6 0.333046 0.945281 0.066922
O O7 0.178546 0.750000 0.120525
O O8 0.287207 0.502616 0.160515
O O9 0.000000 0.500000 0.105276
O O10 0.687642 0.621026 0.828848
O O11 0.710303 0.574739 0.259226
O O12 0.000000 0.500000 0.309342
O O13 0.177898 0.750000 0.694122
O O14 0.000000 0.500000 0.709409
#
# Coordination Sequence:
#
# PCOD9360284 Si02
#       7
#     4   4   4   8   4   8   8
#     4  12  26  44  68  90 124 176 224 282 340 384
#     4  10  20  40  61  91 129 163 214 266 319 384
#     4  12  28  48  68  94 134 172 224 292 346 392
#     4  11  25  44  72 102 133 174 223 275 336 405
#     4  10  22  38  63  93 127 169 218 264 319 392
#     4   9  18  33  60  94 131 169 205 256 317 389
#     4  10  19  33  63 100 134 171 212 258 321 397
#
# _framework density 21.569496000000001
#
# number of rings (size 3 to 8) (size 9 to 14) (size 15 to 20)
#    0.000    1.600    2.000    3.600    8.400    1.600 
#    0.000    2.000    0.000    0.000    0.000    0.000 
#    0.000    0.000    0.000    0.000    0.000    0.000 
#
# Total GULP energy -111553.667374 kJ/mol
# GULP energy per Si atom -5577.683369 kJ/mol
# Density = 2.152040 g / cm^3
# Si number density = 21.569496 Si / 1000 Ang^3
#
#
#
# Elastic Constant Matrix: (Units=GPa)
#
#
# Indices 1 2 3 4 5 6 
#
# 1 81.5386 16.0593 20.0026 0.0000 0.0000 0.0000
# 2 16.0593 217.4118 63.5050 0.0000 0.0000 0.0000
# 3 20.0026 63.5050 138.4760 0.0000 0.0000 0.0000
# 4 0.0000 0.0000 0.0000 78.2825 0.0000 0.0000
# 5 0.0000 0.0000 0.0000 0.0000 18.9556 0.0000
# 6 0.0000 0.0000 0.0000 0.0000 0.0000 -16.3490
#
#
#
# Elastic Compliance Matrix: (Units=1/GPa)
#
#
# Indices 1 2 3 4 5 6 
#
# 1 0.012756 -0.000466 -0.001629 0.000000 0.000000 0.000000
# 2 -0.000466 0.005328 -0.002376 0.000000 0.000000 0.000000
# 3 -0.001629 -0.002376 0.008546 0.000000 0.000000 0.000000
# 4 0.000000 0.000000 0.000000 0.012774 0.000000 0.000000
# 5 0.000000 0.000000 0.000000 0.000000 0.052755 0.000000
# 6 0.000000 0.000000 0.000000 0.000000 0.000000 -0.061166
#
#
# Mechanical properties :
#
#
# Convention : Reuss Voigt Hill
#
# Bulk Modulus (GPa) = 56.53653 70.72892 63.63272
# Shear Modulus (GPa) = 109.09531 38.70179 73.89855
#
# Velocity S-wave (km/s) = 7.11957 4.24049 5.85961
# Velocity P-wave (km/s) = 9.68776 7.53910 8.68017
#
# Compressibility (1/GPa) = 0.01768768
#
# Stress axis : x y z
#
# Youngs Moduli (GPa) = 78.39745 187.68556 117.00874
#
# Poissons Ratio (x) = 0.08755 0.19056
# Poissons Ratio (y) = 0.03657 0.27802
# Poissons Ratio (z) = 0.12768 0.44595
#
# Static dielectric constant tensor:
#      x y z
#    x 1.880510 0.000000 0.000000 
#    y 0.000000 1.712680 0.000000 
#    z 0.000000 0.000000 1.765360 
# 
# From -- ./inp_files/15490.got.cif
#   From: 2010.05.17/outbox.cif.g08.bks.cpg/sg39_8_cif.got.tgz:15490.got - 2010.06.03 18:22:40.
