data_PCOD9360108
_publ_section_title
;
Structure prediction by ZEFSAII (Michael W. Deem and Ramdas Pophale) SiO2 
 PCOD9360108
Probable space group: A B M 2
;
_chemical_formula_sum "Si O2"
_cell_formula_units_Z 60
_cell_length_a 13.712852
_cell_length_b 29.881693
_cell_length_c 9.209592
_cell_angle_alpha 90.000000
_cell_angle_beta 90.000000
_cell_angle_gamma 90.000000
_cell_volume 3773.752198
_symmetry_space_group_name_H-M "A B M 2"
_symmetry_group_IT_number 39
_symmetry_cell_setting 'orthorhombic'
loop_
_space_group_symop_operation_xyz
x,y,z
-x,-y,z
-x,1/2+y,z
x,1/2-y,z
x,1/2+y,1/2+z
-x,1/2-y,1/2+z
-x,y,1/2+z
x,-y,1/2+z
loop_
_atom_site_type_symbol
_atom_site_label
_atom_site_fract_x
_atom_site_fract_y
_atom_site_fract_z
Si Si1 0.908132 0.445990 0.349360
Si Si2 0.881487 0.101050 0.847048
Si Si3 0.777785 0.389400 0.152925
Si Si4 0.133662 0.700362 0.181938
Si Si5 0.633302 0.963313 0.616727
Si Si6 0.058065 0.198771 0.356448
Si Si7 0.826739 0.476428 0.654402
Si Si8 0.500000 0.000000 0.867070
O O1 0.826666 0.411504 0.293525
O O2 0.883427 0.462659 0.509712
O O3 0.891323 0.488470 0.245398
O O4 0.011288 0.421177 0.338786
O O5 0.887496 0.153542 0.801938
O O6 0.814734 0.068548 0.749773
O O7 0.845406 0.099555 0.013091
O O8 0.783710 0.336737 0.174244
O O9 0.677284 0.413857 0.122688
O O10 0.173701 0.750000 0.195881
O O11 0.053656 0.692849 0.307039
O O12 0.073753 0.697840 0.029886
O O13 0.568835 0.972127 0.759174
O O14 0.569083 0.971934 0.474560
O O15 0.725332 0.998008 0.619544
O O16 0.086447 0.250000 0.309036
#
# Coordination Sequence:
#
# PCOD9360108 Si02
#       8
#     8   8   8   8   8   8   8   4
#     4  11  21  32  43  64  97 135 167 189 226 265
#     4  11  20  30  45  66  98 136 168 190 229 259
#     4  10  19  32  49  70  98 122 162 203 224 277
#     4   9  17  30  47  68  95 130 164 200 230 260
#     4  10  20  35  50  71  90 117 152 194 245 290
#     4   9  18  30  45  64  93 132 177 203 221 256
#     4  11  22  32  47  67  97 125 159 204 228 277
#     4  10  20  36  56  66  88 116 146 190 250 312
#
# _framework density 15.899295
#
# number of rings (size 3 to 8) (size 9 to 14) (size 15 to 20)
#    0.000    1.867    1.333    5.200    1.867    2.133 
#    0.000    0.000    0.000    0.000    0.000    0.933 
#    0.000    4.267    0.000    0.267    0.000    0.400 
#
# Total GULP energy -167235.115780 kJ/mol
# GULP energy per Si atom -5574.503859 kJ/mol
# Density = 1.586311 g / cm^3
# Si number density = 15.899295 Si / 1000 Ang^3
#
#
#
# Elastic Constant Matrix: (Units=GPa)
#
#
# Indices 1 2 3 4 5 6 
#
# 1 50.3903 34.8484 8.2476 0.0000 0.0000 0.0000
# 2 34.8484 135.2572 34.9391 0.0000 0.0000 0.0000
# 3 8.2476 34.9391 57.6623 0.0000 0.0000 0.0000
# 4 0.0000 0.0000 0.0000 17.3054 0.0000 0.0000
# 5 0.0000 0.0000 0.0000 0.0000 13.9361 0.0000
# 6 0.0000 0.0000 0.0000 0.0000 0.0000 16.7614
#
#
#
# Elastic Compliance Matrix: (Units=1/GPa)
#
#
# Indices 1 2 3 4 5 6 
#
# 1 0.024155 -0.006320 0.000375 0.000000 0.000000 0.000000
# 2 -0.006320 0.010419 -0.005409 0.000000 0.000000 0.000000
# 3 0.000375 -0.005409 0.020566 0.000000 0.000000 0.000000
# 4 0.000000 0.000000 0.000000 0.057786 0.000000 0.000000
# 5 0.000000 0.000000 0.000000 0.000000 0.071756 0.000000
# 6 0.000000 0.000000 0.000000 0.000000 0.000000 0.059661
#
#
# Mechanical properties :
#
#
# Convention : Reuss Voigt Hill
#
# Bulk Modulus (GPa) = 30.83504 44.37553 37.60529
# Shear Modulus (GPa) = 17.99457 20.61889 19.30673
#
# Velocity S-wave (km/s) = 3.36785 3.60508 3.48848
# Velocity P-wave (km/s) = 5.87871 6.73051 6.31898
#
# Compressibility (1/GPa) = 0.03243063
#
# Stress axis : x y z
#
# Youngs Moduli (GPa) = 41.40005 95.97923 48.62320
#
# Poissons Ratio (x) = 0.60660 -0.01822
# Poissons Ratio (y) = 0.26165 0.26301
# Poissons Ratio (z) = -0.01551 0.51916
#
# Static dielectric constant tensor:
#      x y z
#    x 1.513340 0.000000 0.000000 
#    y 0.000000 1.573870 0.000000 
#    z 0.000000 0.000000 1.546120 
# 
# From -- ./inp_files/2876.got.cif
#   From: 2010.05.17/outbox.cif.g08.bks.cpg/sg39_2_cif.got.tgz:2876.got - 2010.06.03 18:22:40.
