data_PCOD9360033
_publ_section_title
;
Structure prediction by ZEFSAII (Michael W. Deem and Ramdas Pophale) SiO2 
 PCOD9360033
Probable space group: A B M 2
;
_chemical_formula_sum "Si O2"
_cell_formula_units_Z 64
_cell_length_a 14.689092
_cell_length_b 8.558734
_cell_length_c 32.407819
_cell_angle_alpha 90.000000
_cell_angle_beta 90.000000
_cell_angle_gamma 90.000000
_cell_volume 4074.312014
_symmetry_space_group_name_H-M "A B M 2"
_symmetry_group_IT_number 39
_symmetry_cell_setting 'orthorhombic'
loop_
_space_group_symop_operation_xyz
x,y,z
-x,-y,z
-x,1/2+y,z
x,1/2-y,z
x,1/2+y,1/2+z
-x,1/2-y,1/2+z
-x,y,1/2+z
x,-y,1/2+z
loop_
_atom_site_type_symbol
_atom_site_label
_atom_site_fract_x
_atom_site_fract_y
_atom_site_fract_z
Si Si1 0.396704 0.060974 0.086420
Si Si2 0.396878 0.938265 0.496152
Si Si3 0.901963 0.437528 0.791974
Si Si4 0.397725 0.938528 0.745871
Si Si5 0.718344 0.439230 0.665641
Si Si6 0.711492 0.438725 0.827682
Si Si7 0.396564 0.562495 0.405683
Si Si8 0.901982 0.935971 0.698987
O O1 0.400706 0.250000 0.087375
O O2 0.333406 0.010254 0.124171
O O3 0.500000 0.000000 0.091280
O O4 0.359896 0.012268 0.041001
O O5 0.397203 0.750000 0.496120
O O6 0.360347 0.987436 0.451252
O O7 0.500000 0.000000 0.496293
O O8 0.904661 0.250000 0.790308
O O9 0.815994 0.485989 0.819598
O O10 0.886901 0.498044 0.745325
O O11 0.000000 0.500000 0.805975
O O12 0.399703 0.750000 0.745943
O O13 0.341032 0.987562 0.705549
O O14 0.346905 0.989447 0.787663
O O15 0.500000 0.000000 0.744479
O O16 0.723900 0.250000 0.665853
O O17 0.818741 0.507043 0.671158
O O18 0.708783 0.250000 0.828967
O O19 0.666170 0.502718 0.868907
O O20 0.500000 0.500000 0.400833
O O21 0.400499 0.750000 0.404420
O O22 0.905093 0.750000 0.701039
O O23 0.000000 0.000000 0.685099
#
# Coordination Sequence:
#
# PCOD9360033 Si02
#       8
#     8   8   8   8   8   8   8   8
#     4   9  17  29  48  69  95 127 158 193 233 276
#     4   8  15  28  44  66  91 120 155 194 235 272
#     4  10  19  34  52  70  93 119 152 195 237 278
#     4  10  20  32  43  60  91 126 157 188 221 263
#     4  10  19  33  48  66  94 126 157 192 234 274
#     4  10  20  33  47  65  93 125 156 192 231 274
#     4  10  19  30  46  67  95 125 160 197 231 277
#     4  11  21  33  51  71  92 120 155 195 235 278
#
# _framework density 15.708173
#
# number of rings (size 3 to 8) (size 9 to 14) (size 15 to 20)
#    0.000    2.250    1.250    3.375    0.000    4.000 
#    0.000    0.000    0.000    0.000    0.000    0.875 
#    0.000    2.000    0.000    0.000    0.000    0.000 
#
# Total GULP energy -178385.075168 kJ/mol
# GULP energy per Si atom -5574.533599 kJ/mol
# Density = 1.567242 g / cm^3
# Si number density = 15.708173 Si / 1000 Ang^3
#
#
#
# Elastic Constant Matrix: (Units=GPa)
#
#
# Indices 1 2 3 4 5 6 
#
# 1 124.0436 27.8242 82.0073 0.0000 0.0000 0.0000
# 2 27.8242 27.6812 28.3560 0.0000 0.0000 0.0000
# 3 82.0073 28.3560 157.3858 0.0000 0.0000 0.0000
# 4 0.0000 0.0000 0.0000 -4.3380 0.0000 0.0000
# 5 0.0000 0.0000 0.0000 0.0000 -4.6187 0.0000
# 6 0.0000 0.0000 0.0000 0.0000 0.0000 25.8522
#
#
#
# Elastic Compliance Matrix: (Units=1/GPa)
#
#
# Indices 1 2 3 4 5 6 
#
# 1 0.013556 -0.007837 -0.005651 0.000000 0.000000 0.000000
# 2 -0.007837 0.048832 -0.004715 0.000000 0.000000 0.000000
# 3 -0.005651 -0.004715 0.010148 0.000000 0.000000 0.000000
# 4 0.000000 0.000000 0.000000 -0.230522 0.000000 0.000000
# 5 0.000000 0.000000 0.000000 0.000000 -0.216513 0.000000
# 6 0.000000 0.000000 0.000000 0.000000 0.000000 0.038681
#
#
# Mechanical properties :
#
#
# Convention : Reuss Voigt Hill
#
# Bulk Modulus (GPa) = 27.67741 65.05397 46.36569
# Shear Modulus (GPa) = -17.39931 14.77399 -1.31266
#
# Velocity S-wave (km/s) = -3.33176 3.07013 -0.91513
# Velocity P-wave (km/s) = 1.69031 7.35334 5.33520
#
# Compressibility (1/GPa) = 0.03613055
#
# Stress axis : x y z
#
# Youngs Moduli (GPa) = 73.76928 20.47824 98.54154
#
# Poissons Ratio (x) = 0.16048 0.55690
# Poissons Ratio (y) = 0.57810 0.46460
# Poissons Ratio (z) = 0.41690 0.09655
#
# Static dielectric constant tensor:
#      x y z
#    x 1.499570 0.000000 0.000000 
#    y 0.000000 1.542530 0.000000 
#    z 0.000000 0.000000 1.546800 
# 
# From -- ./inp_files/17971.got.cif
#   From: 2010.05.17/outbox.cif.g08.bks.cpg/sg39_9_cif.got.tgz:17971.got - 2010.06.03 18:22:40.
