data_PCOD9360172
_publ_section_title
;
Structure prediction by ZEFSAII (Michael W. Deem and Ramdas Pophale) SiO2 
 PCOD9360172
Probable space group: A B M 2
;
_chemical_formula_sum "Si O2"
_cell_formula_units_Z 64
_cell_length_a 20.989309
_cell_length_b 9.302153
_cell_length_c 16.658985
_cell_angle_alpha 90.000000
_cell_angle_beta 90.000000
_cell_angle_gamma 90.000000
_cell_volume 3252.596248
_symmetry_space_group_name_H-M "A B M 2"
_symmetry_group_IT_number 39
_symmetry_cell_setting 'orthorhombic'
loop_
_space_group_symop_operation_xyz
x,y,z
-x,-y,z
-x,1/2+y,z
x,1/2-y,z
x,1/2+y,1/2+z
-x,1/2-y,1/2+z
-x,y,1/2+z
x,-y,1/2+z
loop_
_atom_site_type_symbol
_atom_site_label
_atom_site_fract_x
_atom_site_fract_y
_atom_site_fract_z
Si Si1 0.758761 0.909990 0.220700
Si Si2 0.865718 0.580076 0.800345
Si Si3 0.364450 0.409378 0.327629
Si Si4 0.863198 0.079562 0.479962
Si Si5 0.313630 0.411268 0.606610
Si Si6 0.932409 0.921094 0.626824
Si Si7 0.558001 0.912670 0.711433
Si Si8 0.712301 0.583026 0.959335
O O1 0.777872 0.750000 0.190538
O O2 0.688988 0.895011 0.258477
O O3 0.807508 0.970979 0.285755
O O4 0.747862 0.038227 0.157682
O O5 0.846129 0.750000 0.801940
O O6 0.892663 0.551407 0.890325
O O7 0.906626 0.559534 0.718667
O O8 0.384912 0.250000 0.352142
O O9 0.420962 0.503416 0.291470
O O10 0.325429 0.490275 0.395425
O O11 0.871470 0.250000 0.496933
O O12 0.787608 0.052030 0.467896
O O13 0.889974 0.990160 0.555174
O O14 0.303124 0.250000 0.573743
O O15 0.378584 0.406769 0.657242
O O16 0.319029 0.537072 0.542604
O O17 0.937752 0.750000 0.613706
O O18 0.000000 0.000000 0.621807
O O19 0.538154 0.750000 0.728159
O O20 0.500000 0.000000 0.673087
O O21 0.705870 0.750000 0.940187
#
# Coordination Sequence:
#
# PCOD9360172 Si02
#       8
#     8   8   8   8   8   8   8   8
#     4  10  19  32  54  85 115 146 188 234 285 348
#     4  10  21  39  62  88 119 159 199 245 305 366
#     4  10  20  34  55  83 117 151 188 234 285 349
#     4  10  22  40  63  91 126 161 200 250 308 369
#     4  10  21  35  54  80 115 154 190 237 298 358
#     4  11  25  43  63  86 118 159 206 254 303 362
#     4  10  21  38  59  81 109 150 197 244 293 349
#     4  11  21  35  58  88 121 152 189 242 301 359
#
# _framework density 19.676587999999999
#
# number of rings (size 3 to 8) (size 9 to 14) (size 15 to 20)
#    0.000    1.750    1.250    3.000    0.000    7.500 
#    0.000    1.875    0.000    1.500    0.000    0.000 
#    0.000    0.000    0.000    0.000    0.000    0.000 
#
# Total GULP energy -178338.199196 kJ/mol
# GULP energy per Si atom -5573.068725 kJ/mol
# Density = 1.963180 g / cm^3
# Si number density = 19.676588 Si / 1000 Ang^3
#
#
#
# Elastic Constant Matrix: (Units=GPa)
#
#
# Indices 1 2 3 4 5 6 
#
# 1 50.7510 43.1628 24.1081 0.0000 0.0000 0.0000
# 2 43.1628 105.6861 41.7895 0.0000 0.0000 0.0000
# 3 24.1081 41.7895 88.8758 0.0000 0.0000 0.0000
# 4 0.0000 0.0000 0.0000 29.4791 0.0000 0.0000
# 5 0.0000 0.0000 0.0000 0.0000 16.0808 0.0000
# 6 0.0000 0.0000 0.0000 0.0000 0.0000 14.1599
#
#
#
# Elastic Compliance Matrix: (Units=1/GPa)
#
#
# Indices 1 2 3 4 5 6 
#
# 1 0.030828 -0.011404 -0.003000 0.000000 0.000000 0.000000
# 2 -0.011404 0.015842 -0.004355 0.000000 0.000000 0.000000
# 3 -0.003000 -0.004355 0.014113 0.000000 0.000000 0.000000
# 4 0.000000 0.000000 0.000000 0.033922 0.000000 0.000000
# 5 0.000000 0.000000 0.000000 0.000000 0.062186 0.000000
# 6 0.000000 0.000000 0.000000 0.000000 0.000000 0.070622
#
#
# Mechanical properties :
#
#
# Convention : Reuss Voigt Hill
#
# Bulk Modulus (GPa) = 42.98478 51.49263 47.23870
# Shear Modulus (GPa) = 18.32931 21.02746 19.67839
#
# Velocity S-wave (km/s) = 3.05541 3.27257 3.16585
# Velocity P-wave (km/s) = 5.86007 6.36443 6.11745
#
# Compressibility (1/GPa) = 0.02326405
#
# Stress axis : x y z
#
# Youngs Moduli (GPa) = 32.43793 63.12490 70.85499
#
# Poissons Ratio (x) = 0.71988 0.21257
# Poissons Ratio (y) = 0.36992 0.30860
# Poissons Ratio (z) = 0.09732 0.27493
#
# Static dielectric constant tensor:
#      x y z
#    x 1.693440 0.000000 0.000000 
#    y 0.000000 1.702660 0.000000 
#    z 0.000000 0.000000 1.774860 
# 
# From -- ./inp_files/13120.got.cif
#   From: 2010.05.17/outbox.cif.g08.bks.cpg/sg39_7_cif.got.tgz:13120.got - 2010.06.03 18:22:40.
