data_PCOD9360235
_publ_section_title
;
Structure prediction by ZEFSAII (Michael W. Deem and Ramdas Pophale) SiO2 
 PCOD9360235
Probable space group: A B M 2
;
_chemical_formula_sum "Si O2"
_cell_formula_units_Z 64
_cell_length_a 21.346972
_cell_length_b 8.538325
_cell_length_c 17.214375
_cell_angle_alpha 90.000000
_cell_angle_beta 90.000000
_cell_angle_gamma 90.000000
_cell_volume 3137.619111
_symmetry_space_group_name_H-M "A B M 2"
_symmetry_group_IT_number 39
_symmetry_cell_setting 'orthorhombic'
loop_
_space_group_symop_operation_xyz
x,y,z
-x,-y,z
-x,1/2+y,z
x,1/2-y,z
x,1/2+y,1/2+z
-x,1/2-y,1/2+z
-x,y,1/2+z
x,-y,1/2+z
loop_
_atom_site_type_symbol
_atom_site_label
_atom_site_fract_x
_atom_site_fract_y
_atom_site_fract_z
Si Si1 0.365297 0.060443 0.251340
Si Si2 0.857824 0.573202 0.643480
Si Si3 0.194197 0.571916 0.424344
Si Si4 0.220336 0.930509 0.768987
Si Si5 0.066469 0.563297 0.509125
Si Si6 0.430497 0.062157 0.413080
Si Si7 0.608346 0.570047 0.082933
Si Si8 0.730179 0.922249 0.545199
O O1 0.370704 0.250000 0.249553
O O2 0.291096 0.024269 0.244065
O O3 0.389701 0.009054 0.337032
O O4 0.401360 0.005919 0.171778
O O5 0.868785 0.750000 0.672793
O O6 0.833945 0.449532 0.705738
O O7 0.914709 0.515539 0.590778
O O8 0.795717 0.579980 0.589589
O O9 0.204767 0.750000 0.451137
O O10 0.200022 0.552163 0.333949
O O11 0.125056 0.525329 0.453006
O O12 0.248582 0.462742 0.458745
O O13 0.222763 0.750000 0.795578
O O14 0.063681 0.750000 0.517283
O O15 0.000000 0.500000 0.481393
O O16 0.428222 0.250000 0.413720
O O17 0.500000 0.000000 0.397785
O O18 0.413869 0.007114 0.501463
O O19 0.587255 0.750000 0.081209
O O20 0.683341 0.553105 0.074737
O O21 0.700623 0.750000 0.551660
#
# Coordination Sequence:
#
# PCOD9360235 Si02
#       8
#     8   8   8   8   8   8   8   8
#     4   9  21  39  62  89 124 161 201 250 308 369
#     4  10  20  34  55  83 117 151 189 236 288 351
#     4  10  21  35  54  82 115 153 192 241 298 361
#     4  11  20  35  58  87 120 153 190 244 305 360
#     4  10  21  38  59  81 110 150 198 245 294 352
#     4  11  24  44  63  87 121 162 209 259 307 367
#     4  11  21  38  63  91 120 159 201 249 306 368
#     4  10  19  33  54  84 116 149 188 236 289 352
#
# _framework density 20.397632000000002
#
# number of rings (size 3 to 8) (size 9 to 14) (size 15 to 20)
#    0.000    1.750    1.250    3.375    0.000    4.000 
#    0.000    6.250    0.000    1.500    0.000    0.000 
#    0.000    0.000    0.000    0.000    0.000    0.000 
#
# Total GULP energy -178249.450037 kJ/mol
# GULP energy per Si atom -5570.295314 kJ/mol
# Density = 2.035121 g / cm^3
# Si number density = 20.397632 Si / 1000 Ang^3
#
#
#
# Elastic Constant Matrix: (Units=GPa)
#
#
# Indices 1 2 3 4 5 6 
#
# 1 51.6988 6.2637 25.1388 0.0000 0.0000 0.0000
# 2 6.2637 38.7922 16.9191 0.0000 0.0000 0.0000
# 3 25.1388 16.9191 110.4711 0.0000 0.0000 0.0000
# 4 0.0000 0.0000 0.0000 28.4126 0.0000 0.0000
# 5 0.0000 0.0000 0.0000 0.0000 21.1421 0.0000
# 6 0.0000 0.0000 0.0000 0.0000 0.0000 26.1722
#
#
#
# Elastic Compliance Matrix: (Units=1/GPa)
#
#
# Indices 1 2 3 4 5 6 
#
# 1 0.021826 -0.001455 -0.004744 0.000000 0.000000 0.000000
# 2 -0.001455 0.027721 -0.003914 0.000000 0.000000 0.000000
# 3 -0.004744 -0.003914 0.010731 0.000000 0.000000 0.000000
# 4 0.000000 0.000000 0.000000 0.035196 0.000000 0.000000
# 5 0.000000 0.000000 0.000000 0.000000 0.047299 0.000000
# 6 0.000000 0.000000 0.000000 0.000000 0.000000 0.038208
#
#
# Mechanical properties :
#
#
# Convention : Reuss Voigt Hill
#
# Bulk Modulus (GPa) = 24.96827 33.06725 29.01776
# Shear Modulus (GPa) = 23.30374 25.32140 24.31257
#
# Velocity S-wave (km/s) = 3.38372 3.52716 3.45618
# Velocity P-wave (km/s) = 5.24723 5.73012 5.49398
#
# Compressibility (1/GPa) = 0.04005084
#
# Stress axis : x y z
#
# Youngs Moduli (GPa) = 45.81728 36.07422 93.18661
#
# Poissons Ratio (x) = 0.05249 0.44206
# Poissons Ratio (y) = 0.06667 0.36477
# Poissons Ratio (z) = 0.21735 0.14121
#
# Static dielectric constant tensor:
#      x y z
#    x 1.706320 0.000000 0.000000 
#    y 0.000000 1.724020 0.000000 
#    z 0.000000 0.000000 1.803550 
# 
# From -- ./inp_files/13228.got.cif
#   From: 2010.05.17/outbox.cif.g08.bks.cpg/sg39_7_cif.got.tgz:13228.got - 2010.06.03 18:22:40.
