data_PCOD9360700
_publ_section_title
;
Structure prediction by ZEFSAII (Michael W. Deem and Ramdas Pophale) SiO2 
 PCOD9360700
Probable space group: A B M 2
;
_chemical_formula_sum "Si O2"
_cell_formula_units_Z 64
_cell_length_a 8.813183
_cell_length_b 20.005989
_cell_length_c 19.674681
_cell_angle_alpha 90.000000
_cell_angle_beta 90.000000
_cell_angle_gamma 90.000000
_cell_volume 3468.969754
_symmetry_space_group_name_H-M "A B M 2"
_symmetry_group_IT_number 39
_symmetry_cell_setting 'orthorhombic'
loop_
_space_group_symop_operation_xyz
x,y,z
-x,-y,z
-x,1/2+y,z
x,1/2-y,z
x,1/2+y,1/2+z
-x,1/2-y,1/2+z
-x,y,1/2+z
x,-y,1/2+z
loop_
_atom_site_type_symbol
_atom_site_label
_atom_site_fract_x
_atom_site_fract_y
_atom_site_fract_z
Si Si1 0.701564 0.548905 0.295160
Si Si2 0.819066 0.322254 0.335785
Si Si3 0.058617 0.636378 0.728337
Si Si4 0.680934 0.822254 0.133637
Si Si5 0.164890 0.536409 0.413249
Si Si6 0.558618 0.863622 0.741085
Si Si7 0.664890 0.463592 0.556173
Si Si8 0.201564 0.548905 0.174262
O O1 0.822259 0.608226 0.283587
O O2 0.732627 0.510042 0.364086
O O3 0.536788 0.578002 0.278840
O O4 0.750000 0.500000 0.234711
O O5 0.832495 0.250000 0.371027
O O6 0.846283 0.389506 0.379580
O O7 0.655443 0.328290 0.299357
O O8 0.937127 0.324524 0.273070
O O9 0.155443 0.671710 0.670065
O O10 0.963212 0.578002 0.690583
O O11 0.667505 0.750000 0.098395
O O12 0.562873 0.824524 0.196352
O O13 0.653717 0.889506 0.089842
O O14 0.250000 0.541619 0.484711
O O15 0.000000 0.500000 0.417501
O O16 0.677741 0.891775 0.685835
O O17 0.500000 0.500000 0.551921
O O18 0.767373 0.510042 0.605336
#
# Coordination Sequence:
#
# PCOD9360700 Si02
#       8
#     8   8   8   8   8   8   8   8
#     4  11  18  35  63  90 116 147 202 256 310 344
#     4  11  23  39  60  91 128 163 199 247 311 369
#     4  10  20  34  64  93 119 153 197 254 302 365
#     4  11  23  39  60  91 128 163 199 247 311 369
#     4  12  26  40  62  90 120 161 210 256 303 363
#     4  10  20  34  64  93 119 153 197 254 302 365
#     4  12  26  40  62  90 120 161 210 256 303 363
#     4  11  18  35  63  90 116 147 202 256 310 344
#
# _framework density 18.449280999999999
#
# number of rings (size 3 to 8) (size 9 to 14) (size 15 to 20)
#    0.000    1.000    7.500    1.500    3.500    0.500 
#    0.000    0.000    0.000    0.750    0.000    0.000 
#    0.000    0.000    0.000    0.000    0.000    0.000 
#
# Total GULP energy -178458.039549 kJ/mol
# GULP energy per Si atom -5576.813736 kJ/mol
# Density = 1.840729 g / cm^3
# Si number density = 18.449281 Si / 1000 Ang^3
#
#
#
# Elastic Constant Matrix: (Units=GPa)
#
#
# Indices 1 2 3 4 5 6 
#
# 1 100.9450 41.7737 33.6369 0.0000 0.0000 0.0000
# 2 41.7737 135.2855 48.6809 0.0000 0.0000 0.0000
# 3 33.6369 48.6809 104.0510 0.0000 0.0000 0.0000
# 4 0.0000 0.0000 0.0000 9.3973 0.0000 0.0000
# 5 0.0000 0.0000 0.0000 0.0000 26.7346 0.0000
# 6 0.0000 0.0000 0.0000 0.0000 0.0000 2.7730
#
#
#
# Elastic Compliance Matrix: (Units=1/GPa)
#
#
# Indices 1 2 3 4 5 6 
#
# 1 0.011898 -0.002753 -0.002558 0.000000 0.000000 0.000000
# 2 -0.002753 0.009525 -0.003566 0.000000 0.000000 0.000000
# 3 -0.002558 -0.003566 0.012106 0.000000 0.000000 0.000000
# 4 0.000000 0.000000 0.000000 0.106413 0.000000 0.000000
# 5 0.000000 0.000000 0.000000 0.000000 0.037405 0.000000
# 6 0.000000 0.000000 0.000000 0.000000 0.000000 0.360618
#
#
# Mechanical properties :
#
#
# Convention : Reuss Voigt Hill
#
# Bulk Modulus (GPa) = 63.39616 65.38494 64.39055
# Shear Modulus (GPa) = 8.91299 22.19366 15.55332
#
# Velocity S-wave (km/s) = 2.20036 3.47213 2.90665
# Velocity P-wave (km/s) = 6.39472 7.18272 6.80015
#
# Compressibility (1/GPa) = 0.01577383
#
# Stress axis : x y z
#
# Youngs Moduli (GPa) = 84.04587 104.98355 82.60226
#
# Poissons Ratio (x) = 0.28907 0.21131
# Poissons Ratio (y) = 0.23142 0.29459
# Poissons Ratio (z) = 0.21500 0.37441
#
# Static dielectric constant tensor:
#      x y z
#    x 1.675110 0.000000 0.000000 
#    y 0.000000 1.751480 0.000000 
#    z 0.000000 0.000000 1.593710 
# 
# From -- ./inp_files/14284.got.cif
#   From: 2010.05.17/outbox.cif.g08.bks.cpg/sg39_8_cif.got.tgz:14284.got - 2010.06.03 18:22:40.
