data_PCOD9360119
_publ_section_title
;
Structure prediction by ZEFSAII (Michael W. Deem and Ramdas Pophale) SiO2 
 PCOD9360119
Probable space group: A B M 2
;
_chemical_formula_sum "Si O2"
_cell_formula_units_Z 36
_cell_length_a 19.042064
_cell_length_b 20.024808
_cell_length_c 5.032650
_cell_angle_alpha 90.000000
_cell_angle_beta 90.000000
_cell_angle_gamma 90.000000
_cell_volume 1919.018269
_symmetry_space_group_name_H-M "A B M 2"
_symmetry_group_IT_number 39
_symmetry_cell_setting 'orthorhombic'
loop_
_space_group_symop_operation_xyz
x,y,z
-x,-y,z
-x,1/2+y,z
x,1/2-y,z
x,1/2+y,1/2+z
-x,1/2-y,1/2+z
-x,y,1/2+z
x,-y,1/2+z
loop_
_atom_site_type_symbol
_atom_site_label
_atom_site_fract_x
_atom_site_fract_y
_atom_site_fract_z
Si Si1 0.802649 0.961804 0.768550
Si Si2 0.049958 0.102391 0.636046
Si Si3 0.349895 0.951123 0.147756
Si Si4 0.042204 0.750000 0.036522
Si Si5 0.451479 0.325903 0.732152
O O1 0.878570 0.935591 0.687882
O O2 0.731091 0.926472 0.676389
O O3 0.798512 0.028519 0.584807
O O4 0.073523 0.180009 0.622470
O O5 0.006810 0.089550 0.367260
O O6 0.399506 0.887189 0.176934
O O7 0.360302 0.006737 0.378496
O O8 0.971407 0.750000 0.221049
O O9 0.422148 0.250000 0.700024
O O10 0.515947 0.331357 0.525384
#
# Coordination Sequence:
#
# PCOD9360119 Si02
#       5
#     8   8   8   4   8
#     4  10  21  35  50  73 105 135 169 216 261 302
#     4  10  19  32  51  72  98 131 172 217 260 307
#     4  10  21  37  56  79 112 147 181 220 264 322
#     4   8  16  30  46  66  92 120 156 208 256 294
#     4  10  21  37  58  85 115 141 175 225 268 311
#
# _framework density 18.759591
#
# number of rings (size 3 to 8) (size 9 to 14) (size 15 to 20)
#    0.000    2.222    0.000    2.667    0.000    5.333 
#    2.000    0.000    0.000    0.000    0.000    0.000 
#    0.000    0.000    0.000    0.000    0.000    0.000 
#
# Total GULP energy -100218.375564 kJ/mol
# GULP energy per Si atom -5567.687531 kJ/mol
# Density = 1.871689 g / cm^3
# Si number density = 18.759591 Si / 1000 Ang^3
#
#
#
# Elastic Constant Matrix: (Units=GPa)
#
#
# Indices 1 2 3 4 5 6 
#
# 1 74.6139 45.8737 -16.8830 0.0000 0.0000 0.0000
# 2 45.8737 67.6196 -5.7889 0.0000 0.0000 0.0000
# 3 -16.8830 -5.7889 69.3628 0.0000 0.0000 0.0000
# 4 0.0000 0.0000 0.0000 15.9096 0.0000 0.0000
# 5 0.0000 0.0000 0.0000 0.0000 18.0862 0.0000
# 6 0.0000 0.0000 0.0000 0.0000 0.0000 -4.8886
#
#
#
# Elastic Compliance Matrix: (Units=1/GPa)
#
#
# Indices 1 2 3 4 5 6 
#
# 1 0.024357 -0.016132 0.004582 0.000000 0.000000 0.000000
# 2 -0.016132 0.025579 -0.001792 0.000000 0.000000 0.000000
# 3 0.004582 -0.001792 0.015383 0.000000 0.000000 0.000000
# 4 0.000000 0.000000 0.000000 0.062855 0.000000 0.000000
# 5 0.000000 0.000000 0.000000 0.000000 0.055291 0.000000
# 6 0.000000 0.000000 0.000000 0.000000 0.000000 -0.204558
#
#
# Mechanical properties :
#
#
# Convention : Reuss Voigt Hill
#
# Bulk Modulus (GPa) = 25.88226 28.66666 27.27446
# Shear Modulus (GPa) = 270.73237 18.38108 144.55672
#
# Velocity S-wave (km/s) = 12.02622 3.13361 8.78776
# Velocity P-wave (km/s) = 14.37591 5.32981 10.84144
#
# Compressibility (1/GPa) = 0.03863651
#
# Stress axis : x y z
#
# Youngs Moduli (GPa) = 41.05550 39.09422 65.00796
#
# Poissons Ratio (x) = 0.63066 -0.29788
# Poissons Ratio (y) = 0.66230 0.11648
# Poissons Ratio (z) = -0.18813 0.07005
#
# Static dielectric constant tensor:
#      x y z
#    x 1.631290 0.000000 0.000000 
#    y 0.000000 1.696240 0.000000 
#    z 0.000000 0.000000 1.666930 
# 
# From -- ./inp_files/477.got.cif
#   From: 2010.05.17/outbox.cif.g08.bks.cpg/sg39_1_cif.got.tgz:477.got - 2010.06.03 18:22:40.
