data_PCOD9360684
_publ_section_title
;
Structure prediction by ZEFSAII (Michael W. Deem and Ramdas Pophale) SiO2 
 PCOD9360684
Probable space group: A B M 2
;
_chemical_formula_sum "Si O2"
_cell_formula_units_Z 36
_cell_length_a 10.130335
_cell_length_b 20.695880
_cell_length_c 8.472818
_cell_angle_alpha 90.000000
_cell_angle_beta 90.000000
_cell_angle_gamma 90.000000
_cell_volume 1776.378804
_symmetry_space_group_name_H-M "A B M 2"
_symmetry_group_IT_number 39
_symmetry_cell_setting 'orthorhombic'
loop_
_space_group_symop_operation_xyz
x,y,z
-x,-y,z
-x,1/2+y,z
x,1/2-y,z
x,1/2+y,1/2+z
-x,1/2-y,1/2+z
-x,y,1/2+z
x,-y,1/2+z
loop_
_atom_site_type_symbol
_atom_site_label
_atom_site_fract_x
_atom_site_fract_y
_atom_site_fract_z
Si Si1 0.808176 0.750000 0.545851
Si Si2 0.901840 0.250000 0.679877
Si Si3 0.500000 0.500000 0.871611
Si Si4 0.903977 0.619126 0.001724
Si Si5 0.693308 0.973422 0.119331
Si Si6 0.190564 0.114373 0.638207
O O1 0.856829 0.750000 0.362453
O O2 0.741221 0.818084 0.588852
O O3 0.938787 0.750000 0.659166
O O4 0.861440 0.185908 0.585164
O O5 0.603607 0.459651 0.769640
O O6 0.404962 0.456876 0.977385
O O7 0.828645 0.563149 0.096224
O O8 0.060565 0.610651 0.026330
O O9 0.862813 0.616983 0.818670
O O10 0.723359 0.050057 0.119875
#
# Coordination Sequence:
#
# PCOD9360684 Si02
#       6
#     4   4   4   8   8   8
#     4  10  20  34  56  85 122 155 183 227 295 359
#     4  10  20  34  56  85 122 155 183 227 295 359
#     4  10  24  42  58  84 112 158 200 242 288 334
#     4  11  22  36  60  91 122 151 187 238 295 350
#     4  11  23  40  64  84 115 151 200 244 286 343
#     4  11  22  36  60  91 122 151 187 238 295 350
#
# _framework density 20.265948999999999
#
# number of rings (size 3 to 8) (size 9 to 14) (size 15 to 20)
#    0.000    1.333    2.222    6.667    6.222    1.778 
#    0.000    0.000    0.000    8.000    0.000    0.000 
#    0.000    0.000    0.000    0.000    0.000    0.000 
#
# Total GULP energy -100423.668727 kJ/mol
# GULP energy per Si atom -5579.092707 kJ/mol
# Density = 2.021982 g / cm^3
# Si number density = 20.265949 Si / 1000 Ang^3
#
#
#
# Elastic Constant Matrix: (Units=GPa)
#
#
# Indices 1 2 3 4 5 6 
#
# 1 41.3611 23.2833 9.3154 0.0000 0.0000 0.0000
# 2 23.2833 136.0628 17.3699 0.0000 0.0000 0.0000
# 3 9.3154 17.3699 106.2442 0.0000 0.0000 0.0000
# 4 0.0000 0.0000 0.0000 14.0453 0.0000 0.0000
# 5 0.0000 0.0000 0.0000 0.0000 29.3462 0.0000
# 6 0.0000 0.0000 0.0000 0.0000 0.0000 -3.4219
#
#
#
# Elastic Compliance Matrix: (Units=1/GPa)
#
#
# Indices 1 2 3 4 5 6 
#
# 1 0.027034 -0.004416 -0.001648 0.000000 0.000000 0.000000
# 2 -0.004416 0.008227 -0.000958 0.000000 0.000000 0.000000
# 3 -0.001648 -0.000958 0.009713 0.000000 0.000000 0.000000
# 4 0.000000 0.000000 0.000000 0.071198 0.000000 0.000000
# 5 0.000000 0.000000 0.000000 0.000000 0.034076 0.000000
# 6 0.000000 0.000000 0.000000 0.000000 0.000000 -0.292233
#
#
# Mechanical properties :
#
#
# Convention : Reuss Voigt Hill
#
# Bulk Modulus (GPa) = 32.32998 42.62280 37.47639
# Shear Modulus (GPa) = -42.50649 23.57388 -9.46631
#
# Velocity S-wave (km/s) = -4.58474 3.41431 -2.16360
# Velocity P-wave (km/s) = 3.46973 6.05151 3.50583
#
# Compressibility (1/GPa) = 0.03093105
#
# Stress axis : x y z
#
# Youngs Moduli (GPa) = 36.99002 121.54405 102.95032
#
# Poissons Ratio (x) = 0.53671 0.16970
# Poissons Ratio (y) = 0.16334 0.09862
# Poissons Ratio (z) = 0.06097 0.11643
#
# Static dielectric constant tensor:
#      x y z
#    x 1.716130 0.000000 0.000000 
#    y 0.000000 1.772330 0.000000 
#    z 0.000000 0.000000 1.796810 
# 
# From -- ./inp_files/2056.got.cif
#   From: 2010.05.17/outbox.cif.g08.bks.cpg/sg39_2_cif.got.tgz:2056.got - 2010.06.03 18:22:40.
