data_PCOD9360071
_publ_section_title
;
Structure prediction by ZEFSAII (Michael W. Deem and Ramdas Pophale) SiO2 
 PCOD9360071
Probable space group: A B M 2
;
_chemical_formula_sum "Si O2"
_cell_formula_units_Z 56
_cell_length_a 5.204241
_cell_length_b 26.460137
_cell_length_c 23.102197
_cell_angle_alpha 90.000000
_cell_angle_beta 90.000000
_cell_angle_gamma 90.000000
_cell_volume 3181.286417
_symmetry_space_group_name_H-M "A B M 2"
_symmetry_group_IT_number 39
_symmetry_cell_setting 'orthorhombic'
loop_
_space_group_symop_operation_xyz
x,y,z
-x,-y,z
-x,1/2+y,z
x,1/2-y,z
x,1/2+y,1/2+z
-x,1/2-y,1/2+z
-x,y,1/2+z
x,-y,1/2+z
loop_
_atom_site_type_symbol
_atom_site_label
_atom_site_fract_x
_atom_site_fract_y
_atom_site_fract_z
Si Si1 0.837436 0.806970 0.754710
Si Si2 0.522101 0.439189 0.854893
Si Si3 0.851623 0.192193 0.114395
Si Si4 0.662969 0.369297 0.755226
Si Si5 0.352565 0.628059 0.616218
Si Si6 0.246735 0.965834 0.537530
Si Si7 0.024776 0.060688 0.917413
O O1 0.874316 0.750000 0.776367
O O2 0.846137 0.804776 0.684527
O O3 0.561858 0.829590 0.769938
O O4 0.066329 0.844355 0.771207
O O5 0.500000 0.500000 0.854721
O O6 0.607862 0.418689 0.792843
O O7 0.242699 0.419900 0.873994
O O8 0.740355 0.421526 0.900779
O O9 0.836782 0.250000 0.092953
O O10 0.610965 0.157261 0.098366
O O11 0.113812 0.163744 0.099277
O O12 0.652399 0.378163 0.686091
O O13 0.326172 0.574053 0.586055
O O14 0.139947 0.935274 0.481701
O O15 0.500000 0.000000 0.522812
O O16 0.000000 0.000000 0.555175
O O17 0.000000 0.000000 0.910112
#
# Coordination Sequence:
#
# PCOD9360071 Si02
#       7
#     8   8   8   8   8   8   8
#     4   9  17  30  48  70  98 130 164 201 237 280
#     4  10  19  32  50  72  98 127 160 200 239 281
#     4   9  17  31  50  72 100 131 166 207 243 284
#     4  10  19  31  48  75 104 128 158 195 245 303
#     4  10  20  32  49  77 105 131 163 197 249 308
#     4  11  21  35  53  73 101 133 167 206 243 288
#     4   9  18  33  51  69  90 124 172 210 231 264
#
# _framework density 17.602941000000001
#
# number of rings (size 3 to 8) (size 9 to 14) (size 15 to 20)
#    0.000    2.286    0.000    4.714    0.000    4.000 
#    0.000    2.143    0.000    0.000    0.000   20.000 
#    0.000    0.000    0.000    0.000    0.000    0.000 
#
# Total GULP energy -156006.715432 kJ/mol
# GULP energy per Si atom -5571.668408 kJ/mol
# Density = 1.756288 g / cm^3
# Si number density = 17.602941 Si / 1000 Ang^3
#
#
#
# Elastic Constant Matrix: (Units=GPa)
#
#
# Indices 1 2 3 4 5 6 
#
# 1 115.3095 31.1995 30.4440 0.0000 0.0000 0.0000
# 2 31.1995 59.9129 34.5708 0.0000 0.0000 0.0000
# 3 30.4440 34.5708 53.1435 0.0000 0.0000 0.0000
# 4 0.0000 0.0000 0.0000 -1.4258 0.0000 0.0000
# 5 0.0000 0.0000 0.0000 0.0000 17.0130 0.0000
# 6 0.0000 0.0000 0.0000 0.0000 0.0000 23.1731
#
#
#
# Elastic Compliance Matrix: (Units=1/GPa)
#
#
# Indices 1 2 3 4 5 6 
#
# 1 0.010593 -0.003226 -0.003970 0.000000 0.000000 0.000000
# 2 -0.003226 0.027703 -0.016173 0.000000 0.000000 0.000000
# 3 -0.003970 -0.016173 0.031612 0.000000 0.000000 0.000000
# 4 0.000000 0.000000 0.000000 -0.701346 0.000000 0.000000
# 5 0.000000 0.000000 0.000000 0.000000 0.058779 0.000000
# 6 0.000000 0.000000 0.000000 0.000000 0.000000 0.043154
#
#
# Mechanical properties :
#
#
# Convention : Reuss Voigt Hill
#
# Bulk Modulus (GPa) = 43.15878 46.75496 44.95687
# Shear Modulus (GPa) = -10.52536 16.56216 3.01840
#
# Velocity S-wave (km/s) = -2.44792 3.07070 1.31089
# Velocity P-wave (km/s) = 4.07203 6.26025 5.28073
#
# Compressibility (1/GPa) = 0.02317025
#
# Stress axis : x y z
#
# Youngs Moduli (GPa) = 94.39954 36.09726 31.63306
#
# Poissons Ratio (x) = 0.11643 0.12559
# Poissons Ratio (y) = 0.30449 0.51162
# Poissons Ratio (z) = 0.37479 0.58382
#
# Static dielectric constant tensor:
#      x y z
#    x 1.620350 0.000000 0.000000 
#    y 0.000000 1.585100 0.000000 
#    z 0.000000 0.000000 1.610560 
# 
# From -- ./inp_files/13594.got.cif
#   From: 2010.05.17/outbox.cif.g08.bks.cpg/sg39_7_cif.got.tgz:13594.got - 2010.06.03 18:22:40.
