data_PCOD9360807
_publ_section_title
;
Structure prediction by ZEFSAII (Michael W. Deem and Ramdas Pophale) SiO2 
 PCOD9360807
Probable space group: A B M 2
;
_chemical_formula_sum "Si O2"
_cell_formula_units_Z 48
_cell_length_a 10.352837
_cell_length_b 15.689420
_cell_length_c 11.976917
_cell_angle_alpha 90.000000
_cell_angle_beta 90.000000
_cell_angle_gamma 90.000000
_cell_volume 1945.410723
_symmetry_space_group_name_H-M "A B M 2"
_symmetry_group_IT_number 39
_symmetry_cell_setting 'orthorhombic'
loop_
_space_group_symop_operation_xyz
x,y,z
-x,-y,z
-x,1/2+y,z
x,1/2-y,z
x,1/2+y,1/2+z
-x,1/2-y,1/2+z
-x,y,1/2+z
x,-y,1/2+z
loop_
_atom_site_type_symbol
_atom_site_label
_atom_site_fract_x
_atom_site_fract_y
_atom_site_fract_z
Si Si1 0.037763 0.098279 0.943640
Si Si2 0.393716 0.151971 0.441593
Si Si3 0.034333 0.101725 0.696231
Si Si4 0.385074 0.383640 0.201884
Si Si5 0.325982 0.580107 0.158924
Si Si6 0.683294 0.844924 0.962871
O O1 0.988118 0.132868 0.821099
O O2 0.192373 0.102367 0.934208
O O3 0.000000 0.000000 0.947555
O O4 0.005809 0.134186 0.070030
O O5 0.396345 0.250000 0.482510
O O6 0.338979 0.150163 0.318885
O O7 0.321191 0.090736 0.525458
O O8 0.542130 0.119615 0.433616
O O9 0.189311 0.112960 0.699215
O O10 0.000000 0.000000 0.694558
O O11 0.349652 0.483064 0.193043
O O12 0.540658 0.372610 0.190988
O O13 0.321493 0.340692 0.096411
O O14 0.693740 0.750000 0.914859
#
# Coordination Sequence:
#
# PCOD9360807 Si02
#       6
#     8   8   8   8   8   8
#     4  10  21  38  60  86 117 161 214 265 318 380
#     4  10  22  40  63  94 133 172 209 261 334 406
#     4  10  21  37  59  85 118 161 210 265 323 375
#     4  10  20  35  61  94 126 164 210 260 319 394
#     4  10  22  36  58  92 128 162 209 268 322 381
#     4  10  21  39  62  90 125 165 209 262 331 401
#
# _framework density 24.673454
#
# number of rings (size 3 to 8) (size 9 to 14) (size 15 to 20)
#    0.000    2.000    0.000    3.500    0.000   12.667 
#    0.000    2.500    0.000    0.000    0.000    0.000 
#    0.000    0.000    0.000    0.000    0.000    0.000 
#
# Total GULP energy -133944.517748 kJ/mol
# GULP energy per Si atom -5581.021573 kJ/mol
# Density = 2.461730 g / cm^3
# Si number density = 24.673454 Si / 1000 Ang^3
#
#
#
# Elastic Constant Matrix: (Units=GPa)
#
#
# Indices 1 2 3 4 5 6 
#
# 1 100.6388 13.3643 21.1970 0.0000 0.0000 0.0000
# 2 13.3643 46.9808 10.7287 0.0000 0.0000 0.0000
# 3 21.1970 10.7287 232.3140 0.0000 0.0000 0.0000
# 4 0.0000 0.0000 0.0000 14.7114 0.0000 0.0000
# 5 0.0000 0.0000 0.0000 0.0000 -14.1353 0.0000
# 6 0.0000 0.0000 0.0000 0.0000 0.0000 24.9303
#
#
#
# Elastic Compliance Matrix: (Units=1/GPa)
#
#
# Indices 1 2 3 4 5 6 
#
# 1 0.010482 -0.002793 -0.000827 0.000000 0.000000 0.000000
# 2 -0.002793 0.022256 -0.000773 0.000000 0.000000 0.000000
# 3 -0.000827 -0.000773 0.004416 0.000000 0.000000 0.000000
# 4 0.000000 0.000000 0.000000 0.067974 0.000000 0.000000
# 5 0.000000 0.000000 0.000000 0.000000 -0.070745 0.000000
# 6 0.000000 0.000000 0.000000 0.000000 0.000000 0.040112
#
#
# Mechanical properties :
#
#
# Convention : Reuss Voigt Hill
#
# Bulk Modulus (GPa) = 35.25179 52.27928 43.76553
# Shear Modulus (GPa) = 53.91598 27.41087 40.66342
#
# Velocity S-wave (km/s) = 4.67966 3.33670 4.06404
# Velocity P-wave (km/s) = 6.59677 6.00660 6.30859
#
# Compressibility (1/GPa) = 0.02836736
#
# Stress axis : x y z
#
# Youngs Moduli (GPa) = 95.40478 44.93124 226.46395
#
# Poissons Ratio (x) = 0.12548 0.18738
# Poissons Ratio (y) = 0.26644 0.17506
# Poissons Ratio (z) = 0.07894 0.03473
#
# Static dielectric constant tensor:
#      x y z
#    x 1.934260 0.000000 0.000000 
#    y 0.000000 1.898910 0.000000 
#    z 0.000000 0.000000 2.087860 
# 
# From -- ./inp_files/5819.got.cif
#   From: 2010.05.17/outbox.cif.g08.bks.cpg/sg39_3_cif.got.tgz:5819.got - 2010.06.03 18:22:40.
