data_PCOD9360439
_publ_section_title
;
Structure prediction by ZEFSAII (Michael W. Deem and Ramdas Pophale) SiO2 
 PCOD9360439
Probable space group: A B M 2
;
_chemical_formula_sum "Si O2"
_cell_formula_units_Z 60
_cell_length_a 15.229553
_cell_length_b 16.473078
_cell_length_c 10.051811
_cell_angle_alpha 90.000000
_cell_angle_beta 90.000000
_cell_angle_gamma 90.000000
_cell_volume 2521.774365
_symmetry_space_group_name_H-M "A B M 2"
_symmetry_group_IT_number 39
_symmetry_cell_setting 'orthorhombic'
loop_
_space_group_symop_operation_xyz
x,y,z
-x,-y,z
-x,1/2+y,z
x,1/2-y,z
x,1/2+y,1/2+z
-x,1/2-y,1/2+z
-x,y,1/2+z
x,-y,1/2+z
loop_
_atom_site_type_symbol
_atom_site_label
_atom_site_fract_x
_atom_site_fract_y
_atom_site_fract_z
Si Si1 0.404022 0.610655 0.172100
Si Si2 0.843786 0.658958 0.293250
Si Si3 0.476671 0.094719 0.401200
Si Si4 0.157667 0.560337 0.321571
Si Si5 0.000000 0.000000 0.170173
Si Si6 0.303537 0.954807 0.770721
Si Si7 0.017330 0.154988 0.969414
Si Si8 0.777269 0.665343 0.590224
O O1 0.450496 0.634746 0.308590
O O2 0.360584 0.519537 0.183408
O O3 0.323713 0.664980 0.127842
O O4 0.474454 0.616117 0.054901
O O5 0.837516 0.750000 0.236907
O O6 0.776758 0.599510 0.211474
O O7 0.794652 0.655430 0.436216
O O8 0.944607 0.652347 0.350260
O O9 0.378401 0.098969 0.340725
O O10 0.500000 0.000000 0.393654
O O11 0.081117 0.500605 0.272931
O O12 0.245360 0.514228 0.368455
O O13 0.111853 0.627165 0.412485
O O14 0.183250 0.597106 0.180425
O O15 0.999574 0.081783 0.077325
O O16 0.017263 0.250000 0.014957
O O17 0.820529 0.750000 0.630151
#
# Coordination Sequence:
#
# PCOD9360439 Si02
#       8
#     8   8   8   8   4   8   8   8
#     4  10  21  36  61  92 122 162 205 270 320 400
#     4  10  19  36  59  83 121 166 213 264 329 401
#     4  10  19  36  59  89 124 155 207 256 328 384
#     4  11  23  36  61  87 124 168 220 274 328 403
#     4  12  22  38  58  90 126 168 228 280 340 406
#     4  10  20  35  58  89 119 161 210 267 321 392
#     4  11  24  40  60  90 129 173 223 287 346 405
#     4  10  20  38  61  88 121 166 215 265 333 408
#
# _framework density 23.792770000000001
#
# number of rings (size 3 to 8) (size 9 to 14) (size 15 to 20)
#    0.000    1.600    2.667    3.600    0.000    0.533 
#    0.000    2.000    0.000    0.000    0.000    3.733 
#    0.000    0.000    0.000    0.000    0.000    0.000 
#
# Total GULP energy -167086.308607 kJ/mol
# GULP energy per Si atom -5569.543620 kJ/mol
# Density = 2.373862 g / cm^3
# Si number density = 23.792770 Si / 1000 Ang^3
#
#
#
# Elastic Constant Matrix: (Units=GPa)
#
#
# Indices 1 2 3 4 5 6 
#
# 1 104.5633 -4.1684 24.6776 0.0000 0.0000 0.0000
# 2 -4.1684 96.9173 18.2994 0.0000 0.0000 0.0000
# 3 24.6776 18.2994 66.2668 0.0000 0.0000 0.0000
# 4 0.0000 0.0000 0.0000 -6.6628 0.0000 0.0000
# 5 0.0000 0.0000 0.0000 0.0000 37.6036 0.0000
# 6 0.0000 0.0000 0.0000 0.0000 0.0000 -5.6714
#
#
#
# Elastic Compliance Matrix: (Units=1/GPa)
#
#
# Indices 1 2 3 4 5 6 
#
# 1 0.010631 0.001271 -0.004310 0.000000 0.000000 0.000000
# 2 0.001271 0.011038 -0.003521 0.000000 0.000000 0.000000
# 3 -0.004310 -0.003521 0.017668 0.000000 0.000000 0.000000
# 4 0.000000 0.000000 0.000000 -0.150086 0.000000 0.000000
# 5 0.000000 0.000000 0.000000 0.000000 0.026593 0.000000
# 6 0.000000 0.000000 0.000000 0.000000 0.000000 -0.176325
#
#
# Mechanical properties :
#
#
# Convention : Reuss Voigt Hill
#
# Bulk Modulus (GPa) = 38.14425 38.37385 38.25905
# Shear Modulus (GPa) = -20.95371 20.31647 -0.31862
#
# Velocity S-wave (km/s) = -2.97084 2.92531 -0.36634
# Velocity P-wave (km/s) = 2.07336 5.25103 3.99200
#
# Compressibility (1/GPa) = 0.02621627
#
# Stress axis : x y z
#
# Youngs Moduli (GPa) = 94.06040 90.59923 56.59948
#
# Poissons Ratio (x) = -0.11516 0.24395
# Poissons Ratio (y) = -0.11956 0.19931
# Poissons Ratio (z) = 0.40541 0.31903
#
# Static dielectric constant tensor:
#      x y z
#    x 2.007810 0.000000 0.000000 
#    y 0.000000 2.110050 0.000000 
#    z 0.000000 0.000000 1.920250 
# 
# From -- ./inp_files/6590.got.cif
#   From: 2010.05.17/outbox.cif.g08.bks.cpg/sg39_4_cif.got.tgz:6590.got - 2010.06.03 18:22:40.
