data_PCOD9360136
_publ_section_title
;
Structure prediction by ZEFSAII (Michael W. Deem and Ramdas Pophale) SiO2 
 PCOD9360136
Probable space group: A B M 2
;
_chemical_formula_sum "Si O2"
_cell_formula_units_Z 64
_cell_length_a 39.909965
_cell_length_b 15.046381
_cell_length_c 5.085013
_cell_angle_alpha 90.000000
_cell_angle_beta 90.000000
_cell_angle_gamma 90.000000
_cell_volume 3053.553048
_symmetry_space_group_name_H-M "A B M 2"
_symmetry_group_IT_number 39
_symmetry_cell_setting 'orthorhombic'
loop_
_space_group_symop_operation_xyz
x,y,z
-x,-y,z
-x,1/2+y,z
x,1/2-y,z
x,1/2+y,1/2+z
-x,1/2-y,1/2+z
-x,y,1/2+z
x,-y,1/2+z
loop_
_atom_site_type_symbol
_atom_site_label
_atom_site_fract_x
_atom_site_fract_y
_atom_site_fract_z
Si Si1 0.589841 0.555175 0.174970
Si Si2 0.089396 0.059402 0.664383
Si Si3 0.659234 0.142667 0.514095
Si Si4 0.520175 0.357213 0.518721
Si Si5 0.768826 0.440728 0.165054
Si Si6 0.980450 0.142994 0.011390
Si Si7 0.839688 0.061329 0.042899
Si Si8 0.698879 0.356909 0.014190
O O1 0.590039 0.530031 0.481256
O O2 0.556087 0.606618 0.100783
O O3 0.623181 0.608183 0.098926
O O4 0.056158 0.112788 0.597214
O O5 0.089190 0.024134 0.962008
O O6 0.124852 0.107285 0.602922
O O7 0.658299 0.250000 0.513654
O O8 0.686844 0.113049 0.727894
O O9 0.671632 0.112270 0.228895
O O10 0.521605 0.250000 0.521818
O O11 0.507539 0.385843 0.232620
O O12 0.768696 0.475647 0.463028
O O13 0.804231 0.392673 0.102957
O O14 0.735473 0.387862 0.097895
O O15 0.980914 0.250000 0.008747
O O16 0.992318 0.111653 0.725789
O O17 0.839690 0.022041 0.748902
O O18 0.698603 0.250000 0.014378
#
# Coordination Sequence:
#
# PCOD9360136 Si02
#       8
#     8   8   8   8   8   8   8   8
#     4  12  25  38  58  87 115 141 176 226 270 305
#     4  10  19  32  52  74  97 127 168 212 246 293
#     4  10  22  40  57  75 108 148 179 211 259 316
#     4  10  22  41  63  84 110 148 186 215 256 319
#     4  10  19  32  53  77 103 136 170 207 255 310
#     4  10  21  35  49  69 100 132 161 201 256 309
#     4   8  16  30  47  71 100 129 162 203 253 300
#     4  10  21  36  55  79 106 138 176 219 260 299
#
# _framework density 20.959192000000002
#
# number of rings (size 3 to 8) (size 9 to 14) (size 15 to 20)
#    0.000    2.000    0.000    3.375    0.000    6.000 
#    0.000    5.625    0.000    0.000    0.000   15.750 
#    0.000    0.000    0.000    0.000    0.000    0.000 
#
# Total GULP energy -178766.200976 kJ/mol
# GULP energy per Si atom -5586.443780 kJ/mol
# Density = 2.091149 g / cm^3
# Si number density = 20.959192 Si / 1000 Ang^3
#
#
#
# Elastic Constant Matrix: (Units=GPa)
#
#
# Indices 1 2 3 4 5 6 
#
# 1 121.9013 5.0412 -10.4857 0.0000 0.0000 0.0000
# 2 5.0412 17.4099 -0.9124 0.0000 0.0000 0.0000
# 3 -10.4857 -0.9124 74.1344 0.0000 0.0000 0.0000
# 4 0.0000 0.0000 0.0000 16.4508 0.0000 0.0000
# 5 0.0000 0.0000 0.0000 0.0000 35.5419 0.0000
# 6 0.0000 0.0000 0.0000 0.0000 0.0000 275.8080
#
#
#
# Elastic Compliance Matrix: (Units=1/GPa)
#
#
# Indices 1 2 3 4 5 6 
#
# 1 0.008401 -0.002372 0.001159 0.000000 0.000000 0.000000
# 2 -0.002372 0.058145 0.000380 0.000000 0.000000 0.000000
# 3 0.001159 0.000380 0.013658 0.000000 0.000000 0.000000
# 4 0.000000 0.000000 0.000000 0.060787 0.000000 0.000000
# 5 0.000000 0.000000 0.000000 0.000000 0.028136 0.000000
# 6 0.000000 0.000000 0.000000 0.000000 0.000000 0.003626
#
#
# Mechanical properties :
#
#
# Convention : Reuss Voigt Hill
#
# Bulk Modulus (GPa) = 12.73258 22.30354 17.51806
# Shear Modulus (GPa) = 24.92550 80.21364 52.56957
#
# Velocity S-wave (km/s) = 3.45228 6.19310 5.01361
# Velocity P-wave (km/s) = 4.68818 7.86154 6.47236
#
# Compressibility (1/GPa) = 0.07853865
#
# Stress axis : x y z
#
# Youngs Moduli (GPa) = 119.03130 17.19831 73.21912
#
# Poissons Ratio (x) = 0.04079 -0.08487
# Poissons Ratio (y) = 0.28233 -0.02783
# Poissons Ratio (z) = -0.13797 -0.00654
#
# Static dielectric constant tensor:
#      x y z
#    x 1.759830 0.000000 0.000000 
#    y 0.000000 1.737690 0.000000 
#    z 0.000000 0.000000 1.732690 
# 
# From -- ./inp_files/1537.got.cif
#   From: 2010.05.17/outbox.cif.g08.bks.cpg/sg39_1_cif.got.tgz:1537.got - 2010.06.03 18:22:40.
