data_PCOD9360098
_publ_section_title
;
Structure prediction by ZEFSAII (Michael W. Deem and Ramdas Pophale) SiO2 
 PCOD9360098
Probable space group: A B M 2
;
_chemical_formula_sum "Si O2"
_cell_formula_units_Z 56
_cell_length_a 15.774126
_cell_length_b 9.146441
_cell_length_c 20.339985
_cell_angle_alpha 90.000000
_cell_angle_beta 90.000000
_cell_angle_gamma 90.000000
_cell_volume 2934.594310
_symmetry_space_group_name_H-M "A B M 2"
_symmetry_group_IT_number 39
_symmetry_cell_setting 'orthorhombic'
loop_
_space_group_symop_operation_xyz
x,y,z
-x,-y,z
-x,1/2+y,z
x,1/2-y,z
x,1/2+y,1/2+z
-x,1/2-y,1/2+z
-x,y,1/2+z
x,-y,1/2+z
loop_
_atom_site_type_symbol
_atom_site_label
_atom_site_fract_x
_atom_site_fract_y
_atom_site_fract_z
Si Si1 0.920309 0.578571 0.380290
Si Si2 0.690583 0.424550 0.981224
Si Si3 0.586925 0.076159 0.103875
Si Si4 0.087402 0.922245 0.661432
Si Si5 0.737976 0.424611 0.202589
Si Si6 0.728523 0.578036 0.333992
Si Si7 0.864374 0.421032 0.510034
O O1 0.936453 0.750000 0.384312
O O2 0.829344 0.556535 0.346591
O O3 0.909807 0.511955 0.453058
O O4 0.000000 0.500000 0.347380
O O5 0.710544 0.250000 0.986484
O O6 0.684021 0.456114 0.903692
O O7 0.769401 0.515329 0.009407
O O8 0.611468 0.455079 0.028031
O O9 0.577105 0.250000 0.110848
O O10 0.667787 0.033559 0.148237
O O11 0.500000 0.000000 0.122976
O O12 0.086137 0.750000 0.678513
O O13 0.096288 0.935951 0.582139
O O14 0.172134 0.997095 0.689590
O O15 0.000000 0.000000 0.681462
O O16 0.749697 0.250000 0.200305
O O17 0.704489 0.477717 0.273221
O O18 0.715194 0.750000 0.319265
O O19 0.864378 0.250000 0.492345
#
# Coordination Sequence:
#
# PCOD9360098 Si02
#       7
#     8   8   8   8   8   8   8
#     4  10  20  33  51  76 110 152 197 246 294 345
#     4   9  18  37  61  85 116 151 188 236 292 347
#     4  10  22  40  65  94 120 153 194 240 298 354
#     4  11  23  36  54  82 117 159 204 247 296 349
#     4  11  23  40  61  86 121 159 197 247 296 349
#     4   9  20  37  58  81 113 157 195 236 293 351
#     4  10  19  31  52  82 113 149 192 242 295 345
#
# _framework density 19.082706000000002
#
# number of rings (size 3 to 8) (size 9 to 14) (size 15 to 20)
#    0.000    2.000    1.429    3.000    0.000    8.000 
#    0.000    2.143    0.000    3.429    0.000    0.000 
#    0.000    0.000    0.000    0.000    0.000    0.000 
#
# Total GULP energy -156337.981625 kJ/mol
# GULP energy per Si atom -5583.499344 kJ/mol
# Density = 1.903927 g / cm^3
# Si number density = 19.082706 Si / 1000 Ang^3
#
#
#
# Elastic Constant Matrix: (Units=GPa)
#
#
# Indices 1 2 3 4 5 6 
#
# 1 94.5488 40.3228 40.2382 0.0000 0.0000 0.0000
# 2 40.3228 59.5696 51.7821 0.0000 0.0000 0.0000
# 3 40.2382 51.7821 96.4309 0.0000 0.0000 0.0000
# 4 0.0000 0.0000 0.0000 27.5935 0.0000 0.0000
# 5 0.0000 0.0000 0.0000 0.0000 -6.2253 0.0000
# 6 0.0000 0.0000 0.0000 0.0000 0.0000 29.9525
#
#
#
# Elastic Compliance Matrix: (Units=1/GPa)
#
#
# Indices 1 2 3 4 5 6 
#
# 1 0.014986 -0.008830 -0.001512 0.000000 0.000000 0.000000
# 2 -0.008830 0.036685 -0.016015 0.000000 0.000000 0.000000
# 3 -0.001512 -0.016015 0.019601 0.000000 0.000000 0.000000
# 4 0.000000 0.000000 0.000000 0.036240 0.000000 0.000000
# 5 0.000000 0.000000 0.000000 0.000000 -0.160636 0.000000
# 6 0.000000 0.000000 0.000000 0.000000 0.000000 0.033386
#
#
# Mechanical properties :
#
#
# Convention : Reuss Voigt Hill
#
# Bulk Modulus (GPa) = 53.88297 57.24840 55.56569
# Shear Modulus (GPa) = 127.67492 18.14457 72.90974
#
# Velocity S-wave (km/s) = 8.18849 3.08691 6.18791
# Velocity P-wave (km/s) = 10.84895 6.53993 8.95741
#
# Compressibility (1/GPa) = 0.01855874
#
# Stress axis : x y z
#
# Youngs Moduli (GPa) = 66.73099 27.25880 51.01834
#
# Poissons Ratio (x) = 0.24069 0.07712
# Poissons Ratio (y) = 0.58922 0.81707
# Poissons Ratio (z) = 0.10088 0.43655
#
# Static dielectric constant tensor:
#      x y z
#    x 1.656460 0.000000 0.000000 
#    y 0.000000 1.637130 0.000000 
#    z 0.000000 0.000000 1.688460 
# 
# From -- ./inp_files/14722.got.cif
#   From: 2010.05.17/outbox.cif.g08.bks.cpg/sg39_8_cif.got.tgz:14722.got - 2010.06.03 18:22:40.
