data_PCOD9360331
_publ_section_title
;
Structure prediction by ZEFSAII (Michael W. Deem and Ramdas Pophale) SiO2 
 PCOD9360331
Probable space group: A B M 2
;
_chemical_formula_sum "Si O2"
_cell_formula_units_Z 64
_cell_length_a 24.445587
_cell_length_b 8.553348
_cell_length_c 15.881423
_cell_angle_alpha 90.000000
_cell_angle_beta 90.000000
_cell_angle_gamma 90.000000
_cell_volume 3320.672347
_symmetry_space_group_name_H-M "A B M 2"
_symmetry_group_IT_number 39
_symmetry_cell_setting 'orthorhombic'
loop_
_space_group_symop_operation_xyz
x,y,z
-x,-y,z
-x,1/2+y,z
x,1/2-y,z
x,1/2+y,1/2+z
-x,1/2-y,1/2+z
-x,y,1/2+z
x,-y,1/2+z
loop_
_atom_site_type_symbol
_atom_site_label
_atom_site_fract_x
_atom_site_fract_y
_atom_site_fract_z
Si Si1 0.744434 0.061548 0.414110
Si Si2 0.558388 0.437011 0.313249
Si Si3 0.442179 0.437186 0.012438
Si Si4 0.129295 0.061531 0.906886
Si Si5 0.324608 0.058977 0.074325
Si Si6 0.938275 0.562790 0.565444
Si Si7 0.061685 0.062823 0.248503
Si Si8 0.326274 0.063288 0.259978
O O1 0.743818 0.250000 0.416012
O O2 0.807295 0.011551 0.408222
O O3 0.714641 0.005788 0.499293
O O4 0.709219 0.008360 0.334518
O O5 0.500000 0.500000 0.282360
O O6 0.560431 0.250000 0.305520
O O7 0.562128 0.477341 0.413071
O O8 0.610726 0.512417 0.269820
O O9 0.500000 0.500000 0.044960
O O10 0.443594 0.250000 0.018361
O O11 0.386905 0.493580 0.056743
O O12 0.126602 0.250000 0.906276
O O13 0.099323 0.996946 0.824093
O O14 0.098998 0.999147 0.989958
O O15 0.325398 0.250000 0.072254
O O16 0.306715 0.011964 0.167454
O O17 0.939199 0.750000 0.566150
O O18 0.920076 0.500521 0.657101
O O19 0.000000 0.500000 0.552593
O O20 0.060578 0.250000 0.246787
O O21 0.000000 0.000000 0.261975
O O22 0.323101 0.250000 0.265224
#
# Coordination Sequence:
#
# PCOD9360331 Si02
#       8
#     8   8   8   8   8   8   8   8
#     4  10  22  43  63  80 113 157 199 243 292 344
#     4  10  19  34  57  82 113 149 186 231 289 353
#     4   9  17  32  55  78 107 142 181 224 279 344
#     4  11  23  39  62  90 120 162 209 252 304 360
#     4   9  19  38  59  80 109 150 189 232 288 346
#     4  11  22  39  63  93 129 163 201 248 299 360
#     4  11  22  39  63  92 128 164 202 249 301 357
#     4  11  22  36  59  87 115 147 191 241 292 350
#
# _framework density 19.273204
#
# number of rings (size 3 to 8) (size 9 to 14) (size 15 to 20)
#    0.000    1.750    1.250    4.500    0.000    3.000 
#    0.000    5.000    0.000    0.000    0.000    0.000 
#    0.000    0.000    0.000    0.000    0.000    0.000 
#
# Total GULP energy -178811.420625 kJ/mol
# GULP energy per Si atom -5587.856895 kJ/mol
# Density = 1.922934 g / cm^3
# Si number density = 19.273204 Si / 1000 Ang^3
#
#
#
# Elastic Constant Matrix: (Units=GPa)
#
#
# Indices 1 2 3 4 5 6 
#
# 1 128.7985 28.9903 95.6751 0.0000 0.0000 0.0000
# 2 28.9903 56.2128 29.2994 0.0000 0.0000 0.0000
# 3 95.6751 29.2994 157.8608 0.0000 0.0000 0.0000
# 4 0.0000 0.0000 0.0000 21.0738 0.0000 0.0000
# 5 0.0000 0.0000 0.0000 0.0000 -9.9346 0.0000
# 6 0.0000 0.0000 0.0000 0.0000 0.0000 25.4106
#
#
#
# Elastic Compliance Matrix: (Units=1/GPa)
#
#
# Indices 1 2 3 4 5 6 
#
# 1 0.014635 -0.003238 -0.008269 0.000000 0.000000 0.000000
# 2 -0.003238 0.020411 -0.001826 0.000000 0.000000 0.000000
# 3 -0.008269 -0.001826 0.011685 0.000000 0.000000 0.000000
# 4 0.000000 0.000000 0.000000 0.047452 0.000000 0.000000
# 5 0.000000 0.000000 0.000000 0.000000 -0.100659 0.000000
# 6 0.000000 0.000000 0.000000 0.000000 0.000000 0.039354
#
#
# Mechanical properties :
#
#
# Convention : Reuss Voigt Hill
#
# Bulk Modulus (GPa) = 49.83581 72.31128 61.07354
# Shear Modulus (GPa) = 75.49038 19.90380 47.69709
#
# Velocity S-wave (km/s) = 6.26527 3.21708 4.98012
# Velocity P-wave (km/s) = 8.84601 7.16938 8.05145
#
# Compressibility (1/GPa) = 0.02006589
#
# Stress axis : x y z
#
# Youngs Moduli (GPa) = 68.32747 48.99299 85.57732
#
# Poissons Ratio (x) = 0.15863 0.70765
# Poissons Ratio (y) = 0.22123 0.15627
# Poissons Ratio (z) = 0.56501 0.08946
#
# Static dielectric constant tensor:
#      x y z
#    x 1.647730 0.000000 0.000000 
#    y 0.000000 1.657410 0.000000 
#    z 0.000000 0.000000 1.672800 
# 
# From -- ./inp_files/10671.got.cif
#   From: 2010.05.17/outbox.cif.g08.bks.cpg/sg39_6_cif.got.tgz:10671.got - 2010.06.03 18:22:40.
