data_PCOD9360000
_publ_section_title
;
Structure prediction by ZEFSAII (Michael W. Deem and Ramdas Pophale) SiO2 
 PCOD9360000
Probable space group: A B M 2
;
_chemical_formula_sum "Si O2"
_cell_formula_units_Z 28
_cell_length_a 6.928562
_cell_length_b 10.608998
_cell_length_c 17.003217
_cell_angle_alpha 90.000000
_cell_angle_beta 90.000000
_cell_angle_gamma 90.000000
_cell_volume 1249.823173
_symmetry_space_group_name_H-M "A B M 2"
_symmetry_group_IT_number 39
_symmetry_cell_setting 'orthorhombic'
loop_
_space_group_symop_operation_xyz
x,y,z
-x,-y,z
-x,1/2+y,z
x,1/2-y,z
x,1/2+y,1/2+z
-x,1/2-y,1/2+z
-x,y,1/2+z
x,-y,1/2+z
loop_
_atom_site_type_symbol
_atom_site_label
_atom_site_fract_x
_atom_site_fract_y
_atom_site_fract_z
Si Si1 0.749775 0.250000 0.727510
Si Si2 0.769235 0.979568 0.678803
Si Si3 0.818156 0.250000 0.273482
Si Si4 0.881516 0.750000 0.397476
Si Si5 0.642888 0.608858 0.507468
O O1 0.681993 0.381089 0.691078
O O2 0.736319 0.250000 0.822339
O O3 0.984646 0.250000 0.720593
O O4 0.719819 0.879240 0.747388
O O5 0.711767 0.925106 0.594702
O O6 0.000000 0.000000 0.681779
O O7 0.906359 0.250000 0.360588
O O8 0.826161 0.630539 0.450508
O O9 0.500000 0.500000 0.480187
O O10 0.552188 0.750000 0.508056
#
# Coordination Sequence:
#
# PCOD9360000 Si02
#       5
#     4   8   4   4   8
#     4   8  18  31  62  84 127 148 201 254 316 363
#     4  10  18  36  66  93 121 160 213 270 306 377
#     4   8  15  35  61  83 119 163 205 257 313 361
#     4   8  19  38  59  83 124 167 200 261 311 382
#     4  10  22  40  64  89 129 169 212 257 319 387
#
# _framework density 22.403168999999998
#
# number of rings (size 3 to 8) (size 9 to 14) (size 15 to 20)
#    1.714    1.143    1.429    0.000    2.000    0.000 
#    5.143    1.429    6.286    0.000    0.000    0.000 
#    0.000    0.000    0.000    0.000    0.000    0.000 
#
# Total GULP energy -77967.015075 kJ/mol
# GULP energy per Si atom -5569.072505 kJ/mol
# Density = 2.235218 g / cm^3
# Si number density = 22.403169 Si / 1000 Ang^3
#
#
#
# Elastic Constant Matrix: (Units=GPa)
#
#
# Indices 1 2 3 4 5 6 
#
# 1 74.7991 30.3050 6.7945 0.0000 0.0000 0.0000
# 2 30.3050 202.3157 62.2796 0.0000 0.0000 0.0000
# 3 6.7945 62.2796 106.8979 0.0000 0.0000 0.0000
# 4 0.0000 0.0000 0.0000 16.3208 0.0000 0.0000
# 5 0.0000 0.0000 0.0000 0.0000 24.9543 0.0000
# 6 0.0000 0.0000 0.0000 0.0000 0.0000 -27.6231
#
#
#
# Elastic Compliance Matrix: (Units=1/GPa)
#
#
# Indices 1 2 3 4 5 6 
#
# 1 0.014248 -0.002261 0.000412 0.000000 0.000000 0.000000
# 2 -0.002261 0.006382 -0.003574 0.000000 0.000000 0.000000
# 3 0.000412 -0.003574 0.011411 0.000000 0.000000 0.000000
# 4 0.000000 0.000000 0.000000 0.061271 0.000000 0.000000
# 5 0.000000 0.000000 0.000000 0.000000 0.040073 0.000000
# 6 0.000000 0.000000 0.000000 0.000000 0.000000 -0.036202
#
#
# Mechanical properties :
#
#
# Convention : Reuss Voigt Hill
#
# Bulk Modulus (GPa) = 47.18484 64.75233 55.96858
# Shear Modulus (GPa) = 43.44222 21.70596 32.57409
#
# Velocity S-wave (km/s) = 4.40831 3.11606 3.81726
# Velocity P-wave (km/s) = 6.85699 6.47398 6.66823
#
# Compressibility (1/GPa) = 0.02119325
#
# Stress axis : x y z
#
# Youngs Moduli (GPa) = 70.18647 156.69726 87.63476
#
# Poissons Ratio (x) = 0.35428 -0.03607
# Poissons Ratio (y) = 0.15868 0.31324
# Poissons Ratio (z) = -0.02889 0.56009
#
# Static dielectric constant tensor:
#      x y z
#    x 1.887730 0.000000 0.000000 
#    y 0.000000 1.865030 0.000000 
#    z 0.000000 0.000000 1.792040 
# 
# From -- ./inp_files/11317.got.cif
#   From: 2010.05.17/outbox.cif.g08.bks.cpg/sg39_6_cif.got.tgz:11317.got - 2010.06.03 18:22:40.
