data_PCOD9360878
_publ_section_title
;
Structure prediction by ZEFSAII (Michael W. Deem and Ramdas Pophale) SiO2 
 PCOD9360878
Probable space group: A B M 2
;
_chemical_formula_sum "Si O2"
_cell_formula_units_Z 64
_cell_length_a 15.855180
_cell_length_b 8.656293
_cell_length_c 24.424906
_cell_angle_alpha 90.000000
_cell_angle_beta 90.000000
_cell_angle_gamma 90.000000
_cell_volume 3352.247117
_symmetry_space_group_name_H-M "A B M 2"
_symmetry_group_IT_number 39
_symmetry_cell_setting 'orthorhombic'
loop_
_space_group_symop_operation_xyz
x,y,z
-x,-y,z
-x,1/2+y,z
x,1/2-y,z
x,1/2+y,1/2+z
-x,1/2-y,1/2+z
-x,y,1/2+z
x,-y,1/2+z
loop_
_atom_site_type_symbol
_atom_site_label
_atom_site_fract_x
_atom_site_fract_y
_atom_site_fract_z
Si Si1 0.409800 0.436220 0.964380
Si Si2 0.148183 0.065249 0.847920
Si Si3 0.910377 0.064484 0.732161
Si Si4 0.409635 0.565348 0.730182
Si Si5 0.651426 0.935316 0.844776
Si Si6 0.754359 0.062645 0.533311
Si Si7 0.090270 0.433987 0.463748
Si Si8 0.750635 0.438063 0.659679
O O1 0.500000 0.500000 0.982050
O O2 0.412455 0.250000 0.964745
O O3 0.389832 0.485936 0.901993
O O4 0.331735 0.483891 0.002536
O O5 0.136994 0.250000 0.849452
O O6 0.248521 0.032109 0.846990
O O7 0.107910 0.997722 0.793004
O O8 0.108690 0.992913 0.902254
O O9 0.912596 0.250000 0.733414
O O10 0.833491 0.013760 0.693193
O O11 0.000000 0.000000 0.713067
O O12 0.500000 0.500000 0.713402
O O13 0.412271 0.750000 0.728219
O O14 0.388977 0.513503 0.791984
O O15 0.333246 0.510106 0.691491
O O16 0.641357 0.750000 0.839933
O O17 0.759381 0.250000 0.530853
O O18 0.752783 0.013994 0.596598
O O19 0.834370 0.995452 0.501649
O O20 0.088233 0.250000 0.464346
O O21 0.000000 0.500000 0.481691
O O22 0.749667 0.250000 0.660206
#
# Coordination Sequence:
#
# PCOD9360878 Si02
#       8
#     8   8   8   8   8   8   8   8
#     4  10  21  37  59  87 119 154 195 241 297 354
#     4  11  21  38  63  91 122 157 195 242 299 358
#     4  11  22  39  60  90 121 156 198 242 297 357
#     4  11  22  38  59  89 121 159 200 244 298 356
#     4  10  20  36  59  89 118 155 195 242 301 356
#     4  10  21  43  65  85 118 160 204 254 301 350
#     4  12  25  41  63  92 123 158 198 245 299 360
#     4   9  21  40  63  85 116 159 203 248 300 351
#
# _framework density 19.091671999999999
#
# number of rings (size 3 to 8) (size 9 to 14) (size 15 to 20)
#    0.000    1.500    2.500    3.000    0.000    3.500 
#    0.000    3.750    0.000    0.000    0.000    0.000 
#    0.000    0.000    0.000    0.000    0.000    0.000 
#
# Total GULP energy -178905.082970 kJ/mol
# GULP energy per Si atom -5590.783843 kJ/mol
# Density = 1.904822 g / cm^3
# Si number density = 19.091672 Si / 1000 Ang^3
#
#
#
# Elastic Constant Matrix: (Units=GPa)
#
#
# Indices 1 2 3 4 5 6 
#
# 1 203.1050 51.8125 96.5864 0.0000 0.0000 0.0000
# 2 51.8125 45.1789 30.5820 0.0000 0.0000 0.0000
# 3 96.5864 30.5820 157.3661 0.0000 0.0000 0.0000
# 4 0.0000 0.0000 0.0000 21.3334 0.0000 0.0000
# 5 0.0000 0.0000 0.0000 0.0000 -3.9011 0.0000
# 6 0.0000 0.0000 0.0000 0.0000 0.0000 26.1624
#
#
#
# Elastic Compliance Matrix: (Units=1/GPa)
#
#
# Indices 1 2 3 4 5 6 
#
# 1 0.008621 -0.007260 -0.003880 0.000000 0.000000 0.000000
# 2 -0.007260 0.031601 -0.001685 0.000000 0.000000 0.000000
# 3 -0.003880 -0.001685 0.009064 0.000000 0.000000 0.000000
# 4 0.000000 0.000000 0.000000 0.046875 0.000000 0.000000
# 5 0.000000 0.000000 0.000000 0.000000 -0.256337 0.000000
# 6 0.000000 0.000000 0.000000 0.000000 0.000000 0.038223
#
#
# Mechanical properties :
#
#
# Convention : Reuss Voigt Hill
#
# Bulk Modulus (GPa) = 42.31122 84.84575 63.57849
# Shear Modulus (GPa) = -56.54593 23.83021 -16.35786
#
# Velocity S-wave (km/s) = -5.44816 3.53682 -2.93030
# Velocity P-wave (km/s) = 4.16729 7.82410 4.68242
#
# Compressibility (1/GPa) = 0.02363439
#
# Stress axis : x y z
#
# Youngs Moduli (GPa) = 115.99688 31.64452 110.32965
#
# Poissons Ratio (x) = 0.22974 0.42812
# Poissons Ratio (y) = 0.84215 0.18593
# Poissons Ratio (z) = 0.45011 0.05333
#
# Static dielectric constant tensor:
#      x y z
#    x 1.656350 0.000000 0.000000 
#    y 0.000000 1.648020 0.000000 
#    z 0.000000 0.000000 1.635390 
# 
# From -- ./inp_files/16185.got.cif
#   From: 2010.05.17/outbox.cif.g08.bks.cpg/sg39_9_cif.got.tgz:16185.got - 2010.06.03 18:22:40.
