data_PCOD9360462
_publ_section_title
;
Structure prediction by ZEFSAII (Michael W. Deem and Ramdas Pophale) SiO2 
 PCOD9360462
Probable space group: A B M 2
;
_chemical_formula_sum "Si O2"
_cell_formula_units_Z 64
_cell_length_a 13.192730
_cell_length_b 16.325234
_cell_length_c 14.388611
_cell_angle_alpha 90.000000
_cell_angle_beta 90.000000
_cell_angle_gamma 90.000000
_cell_volume 3098.938524
_symmetry_space_group_name_H-M "A B M 2"
_symmetry_group_IT_number 39
_symmetry_cell_setting 'orthorhombic'
loop_
_space_group_symop_operation_xyz
x,y,z
-x,-y,z
-x,1/2+y,z
x,1/2-y,z
x,1/2+y,1/2+z
-x,1/2-y,1/2+z
-x,y,1/2+z
x,-y,1/2+z
loop_
_atom_site_type_symbol
_atom_site_label
_atom_site_fract_x
_atom_site_fract_y
_atom_site_fract_z
Si Si1 0.637577 0.651526 0.811370
Si Si2 0.024711 0.908020 0.751134
Si Si3 0.434385 0.849592 0.905513
Si Si4 0.845584 0.903334 0.904044
Si Si5 0.025786 0.661096 0.554044
Si Si6 0.230694 0.656323 0.823447
Si Si7 0.333563 0.849029 0.101022
Si Si8 0.163913 0.078580 0.498187
O O1 0.637469 0.750000 0.818719
O O2 0.543692 0.620210 0.872996
O O3 0.745983 0.622724 0.848784
O O4 0.622720 0.632139 0.702548
O O5 0.020039 0.847267 0.664399
O O6 0.142614 0.898386 0.779232
O O7 0.943389 0.893594 0.834558
O O8 0.000000 0.000000 0.719885
O O9 0.433400 0.750000 0.901805
O O10 0.346056 0.874896 0.832180
O O11 0.403473 0.870232 0.011538
O O12 0.870535 0.852017 0.997723
O O13 0.825307 0.994178 0.943726
O O14 0.986156 0.750000 0.527623
O O15 0.952535 0.590437 0.519130
O O16 0.227158 0.750000 0.788528
O O17 0.198540 0.652369 0.931237
O O18 0.313628 0.750000 0.099225
O O19 0.232825 0.904332 0.087517
#
# Coordination Sequence:
#
# PCOD9360462 Si02
#       8
#     8   8   8   8   8   8   8   8
#     4  10  21  39  64  95 131 167 212 267 322 376
#     4  12  23  40  62  90 128 165 207 256 328 387
#     4   8  17  36  62  93 125 163 213 270 311 362
#     4  12  24  40  60  92 131 166 200 264 332 385
#     4  12  25  39  60  90 124 168 215 259 313 382
#     4  10  19  36  63  87 116 159 215 259 300 369
#     4   9  18  36  67  96 118 163 221 261 307 372
#     4  11  20  38  60  87 123 164 207 255 311 379
#
# _framework density 20.652232999999999
#
# number of rings (size 3 to 8) (size 9 to 14) (size 15 to 20)
#    0.000    1.500    2.500    4.500    0.000    2.500 
#    2.250    2.500    0.000    3.000    0.000    0.000 
#    0.000    0.000    0.000    0.000    0.000    0.000 
#
# Total GULP energy -178286.454488 kJ/mol
# GULP energy per Si atom -5571.451703 kJ/mol
# Density = 2.060523 g / cm^3
# Si number density = 20.652233 Si / 1000 Ang^3
#
#
#
# Elastic Constant Matrix: (Units=GPa)
#
#
# Indices 1 2 3 4 5 6 
#
# 1 116.0441 19.9076 67.7580 0.0000 0.0000 0.0000
# 2 19.9076 57.1582 31.3043 0.0000 0.0000 0.0000
# 3 67.7580 31.3043 87.8710 0.0000 0.0000 0.0000
# 4 0.0000 0.0000 0.0000 13.9724 0.0000 0.0000
# 5 0.0000 0.0000 0.0000 0.0000 28.1608 0.0000
# 6 0.0000 0.0000 0.0000 0.0000 0.0000 14.6052
#
#
#
# Elastic Compliance Matrix: (Units=1/GPa)
#
#
# Indices 1 2 3 4 5 6 
#
# 1 0.015771 0.001451 -0.012678 0.000000 0.000000 0.000000
# 2 0.001451 0.021870 -0.008910 0.000000 0.000000 0.000000
# 3 -0.012678 -0.008910 0.024331 0.000000 0.000000 0.000000
# 4 0.000000 0.000000 0.000000 0.071570 0.000000 0.000000
# 5 0.000000 0.000000 0.000000 0.000000 0.035510 0.000000
# 6 0.000000 0.000000 0.000000 0.000000 0.000000 0.068469
#
#
# Mechanical properties :
#
#
# Convention : Reuss Voigt Hill
#
# Bulk Modulus (GPa) = 46.08908 55.44592 50.76750
# Shear Modulus (GPa) = 17.54217 20.82124 19.18171
#
# Velocity S-wave (km/s) = 2.91762 3.17864 3.05092
# Velocity P-wave (km/s) = 5.80648 6.35432 6.08657
#
# Compressibility (1/GPa) = 0.02169711
#
# Stress axis : x y z
#
# Youngs Moduli (GPa) = 63.40621 45.72534 41.10043
#
# Poissons Ratio (x) = -0.06633 0.52108
# Poissons Ratio (y) = -0.09197 0.36619
# Poissons Ratio (z) = 0.80387 0.40740
#
# Static dielectric constant tensor:
#      x y z
#    x 1.800370 0.000000 0.000000 
#    y 0.000000 1.735380 0.000000 
#    z 0.000000 0.000000 1.792990 
# 
# From -- ./inp_files/9497.got.cif
#   From: 2010.05.17/outbox.cif.g08.bks.cpg/sg39_5_cif.got.tgz:9497.got - 2010.06.03 18:22:40.
