data_PCOD9360248
_publ_section_title
;
Structure prediction by ZEFSAII (Michael W. Deem and Ramdas Pophale) SiO2 
 PCOD9360248
Probable space group: A B M 2
;
_chemical_formula_sum "Si O2"
_cell_formula_units_Z 56
_cell_length_a 5.101675
_cell_length_b 15.744428
_cell_length_c 31.795428
_cell_angle_alpha 90.000000
_cell_angle_beta 90.000000
_cell_angle_gamma 90.000000
_cell_volume 2553.902723
_symmetry_space_group_name_H-M "A B M 2"
_symmetry_group_IT_number 39
_symmetry_cell_setting 'orthorhombic'
loop_
_space_group_symop_operation_xyz
x,y,z
-x,-y,z
-x,1/2+y,z
x,1/2-y,z
x,1/2+y,1/2+z
-x,1/2-y,1/2+z
-x,y,1/2+z
x,-y,1/2+z
loop_
_atom_site_type_symbol
_atom_site_label
_atom_site_fract_x
_atom_site_fract_y
_atom_site_fract_z
Si Si1 0.594435 0.147241 0.781500
Si Si2 0.094110 0.646466 0.332129
Si Si3 0.798085 0.147415 0.971469
Si Si4 0.746744 0.942102 0.195050
Si Si5 0.110814 0.153293 0.110886
Si Si6 0.610940 0.093995 0.063386
Si Si7 0.297106 0.854042 0.422853
O O1 0.600925 0.250000 0.778421
O O2 0.307451 0.121461 0.797233
O O3 0.669840 0.107581 0.737197
O O4 0.807153 0.121019 0.816739
O O5 0.092759 0.750000 0.333966
O O6 0.192406 0.617113 0.377623
O O7 0.801545 0.250000 0.971057
O O8 0.585920 0.118943 0.936693
O O9 0.087225 0.119018 0.958111
O O10 0.703565 0.120163 0.017099
O O11 0.810704 0.880302 0.156537
O O12 0.500000 0.000000 0.182661
O O13 0.000000 0.000000 0.202861
O O14 0.020154 0.250000 0.112837
O O15 0.367096 0.147659 0.081314
O O16 0.866514 0.101027 0.092641
O O17 0.500000 0.000000 0.062666
O O18 0.301112 0.750000 0.421645
#
# Coordination Sequence:
#
# PCOD9360248 Si02
#       7
#     8   8   8   8   8   8   8
#     4  10  20  36  59  87 118 155 201 247 294 353
#     4   9  17  31  55  86 118 153 199 253 299 342
#     4  10  19  33  55  84 118 157 203 249 295 352
#     4  12  25  42  63  89 124 159 196 243 306 369
#     4  12  25  44  68  93 121 158 208 257 303 361
#     4  12  25  42  64  92 128 165 202 249 312 372
#     4   9  17  30  53  85 117 151 198 254 300 341
#
# _framework density 21.927226000000001
#
# number of rings (size 3 to 8) (size 9 to 14) (size 15 to 20)
#    0.000    1.429    0.000    6.857    0.000    4.571 
#    0.000    4.286    0.000    8.571    0.000    0.000 
#    0.000    0.000    0.000    0.000    0.000    0.000 
#
# Total GULP energy -156731.625392 kJ/mol
# GULP energy per Si atom -5597.558050 kJ/mol
# Density = 2.187732 g / cm^3
# Si number density = 21.927226 Si / 1000 Ang^3
#
#
#
# Elastic Constant Matrix: (Units=GPa)
#
#
# Indices 1 2 3 4 5 6 
#
# 1 79.5524 -0.5310 -20.6208 0.0000 0.0000 0.0000
# 2 -0.5310 21.4317 -3.5821 0.0000 0.0000 0.0000
# 3 -20.6208 -3.5821 61.7764 0.0000 0.0000 0.0000
# 4 0.0000 0.0000 0.0000 11.9066 0.0000 0.0000
# 5 0.0000 0.0000 0.0000 0.0000 55.5617 0.0000
# 6 0.0000 0.0000 0.0000 0.0000 0.0000 24.3276
#
#
#
# Elastic Compliance Matrix: (Units=1/GPa)
#
#
# Indices 1 2 3 4 5 6 
#
# 1 0.013788 0.001122 0.004667 0.000000 0.000000 0.000000
# 2 0.001122 0.047208 0.003112 0.000000 0.000000 0.000000
# 3 0.004667 0.003112 0.017926 0.000000 0.000000 0.000000
# 4 0.000000 0.000000 0.000000 0.083987 0.000000 0.000000
# 5 0.000000 0.000000 0.000000 0.000000 0.017998 0.000000
# 6 0.000000 0.000000 0.000000 0.000000 0.000000 0.041106
#
#
# Mechanical properties :
#
#
# Convention : Reuss Voigt Hill
#
# Bulk Modulus (GPa) = 10.33884 12.58808 11.46346
# Shear Modulus (GPa) = 21.14602 30.85880 26.00241
#
# Velocity S-wave (km/s) = 3.10880 3.75551 3.44735
# Velocity P-wave (km/s) = 4.19661 4.95565 4.59184
#
# Compressibility (1/GPa) = 0.09672269
#
# Stress axis : x y z
#
# Youngs Moduli (GPa) = 72.52877 21.18298 55.78556
#
# Poissons Ratio (x) = -0.02376 -0.26037
# Poissons Ratio (y) = -0.08135 -0.17359
# Poissons Ratio (z) = -0.33851 -0.06592
#
# Static dielectric constant tensor:
#      x y z
#    x 1.754090 0.000000 0.000000 
#    y 0.000000 1.804920 0.000000 
#    z 0.000000 0.000000 1.765800 
# 
# From -- ./inp_files/17269.got.cif
#   From: 2010.05.17/outbox.cif.g08.bks.cpg/sg39_9_cif.got.tgz:17269.got - 2010.06.03 18:22:40.
