data_PCOD9360848
_publ_section_title
;
Structure prediction by ZEFSAII (Michael W. Deem and Ramdas Pophale) SiO2 
 PCOD9360848
Probable space group: A B M 2
;
_chemical_formula_sum "Si O2"
_cell_formula_units_Z 64
_cell_length_a 24.951928
_cell_length_b 8.948195
_cell_length_c 14.735637
_cell_angle_alpha 90.000000
_cell_angle_beta 90.000000
_cell_angle_gamma 90.000000
_cell_volume 3290.095186
_symmetry_space_group_name_H-M "A B M 2"
_symmetry_group_IT_number 39
_symmetry_cell_setting 'orthorhombic'
loop_
_space_group_symop_operation_xyz
x,y,z
-x,-y,z
-x,1/2+y,z
x,1/2-y,z
x,1/2+y,1/2+z
-x,1/2-y,1/2+z
-x,y,1/2+z
x,-y,1/2+z
loop_
_atom_site_type_symbol
_atom_site_label
_atom_site_fract_x
_atom_site_fract_y
_atom_site_fract_z
Si Si1 0.300783 0.927747 0.167280
Si Si2 0.553348 0.076591 0.890867
Si Si3 0.130335 0.572334 0.685162
Si Si4 0.053348 0.923409 0.314778
Si Si5 0.170676 0.076279 0.857559
Si Si6 0.670676 0.923721 0.348085
Si Si7 0.800783 0.072253 0.038365
Si Si8 0.630335 0.572334 0.020483
O O1 0.305823 0.750000 0.177691
O O2 0.250000 0.958650 0.102822
O O3 0.298255 0.003882 0.265395
O O4 0.351006 0.995553 0.112596
O O5 0.543649 0.250000 0.910996
O O6 0.606251 0.069884 0.827500
O O7 0.500000 0.000000 0.854999
O O8 0.574351 0.990117 0.980708
O O9 0.130461 0.750000 0.678423
O O10 0.074351 0.509883 0.724937
O O11 0.148994 0.495553 0.593049
O O12 0.171531 0.515759 0.763956
O O13 0.043649 0.750000 0.294649
O O14 0.106251 0.930116 0.378145
O O15 0.000000 0.000000 0.350646
O O16 0.184793 0.250000 0.842098
O O17 0.201745 0.003882 0.940250
O O18 0.684794 0.750000 0.363547
O O19 0.671531 0.015759 0.441689
O O20 0.805822 0.250000 0.027953
O O21 0.630461 0.750000 0.027221
#
# Coordination Sequence:
#
# PCOD9360848 Si02
#       8
#     8   8   8   8   8   8   8   8
#     4  11  23  38  57  82 112 147 189 234 279 330
#     4   9  18  34  58  84 112 145 183 226 275 329
#     4  10  20  36  58  82 113 148 185 229 276 329
#     4   9  18  34  58  84 112 145 183 226 275 329
#     4   9  20  37  57  82 113 145 186 230 273 331
#     4   9  20  37  57  82 113 145 186 230 273 331
#     4  11  23  38  57  82 112 147 189 234 279 330
#     4  10  20  36  58  82 113 148 185 229 276 329
#
# _framework density 19.452325999999999
#
# number of rings (size 3 to 8) (size 9 to 14) (size 15 to 20)
#    1.500    0.750    0.000    3.750    0.000    3.000 
#    0.000    1.250    0.000    3.000    0.000    0.000 
#    0.000    0.000    0.000    0.000    0.000    0.000 
#
# Total GULP energy -178259.812334 kJ/mol
# GULP energy per Si atom -5570.619135 kJ/mol
# Density = 1.940805 g / cm^3
# Si number density = 19.452326 Si / 1000 Ang^3
#
#
#
# Elastic Constant Matrix: (Units=GPa)
#
#
# Indices 1 2 3 4 5 6 
#
# 1 52.9591 25.4730 -10.3692 0.0000 0.0000 0.0000
# 2 25.4730 80.2013 1.7006 0.0000 0.0000 0.0000
# 3 -10.3692 1.7006 45.6357 0.0000 0.0000 0.0000
# 4 0.0000 0.0000 0.0000 25.0411 0.0000 0.0000
# 5 0.0000 0.0000 0.0000 0.0000 20.1773 0.0000
# 6 0.0000 0.0000 0.0000 0.0000 0.0000 18.9443
#
#
#
# Elastic Compliance Matrix: (Units=1/GPa)
#
#
# Indices 1 2 3 4 5 6 
#
# 1 0.023664 -0.007636 0.005661 0.000000 0.000000 0.000000
# 2 -0.007636 0.014943 -0.002292 0.000000 0.000000 0.000000
# 3 0.005661 -0.002292 0.023284 0.000000 0.000000 0.000000
# 4 0.000000 0.000000 0.000000 0.039934 0.000000 0.000000
# 5 0.000000 0.000000 0.000000 0.000000 0.049561 0.000000
# 6 0.000000 0.000000 0.000000 0.000000 0.000000 0.052786
#
#
# Mechanical properties :
#
#
# Convention : Reuss Voigt Hill
#
# Bulk Modulus (GPa) = 18.74137 23.60053 21.17095
# Shear Modulus (GPa) = 21.69282 23.63198 22.66240
#
# Velocity S-wave (km/s) = 3.34305 3.48927 3.41695
# Velocity P-wave (km/s) = 4.95548 5.32844 5.14534
#
# Compressibility (1/GPa) = 0.05335788
#
# Stress axis : x y z
#
# Youngs Moduli (GPa) = 42.25862 66.92318 42.94711
#
# Poissons Ratio (x) = 0.51102 -0.24314
# Poissons Ratio (y) = 0.32269 0.09843
# Poissons Ratio (z) = -0.23924 0.15338
#
# Static dielectric constant tensor:
#      x y z
#    x 1.751930 0.000000 0.000000 
#    y 0.000000 1.639720 0.000000 
#    z 0.000000 0.000000 1.684070 
# 
# From -- ./inp_files/10558.got.cif
#   From: 2010.05.17/outbox.cif.g08.bks.cpg/sg39_6_cif.got.tgz:10558.got - 2010.06.03 18:22:40.
