data_PCOD9360658
_publ_section_title
;
Structure prediction by ZEFSAII (Michael W. Deem and Ramdas Pophale) SiO2 
 PCOD9360658
Probable space group: A B M 2
;
_chemical_formula_sum "Si O2"
_cell_formula_units_Z 64
_cell_length_a 8.924082
_cell_length_b 16.035707
_cell_length_c 22.339661
_cell_angle_alpha 90.000000
_cell_angle_beta 90.000000
_cell_angle_gamma 90.000000
_cell_volume 3196.894048
_symmetry_space_group_name_H-M "A B M 2"
_symmetry_group_IT_number 39
_symmetry_cell_setting 'orthorhombic'
loop_
_space_group_symop_operation_xyz
x,y,z
-x,-y,z
-x,1/2+y,z
x,1/2-y,z
x,1/2+y,1/2+z
-x,1/2-y,1/2+z
-x,y,1/2+z
x,-y,1/2+z
loop_
_atom_site_type_symbol
_atom_site_label
_atom_site_fract_x
_atom_site_fract_y
_atom_site_fract_z
Si Si1 0.634734 0.153755 0.194950
Si Si2 0.600121 0.916640 0.394024
Si Si3 0.174732 0.513296 0.989438
Si Si4 0.451302 0.596236 0.584327
Si Si5 0.344273 0.349960 0.268763
Si Si6 0.355789 0.841483 0.466376
Si Si7 0.886928 0.426014 0.124417
Si Si8 0.823677 0.154982 0.649285
O O1 0.680640 0.250000 0.205606
O O2 0.541289 0.145974 0.133904
O O3 0.511306 0.127746 0.244010
O O4 0.769263 0.092342 0.177206
O O5 0.725896 0.929833 0.445093
O O6 0.676534 0.894703 0.331513
O O7 0.470087 0.850836 0.411348
O O8 0.500000 0.000000 0.390148
O O9 0.247637 0.421125 0.977341
O O10 0.173465 0.554331 0.057014
O O11 0.000000 0.500000 0.974944
O O12 0.500000 0.500000 0.578104
O O13 0.462415 0.646015 0.523519
O O14 0.280788 0.598722 0.607625
O O15 0.342585 0.250000 0.276783
O O16 0.220901 0.368652 0.217400
O O17 0.283718 0.750000 0.466808
O O18 0.000000 0.500000 0.140743
O O19 0.006059 0.350554 0.127694
O O20 0.771482 0.250000 0.641919
#
# Coordination Sequence:
#
# PCOD9360658 Si02
#       8
#     8   8   8   8   8   8   8   8
#     4  10  20  34  54  80 112 148 189 237 288 342
#     4  10  21  38  62  87 113 151 200 247 290 344
#     4  10  22  40  59  86 123 157 192 243 296 352
#     4  11  19  31  52  80 111 144 185 234 288 345
#     4   9  20  39  59  82 113 150 195 245 291 339
#     4  11  21  36  59  84 114 153 197 244 296 348
#     4  11  21  35  56  84 117 150 187 238 295 351
#     4  10  21  37  57  81 115 155 192 234 289 351
#
# _framework density 20.019431000000001
#
# number of rings (size 3 to 8) (size 9 to 14) (size 15 to 20)
#    0.000    1.750    0.000    7.500    0.000    3.000 
#    0.000    8.750    0.000    1.500    0.000    0.000 
#    0.000    0.000    0.000    0.000    0.000    0.000 
#
# Total GULP energy -178256.827053 kJ/mol
# GULP energy per Si atom -5570.525845 kJ/mol
# Density = 1.997387 g / cm^3
# Si number density = 20.019431 Si / 1000 Ang^3
#
#
#
# Elastic Constant Matrix: (Units=GPa)
#
#
# Indices 1 2 3 4 5 6 
#
# 1 81.5717 28.7334 36.0161 0.0000 0.0000 0.0000
# 2 28.7334 79.2461 34.1383 0.0000 0.0000 0.0000
# 3 36.0161 34.1383 91.3973 0.0000 0.0000 0.0000
# 4 0.0000 0.0000 0.0000 20.7064 0.0000 0.0000
# 5 0.0000 0.0000 0.0000 0.0000 24.9940 0.0000
# 6 0.0000 0.0000 0.0000 0.0000 0.0000 34.1389
#
#
#
# Elastic Compliance Matrix: (Units=1/GPa)
#
#
# Indices 1 2 3 4 5 6 
#
# 1 0.015657 -0.003598 -0.004826 0.000000 0.000000 0.000000
# 2 -0.003598 0.015866 -0.004508 0.000000 0.000000 0.000000
# 3 -0.004826 -0.004508 0.014527 0.000000 0.000000 0.000000
# 4 0.000000 0.000000 0.000000 0.048294 0.000000 0.000000
# 5 0.000000 0.000000 0.000000 0.000000 0.040010 0.000000
# 6 0.000000 0.000000 0.000000 0.000000 0.000000 0.029292
#
#
# Mechanical properties :
#
#
# Convention : Reuss Voigt Hill
#
# Bulk Modulus (GPa) = 49.54115 49.99896 49.77006
# Shear Modulus (GPa) = 25.47916 26.18969 25.83442
#
# Velocity S-wave (km/s) = 3.57139 3.62085 3.59620
# Velocity P-wave (km/s) = 6.46581 6.51998 6.49295
#
# Compressibility (1/GPa) = 0.02018524
#
# Stress axis : x y z
#
# Youngs Moduli (GPa) = 63.86756 63.02938 68.83808
#
# Poissons Ratio (x) = 0.22679 0.33221
# Poissons Ratio (y) = 0.22981 0.31033
# Poissons Ratio (z) = 0.30822 0.28415
#
# Static dielectric constant tensor:
#      x y z
#    x 1.811760 0.000000 0.000000 
#    y 0.000000 1.801980 0.000000 
#    z 0.000000 0.000000 1.713670 
# 
# From -- ./inp_files/15694.got.cif
#   From: 2010.05.17/outbox.cif.g08.bks.cpg/sg39_8_cif.got.tgz:15694.got - 2010.06.03 18:22:40.
