data_PCOD9360739
_publ_section_title
;
Structure prediction by ZEFSAII (Michael W. Deem and Ramdas Pophale) SiO2 
 PCOD9360739
Probable space group: A B M 2
;
_chemical_formula_sum "Si O2"
_cell_formula_units_Z 64
_cell_length_a 21.086984
_cell_length_b 8.636656
_cell_length_c 18.852008
_cell_angle_alpha 90.000000
_cell_angle_beta 90.000000
_cell_angle_gamma 90.000000
_cell_volume 3433.347056
_symmetry_space_group_name_H-M "A B M 2"
_symmetry_group_IT_number 39
_symmetry_cell_setting 'orthorhombic'
loop_
_space_group_symop_operation_xyz
x,y,z
-x,-y,z
-x,1/2+y,z
x,1/2-y,z
x,1/2+y,1/2+z
-x,1/2-y,1/2+z
-x,y,1/2+z
x,-y,1/2+z
loop_
_atom_site_type_symbol
_atom_site_label
_atom_site_fract_x
_atom_site_fract_y
_atom_site_fract_z
Si Si1 0.811449 0.937223 0.721580
Si Si2 0.190655 0.938776 0.384865
Si Si3 0.569313 0.064564 0.721168
Si Si4 0.068370 0.563382 0.472678
Si Si5 0.931256 0.935542 0.137526
Si Si6 0.686561 0.436028 0.474666
Si Si7 0.312924 0.064137 0.633358
Si Si8 0.430755 0.064529 0.386682
O O1 0.813891 0.750000 0.720896
O O2 0.806551 0.988751 0.803264
O O3 0.749358 0.985370 0.677461
O O4 0.874582 0.000507 0.684918
O O5 0.190405 0.750000 0.385068
O O6 0.126350 0.989888 0.423876
O O7 0.252160 0.987461 0.429304
O O8 0.568710 0.250000 0.715783
O O9 0.580813 0.022344 0.803933
O O10 0.500000 0.000000 0.701678
O O11 0.624515 0.996372 0.672827
O O12 0.066333 0.750000 0.470570
O O13 0.078925 0.517618 0.554957
O O14 0.000000 0.500000 0.450149
O O15 0.932216 0.750000 0.140652
O O16 0.000000 0.000000 0.159260
O O17 0.686114 0.250000 0.476865
O O18 0.690293 0.500029 0.553988
O O19 0.623684 0.494895 0.435557
O O20 0.314418 0.250000 0.631672
O O21 0.430952 0.250000 0.392154
O O22 0.500000 0.000000 0.405959
#
# Coordination Sequence:
#
# PCOD9360739 Si02
#       8
#     8   8   8   8   8   8   8   8
#     4  10  21  37  57  81 111 146 183 227 279 334
#     4   9  19  36  57  80 108 143 182 225 276 333
#     4  10  21  38  61  87 116 150 188 231 280 337
#     4   9  18  34  55  78 106 140 179 221 266 320
#     4  10  20  35  56  81 110 145 184 227 275 329
#     4  11  22  38  60  83 111 149 191 234 283 337
#     4  11  23  38  57  83 116 151 190 236 284 335
#     4  10  21  38  60  87 117 148 185 229 278 335
#
# _framework density 18.640702999999998
#
# number of rings (size 3 to 8) (size 9 to 14) (size 15 to 20)
#    0.000    2.000    0.000    3.375    0.000    6.000 
#    0.000    6.875    0.000    0.000    0.000    0.000 
#    0.000    0.000    0.000    0.000    0.000    0.000 
#
# Total GULP energy -178792.298115 kJ/mol
# GULP energy per Si atom -5587.259316 kJ/mol
# Density = 1.859828 g / cm^3
# Si number density = 18.640703 Si / 1000 Ang^3
#
#
#
# Elastic Constant Matrix: (Units=GPa)
#
#
# Indices 1 2 3 4 5 6 
#
# 1 209.3652 46.9411 143.4040 0.0000 0.0000 0.0000
# 2 46.9411 36.2356 43.6441 0.0000 0.0000 0.0000
# 3 143.4040 43.6441 160.4618 0.0000 0.0000 0.0000
# 4 0.0000 0.0000 0.0000 10.5798 0.0000 0.0000
# 5 0.0000 0.0000 0.0000 0.0000 41.2479 0.0000
# 6 0.0000 0.0000 0.0000 0.0000 0.0000 29.9539
#
#
#
# Elastic Compliance Matrix: (Units=1/GPa)
#
#
# Indices 1 2 3 4 5 6 
#
# 1 0.012719 -0.004143 -0.010240 0.000000 0.000000 0.000000
# 2 -0.004143 0.042392 -0.007828 0.000000 0.000000 0.000000
# 3 -0.010240 -0.007828 0.017513 0.000000 0.000000 0.000000
# 4 0.000000 0.000000 0.000000 0.094520 0.000000 0.000000
# 5 0.000000 0.000000 0.000000 0.000000 0.024244 0.000000
# 6 0.000000 0.000000 0.000000 0.000000 0.000000 0.033385
#
#
# Mechanical properties :
#
#
# Convention : Reuss Voigt Hill
#
# Bulk Modulus (GPa) = 35.45812 97.11569 66.28690
# Shear Modulus (GPa) = 17.94717 27.82788 22.88753
#
# Velocity S-wave (km/s) = 3.10626 3.86794 3.50784
# Velocity P-wave (km/s) = 5.65051 8.49469 7.21416
#
# Compressibility (1/GPa) = 0.02820229
#
# Stress axis : x y z
#
# Youngs Moduli (GPa) = 78.62040 23.58918 57.10116
#
# Poissons Ratio (x) = 0.09773 0.58473
# Poissons Ratio (y) = 0.32574 0.44696
# Poissons Ratio (z) = 0.80510 0.18465
#
# Static dielectric constant tensor:
#      x y z
#    x 1.608570 0.000000 0.000000 
#    y 0.000000 1.628340 0.000000 
#    z 0.000000 0.000000 1.625510 
# 
# From -- ./inp_files/13184.got.cif
#   From: 2010.05.17/outbox.cif.g08.bks.cpg/sg39_7_cif.got.tgz:13184.got - 2010.06.03 18:22:40.
