data_PCOD9360452
_publ_section_title
;
Structure prediction by ZEFSAII (Michael W. Deem and Ramdas Pophale) SiO2 
 PCOD9360452
Probable space group: A B M 2
;
_chemical_formula_sum "Si O2"
_cell_formula_units_Z 48
_cell_length_a 9.466371
_cell_length_b 17.689320
_cell_length_c 14.239561
_cell_angle_alpha 90.000000
_cell_angle_beta 90.000000
_cell_angle_gamma 90.000000
_cell_volume 2384.466690
_symmetry_space_group_name_H-M "A B M 2"
_symmetry_group_IT_number 39
_symmetry_cell_setting 'orthorhombic'
loop_
_space_group_symop_operation_xyz
x,y,z
-x,-y,z
-x,1/2+y,z
x,1/2-y,z
x,1/2+y,1/2+z
-x,1/2-y,1/2+z
-x,y,1/2+z
x,-y,1/2+z
loop_
_atom_site_type_symbol
_atom_site_label
_atom_site_fract_x
_atom_site_fract_y
_atom_site_fract_z
Si Si1 0.737342 0.664179 0.433610
Si Si2 0.063188 0.166032 0.249923
Si Si3 0.160005 0.011233 0.502720
Si Si4 0.288358 0.425300 0.159445
Si Si5 0.505420 0.589743 0.813023
Si Si6 0.190581 0.441049 0.797733
O O1 0.725526 0.750000 0.469996
O O2 0.849784 0.665091 0.347802
O O3 0.791855 0.598533 0.502722
O O4 0.591990 0.635829 0.384890
O O5 0.009039 0.250000 0.233073
O O6 0.177262 0.142101 0.172069
O O7 0.938860 0.106498 0.259667
O O8 0.274710 0.960519 0.557341
O O9 0.157332 0.980984 0.396301
O O10 0.000000 0.000000 0.540788
O O11 0.435356 0.403952 0.208969
O O12 0.230234 0.492695 0.225888
O O13 0.500000 0.500000 0.838336
O O14 0.669359 0.609480 0.810911
#
# Coordination Sequence:
#
# PCOD9360452 Si02
#       6
#     8   8   8   8   8   8
#     4  10  20  36  60  89 119 153 197 252 314 357
#     4  10  19  36  61  86 121 157 193 256 309 354
#     4  12  20  35  64  93 117 161 206 256 298 370
#     4  10  21  37  57  89 119 158 204 246 299 370
#     4   9  18  37  57  86 117 156 201 245 295 377
#     4  11  19  38  58  90 117 151 216 242 301 366
#
# _framework density 20.130286999999999
#
# number of rings (size 3 to 8) (size 9 to 14) (size 15 to 20)
#    0.000    1.667    6.667    1.500    0.000    0.667 
#    9.000    4.167    0.000    1.000    0.000    0.000 
#    0.000    0.000    0.000    0.000    0.000    0.000 
#
# Total GULP energy -133963.400282 kJ/mol
# GULP energy per Si atom -5581.808345 kJ/mol
# Density = 2.008447 g / cm^3
# Si number density = 20.130287 Si / 1000 Ang^3
#
#
#
# Elastic Constant Matrix: (Units=GPa)
#
#
# Indices 1 2 3 4 5 6 
#
# 1 103.8360 15.3588 -9.6616 0.0000 0.0000 0.0000
# 2 15.3588 73.0585 6.7662 0.0000 0.0000 0.0000
# 3 -9.6616 6.7662 37.1499 0.0000 0.0000 0.0000
# 4 0.0000 0.0000 0.0000 16.1276 0.0000 0.0000
# 5 0.0000 0.0000 0.0000 0.0000 8.2663 0.0000
# 6 0.0000 0.0000 0.0000 0.0000 0.0000 22.8972
#
#
#
# Elastic Compliance Matrix: (Units=1/GPa)
#
#
# Indices 1 2 3 4 5 6 
#
# 1 0.010283 -0.002451 0.003121 0.000000 0.000000 0.000000
# 2 -0.002451 0.014507 -0.003280 0.000000 0.000000 0.000000
# 3 0.003121 -0.003280 0.028327 0.000000 0.000000 0.000000
# 4 0.000000 0.000000 0.000000 0.062006 0.000000 0.000000
# 5 0.000000 0.000000 0.000000 0.000000 0.120974 0.000000
# 6 0.000000 0.000000 0.000000 0.000000 0.000000 0.043673
#
#
# Mechanical properties :
#
#
# Convention : Reuss Voigt Hill
#
# Bulk Modulus (GPa) = 20.87777 26.55236 23.71507
# Shear Modulus (GPa) = 16.61379 22.89695 19.75537
#
# Velocity S-wave (km/s) = 2.87594 3.37625 3.13609
# Velocity P-wave (km/s) = 4.62838 5.33082 4.99197
#
# Compressibility (1/GPa) = 0.04789783
#
# Stress axis : x y z
#
# Youngs Moduli (GPa) = 97.24340 68.93402 35.30211
#
# Poissons Ratio (x) = 0.16895 -0.11017
# Poissons Ratio (y) = 0.23833 0.11577
# Poissons Ratio (z) = -0.30348 0.22607
#
# Static dielectric constant tensor:
#      x y z
#    x 1.749490 0.000000 0.000000 
#    y 0.000000 1.713720 0.000000 
#    z 0.000000 0.000000 1.740150 
# 
# From -- ./inp_files/8340.got.cif
#   From: 2010.05.17/outbox.cif.g08.bks.cpg/sg39_5_cif.got.tgz:8340.got - 2010.06.03 18:22:40.
