data_PCOD9360270
_publ_section_title
;
Structure prediction by ZEFSAII (Michael W. Deem and Ramdas Pophale) SiO2 
 PCOD9360270
Probable space group: A B M 2
;
_chemical_formula_sum "Si O2"
_cell_formula_units_Z 64
_cell_length_a 10.673476
_cell_length_b 14.664103
_cell_length_c 20.364405
_cell_angle_alpha 90.000000
_cell_angle_beta 90.000000
_cell_angle_gamma 90.000000
_cell_volume 3187.374588
_symmetry_space_group_name_H-M "A B M 2"
_symmetry_group_IT_number 39
_symmetry_cell_setting 'orthorhombic'
loop_
_space_group_symop_operation_xyz
x,y,z
-x,-y,z
-x,1/2+y,z
x,1/2-y,z
x,1/2+y,1/2+z
-x,1/2-y,1/2+z
-x,y,1/2+z
x,-y,1/2+z
loop_
_atom_site_type_symbol
_atom_site_label
_atom_site_fract_x
_atom_site_fract_y
_atom_site_fract_z
Si Si1 0.929005 0.858443 0.595100
Si Si2 0.460204 0.353624 0.521509
Si Si3 0.624074 0.955952 0.387912
Si Si4 0.292367 0.019045 0.606016
Si Si5 0.182994 0.359194 0.176151
Si Si6 0.990379 0.146287 0.951198
Si Si7 0.266281 0.597755 0.480510
Si Si8 0.848188 0.359429 0.824306
O O1 0.904790 0.750000 0.596760
O O2 0.816569 0.912426 0.629211
O O3 0.064548 0.871787 0.627773
O O4 0.935804 0.890439 0.519240
O O5 0.415111 0.250000 0.530337
O O6 0.410912 0.398177 0.453480
O O7 0.410280 0.419003 0.580596
O O8 0.609977 0.352227 0.508783
O O9 0.710888 0.895034 0.343189
O O10 0.500000 0.000000 0.357233
O O11 0.697860 0.042649 0.415616
O O12 0.290953 0.931412 0.654751
O O13 0.245970 0.973346 0.538592
O O14 0.218194 0.250000 0.173644
O O15 0.132224 0.383862 0.248542
O O16 0.945220 0.250000 0.949675
O O17 0.138934 0.147473 0.962682
O O18 0.940627 0.105921 0.882559
O O19 0.852354 0.250000 0.824731
#
# Coordination Sequence:
#
# PCOD9360270 Si02
#       8
#     8   8   8   8   8   8   8   8
#     4  10  20  35  58  86 117 151 193 249 316 379
#     4  10  20  35  59  90 122 157 200 259 318 369
#     4   9  19  35  55  84 119 156 199 251 314 375
#     4  11  20  35  57  82 117 157 201 246 309 378
#     4  10  22  38  56  84 123 167 206 254 323 390
#     4  10  19  33  57  87 115 152 198 251 311 372
#     4  10  20  33  53  87 124 153 194 257 316 370
#     4  10  21  38  59  85 117 158 211 260 314 388
#
# _framework density 20.079221
#
# number of rings (size 3 to 8) (size 9 to 14) (size 15 to 20)
#    0.000    2.000    1.250    4.125    0.000    3.000 
#    4.500    1.250    0.000    0.000    0.000    1.750 
#    0.000    0.000    0.000    0.000    0.000    0.000 
#
# Total GULP energy -178167.843689 kJ/mol
# GULP energy per Si atom -5567.745115 kJ/mol
# Density = 2.003352 g / cm^3
# Si number density = 20.079221 Si / 1000 Ang^3
#
#
#
# Elastic Constant Matrix: (Units=GPa)
#
#
# Indices 1 2 3 4 5 6 
#
# 1 64.7412 32.6188 31.4645 0.0000 0.0000 0.0000
# 2 32.6188 77.9415 25.0448 0.0000 0.0000 0.0000
# 3 31.4645 25.0448 94.3715 0.0000 0.0000 0.0000
# 4 0.0000 0.0000 0.0000 13.0665 0.0000 0.0000
# 5 0.0000 0.0000 0.0000 0.0000 42.5630 0.0000
# 6 0.0000 0.0000 0.0000 0.0000 0.0000 25.0511
#
#
#
# Elastic Compliance Matrix: (Units=1/GPa)
#
#
# Indices 1 2 3 4 5 6 
#
# 1 0.021744 -0.007402 -0.005285 0.000000 0.000000 0.000000
# 2 -0.007402 0.016546 -0.001923 0.000000 0.000000 0.000000
# 3 -0.005285 -0.001923 0.012869 0.000000 0.000000 0.000000
# 4 0.000000 0.000000 0.000000 0.076531 0.000000 0.000000
# 5 0.000000 0.000000 0.000000 0.000000 0.023495 0.000000
# 6 0.000000 0.000000 0.000000 0.000000 0.000000 0.039918
#
#
# Mechanical properties :
#
#
# Convention : Reuss Voigt Hill
#
# Bulk Modulus (GPa) = 45.58237 46.14560 45.86399
# Shear Modulus (GPa) = 21.96487 25.99789 23.98138
#
# Velocity S-wave (km/s) = 3.31102 3.60219 3.45967
# Velocity P-wave (km/s) = 6.11291 6.35080 6.23299
#
# Compressibility (1/GPa) = 0.02193830
#
# Stress axis : x y z
#
# Youngs Moduli (GPa) = 45.98967 60.43864 77.70598
#
# Poissons Ratio (x) = 0.44734 0.41071
# Poissons Ratio (y) = 0.34040 0.14945
# Poissons Ratio (z) = 0.24307 0.11624
#
# Static dielectric constant tensor:
#      x y z
#    x 1.745820 0.000000 0.000000 
#    y 0.000000 1.752780 0.000000 
#    z 0.000000 0.000000 1.704300 
# 
# From -- ./inp_files/12385.got.cif
#   From: 2010.05.17/outbox.cif.g08.bks.cpg/sg39_7_cif.got.tgz:12385.got - 2010.06.03 18:22:40.
