data_PCOD9360866
_publ_section_title
;
Structure prediction by ZEFSAII (Michael W. Deem and Ramdas Pophale) SiO2 
 PCOD9360866
Probable space group: A B M 2
;
_chemical_formula_sum "Si O2"
_cell_formula_units_Z 48
_cell_length_a 12.458286
_cell_length_b 21.570121
_cell_length_c 8.585511
_cell_angle_alpha 90.000000
_cell_angle_beta 90.000000
_cell_angle_gamma 90.000000
_cell_volume 2307.156352
_symmetry_space_group_name_H-M "A B M 2"
_symmetry_group_IT_number 39
_symmetry_cell_setting 'orthorhombic'
loop_
_space_group_symop_operation_xyz
x,y,z
-x,-y,z
-x,1/2+y,z
x,1/2-y,z
x,1/2+y,1/2+z
-x,1/2-y,1/2+z
-x,y,1/2+z
x,-y,1/2+z
loop_
_atom_site_type_symbol
_atom_site_label
_atom_site_fract_x
_atom_site_fract_y
_atom_site_fract_z
Si Si1 0.876185 0.320483 0.683510
Si Si2 0.469881 0.416621 0.969560
Si Si3 0.629486 0.476337 0.164122
Si Si4 0.975010 0.891396 0.464727
Si Si5 0.299142 0.177930 0.933674
Si Si6 0.160554 0.573698 0.261220
O O1 0.886326 0.250000 0.738308
O O2 0.904253 0.367115 0.821709
O O3 0.762610 0.328431 0.598350
O O4 0.962256 0.334377 0.546840
O O5 0.591936 0.428868 0.024599
O O6 0.402277 0.457499 0.094342
O O7 0.436997 0.448954 0.808800
O O8 0.418847 0.348990 0.955702
O O9 0.750269 0.477178 0.225170
O O10 0.903081 0.918231 0.601088
O O11 0.070735 0.933883 0.394457
O O12 0.296533 0.250000 0.888008
O O13 0.231945 0.133849 0.814474
#
# Coordination Sequence:
#
# PCOD9360866 Si02
#       6
#     8   8   8   8   8   8
#     4   9  16  26  44  69  99 139 182 221 263 322
#     4  10  20  36  59  85 109 145 193 238 287 342
#     4  10  20  36  60  84 109 144 192 243 283 341
#     4   9  17  29  48  75 106 141 184 228 276 331
#     4   9  19  35  54  80 114 147 183 233 290 344
#     4   9  19  34  55  81 111 147 188 233 283 338
#
# _framework density 20.804831
#
# number of rings (size 3 to 8) (size 9 to 14) (size 15 to 20)
#    0.000    2.667    0.000    2.500    0.000    7.333 
#    0.000    3.333    0.000   34.000    0.000    0.000 
#    0.000    0.000    0.000    0.000    0.000    0.000 
#
# Total GULP energy -133643.265963 kJ/mol
# GULP energy per Si atom -5568.469415 kJ/mol
# Density = 2.075748 g / cm^3
# Si number density = 20.804831 Si / 1000 Ang^3
#
#
#
# Elastic Constant Matrix: (Units=GPa)
#
#
# Indices 1 2 3 4 5 6 
#
# 1 57.2184 9.6848 18.8534 0.0000 0.0000 0.0000
# 2 9.6848 37.7440 7.8249 0.0000 0.0000 0.0000
# 3 18.8534 7.8249 90.4244 0.0000 0.0000 0.0000
# 4 0.0000 0.0000 0.0000 8.9680 0.0000 0.0000
# 5 0.0000 0.0000 0.0000 0.0000 14.8591 0.0000
# 6 0.0000 0.0000 0.0000 0.0000 0.0000 27.6385
#
#
#
# Elastic Compliance Matrix: (Units=1/GPa)
#
#
# Indices 1 2 3 4 5 6 
#
# 1 0.019403 -0.004216 -0.003681 0.000000 0.000000 0.000000
# 2 -0.004216 0.027894 -0.001535 0.000000 0.000000 0.000000
# 3 -0.003681 -0.001535 0.011959 0.000000 0.000000 0.000000
# 4 0.000000 0.000000 0.000000 0.111508 0.000000 0.000000
# 5 0.000000 0.000000 0.000000 0.000000 0.067299 0.000000
# 6 0.000000 0.000000 0.000000 0.000000 0.000000 0.036181
#
#
# Mechanical properties :
#
#
# Convention : Reuss Voigt Hill
#
# Bulk Modulus (GPa) = 24.75609 28.67922 26.71765
# Shear Modulus (GPa) = 16.30940 20.22804 18.26872
#
# Velocity S-wave (km/s) = 2.80290 3.12152 2.96649
# Velocity P-wave (km/s) = 4.73287 5.17751 4.96018
#
# Compressibility (1/GPa) = 0.04039410
#
# Stress axis : x y z
#
# Youngs Moduli (GPa) = 51.53782 35.84980 83.61749
#
# Poissons Ratio (x) = 0.15113 0.30778
# Poissons Ratio (y) = 0.21726 0.12834
# Poissons Ratio (z) = 0.18970 0.05503
#
# Static dielectric constant tensor:
#      x y z
#    x 1.824870 0.000000 0.000000 
#    y 0.000000 1.758630 0.000000 
#    z 0.000000 0.000000 1.807790 
# 
# From -- ./inp_files/2768.got.cif
#   From: 2010.05.17/outbox.cif.g08.bks.cpg/sg39_2_cif.got.tgz:2768.got - 2010.06.03 18:22:40.
