data_PCOD9360593
_publ_section_title
;
Structure prediction by ZEFSAII (Michael W. Deem and Ramdas Pophale) SiO2 
 PCOD9360593
Probable space group: A B M 2
;
_chemical_formula_sum "Si O2"
_cell_formula_units_Z 64
_cell_length_a 11.482321
_cell_length_b 29.548167
_cell_length_c 9.976784
_cell_angle_alpha 90.000000
_cell_angle_beta 90.000000
_cell_angle_gamma 90.000000
_cell_volume 3384.938624
_symmetry_space_group_name_H-M "A B M 2"
_symmetry_group_IT_number 39
_symmetry_cell_setting 'orthorhombic'
loop_
_space_group_symop_operation_xyz
x,y,z
-x,-y,z
-x,1/2+y,z
x,1/2-y,z
x,1/2+y,1/2+z
-x,1/2-y,1/2+z
-x,y,1/2+z
x,-y,1/2+z
loop_
_atom_site_type_symbol
_atom_site_label
_atom_site_fract_x
_atom_site_fract_y
_atom_site_fract_z
Si Si1 0.623806 0.202025 0.093630
Si Si2 0.958597 0.553077 0.051400
Si Si3 0.614205 0.527599 0.381151
Si Si4 0.744895 0.505281 0.133189
Si Si5 0.654718 0.698329 0.134459
Si Si6 0.685152 0.842784 0.853179
Si Si7 0.130773 0.080258 0.766192
Si Si8 0.408772 0.633943 0.871547
O O1 0.659796 0.250000 0.031997
O O2 0.484090 0.203265 0.108730
O O3 0.681085 0.194840 0.237278
O O4 0.642565 0.159323 0.000487
O O5 0.832593 0.547309 0.120468
O O6 0.000000 0.500000 0.549531
O O7 0.041501 0.584705 0.141144
O O8 0.942459 0.569398 0.900056
O O9 0.500000 0.500000 0.420788
O O10 0.637339 0.518572 0.224984
O O11 0.712665 0.510601 0.484323
O O12 0.607584 0.581178 0.391020
O O13 0.800065 0.464167 0.217179
O O14 0.695294 0.750000 0.166523
O O15 0.654513 0.659832 0.248960
O O16 0.710359 0.678732 0.998242
O O17 0.776123 0.881144 0.805953
O O18 0.549655 0.859587 0.858820
#
# Coordination Sequence:
#
# PCOD9360593 Si02
#       8
#     8   8   8   8   8   8   8   8
#     4   9  17  33  54  82 118 156 194 237 287 344
#     4  10  22  39  60  79 105 150 205 268 305 338
#     4  12  25  37  54  84 126 171 201 232 292 370
#     4  11  23  39  58  78 114 161 203 245 297 347
#     4   9  18  33  55  83 119 158 195 238 290 346
#     4  10  20  33  54  85 118 153 188 239 295 365
#     4  11  22  39  59  83 109 146 203 260 309 345
#     4  10  21  33  53  82 124 161 198 235 276 355
#
# _framework density 18.907284000000001
#
# number of rings (size 3 to 8) (size 9 to 14) (size 15 to 20)
#    0.000    1.750    1.250    3.750    3.500    7.000 
#    0.000    0.000    0.000    0.000    0.000    3.500 
#    0.000    0.000    0.000    0.000    0.000    0.000 
#
# Total GULP energy -178292.679369 kJ/mol
# GULP energy per Si atom -5571.646230 kJ/mol
# Density = 1.886425 g / cm^3
# Si number density = 18.907284 Si / 1000 Ang^3
#
#
#
# Elastic Constant Matrix: (Units=GPa)
#
#
# Indices 1 2 3 4 5 6 
#
# 1 31.9066 3.4749 14.9224 0.0000 0.0000 0.0000
# 2 3.4749 75.8322 17.7379 0.0000 0.0000 0.0000
# 3 14.9224 17.7379 84.6749 0.0000 0.0000 0.0000
# 4 0.0000 0.0000 0.0000 -23.9580 0.0000 0.0000
# 5 0.0000 0.0000 0.0000 0.0000 28.3319 0.0000
# 6 0.0000 0.0000 0.0000 0.0000 0.0000 12.5298
#
#
#
# Elastic Compliance Matrix: (Units=1/GPa)
#
#
# Indices 1 2 3 4 5 6 
#
# 1 0.034159 -0.000165 -0.005985 0.000000 0.000000 0.000000
# 2 -0.000165 0.013867 -0.002876 0.000000 0.000000 0.000000
# 3 -0.005985 -0.002876 0.013467 0.000000 0.000000 0.000000
# 4 0.000000 0.000000 0.000000 -0.041740 0.000000 0.000000
# 5 0.000000 0.000000 0.000000 0.000000 0.035296 0.000000
# 6 0.000000 0.000000 0.000000 0.000000 0.000000 0.079810
#
#
# Mechanical properties :
#
#
# Convention : Reuss Voigt Hill
#
# Bulk Modulus (GPa) = 23.02000 29.40933 26.21466
# Shear Modulus (GPa) = 29.87004 13.79930 21.83467
#
# Velocity S-wave (km/s) = 3.97900 2.70449 3.40196
# Velocity P-wave (km/s) = 5.77162 5.03394 5.41536
#
# Compressibility (1/GPa) = 0.04344049
#
# Stress axis : x y z
#
# Youngs Moduli (GPa) = 29.27505 72.11224 74.25498
#
# Poissons Ratio (x) = 0.01192 0.44444
# Poissons Ratio (y) = 0.00484 0.21354
# Poissons Ratio (z) = 0.17522 0.20738
#
# Static dielectric constant tensor:
#      x y z
#    x 1.696660 0.000000 0.000000 
#    y 0.000000 1.851690 0.000000 
#    z 0.000000 0.000000 1.670680 
# 
# From -- ./inp_files/2902.got.cif
#   From: 2010.05.17/outbox.cif.g08.bks.cpg/sg39_2_cif.got.tgz:2902.got - 2010.06.03 18:22:40.
