data_PCOD9360361
_publ_section_title
;
Structure prediction by ZEFSAII (Michael W. Deem and Ramdas Pophale) SiO2 
 PCOD9360361
Probable space group: A B M 2
;
_chemical_formula_sum "Si O2"
_cell_formula_units_Z 48
_cell_length_a 10.122993
_cell_length_b 14.261300
_cell_length_c 14.363835
_cell_angle_alpha 90.000000
_cell_angle_beta 90.000000
_cell_angle_gamma 90.000000
_cell_volume 2073.664343
_symmetry_space_group_name_H-M "A B M 2"
_symmetry_group_IT_number 39
_symmetry_cell_setting 'orthorhombic'
loop_
_space_group_symop_operation_xyz
x,y,z
-x,-y,z
-x,1/2+y,z
x,1/2-y,z
x,1/2+y,1/2+z
-x,1/2-y,1/2+z
-x,y,1/2+z
x,-y,1/2+z
loop_
_atom_site_type_symbol
_atom_site_label
_atom_site_fract_x
_atom_site_fract_y
_atom_site_fract_z
Si Si1 0.682479 0.854814 0.619560
Si Si2 0.911876 0.634530 0.749434
Si Si3 0.174302 0.136236 0.149100
Si Si4 0.785155 0.864568 0.942619
Si Si5 0.482505 0.358080 0.452996
Si Si6 0.553649 0.603677 0.248630
O O1 0.725675 0.750000 0.589929
O O2 0.807655 0.898451 0.670945
O O3 0.611429 0.902043 0.531428
O O4 0.567930 0.846948 0.696940
O O5 0.906458 0.750000 0.750078
O O6 0.862303 0.603075 0.850801
O O7 0.057571 0.606476 0.717933
O O8 0.174668 0.250000 0.149045
O O9 0.317676 0.107262 0.185372
O O10 0.154814 0.106987 0.041867
O O11 0.785364 0.750000 0.938844
O O12 0.631357 0.895203 0.941395
O O13 0.501020 0.250000 0.484300
O O14 0.418703 0.358462 0.351330
O O15 0.500000 0.500000 0.260540
#
# Coordination Sequence:
#
# PCOD9360361 Si02
#       6
#     8   8   8   8   8   8
#     4  10  19  36  61  86 109 147 198 245 289 343
#     4   9  18  32  57  90 121 147 189 250 305 353
#     4  10  20  36  58  88 121 153 195 245 299 356
#     4   9  16  30  56  86 114 148 186 240 301 343
#     4  10  19  34  60  85 110 148 198 248 290 342
#     4  12  24  36  54  85 117 158 194 239 288 349
#
# _framework density 23.147431000000001
#
# number of rings (size 3 to 8) (size 9 to 14) (size 15 to 20)
#    0.000    2.000    3.333    1.500    0.000    2.000 
#    0.000    5.833    0.000    0.000    4.333    0.000 
#    0.000    0.000    0.000    0.000    0.000    0.000 
#
# Total GULP energy -134158.248597 kJ/mol
# GULP energy per Si atom -5589.927025 kJ/mol
# Density = 2.309475 g / cm^3
# Si number density = 23.147431 Si / 1000 Ang^3
#
#
#
# Elastic Constant Matrix: (Units=GPa)
#
#
# Indices 1 2 3 4 5 6 
#
# 1 116.2649 0.5003 37.5940 0.0000 0.0000 0.0000
# 2 0.5003 53.7005 0.2863 0.0000 0.0000 0.0000
# 3 37.5940 0.2863 133.8937 0.0000 0.0000 0.0000
# 4 0.0000 0.0000 0.0000 37.7663 0.0000 0.0000
# 5 0.0000 0.0000 0.0000 0.0000 35.0867 0.0000
# 6 0.0000 0.0000 0.0000 0.0000 0.0000 4.8429
#
#
#
# Elastic Compliance Matrix: (Units=1/GPa)
#
#
# Indices 1 2 3 4 5 6 
#
# 1 0.009460 -0.000074 -0.002656 0.000000 0.000000 0.000000
# 2 -0.000074 0.018623 -0.000019 0.000000 0.000000 0.000000
# 3 -0.002656 -0.000019 0.008214 0.000000 0.000000 0.000000
# 4 0.000000 0.000000 0.000000 0.026479 0.000000 0.000000
# 5 0.000000 0.000000 0.000000 0.000000 0.028501 0.000000
# 6 0.000000 0.000000 0.000000 0.000000 0.000000 0.206489
#
#
# Mechanical properties :
#
#
# Convention : Reuss Voigt Hill
#
# Bulk Modulus (GPa) = 32.46850 42.29114 37.37982
# Shear Modulus (GPa) = 15.94741 33.23773 24.59257
#
# Velocity S-wave (km/s) = 2.62763 3.79346 3.26303
# Velocity P-wave (km/s) = 4.82320 6.12349 5.51182
#
# Compressibility (1/GPa) = 0.03079908
#
# Stress axis : x y z
#
# Youngs Moduli (GPa) = 105.70617 53.69824 121.73741
#
# Poissons Ratio (x) = 0.00397 0.32334
# Poissons Ratio (y) = 0.00782 0.00232
# Poissons Ratio (z) = 0.28076 0.00102
#
# Static dielectric constant tensor:
#      x y z
#    x 1.810540 0.000000 0.000000 
#    y 0.000000 1.901010 0.000000 
#    z 0.000000 0.000000 1.850920 
# 
# From -- ./inp_files/8318.got.cif
#   From: 2010.05.17/outbox.cif.g08.bks.cpg/sg39_5_cif.got.tgz:8318.got - 2010.06.03 18:22:40.
