data_PCOD9360532
_publ_section_title
;
Structure prediction by ZEFSAII (Michael W. Deem and Ramdas Pophale) SiO2 
 PCOD9360532
Probable space group: A B M 2
;
_chemical_formula_sum "Si O2"
_cell_formula_units_Z 60
_cell_length_a 16.690474
_cell_length_b 9.512075
_cell_length_c 19.641996
_cell_angle_alpha 90.000000
_cell_angle_beta 90.000000
_cell_angle_gamma 90.000000
_cell_volume 3118.383722
_symmetry_space_group_name_H-M "A B M 2"
_symmetry_group_IT_number 39
_symmetry_cell_setting 'orthorhombic'
loop_
_space_group_symop_operation_xyz
x,y,z
-x,-y,z
-x,1/2+y,z
x,1/2-y,z
x,1/2+y,1/2+z
-x,1/2-y,1/2+z
-x,y,1/2+z
x,-y,1/2+z
loop_
_atom_site_type_symbol
_atom_site_label
_atom_site_fract_x
_atom_site_fract_y
_atom_site_fract_z
Si Si1 0.973832 0.250000 0.858140
Si Si2 0.418385 0.416298 0.742550
Si Si3 0.711542 0.585323 0.635576
Si Si4 0.761452 0.915307 0.482957
Si Si5 0.107451 0.478649 0.819164
Si Si6 0.132233 0.584888 0.675024
Si Si7 0.079160 0.584453 0.520211
Si Si8 0.287245 0.912444 0.358626
O O1 0.905584 0.374059 0.856586
O O2 0.044171 0.369527 0.847632
O O3 0.500000 0.500000 0.750010
O O4 0.435188 0.250000 0.743387
O O5 0.371245 0.449078 0.672537
O O6 0.354423 0.444616 0.802573
O O7 0.730389 0.750000 0.651833
O O8 0.714150 0.570862 0.554363
O O9 0.781637 0.485860 0.663452
O O10 0.780309 0.750000 0.475313
O O11 0.841912 0.009708 0.491130
O O12 0.711812 0.980587 0.421347
O O13 0.092819 0.507288 0.738778
O O14 0.198369 0.427385 0.827126
O O15 0.138347 0.750000 0.692106
O O16 0.087500 0.575059 0.602500
O O17 0.072946 0.750000 0.501490
O O18 0.000000 0.500000 0.499501
O O19 0.297143 0.750000 0.380901
#
# Coordination Sequence:
#
# PCOD9360532 Si02
#       8
#     4   8   8   8   8   8   8   8
#     4  10  24  34  52  80 122 158 210 262 306 354
#     4  10  22  41  67 100 127 157 200 250 309 372
#     4   9  19  39  63  88 121 158 197 243 302 371
#     4  10  22  40  62  89 117 163 211 248 303 375
#     4  11  21  38  52  84 118 162 205 259 308 364
#     4  10  20  31  54  84 116 155 203 251 311 367
#     4  10  21  36  53  79 116 161 210 265 311 361
#     4  11  23  42  65  86 126 171 203 250 316 369
#
# _framework density 19.240736999999999
#
# number of rings (size 3 to 8) (size 9 to 14) (size 15 to 20)
#    0.000    1.867    2.667    0.800    3.733    2.133 
#    2.400    0.667    0.000    3.200    0.000    0.000 
#    0.000    0.000    0.000    0.000    0.000    0.000 
#
# Total GULP energy -167150.110820 kJ/mol
# GULP energy per Si atom -5571.670361 kJ/mol
# Density = 1.919694 g / cm^3
# Si number density = 19.240737 Si / 1000 Ang^3
#
#
#
# Elastic Constant Matrix: (Units=GPa)
#
#
# Indices 1 2 3 4 5 6 
#
# 1 126.6490 54.5168 40.7554 0.0000 0.0000 0.0000
# 2 54.5168 127.8857 44.3951 0.0000 0.0000 0.0000
# 3 40.7554 44.3951 99.6649 0.0000 0.0000 0.0000
# 4 0.0000 0.0000 0.0000 23.6844 0.0000 0.0000
# 5 0.0000 0.0000 0.0000 0.0000 7.2313 0.0000
# 6 0.0000 0.0000 0.0000 0.0000 0.0000 41.5532
#
#
#
# Elastic Compliance Matrix: (Units=1/GPa)
#
#
# Indices 1 2 3 4 5 6 
#
# 1 0.010230 -0.003441 -0.002651 0.000000 0.000000 0.000000
# 2 -0.003441 0.010407 -0.003229 0.000000 0.000000 0.000000
# 3 -0.002651 -0.003229 0.012556 0.000000 0.000000 0.000000
# 4 0.000000 0.000000 0.000000 0.042222 0.000000 0.000000
# 5 0.000000 0.000000 0.000000 0.000000 0.138287 0.000000
# 6 0.000000 0.000000 0.000000 0.000000 0.000000 0.024066
#
#
# Mechanical properties :
#
#
# Convention : Reuss Voigt Hill
#
# Bulk Modulus (GPa) = 68.71675 70.39270 69.55472
# Shear Modulus (GPa) = 19.13816 28.79594 23.96705
#
# Velocity S-wave (km/s) = 3.15726 3.87281 3.53319
# Velocity P-wave (km/s) = 7.00591 7.52747 7.27137
#
# Compressibility (1/GPa) = 0.01455249
#
# Stress axis : x y z
#
# Youngs Moduli (GPa) = 97.75266 96.08799 79.64492
#
# Poissons Ratio (x) = 0.33062 0.21110
# Poissons Ratio (y) = 0.33635 0.25715
# Poissons Ratio (z) = 0.25910 0.31025
#
# Static dielectric constant tensor:
#      x y z
#    x 1.639730 0.000000 0.000000 
#    y 0.000000 1.653390 0.000000 
#    z 0.000000 0.000000 1.740810 
# 
# From -- ./inp_files/16074.got.cif
#   From: 2010.05.17/outbox.cif.g08.bks.cpg/sg39_9_cif.got.tgz:16074.got - 2010.06.03 18:22:40.
