data_PCOD9360052
_publ_section_title
;
Structure prediction by ZEFSAII (Michael W. Deem and Ramdas Pophale) SiO2 
 PCOD9360052
Probable space group: A B M 2
;
_chemical_formula_sum "Si O2"
_cell_formula_units_Z 60
_cell_length_a 19.823671
_cell_length_b 18.946495
_cell_length_c 8.864732
_cell_angle_alpha 90.000000
_cell_angle_beta 90.000000
_cell_angle_gamma 90.000000
_cell_volume 3329.496567
_symmetry_space_group_name_H-M "A B M 2"
_symmetry_group_IT_number 39
_symmetry_cell_setting 'orthorhombic'
loop_
_space_group_symop_operation_xyz
x,y,z
-x,-y,z
-x,1/2+y,z
x,1/2-y,z
x,1/2+y,1/2+z
-x,1/2-y,1/2+z
-x,y,1/2+z
x,-y,1/2+z
loop_
_atom_site_type_symbol
_atom_site_label
_atom_site_fract_x
_atom_site_fract_y
_atom_site_fract_z
Si Si1 0.724535 0.933222 0.722950
Si Si2 0.826746 0.168612 0.687144
Si Si3 0.000000 0.500000 0.267004
Si Si4 0.443911 0.911209 0.513526
Si Si5 0.911281 0.065172 0.505632
Si Si6 0.797496 0.953706 0.413371
Si Si7 0.428826 0.063510 0.663123
Si Si8 0.304630 0.331009 0.990465
O O1 0.772373 0.931410 0.578612
O O2 0.650080 0.921421 0.655903
O O3 0.727875 0.874842 0.853149
O O4 0.739942 0.007058 0.811346
O O5 0.842196 0.250000 0.724369
O O6 0.877099 0.137781 0.558916
O O7 0.826794 0.113049 0.824093
O O8 0.750451 0.165665 0.622433
O O9 0.968369 0.440039 0.376315
O O10 0.943951 0.531374 0.155555
O O11 0.518123 0.888738 0.570523
O O12 0.448002 0.929519 0.337708
O O13 0.377636 0.863363 0.532626
O O14 0.432713 0.983455 0.604608
O O15 0.852957 0.013908 0.443286
O O16 0.314279 0.250000 0.946380
#
# Coordination Sequence:
#
# PCOD9360052 Si02
#       8
#     8   8   4   8   8   8   8   8
#     4  11  20  33  59  88 115 151 207 261 297 366
#     4  11  23  39  60  92 130 161 202 257 313 362
#     4  10  22  36  68  92 124 154 212 248 280 362
#     4  10  19  33  50  77 109 145 187 248 305 368
#     4  11  20  39  62  95 119 163 203 247 294 359
#     4  12  20  36  64  94 121 157 209 251 306 359
#     4  10  19  30  51  78 108 138 192 251 308 351
#     4  10  22  39  56  79 118 163 202 252 318 371
#
# _framework density 18.020741999999998
#
# number of rings (size 3 to 8) (size 9 to 14) (size 15 to 20)
#    0.000    1.333    4.000    4.000    0.000    1.600 
#    0.000    3.333    0.000    0.000    0.000    0.000 
#    0.000    0.000    0.000    0.000    0.000    0.000 
#
# Total GULP energy -167164.195914 kJ/mol
# GULP energy per Si atom -5572.139864 kJ/mol
# Density = 1.797973 g / cm^3
# Si number density = 18.020742 Si / 1000 Ang^3
#
#
#
# Elastic Constant Matrix: (Units=GPa)
#
#
# Indices 1 2 3 4 5 6 
#
# 1 63.4898 17.8331 20.9527 0.0000 0.0000 0.0000
# 2 17.8331 95.3114 25.5374 0.0000 0.0000 0.0000
# 3 20.9527 25.5374 52.6364 0.0000 0.0000 0.0000
# 4 0.0000 0.0000 0.0000 22.5889 0.0000 0.0000
# 5 0.0000 0.0000 0.0000 0.0000 51.6459 0.0000
# 6 0.0000 0.0000 0.0000 0.0000 0.0000 19.5456
#
#
#
# Elastic Compliance Matrix: (Units=1/GPa)
#
#
# Indices 1 2 3 4 5 6 
#
# 1 0.018369 -0.001699 -0.006488 0.000000 0.000000 0.000000
# 2 -0.001699 0.012217 -0.005251 0.000000 0.000000 0.000000
# 3 -0.006488 -0.005251 0.024128 0.000000 0.000000 0.000000
# 4 0.000000 0.000000 0.000000 0.044270 0.000000 0.000000
# 5 0.000000 0.000000 0.000000 0.000000 0.019363 0.000000
# 6 0.000000 0.000000 0.000000 0.000000 0.000000 0.051162
#
#
# Mechanical properties :
#
#
# Convention : Reuss Voigt Hill
#
# Bulk Modulus (GPa) = 35.92073 37.78711 36.85392
# Shear Modulus (GPa) = 24.31163 28.56371 26.43767
#
# Velocity S-wave (km/s) = 3.67698 3.98558 3.83439
# Velocity P-wave (km/s) = 6.16467 6.49569 6.33235
#
# Compressibility (1/GPa) = 0.02783908
#
# Stress axis : x y z
#
# Youngs Moduli (GPa) = 54.44025 81.85557 41.44488
#
# Poissons Ratio (x) = 0.13903 0.26889
# Poissons Ratio (y) = 0.09247 0.21763
# Poissons Ratio (z) = 0.35320 0.42982
#
# Static dielectric constant tensor:
#      x y z
#    x 1.623840 0.000000 0.000000 
#    y 0.000000 1.594950 0.000000 
#    z 0.000000 0.000000 1.621020 
# 
# From -- ./inp_files/4018.got.cif
#   From: 2010.05.17/outbox.cif.g08.bks.cpg/sg39_3_cif.got.tgz:4018.got - 2010.06.03 18:22:40.
