data_PCOD9360984
_publ_section_title
;
Structure prediction by ZEFSAII (Michael W. Deem and Ramdas Pophale) SiO2 
 PCOD9360984
Probable space group: A B M 2
;
_chemical_formula_sum "Si O2"
_cell_formula_units_Z 64
_cell_length_a 20.727855
_cell_length_b 17.849759
_cell_length_c 8.689923
_cell_angle_alpha 90.000000
_cell_angle_beta 90.000000
_cell_angle_gamma 90.000000
_cell_volume 3215.160421
_symmetry_space_group_name_H-M "A B M 2"
_symmetry_group_IT_number 39
_symmetry_cell_setting 'orthorhombic'
loop_
_space_group_symop_operation_xyz
x,y,z
-x,-y,z
-x,1/2+y,z
x,1/2-y,z
x,1/2+y,1/2+z
-x,1/2-y,1/2+z
-x,y,1/2+z
x,-y,1/2+z
loop_
_atom_site_type_symbol
_atom_site_label
_atom_site_fract_x
_atom_site_fract_y
_atom_site_fract_z
Si Si1 0.454891 0.075419 0.991110
Si Si2 0.957823 0.575752 0.150038
Si Si3 0.325672 0.544417 0.681423
Si Si4 0.951710 0.166404 0.951140
Si Si5 0.676165 0.889337 0.525914
Si Si6 0.553657 0.834325 0.683016
Si Si7 0.183213 0.040069 0.187230
Si Si8 0.817137 0.389826 0.027119
O O1 0.443016 0.105276 0.820041
O O2 0.500000 0.000000 0.991079
O O3 0.387246 0.066349 0.079723
O O4 0.494506 0.139043 0.079471
O O5 0.956624 0.600513 0.326707
O O6 0.882557 0.567804 0.106920
O O7 0.000000 0.500000 0.129407
O O8 0.992593 0.644329 0.067688
O O9 0.321933 0.455516 0.653042
O O10 0.334352 0.572287 0.857408
O O11 0.253197 0.569196 0.629169
O O12 0.959382 0.250000 0.888751
O O13 0.880833 0.159636 0.026194
O O14 0.616713 0.839271 0.575577
O O15 0.746816 0.852235 0.527344
O O16 0.545999 0.750000 0.742020
O O17 0.181954 0.063320 0.366142
O O18 0.180116 0.951045 0.161965
#
# Coordination Sequence:
#
# PCOD9360984 Si02
#       8
#     8   8   8   8   8   8   8   8
#     4  12  24  41  66  92 119 161 206 246 294 360
#     4  11  21  37  61  86 114 156 206 245 290 354
#     4  10  20  37  63  94 119 151 202 258 298 347
#     4  11  23  37  56  86 123 158 194 248 303 350
#     4  10  20  37  61  91 120 156 198 247 303 356
#     4  12  26  42  62  91 127 161 198 249 303 356
#     4   9  19  34  58  91 116 148 196 254 294 340
#     4   9  19  35  57  85 118 153 194 241 295 357
#
# _framework density 19.905694
#
# number of rings (size 3 to 8) (size 9 to 14) (size 15 to 20)
#    0.000    1.500    2.500    3.000    1.750    1.500 
#    0.000    0.625    0.000    9.000    0.000    0.000 
#    0.000    0.000    0.000    0.000    0.000    0.000 
#
# Total GULP energy -178374.751601 kJ/mol
# GULP energy per Si atom -5574.210988 kJ/mol
# Density = 1.986039 g / cm^3
# Si number density = 19.905694 Si / 1000 Ang^3
#
#
#
# Elastic Constant Matrix: (Units=GPa)
#
#
# Indices 1 2 3 4 5 6 
#
# 1 166.4905 37.8060 38.9117 0.0000 0.0000 0.0000
# 2 37.8060 70.1162 12.2283 0.0000 0.0000 0.0000
# 3 38.9117 12.2283 46.9316 0.0000 0.0000 0.0000
# 4 0.0000 0.0000 0.0000 17.6262 0.0000 0.0000
# 5 0.0000 0.0000 0.0000 0.0000 21.3125 0.0000
# 6 0.0000 0.0000 0.0000 0.0000 0.0000 9.6760
#
#
#
# Elastic Compliance Matrix: (Units=1/GPa)
#
#
# Indices 1 2 3 4 5 6 
#
# 1 0.008144 -0.003367 -0.005875 0.000000 0.000000 0.000000
# 2 -0.003367 0.016333 -0.001464 0.000000 0.000000 0.000000
# 3 -0.005875 -0.001464 0.026560 0.000000 0.000000 0.000000
# 4 0.000000 0.000000 0.000000 0.056734 0.000000 0.000000
# 5 0.000000 0.000000 0.000000 0.000000 0.046921 0.000000
# 6 0.000000 0.000000 0.000000 0.000000 0.000000 0.103349
#
#
# Mechanical properties :
#
#
# Convention : Reuss Voigt Hill
#
# Bulk Modulus (GPa) = 33.75534 51.27004 42.51269
# Shear Modulus (GPa) = 17.28149 22.69575 19.98862
#
# Velocity S-wave (km/s) = 2.94967 3.38029 3.17230
# Velocity P-wave (km/s) = 5.34744 6.40684 5.90096
#
# Compressibility (1/GPa) = 0.02962494
#
# Stress axis : x y z
#
# Youngs Moduli (GPa) = 122.79114 61.22719 37.65026
#
# Poissons Ratio (x) = 0.20612 0.22120
# Poissons Ratio (y) = 0.41338 0.05513
# Poissons Ratio (z) = 0.72141 0.08966
#
# Static dielectric constant tensor:
#      x y z
#    x 1.770520 0.000000 0.000000 
#    y 0.000000 1.675900 0.000000 
#    z 0.000000 0.000000 1.711340 
# 
# From -- ./inp_files/4011.got.cif
#   From: 2010.05.17/outbox.cif.g08.bks.cpg/sg39_3_cif.got.tgz:4011.got - 2010.06.03 18:22:40.
