data_PCOD9360512
_publ_section_title
;
Structure prediction by ZEFSAII (Michael W. Deem and Ramdas Pophale) SiO2 
 PCOD9360512
Probable space group: A B M 2
;
_chemical_formula_sum "Si O2"
_cell_formula_units_Z 56
_cell_length_a 6.219260
_cell_length_b 20.935488
_cell_length_c 23.087331
_cell_angle_alpha 90.000000
_cell_angle_beta 90.000000
_cell_angle_gamma 90.000000
_cell_volume 3006.045371
_symmetry_space_group_name_H-M "A B M 2"
_symmetry_group_IT_number 39
_symmetry_cell_setting 'orthorhombic'
loop_
_space_group_symop_operation_xyz
x,y,z
-x,-y,z
-x,1/2+y,z
x,1/2-y,z
x,1/2+y,1/2+z
-x,1/2-y,1/2+z
-x,y,1/2+z
x,-y,1/2+z
loop_
_atom_site_type_symbol
_atom_site_label
_atom_site_fract_x
_atom_site_fract_y
_atom_site_fract_z
Si Si1 0.889549 0.677750 0.686040
Si Si2 0.730944 0.909537 0.210494
Si Si3 0.441666 0.675703 0.288809
Si Si4 0.618435 0.592247 0.614467
Si Si5 0.652345 0.936323 0.872858
Si Si6 0.000000 0.000000 0.793765
Si Si7 0.643202 0.064272 0.506945
Si Si8 0.000000 0.500000 0.576412
O O1 0.964853 0.750000 0.679697
O O2 0.772514 0.670922 0.748543
O O3 0.715448 0.657851 0.638413
O O4 0.072850 0.625422 0.679704
O O5 0.628060 0.853685 0.249239
O O6 0.553031 0.929099 0.163530
O O7 0.829245 0.964248 0.251790
O O8 0.473429 0.750000 0.303100
O O9 0.434729 0.626807 0.341712
O O10 0.496190 0.603265 0.553783
O O11 0.809184 0.539372 0.608223
O O12 0.500000 0.000000 0.868357
O O13 0.679114 0.918865 0.940240
O O14 0.866356 0.954334 0.836744
O O15 0.500000 0.000000 0.504360
O O16 0.871005 0.049426 0.536241
#
# Coordination Sequence:
#
# PCOD9360512 Si02
#       8
#     8   8   8   8   8   4   8   4
#     4  10  21  38  57  81 118 160 200 245 301 367
#     4  11  22  37  59  89 124 156 196 253 305 370
#     4  10  21  39  59  85 121 162 201 242 303 370
#     4  10  22  38  57  88 115 157 197 246 300 362
#     4  11  21  40  60  90 122 158 203 255 307 364
#     4  12  23  35  58  94 126 160 194 258 316 366
#     4   9  20  36  59  83 118 157 200 246 299 359
#     4  10  19  39  56  86 118 156 192 240 304 364
#
# _framework density 18.629127
#
# number of rings (size 3 to 8) (size 9 to 14) (size 15 to 20)
#    0.000    1.714    2.857    1.714    0.000    5.143 
#    2.571    0.714    0.000    0.857    0.000    0.000 
#    0.000    0.000    0.000    0.000    0.000    0.000 
#
# Total GULP energy -156091.964257 kJ/mol
# GULP energy per Si atom -5574.713009 kJ/mol
# Density = 1.858673 g / cm^3
# Si number density = 18.629127 Si / 1000 Ang^3
#
#
#
# Elastic Constant Matrix: (Units=GPa)
#
#
# Indices 1 2 3 4 5 6 
#
# 1 87.9420 26.4517 53.9693 0.0000 0.0000 0.0000
# 2 26.4517 84.9588 57.2131 0.0000 0.0000 0.0000
# 3 53.9693 57.2131 141.6687 0.0000 0.0000 0.0000
# 4 0.0000 0.0000 0.0000 2.7752 0.0000 0.0000
# 5 0.0000 0.0000 0.0000 0.0000 7.8919 0.0000
# 6 0.0000 0.0000 0.0000 0.0000 0.0000 19.5902
#
#
#
# Elastic Compliance Matrix: (Units=1/GPa)
#
#
# Indices 1 2 3 4 5 6 
#
# 1 0.014918 -0.001123 -0.005230 0.000000 0.000000 0.000000
# 2 -0.001123 0.016252 -0.006136 0.000000 0.000000 0.000000
# 3 -0.005230 -0.006136 0.011529 0.000000 0.000000 0.000000
# 4 0.000000 0.000000 0.000000 0.360333 0.000000 0.000000
# 5 0.000000 0.000000 0.000000 0.000000 0.126713 0.000000
# 6 0.000000 0.000000 0.000000 0.000000 0.000000 0.051046
#
#
# Mechanical properties :
#
#
# Convention : Reuss Voigt Hill
#
# Bulk Modulus (GPa) = 56.42512 65.53753 60.98133
# Shear Modulus (GPa) = 8.17428 17.84714 13.01071
#
# Velocity S-wave (km/s) = 2.09700 3.09855 2.64561
# Velocity P-wave (km/s) = 6.01811 6.93238 6.49136
#
# Compressibility (1/GPa) = 0.01772260
#
# Stress axis : x y z
#
# Youngs Moduli (GPa) = 67.03165 61.53146 86.73907
#
# Poissons Ratio (x) = 0.06910 0.45362
# Poissons Ratio (y) = 0.07528 0.53219
# Poissons Ratio (z) = 0.35055 0.37753
#
# Static dielectric constant tensor:
#      x y z
#    x 1.701410 0.000000 0.000000 
#    y 0.000000 1.630480 0.000000 
#    z 0.000000 0.000000 1.669680 
# 
# From -- ./inp_files/15319.got.cif
#   From: 2010.05.17/outbox.cif.g08.bks.cpg/sg39_8_cif.got.tgz:15319.got - 2010.06.03 18:22:40.
