data_PCOD9360167
_publ_section_title
;
Structure prediction by ZEFSAII (Michael W. Deem and Ramdas Pophale) SiO2 
 PCOD9360167
Probable space group: A B M 2
;
_chemical_formula_sum "Si O2"
_cell_formula_units_Z 56
_cell_length_a 9.960837
_cell_length_b 17.700615
_cell_length_c 18.391161
_cell_angle_alpha 90.000000
_cell_angle_beta 90.000000
_cell_angle_gamma 90.000000
_cell_volume 3242.599681
_symmetry_space_group_name_H-M "A B M 2"
_symmetry_group_IT_number 39
_symmetry_cell_setting 'orthorhombic'
loop_
_space_group_symop_operation_xyz
x,y,z
-x,-y,z
-x,1/2+y,z
x,1/2-y,z
x,1/2+y,1/2+z
-x,1/2-y,1/2+z
-x,y,1/2+z
x,-y,1/2+z
loop_
_atom_site_type_symbol
_atom_site_label
_atom_site_fract_x
_atom_site_fract_y
_atom_site_fract_z
Si Si1 0.895828 0.340633 0.575890
Si Si2 0.149428 0.032638 0.787390
Si Si3 0.549071 0.334963 0.131553
Si Si4 0.853756 0.536823 0.951917
Si Si5 0.372779 0.458236 0.534588
Si Si6 0.858783 0.833904 0.675865
Si Si7 0.309265 0.935063 0.672505
O O1 0.876965 0.250000 0.567323
O O2 0.862471 0.389106 0.503570
O O3 0.799096 0.377650 0.637127
O O4 0.047781 0.353972 0.606306
O O5 0.192404 0.051485 0.869428
O O6 0.128588 0.106079 0.738643
O O7 0.248167 0.975716 0.743337
O O8 0.000000 0.000000 0.792099
O O9 0.495749 0.250000 0.126022
O O10 0.573125 0.375774 0.054268
O O11 0.700613 0.331732 0.160225
O O12 0.447000 0.387146 0.177530
O O13 0.000000 0.500000 0.951512
O O14 0.755049 0.474461 0.986401
O O15 0.500000 0.500000 0.500725
O O16 0.338621 0.500255 0.611633
O O17 0.903698 0.750000 0.697782
#
# Coordination Sequence:
#
# PCOD9360167 Si02
#       7
#     8   8   8   8   8   8   8
#     4  10  20  35  59  83 108 146 186 233 280 332
#     4  11  21  36  55  83 115 151 185 236 283 340
#     4  10  19  32  54  83 110 138 184 233 275 322
#     4  10  22  35  55  81 113 147 186 226 288 346
#     4   9  18  34  53  80 105 141 184 230 272 324
#     4  10  20  33  54  83 110 143 186 234 283 326
#     4  10  19  33  58  80 108 143 186 231 272 329
#
# _framework density 17.270092999999999
#
# number of rings (size 3 to 8) (size 9 to 14) (size 15 to 20)
#    0.000    2.000    2.857    1.286    2.000    0.571 
#    2.571    0.000    0.000    2.571    0.000    0.000 
#    0.000    0.000    0.000    0.000    0.000    0.000 
#
# Total GULP energy -155898.163014 kJ/mol
# GULP energy per Si atom -5567.791536 kJ/mol
# Density = 1.723079 g / cm^3
# Si number density = 17.270093 Si / 1000 Ang^3
#
#
#
# Elastic Constant Matrix: (Units=GPa)
#
#
# Indices 1 2 3 4 5 6 
#
# 1 89.3139 16.6006 32.2593 0.0000 0.0000 0.0000
# 2 16.6006 94.0764 47.7062 0.0000 0.0000 0.0000
# 3 32.2593 47.7062 97.5015 0.0000 0.0000 0.0000
# 4 0.0000 0.0000 0.0000 -8.7197 0.0000 0.0000
# 5 0.0000 0.0000 0.0000 0.0000 -10.4178 0.0000
# 6 0.0000 0.0000 0.0000 0.0000 0.0000 24.7094
#
#
#
# Elastic Compliance Matrix: (Units=1/GPa)
#
#
# Indices 1 2 3 4 5 6 
#
# 1 0.012718 -0.000147 -0.004136 0.000000 0.000000 0.000000
# 2 -0.000147 0.014139 -0.006870 0.000000 0.000000 0.000000
# 3 -0.004136 -0.006870 0.014986 0.000000 0.000000 0.000000
# 4 0.000000 0.000000 0.000000 -0.114683 0.000000 0.000000
# 5 0.000000 0.000000 0.000000 0.000000 -0.095990 0.000000
# 6 0.000000 0.000000 0.000000 0.000000 0.000000 0.040470
#
#
# Mechanical properties :
#
#
# Convention : Reuss Voigt Hill
#
# Bulk Modulus (GPa) = 51.18212 52.66934 51.92573
# Shear Modulus (GPa) = -50.22958 13.40277 -18.41340
#
# Velocity S-wave (km/s) = -5.39888 2.78882 -3.26882
# Velocity P-wave (km/s) = 3.02708 6.39794 3.98563
#
# Compressibility (1/GPa) = 0.01953807
#
# Stress axis : x y z
#
# Youngs Moduli (GPa) = 78.63118 70.72592 66.72977
#
# Poissons Ratio (x) = 0.01038 0.27599
# Poissons Ratio (y) = 0.01154 0.45840
# Poissons Ratio (z) = 0.32521 0.48585
#
# Static dielectric constant tensor:
#      x y z
#    x 1.638290 0.000000 0.000000 
#    y 0.000000 1.622690 0.000000 
#    z 0.000000 0.000000 1.580300 
# 
# From -- ./inp_files/14139.got.cif
#   From: 2010.05.17/outbox.cif.g08.bks.cpg/sg39_8_cif.got.tgz:14139.got - 2010.06.03 18:22:40.
