data_PCOD9360009
_publ_section_title
;
Structure prediction by ZEFSAII (Michael W. Deem and Ramdas Pophale) SiO2 
 PCOD9360009
Probable space group: A B M 2
;
_chemical_formula_sum "Si O2"
_cell_formula_units_Z 32
_cell_length_a 10.383236
_cell_length_b 9.775616
_cell_length_c 14.213402
_cell_angle_alpha 90.000000
_cell_angle_beta 90.000000
_cell_angle_gamma 90.000000
_cell_volume 1442.696234
_symmetry_space_group_name_H-M "A B M 2"
_symmetry_group_IT_number 39
_symmetry_cell_setting 'orthorhombic'
loop_
_space_group_symop_operation_xyz
x,y,z
-x,-y,z
-x,1/2+y,z
x,1/2-y,z
x,1/2+y,1/2+z
-x,1/2-y,1/2+z
-x,y,1/2+z
x,-y,1/2+z
loop_
_atom_site_type_symbol
_atom_site_label
_atom_site_fract_x
_atom_site_fract_y
_atom_site_fract_z
Si Si1 0.000000 0.500000 0.782290
Si Si2 0.577940 0.750000 0.746783
Si Si3 0.311349 0.250000 0.151034
Si Si4 0.698812 0.750000 0.942432
Si Si5 0.139014 0.525455 0.959579
Si Si6 0.221786 0.445846 0.654880
O O1 0.904532 0.586582 0.716700
O O2 0.907205 0.419628 0.857655
O O3 0.429605 0.750000 0.721509
O O4 0.600493 0.750000 0.857585
O O5 0.654245 0.621388 0.702601
O O6 0.231851 0.110568 0.158382
O O7 0.366116 0.250000 0.044414
O O8 0.788234 0.615765 0.936978
O O9 0.214965 0.594893 0.044772
O O10 0.000000 0.500000 0.007036
#
# Coordination Sequence:
#
# PCOD9360009 Si02
#       6
#     4   4   4   4   8   8
#     4  10  18  38  60  96 122 162 190 254 310 378
#     4  12  22  44  67  87 116 172 211 245 298 365
#     4  10  26  44  59  89 128 160 207 257 296 353
#     4  10  20  40  62  82 124 162 200 250 308 356
#     4   9  19  35  56  89 123 152 192 247 306 358
#     4  11  22  40  64  92 123 160 203 252 305 363
#
# _framework density 22.180689000000001
#
# number of rings (size 3 to 8) (size 9 to 14) (size 15 to 20)
#    0.750    1.000    3.750    0.750    0.000    3.000 
#    4.500    2.500    0.000    0.000    0.000    0.000 
#    0.000    0.000    0.000    0.000    0.000    0.000 
#
# Total GULP energy -89136.536304 kJ/mol
# GULP energy per Si atom -5571.033519 kJ/mol
# Density = 2.213021 g / cm^3
# Si number density = 22.180689 Si / 1000 Ang^3
#
#
#
# Elastic Constant Matrix: (Units=GPa)
#
#
# Indices 1 2 3 4 5 6 
#
# 1 63.4944 10.5740 32.7986 0.0000 0.0000 0.0000
# 2 10.5740 107.9083 21.2081 0.0000 0.0000 0.0000
# 3 32.7986 21.2081 171.4957 0.0000 0.0000 0.0000
# 4 0.0000 0.0000 0.0000 -27.3763 0.0000 0.0000
# 5 0.0000 0.0000 0.0000 0.0000 2.4712 0.0000
# 6 0.0000 0.0000 0.0000 0.0000 0.0000 68.6540
#
#
#
# Elastic Compliance Matrix: (Units=1/GPa)
#
#
# Indices 1 2 3 4 5 6 
#
# 1 0.017600 -0.001090 -0.003231 0.000000 0.000000 0.000000
# 2 -0.001090 0.009565 -0.000975 0.000000 0.000000 0.000000
# 3 -0.003231 -0.000975 0.006570 0.000000 0.000000 0.000000
# 4 0.000000 0.000000 0.000000 -0.036528 0.000000 0.000000
# 5 0.000000 0.000000 0.000000 0.000000 0.404665 0.000000
# 6 0.000000 0.000000 0.000000 0.000000 0.000000 0.014566
#
#
# Mechanical properties :
#
#
# Convention : Reuss Voigt Hill
#
# Bulk Modulus (GPa) = 43.20725 52.45108 47.82917
# Shear Modulus (GPa) = 11.50105 27.30427 19.40266
#
# Velocity S-wave (km/s) = 2.27957 3.51236 2.96083
# Velocity P-wave (km/s) = 5.14301 6.33620 5.77052
#
# Compressibility (1/GPa) = 0.02314426
#
# Stress axis : x y z
#
# Youngs Moduli (GPa) = 56.81812 104.54312 152.21746
#
# Poissons Ratio (x) = 0.11391 0.49186
# Poissons Ratio (y) = 0.06191 0.14834
# Poissons Ratio (z) = 0.18359 0.10188
#
# Static dielectric constant tensor:
#      x y z
#    x 1.776830 0.000000 0.000000 
#    y 0.000000 1.884170 0.000000 
#    z 0.000000 0.000000 1.849470 
# 
# From -- ./inp_files/8991.got.cif
#   From: 2010.05.17/outbox.cif.g08.bks.cpg/sg39_5_cif.got.tgz:8991.got - 2010.06.03 18:22:40.
