data_PCOD9360039
_publ_section_title
;
Structure prediction by ZEFSAII (Michael W. Deem and Ramdas Pophale) SiO2 
 PCOD9360039
Probable space group: A B M 2
;
_chemical_formula_sum "Si O2"
_cell_formula_units_Z 64
_cell_length_a 14.641061
_cell_length_b 8.782687
_cell_length_c 31.963117
_cell_angle_alpha 90.000000
_cell_angle_beta 90.000000
_cell_angle_gamma 90.000000
_cell_volume 4110.068690
_symmetry_space_group_name_H-M "A B M 2"
_symmetry_group_IT_number 39
_symmetry_cell_setting 'orthorhombic'
loop_
_space_group_symop_operation_xyz
x,y,z
-x,-y,z
-x,1/2+y,z
x,1/2-y,z
x,1/2+y,1/2+z
-x,1/2-y,1/2+z
-x,y,1/2+z
x,-y,1/2+z
loop_
_atom_site_type_symbol
_atom_site_label
_atom_site_fract_x
_atom_site_fract_y
_atom_site_fract_z
Si Si1 0.897874 0.568027 0.050580
Si Si2 0.897590 0.567493 0.957260
Si Si3 0.217731 0.067509 0.381591
Si Si4 0.897680 0.567350 0.636023
Si Si5 0.791682 0.565992 0.720124
Si Si6 0.101034 0.432374 0.299092
Si Si7 0.403219 0.567338 0.251439
Si Si8 0.597769 0.432568 0.349512
O O1 0.901713 0.750000 0.055358
O O2 0.856813 0.495207 0.092411
O O3 0.000000 0.500000 0.049599
O O4 0.860838 0.533237 0.004237
O O5 0.903422 0.750000 0.953070
O O6 0.833655 0.498700 0.921755
O O7 0.000000 0.500000 0.953369
O O8 0.221817 0.250000 0.384135
O O9 0.159281 0.026076 0.340205
O O10 0.318326 0.999854 0.375307
O O11 0.904584 0.750000 0.633837
O O12 0.836786 0.524403 0.675951
O O13 0.000000 0.500000 0.641128
O O14 0.795148 0.750000 0.723783
O O15 0.849386 0.496351 0.758050
O O16 0.686175 0.518662 0.725864
O O17 0.095981 0.250000 0.296606
O O18 0.000000 0.500000 0.302293
O O19 0.500000 0.500000 0.237608
O O20 0.409284 0.750000 0.249767
O O21 0.389016 0.524712 0.300358
O O22 0.500000 0.500000 0.362355
O O23 0.596739 0.250000 0.352241
#
# Coordination Sequence:
#
# PCOD9360039 Si02
#       8
#     8   8   8   8   8   8   8   8
#     4   9  17  30  48  69  94 123 159 199 242 287
#     4  10  20  33  50  72  98 130 164 202 245 291
#     4  11  22  34  49  72  98 129 167 202 241 293
#     4  10  19  30  47  69  96 127 161 198 238 285
#     4  10  20  34  49  69  96 128 163 198 240 286
#     4  11  23  34  46  65  94 131 167 198 232 278
#     4   9  18  32  50  70  93 123 158 201 244 283
#     4  10  19  33  53  72  96 127 161 206 249 289
#
# _framework density 15.571517
#
# number of rings (size 3 to 8) (size 9 to 14) (size 15 to 20)
#    0.000    2.000    1.250    3.750    0.000    7.000 
#    0.000    0.000    0.000    0.000    0.000    0.875 
#    0.000    4.000    0.000    0.000    0.000    0.000 
#
# Total GULP energy -178522.021711 kJ/mol
# GULP energy per Si atom -5578.813178 kJ/mol
# Density = 1.553608 g / cm^3
# Si number density = 15.571517 Si / 1000 Ang^3
#
#
#
# Elastic Constant Matrix: (Units=GPa)
#
#
# Indices 1 2 3 4 5 6 
#
# 1 124.6059 39.7764 75.4163 0.0000 0.0000 0.0000
# 2 39.7764 45.6258 52.7677 0.0000 0.0000 0.0000
# 3 75.4163 52.7677 146.4585 0.0000 0.0000 0.0000
# 4 0.0000 0.0000 0.0000 23.4544 0.0000 0.0000
# 5 0.0000 0.0000 0.0000 0.0000 7.0325 0.0000
# 6 0.0000 0.0000 0.0000 0.0000 0.0000 25.3712
#
#
#
# Elastic Compliance Matrix: (Units=1/GPa)
#
#
# Indices 1 2 3 4 5 6 
#
# 1 0.012531 -0.005935 -0.004314 0.000000 0.000000 0.000000
# 2 -0.005935 0.040385 -0.011494 0.000000 0.000000 0.000000
# 3 -0.004314 -0.011494 0.013191 0.000000 0.000000 0.000000
# 4 0.000000 0.000000 0.000000 0.042636 0.000000 0.000000
# 5 0.000000 0.000000 0.000000 0.000000 0.142196 0.000000
# 6 0.000000 0.000000 0.000000 0.000000 0.000000 0.039415
#
#
# Mechanical properties :
#
#
# Convention : Reuss Voigt Hill
#
# Bulk Modulus (GPa) = 44.20913 72.51232 58.36072
# Shear Modulus (GPa) = 14.64640 21.08693 17.86666
#
# Velocity S-wave (km/s) = 3.07023 3.68394 3.39100
# Velocity P-wave (km/s) = 6.40477 8.04758 7.27271
#
# Compressibility (1/GPa) = 0.02261976
#
# Stress axis : x y z
#
# Youngs Moduli (GPa) = 79.80196 24.76175 75.81036
#
# Poissons Ratio (x) = 0.14695 0.32708
# Poissons Ratio (y) = 0.47360 0.87139
# Poissons Ratio (z) = 0.34430 0.28462
#
# Static dielectric constant tensor:
#      x y z
#    x 1.493530 0.000000 0.000000 
#    y 0.000000 1.522630 0.000000 
#    z 0.000000 0.000000 1.529970 
# 
# From -- ./inp_files/17955.got.cif
#   From: 2010.05.17/outbox.cif.g08.bks.cpg/sg39_9_cif.got.tgz:17955.got - 2010.06.03 18:22:40.
