data_PCOD9360683
_publ_section_title
;
Structure prediction by ZEFSAII (Michael W. Deem and Ramdas Pophale) SiO2 
 PCOD9360683
Probable space group: A B M 2
;
_chemical_formula_sum "Si O2"
_cell_formula_units_Z 44
_cell_length_a 23.404918
_cell_length_b 9.448703
_cell_length_c 9.396283
_cell_angle_alpha 90.000000
_cell_angle_beta 90.000000
_cell_angle_gamma 90.000000
_cell_volume 2077.951518
_symmetry_space_group_name_H-M "A B M 2"
_symmetry_group_IT_number 39
_symmetry_cell_setting 'orthorhombic'
loop_
_space_group_symop_operation_xyz
x,y,z
-x,-y,z
-x,1/2+y,z
x,1/2-y,z
x,1/2+y,1/2+z
-x,1/2-y,1/2+z
-x,y,1/2+z
x,-y,1/2+z
loop_
_atom_site_type_symbol
_atom_site_label
_atom_site_fract_x
_atom_site_fract_y
_atom_site_fract_z
Si Si1 0.055077 0.585482 0.291740
Si Si2 0.126335 0.585566 0.012886
Si Si3 0.688796 0.916353 0.678584
Si Si4 0.241904 0.914501 0.458753
Si Si5 0.422122 0.405962 0.831114
Si Si6 0.500000 0.500000 0.588785
O O1 0.041238 0.750000 0.322818
O O2 0.105275 0.584185 0.175144
O O3 0.078727 0.499767 0.425563
O O4 0.000000 0.500000 0.237732
O O5 0.130294 0.750000 0.967321
O O6 0.185587 0.505163 0.988888
O O7 0.679552 0.750000 0.636993
O O8 0.632498 0.976704 0.757708
O O9 0.707507 0.013007 0.548518
O O10 0.739467 0.918577 0.794371
O O11 0.233870 0.750000 0.498864
O O12 0.401229 0.250000 0.867741
O O13 0.469494 0.399631 0.705087
O O14 0.450414 0.461388 0.975708
#
# Coordination Sequence:
#
# PCOD9360683 Si02
#       6
#     8   8   8   8   8   4
#     4  11  24  41  62  90 122 157 198 243 291 346
#     4  11  24  41  63  90 121 158 199 244 295 350
#     4  10  22  39  58  83 117 153 192 240 293 350
#     4  11  23  39  60  87 117 152 196 244 293 349
#     4  10  20  36  56  80 112 148 187 235 288 344
#     4  10  20  34  56  84 110 144 190 234 286 346
#
# _framework density 21.174700999999999
#
# number of rings (size 3 to 8) (size 9 to 14) (size 15 to 20)
#    0.000    1.455    0.000    4.909    0.000   10.182 
#    0.000    4.545    0.000    0.000    0.000    0.000 
#    0.000    0.000    0.000    0.000    0.000    0.000 
#
# Total GULP energy -122753.067572 kJ/mol
# GULP energy per Si atom -5579.684890 kJ/mol
# Density = 2.112651 g / cm^3
# Si number density = 21.174701 Si / 1000 Ang^3
#
#
#
# Elastic Constant Matrix: (Units=GPa)
#
#
# Indices 1 2 3 4 5 6 
#
# 1 67.6802 15.9453 -4.2826 0.0000 0.0000 0.0000
# 2 15.9453 122.1505 30.4482 0.0000 0.0000 0.0000
# 3 -4.2826 30.4482 83.8425 0.0000 0.0000 0.0000
# 4 0.0000 0.0000 0.0000 18.1417 0.0000 0.0000
# 5 0.0000 0.0000 0.0000 0.0000 37.3018 0.0000
# 6 0.0000 0.0000 0.0000 0.0000 0.0000 23.0027
#
#
#
# Elastic Compliance Matrix: (Units=1/GPa)
#
#
# Indices 1 2 3 4 5 6 
#
# 1 0.015455 -0.002435 0.001674 0.000000 0.000000 0.000000
# 2 -0.002435 0.009385 -0.003533 0.000000 0.000000 0.000000
# 3 0.001674 -0.003533 0.013296 0.000000 0.000000 0.000000
# 4 0.000000 0.000000 0.000000 0.055122 0.000000 0.000000
# 5 0.000000 0.000000 0.000000 0.000000 0.026808 0.000000
# 6 0.000000 0.000000 0.000000 0.000000 0.000000 0.043473
#
#
# Mechanical properties :
#
#
# Convention : Reuss Voigt Hill
#
# Bulk Modulus (GPa) = 33.84318 39.76612 36.80465
# Shear Modulus (GPa) = 27.47629 31.12674 29.30152
#
# Velocity S-wave (km/s) = 3.60613 3.83821 3.72398
# Velocity P-wave (km/s) = 5.77550 6.20188 5.99248
#
# Compressibility (1/GPa) = 0.02954805
#
# Stress axis : x y z
#
# Youngs Moduli (GPa) = 64.70462 106.55310 75.21341
#
# Poissons Ratio (x) = 0.25942 -0.12587
# Poissons Ratio (y) = 0.15753 0.26570
# Poissons Ratio (z) = -0.10829 0.37641
#
# Static dielectric constant tensor:
#      x y z
#    x 1.817350 0.000000 0.000000 
#    y 0.000000 1.763780 0.000000 
#    z 0.000000 0.000000 1.751840 
# 
# From -- ./inp_files/7043.got.cif
#   From: 2010.05.17/outbox.cif.g08.bks.cpg/sg39_4_cif.got.tgz:7043.got - 2010.06.03 18:22:40.
