data_PCOD9360383
_publ_section_title
;
Structure prediction by ZEFSAII (Michael W. Deem and Ramdas Pophale) SiO2 
 PCOD9360383
Probable space group: A B M 2
;
_chemical_formula_sum "Si O2"
_cell_formula_units_Z 64
_cell_length_a 19.160460
_cell_length_b 14.148020
_cell_length_c 9.774817
_cell_angle_alpha 90.000000
_cell_angle_beta 90.000000
_cell_angle_gamma 90.000000
_cell_volume 2649.782526
_symmetry_space_group_name_H-M "A B M 2"
_symmetry_group_IT_number 39
_symmetry_cell_setting 'orthorhombic'
loop_
_space_group_symop_operation_xyz
x,y,z
-x,-y,z
-x,1/2+y,z
x,1/2-y,z
x,1/2+y,1/2+z
-x,1/2-y,1/2+z
-x,y,1/2+z
x,-y,1/2+z
loop_
_atom_site_type_symbol
_atom_site_label
_atom_site_fract_x
_atom_site_fract_y
_atom_site_fract_z
Si Si1 0.744308 0.634324 0.248510
Si Si2 0.582918 0.134575 0.721845
Si Si3 0.209116 0.357522 0.964797
Si Si4 0.220481 0.636749 0.038433
Si Si5 0.053594 0.398850 0.920482
Si Si6 0.675111 0.634624 0.752966
Si Si7 0.065791 0.588839 0.101598
Si Si8 0.460753 0.134249 0.917004
O O1 0.747196 0.750000 0.252792
O O2 0.663240 0.607360 0.242223
O O3 0.782283 0.600455 0.384314
O O4 0.782313 0.597899 0.113479
O O5 0.581964 0.250000 0.719501
O O6 0.533222 0.105408 0.846918
O O7 0.554527 0.103529 0.572632
O O8 0.234850 0.250000 0.980479
O O9 0.263589 0.396074 0.856257
O O10 0.129226 0.352383 0.923845
O O11 0.227336 0.750000 0.035970
O O12 0.292238 0.603205 0.109250
O O13 0.146063 0.619977 0.107689
O O14 0.067698 0.491831 0.013934
O O15 0.988683 0.354364 0.004076
O O16 0.038886 0.413105 0.758678
O O17 0.671006 0.750000 0.747735
O O18 0.601360 0.604609 0.813867
O O19 0.460363 0.250000 0.921155
#
# Coordination Sequence:
#
# PCOD9360383 Si02
#       8
#     8   8   8   8   8   8   8   8
#     4   9  18  30  47  73 106 140 176 220 265 309
#     4   9  16  25  37  61  97 140 179 210 254 310
#     4  10  19  35  57  78 104 141 178 216 265 314
#     4  10  21  35  55  80 108 139 177 223 266 312
#     4  11  24  40  60  79 107 140 172 216 263 317
#     4   9  16  30  47  69 101 137 174 215 263 309
#     4  11  24  41  59  80 107 139 174 214 264 317
#     4   9  16  24  38  60  96 140 178 212 254 312
#
# _framework density 24.152926000000001
#
# number of rings (size 3 to 8) (size 9 to 14) (size 15 to 20)
#    0.000    2.250    2.500    1.500    5.250    0.500 
#    0.000    0.000    0.000    0.000    0.000    0.000 
#    0.000    6.000    0.000    0.000    0.000    0.000 
#
# Total GULP energy -178602.573271 kJ/mol
# GULP energy per Si atom -5581.330415 kJ/mol
# Density = 2.409795 g / cm^3
# Si number density = 24.152926 Si / 1000 Ang^3
#
#
#
# Elastic Constant Matrix: (Units=GPa)
#
#
# Indices 1 2 3 4 5 6 
#
# 1 113.8522 -12.2076 34.9687 0.0000 0.0000 0.0000
# 2 -12.2076 58.2501 -12.7941 0.0000 0.0000 0.0000
# 3 34.9687 -12.7941 146.6872 0.0000 0.0000 0.0000
# 4 0.0000 0.0000 0.0000 2.3355 0.0000 0.0000
# 5 0.0000 0.0000 0.0000 0.0000 49.2835 0.0000
# 6 0.0000 0.0000 0.0000 0.0000 0.0000 24.7884
#
#
#
# Elastic Compliance Matrix: (Units=1/GPa)
#
#
# Indices 1 2 3 4 5 6 
#
# 1 0.009611 0.001540 -0.002157 0.000000 0.000000 0.000000
# 2 0.001540 0.017750 0.001181 0.000000 0.000000 0.000000
# 3 -0.002157 0.001181 0.007434 0.000000 0.000000 0.000000
# 4 0.000000 0.000000 0.000000 0.428181 0.000000 0.000000
# 5 0.000000 0.000000 0.000000 0.000000 0.020291 0.000000
# 6 0.000000 0.000000 0.000000 0.000000 0.000000 0.040341
#
#
# Mechanical properties :
#
#
# Convention : Reuss Voigt Hill
#
# Bulk Modulus (GPa) = 27.83652 37.63594 32.73623
# Shear Modulus (GPa) = 9.35534 35.86966 22.61250
#
# Velocity S-wave (km/s) = 1.97023 3.85789 3.06309
# Velocity P-wave (km/s) = 4.08972 5.95488 5.10815
#
# Compressibility (1/GPa) = 0.03592403
#
# Stress axis : x y z
#
# Youngs Moduli (GPa) = 104.04824 56.33938 134.51024
#
# Poissons Ratio (x) = -0.08679 0.29011
# Poissons Ratio (y) = -0.16028 -0.15884
# Poissons Ratio (z) = 0.22441 -0.06653
#
# Static dielectric constant tensor:
#      x y z
#    x 1.873570 0.000000 0.000000 
#    y 0.000000 2.045370 0.000000 
#    z 0.000000 0.000000 1.936690 
# 
# From -- ./inp_files/3853.got.cif
#   From: 2010.05.17/outbox.cif.g08.bks.cpg/sg39_2_cif.got.tgz:3853.got - 2010.06.03 18:22:40.
