data_PCOD9360396
_publ_section_title
;
Structure prediction by ZEFSAII (Michael W. Deem and Ramdas Pophale) SiO2 
 PCOD9360396
Probable space group: A B M 2
;
_chemical_formula_sum "Si O2"
_cell_formula_units_Z 60
_cell_length_a 16.953167
_cell_length_b 15.291172
_cell_length_c 9.866701
_cell_angle_alpha 90.000000
_cell_angle_beta 90.000000
_cell_angle_gamma 90.000000
_cell_volume 2557.782320
_symmetry_space_group_name_H-M "A B M 2"
_symmetry_group_IT_number 39
_symmetry_cell_setting 'orthorhombic'
loop_
_space_group_symop_operation_xyz
x,y,z
-x,-y,z
-x,1/2+y,z
x,1/2-y,z
x,1/2+y,1/2+z
-x,1/2-y,1/2+z
-x,y,1/2+z
x,-y,1/2+z
loop_
_atom_site_type_symbol
_atom_site_label
_atom_site_fract_x
_atom_site_fract_y
_atom_site_fract_z
Si Si1 0.067282 0.071855 0.773870
Si Si2 0.753492 0.345008 0.926939
Si Si3 0.604428 0.344350 0.725929
Si Si4 0.500000 0.500000 0.821611
Si Si5 0.152422 0.844906 0.667575
Si Si6 0.986896 0.845436 0.527476
Si Si7 0.373368 0.647554 0.411888
Si Si8 0.776037 0.038841 0.441593
O O1 0.149511 0.041769 0.839070
O O2 0.073440 0.094946 0.613605
O O3 0.030377 0.139175 0.884597
O O4 0.000000 0.000000 0.782488
O O5 0.753874 0.250000 0.999655
O O6 0.677410 0.344021 0.828308
O O7 0.828567 0.348194 0.825565
O O8 0.749984 0.441735 0.985960
O O9 0.561342 0.250000 0.749777
O O10 0.557104 0.434033 0.742594
O O11 0.632531 0.342755 0.572905
O O12 0.556003 0.575779 0.889768
O O13 0.181427 0.750000 0.619203
O O14 0.061033 0.849025 0.631237
O O15 0.196066 0.915639 0.579278
O O16 0.951294 0.750000 0.525944
O O17 0.380882 0.750000 0.359845
O O18 0.293465 0.596042 0.372593
#
# Coordination Sequence:
#
# PCOD9360396 Si02
#       8
#     8   8   8   4   8   8   8   8
#     4  11  23  39  61  92 128 168 215 269 327 391
#     4  10  19  35  59  85 113 153 203 253 303 369
#     4  10  21  38  60  87 121 161 203 246 308 388
#     4  12  22  40  62  94 126 160 200 262 322 368
#     4   9  18  35  61  85 114 160 210 248 304 388
#     4  10  21  38  60  89 123 164 209 262 322 388
#     4  11  23  40  64  93 124 162 210 258 314 385
#     4  11  21  37  63  90 119 161 214 267 312 373
#
# _framework density 23.457820999999999
#
# number of rings (size 3 to 8) (size 9 to 14) (size 15 to 20)
#    0.000    1.600    2.667    2.800    0.000    2.667 
#    0.000    0.667    0.000    4.000    0.000    0.933 
#    0.000    0.000    0.000    0.000    0.000    0.000 
#
# Total GULP energy -167207.783363 kJ/mol
# GULP energy per Si atom -5573.592779 kJ/mol
# Density = 2.340443 g / cm^3
# Si number density = 23.457821 Si / 1000 Ang^3
#
#
#
# Elastic Constant Matrix: (Units=GPa)
#
#
# Indices 1 2 3 4 5 6 
#
# 1 88.8337 50.2169 20.2402 0.0000 0.0000 0.0000
# 2 50.2169 200.7578 17.5893 0.0000 0.0000 0.0000
# 3 20.2402 17.5893 35.6053 0.0000 0.0000 0.0000
# 4 0.0000 0.0000 0.0000 43.4635 0.0000 0.0000
# 5 0.0000 0.0000 0.0000 0.0000 19.9605 0.0000
# 6 0.0000 0.0000 0.0000 0.0000 0.0000 53.4548
#
#
#
# Elastic Compliance Matrix: (Units=1/GPa)
#
#
# Indices 1 2 3 4 5 6 
#
# 1 0.014512 -0.003039 -0.006749 0.000000 0.000000 0.000000
# 2 -0.003039 0.005843 -0.001159 0.000000 0.000000 0.000000
# 3 -0.006749 -0.001159 0.032494 0.000000 0.000000 0.000000
# 4 0.000000 0.000000 0.000000 0.023008 0.000000 0.000000
# 5 0.000000 0.000000 0.000000 0.000000 0.050099 0.000000
# 6 0.000000 0.000000 0.000000 0.000000 0.000000 0.018707
#
#
# Mechanical properties :
#
#
# Convention : Reuss Voigt Hill
#
# Bulk Modulus (GPa) = 32.30273 55.69883 44.00078
# Shear Modulus (GPa) = 28.26850 39.18581 33.72716
#
# Velocity S-wave (km/s) = 3.47519 4.09158 3.79592
# Velocity P-wave (km/s) = 5.46837 6.79097 6.16524
#
# Compressibility (1/GPa) = 0.03095713
#
# Stress axis : x y z
#
# Youngs Moduli (GPa) = 68.90654 171.15123 30.77446
#
# Poissons Ratio (x) = 0.52010 0.20768
# Poissons Ratio (y) = 0.20939 0.03567
# Poissons Ratio (z) = 0.46502 0.19835
#
# Static dielectric constant tensor:
#      x y z
#    x 1.930980 0.000000 0.000000 
#    y 0.000000 1.969080 0.000000 
#    z 0.000000 0.000000 1.920420 
# 
# From -- ./inp_files/6863.got.cif
#   From: 2010.05.17/outbox.cif.g08.bks.cpg/sg39_4_cif.got.tgz:6863.got - 2010.06.03 18:22:40.
