data_PCOD9360448
_publ_section_title
;
Structure prediction by ZEFSAII (Michael W. Deem and Ramdas Pophale) SiO2 
 PCOD9360448
Probable space group: A B M 2
;
_chemical_formula_sum "Si O2"
_cell_formula_units_Z 64
_cell_length_a 12.586081
_cell_length_b 18.340171
_cell_length_c 13.994660
_cell_angle_alpha 90.000000
_cell_angle_beta 90.000000
_cell_angle_gamma 90.000000
_cell_volume 3230.399652
_symmetry_space_group_name_H-M "A B M 2"
_symmetry_group_IT_number 39
_symmetry_cell_setting 'orthorhombic'
loop_
_space_group_symop_operation_xyz
x,y,z
-x,-y,z
-x,1/2+y,z
x,1/2-y,z
x,1/2+y,1/2+z
-x,1/2-y,1/2+z
-x,y,1/2+z
x,-y,1/2+z
loop_
_atom_site_type_symbol
_atom_site_label
_atom_site_fract_x
_atom_site_fract_y
_atom_site_fract_z
Si Si1 0.922952 0.832610 0.076930
Si Si2 0.215926 0.919963 0.873382
Si Si3 0.684680 0.161435 0.566459
Si Si4 0.828740 0.929731 0.772045
Si Si5 0.094763 0.440508 0.556406
Si Si6 0.600394 0.662668 0.276026
Si Si7 0.635377 0.163460 0.352879
Si Si8 0.975855 0.332211 0.802885
O O1 0.915996 0.750000 0.043901
O O2 0.806476 0.866588 0.062826
O O3 0.948301 0.833850 0.189701
O O4 0.023483 0.870373 0.030507
O O5 0.329387 0.886188 0.847638
O O6 0.133296 0.855765 0.850405
O O7 0.188078 0.988047 0.805967
O O8 0.186669 0.948623 0.978567
O O9 0.688639 0.250000 0.570363
O O10 0.630039 0.140595 0.666797
O O11 0.630666 0.142480 0.465555
O O12 0.853025 0.931337 0.659651
O O13 0.727151 0.882382 0.801808
O O14 0.931335 0.890883 0.819578
O O15 0.000000 0.500000 0.560347
O O16 0.624131 0.750000 0.286456
O O17 0.477199 0.652689 0.301409
O O18 0.661093 0.250000 0.348692
O O19 0.009890 0.250000 0.825975
#
# Coordination Sequence:
#
# PCOD9360448 Si02
#       8
#     8   8   8   8   8   8   8   8
#     4   9  18  34  58  87 120 156 199 245 305 370
#     4  12  24  38  62  89 123 165 209 253 314 379
#     4   9  18  36  63  91 119 158 205 258 309 367
#     4  11  24  41  60  87 129 162 204 258 316 374
#     4  11  25  40  57  90 129 166 204 255 318 378
#     4  10  22  42  65  92 125 164 214 268 317 369
#     4  10  23  41  65  94 122 165 217 263 316 374
#     4  10  19  36  60  88 121 160 200 249 309 375
#
# _framework density 19.811790999999999
#
# number of rings (size 3 to 8) (size 9 to 14) (size 15 to 20)
#    0.000    1.750    1.250    3.375    3.500    3.000 
#    0.000    1.250    0.000    3.000    0.000    0.000 
#    0.000    0.000    0.000    0.000    0.000    0.000 
#
# Total GULP energy -178645.986371 kJ/mol
# GULP energy per Si atom -5582.687074 kJ/mol
# Density = 1.976670 g / cm^3
# Si number density = 19.811791 Si / 1000 Ang^3
#
#
#
# Elastic Constant Matrix: (Units=GPa)
#
#
# Indices 1 2 3 4 5 6 
#
# 1 68.9416 15.9865 51.0378 0.0000 0.0000 0.0000
# 2 15.9865 38.7487 12.0351 0.0000 0.0000 0.0000
# 3 51.0378 12.0351 121.7707 0.0000 0.0000 0.0000
# 4 0.0000 0.0000 0.0000 8.2435 0.0000 0.0000
# 5 0.0000 0.0000 0.0000 0.0000 21.7661 0.0000
# 6 0.0000 0.0000 0.0000 0.0000 0.0000 11.6443
#
#
#
# Elastic Compliance Matrix: (Units=1/GPa)
#
#
# Indices 1 2 3 4 5 6 
#
# 1 0.022542 -0.006567 -0.008799 0.000000 0.000000 0.000000
# 2 -0.006567 0.028538 -0.000068 0.000000 0.000000 0.000000
# 3 -0.008799 -0.000068 0.011907 0.000000 0.000000 0.000000
# 4 0.000000 0.000000 0.000000 0.121308 0.000000 0.000000
# 5 0.000000 0.000000 0.000000 0.000000 0.045943 0.000000
# 6 0.000000 0.000000 0.000000 0.000000 0.000000 0.085879
#
#
# Mechanical properties :
#
#
# Convention : Reuss Voigt Hill
#
# Bulk Modulus (GPa) = 31.13494 43.06442 37.09968
# Shear Modulus (GPa) = 13.97857 18.35754 16.16805
#
# Velocity S-wave (km/s) = 2.65913 3.04731 2.85981
# Velocity P-wave (km/s) = 5.01772 5.84512 5.44715
#
# Compressibility (1/GPa) = 0.03211826
#
# Stress axis : x y z
#
# Youngs Moduli (GPa) = 44.36222 35.04116 83.98593
#
# Poissons Ratio (x) = 0.23012 0.73898
# Poissons Ratio (y) = 0.29133 0.00571
# Poissons Ratio (z) = 0.39034 0.00238
#
# Static dielectric constant tensor:
#      x y z
#    x 1.656790 0.000000 0.000000 
#    y 0.000000 1.730290 0.000000 
#    z 0.000000 0.000000 1.755730 
# 
# From -- ./inp_files/9467.got.cif
#   From: 2010.05.17/outbox.cif.g08.bks.cpg/sg39_5_cif.got.tgz:9467.got - 2010.06.03 18:22:40.
