data_PCOD9360124
_publ_section_title
;
Structure prediction by ZEFSAII (Michael W. Deem and Ramdas Pophale) SiO2 
 PCOD9360124
Probable space group: A B M 2
;
_chemical_formula_sum "Si O2"
_cell_formula_units_Z 48
_cell_length_a 8.005448
_cell_length_b 14.873674
_cell_length_c 14.797978
_cell_angle_alpha 90.000000
_cell_angle_beta 90.000000
_cell_angle_gamma 90.000000
_cell_volume 1762.001511
_symmetry_space_group_name_H-M "A B M 2"
_symmetry_group_IT_number 39
_symmetry_cell_setting 'orthorhombic'
loop_
_space_group_symop_operation_xyz
x,y,z
-x,-y,z
-x,1/2+y,z
x,1/2-y,z
x,1/2+y,1/2+z
-x,1/2-y,1/2+z
-x,y,1/2+z
x,-y,1/2+z
loop_
_atom_site_type_symbol
_atom_site_label
_atom_site_fract_x
_atom_site_fract_y
_atom_site_fract_z
Si Si1 0.760374 0.145985 0.080190
Si Si2 0.075468 0.598946 0.693336
Si Si3 0.275529 0.647427 0.534380
Si Si4 0.938672 0.399974 0.369065
Si Si5 0.397833 0.142225 0.412862
Si Si6 0.603309 0.360649 0.255917
O O1 0.716157 0.250000 0.067494
O O2 0.935654 0.145514 0.131011
O O3 0.628489 0.109525 0.153387
O O4 0.746222 0.106183 0.979439
O O5 0.072477 0.638912 0.795088
O O6 0.000000 0.500000 0.704052
O O7 0.232528 0.596217 0.626690
O O8 0.297590 0.750000 0.563985
O O9 0.121640 0.643130 0.462685
O O10 0.438010 0.623691 0.475467
O O11 0.767699 0.392706 0.310028
O O12 0.000000 0.500000 0.388267
O O13 0.382382 0.250000 0.400296
O O14 0.445377 0.106654 0.314092
O O15 0.607488 0.250000 0.256748
#
# Coordination Sequence:
#
# PCOD9360124 Si02
#       6
#     8   8   8   8   8   8
#     4   9  16  29  50  73  98 131 169 205 245 299
#     4  10  20  33  50  74 103 134 168 207 251 298
#     4  10  19  32  51  74 101 132 167 210 256 300
#     4   9  17  30  49  71  98 133 169 203 245 300
#     4   8  15  28  46  69  96 127 164 205 249 295
#     4   8  14  26  46  71 100 133 166 202 250 304
#
# _framework density 27.241748999999999
#
# number of rings (size 3 to 8) (size 9 to 14) (size 15 to 20)
#    0.000    3.000    0.000    2.500    0.000    2.000 
#    0.000    2.500    0.000    4.000    0.000   11.667 
#    0.000    0.000    0.000    0.000    0.000    0.000 
#
# Total GULP energy -134029.127097 kJ/mol
# GULP energy per Si atom -5584.546962 kJ/mol
# Density = 2.717975 g / cm^3
# Si number density = 27.241749 Si / 1000 Ang^3
#
#
#
# Elastic Constant Matrix: (Units=GPa)
#
#
# Indices 1 2 3 4 5 6 
#
# 1 87.7622 13.0253 14.9436 0.0000 0.0000 0.0000
# 2 13.0253 64.3464 27.4123 0.0000 0.0000 0.0000
# 3 14.9436 27.4123 167.4025 0.0000 0.0000 0.0000
# 4 0.0000 0.0000 0.0000 4.0182 0.0000 0.0000
# 5 0.0000 0.0000 0.0000 0.0000 48.8193 0.0000
# 6 0.0000 0.0000 0.0000 0.0000 0.0000 12.2433
#
#
#
# Elastic Compliance Matrix: (Units=1/GPa)
#
#
# Indices 1 2 3 4 5 6 
#
# 1 0.011826 -0.002090 -0.000713 0.000000 0.000000 0.000000
# 2 -0.002090 0.017076 -0.002610 0.000000 0.000000 0.000000
# 3 -0.000713 -0.002610 0.006465 0.000000 0.000000 0.000000
# 4 0.000000 0.000000 0.000000 0.248870 0.000000 0.000000
# 5 0.000000 0.000000 0.000000 0.000000 0.020484 0.000000
# 6 0.000000 0.000000 0.000000 0.000000 0.000000 0.081677
#
#
# Mechanical properties :
#
#
# Convention : Reuss Voigt Hill
#
# Bulk Modulus (GPa) = 40.74915 47.80818 44.27867
# Shear Modulus (GPa) = 12.33339 30.62482 21.47910
#
# Velocity S-wave (km/s) = 2.13007 3.35653 2.81100
# Velocity P-wave (km/s) = 4.58699 5.71046 5.17928
#
# Compressibility (1/GPa) = 0.02454039
#
# Stress axis : x y z
#
# Youngs Moduli (GPa) = 84.55876 58.56292 154.68774
#
# Poissons Ratio (x) = 0.12239 0.11036
# Poissons Ratio (y) = 0.17672 0.40367
# Poissons Ratio (z) = 0.06033 0.15282
#
# Static dielectric constant tensor:
#      x y z
#    x 2.248450 0.000000 0.000000 
#    y 0.000000 2.193780 0.000000 
#    z 0.000000 0.000000 2.176440 
# 
# From -- ./inp_files/8469.got.cif
#   From: 2010.05.17/outbox.cif.g08.bks.cpg/sg39_5_cif.got.tgz:8469.got - 2010.06.03 18:22:40.
