data_PCOD9360390
_publ_section_title
;
Structure prediction by ZEFSAII (Michael W. Deem and Ramdas Pophale) SiO2 
 PCOD9360390
Probable space group: A B M 2
;
_chemical_formula_sum "Si O2"
_cell_formula_units_Z 64
_cell_length_a 19.995547
_cell_length_b 8.859447
_cell_length_c 20.482445
_cell_angle_alpha 90.000000
_cell_angle_beta 90.000000
_cell_angle_gamma 90.000000
_cell_volume 3628.454663
_symmetry_space_group_name_H-M "A B M 2"
_symmetry_group_IT_number 39
_symmetry_cell_setting 'orthorhombic'
loop_
_space_group_symop_operation_xyz
x,y,z
-x,-y,z
-x,1/2+y,z
x,1/2-y,z
x,1/2+y,1/2+z
-x,1/2-y,1/2+z
-x,y,1/2+z
x,-y,1/2+z
loop_
_atom_site_type_symbol
_atom_site_label
_atom_site_fract_x
_atom_site_fract_y
_atom_site_fract_z
Si Si1 0.186885 0.429380 0.879700
Si Si2 0.817460 0.069405 0.018398
Si Si3 0.343132 0.428179 0.845798
Si Si4 0.845534 0.430105 0.744143
Si Si5 0.323750 0.431233 0.062937
Si Si6 0.573411 0.570047 0.460331
Si Si7 0.309274 0.570267 0.712341
Si Si8 0.927775 0.569601 0.627832
O O1 0.176179 0.250000 0.882381
O O2 0.266820 0.455136 0.870125
O O3 0.151934 0.499737 0.816252
O O4 0.165882 0.507668 0.946697
O O5 0.808399 0.250000 0.016406
O O6 0.875449 0.033261 0.070146
O O7 0.748494 0.992544 0.041066
O O8 0.356491 0.250000 0.850880
O O9 0.392550 0.518499 0.892533
O O10 0.344641 0.482279 0.770973
O O11 0.853735 0.250000 0.746779
O O12 0.770278 0.462241 0.717639
O O13 0.897688 0.502409 0.694480
O O14 0.324600 0.250000 0.055091
O O15 0.332956 0.467076 0.139540
O O16 0.379627 0.504932 0.017545
O O17 0.500000 0.500000 0.465337
O O18 0.570664 0.750000 0.463982
O O19 0.317348 0.750000 0.722792
O O20 0.932486 0.750000 0.633035
O O21 0.000000 0.500000 0.614538
#
# Coordination Sequence:
#
# PCOD9360390 Si02
#       8
#     8   8   8   8   8   8   8   8
#     4  10  20  34  57  87 119 151 191 243 292 344
#     4  11  22  36  58  88 119 154 198 248 297 352
#     4  10  20  35  57  86 118 151 192 240 290 346
#     4  10  19  35  58  85 117 152 193 241 293 347
#     4  11  21  37  60  89 121 154 196 243 296 352
#     4  12  25  41  61  85 119 159 200 244 297 357
#     4   9  19  34  57  87 118 151 190 240 291 343
#     4  11  24  40  59  85 119 158 201 244 299 360
#
# _framework density 17.638362000000001
#
# number of rings (size 3 to 8) (size 9 to 14) (size 15 to 20)
#    0.000    1.500    2.500    3.375    0.000    4.000 
#    0.000    1.250    0.000    4.500    0.000    0.000 
#    0.000    0.000    0.000    0.000    0.000    0.000 
#
# Total GULP energy -178823.991561 kJ/mol
# GULP energy per Si atom -5588.249736 kJ/mol
# Density = 1.759822 g / cm^3
# Si number density = 17.638362 Si / 1000 Ang^3
#
#
#
# Elastic Constant Matrix: (Units=GPa)
#
#
# Indices 1 2 3 4 5 6 
#
# 1 102.6271 68.2371 72.8171 0.0000 0.0000 0.0000
# 2 68.2371 95.5801 78.0484 0.0000 0.0000 0.0000
# 3 72.8171 78.0484 158.9550 0.0000 0.0000 0.0000
# 4 0.0000 0.0000 0.0000 34.0439 0.0000 0.0000
# 5 0.0000 0.0000 0.0000 0.0000 19.6796 0.0000
# 6 0.0000 0.0000 0.0000 0.0000 0.0000 28.9126
#
#
#
# Elastic Compliance Matrix: (Units=1/GPa)
#
#
# Indices 1 2 3 4 5 6 
#
# 1 0.019669 -0.011159 -0.003531 0.000000 0.000000 0.000000
# 2 -0.011159 0.023795 -0.006572 0.000000 0.000000 0.000000
# 3 -0.003531 -0.006572 0.011136 0.000000 0.000000 0.000000
# 4 0.000000 0.000000 0.000000 0.029374 0.000000 0.000000
# 5 0.000000 0.000000 0.000000 0.000000 0.050814 0.000000
# 6 0.000000 0.000000 0.000000 0.000000 0.000000 0.034587
#
#
# Mechanical properties :
#
#
# Convention : Reuss Voigt Hill
#
# Bulk Modulus (GPa) = 82.80780 88.37416 85.59098
# Shear Modulus (GPa) = 23.15624 25.73118 24.44371
#
# Velocity S-wave (km/s) = 3.62724 3.82359 3.72671
# Velocity P-wave (km/s) = 8.03691 8.34897 8.19443
#
# Compressibility (1/GPa) = 0.01207616
#
# Stress axis : x y z
#
# Youngs Moduli (GPa) = 50.84137 42.02497 89.80103
#
# Poissons Ratio (x) = 0.46894 0.31712
# Poissons Ratio (y) = 0.56732 0.59017
# Poissons Ratio (z) = 0.17954 0.27619
#
# Static dielectric constant tensor:
#      x y z
#    x 1.573480 0.000000 0.000000 
#    y 0.000000 1.584080 0.000000 
#    z 0.000000 0.000000 1.591150 
# 
# From -- ./inp_files/13130.got.cif
#   From: 2010.05.17/outbox.cif.g08.bks.cpg/sg39_7_cif.got.tgz:13130.got - 2010.06.03 18:22:40.
