data_PCOD9360916
_publ_section_title
;
Structure prediction by ZEFSAII (Michael W. Deem and Ramdas Pophale) SiO2 
 PCOD9360916
Probable space group: A B M 2
;
_chemical_formula_sum "Si O2"
_cell_formula_units_Z 64
_cell_length_a 5.206765
_cell_length_b 26.910163
_cell_length_c 23.818307
_cell_angle_alpha 90.000000
_cell_angle_beta 90.000000
_cell_angle_gamma 90.000000
_cell_volume 3337.299581
_symmetry_space_group_name_H-M "A B M 2"
_symmetry_group_IT_number 39
_symmetry_cell_setting 'orthorhombic'
loop_
_space_group_symop_operation_xyz
x,y,z
-x,-y,z
-x,1/2+y,z
x,1/2-y,z
x,1/2+y,1/2+z
-x,1/2-y,1/2+z
-x,y,1/2+z
x,-y,1/2+z
loop_
_atom_site_type_symbol
_atom_site_label
_atom_site_fract_x
_atom_site_fract_y
_atom_site_fract_z
Si Si1 0.994437 0.941428 0.964200
Si Si2 0.357404 0.807525 0.348430
Si Si3 0.505794 0.440836 0.035276
Si Si4 0.920623 0.114822 0.748300
Si Si5 0.523118 0.099986 0.654412
Si Si6 0.166139 0.367595 0.367684
Si Si7 0.288113 0.692862 0.218426
Si Si8 0.259268 0.968585 0.232236
O O1 0.081569 0.908821 0.911652
O O2 0.208678 0.931460 0.012035
O O3 0.000000 0.000000 0.950152
O O4 0.710192 0.931220 0.987900
O O5 0.349981 0.750000 0.364492
O O6 0.580799 0.836194 0.381425
O O7 0.412162 0.808703 0.280850
O O8 0.080997 0.832280 0.358656
O O9 0.500000 0.500000 0.048832
O O10 0.437358 0.407340 0.088976
O O11 0.769616 0.093847 0.694835
O O12 0.772334 0.110265 0.806130
O O13 0.005547 0.170187 0.731132
O O14 0.178664 0.083105 0.761267
O O15 0.408547 0.152991 0.675035
O O16 0.341197 0.053670 0.672051
O O17 0.286904 0.750000 0.199576
O O18 0.500000 0.000000 0.254396
O O19 0.000000 0.000000 0.233011
#
# Coordination Sequence:
#
# PCOD9360916 Si02
#       8
#     8   8   8   8   8   8   8   8
#     4  10  23  43  61  88 114 165 210 245 296 355
#     4  10  20  36  62  94 122 157 197 242 306 368
#     4  10  23  39  63  85 118 157 212 253 288 348
#     4  10  22  35  57  93 122 158 200 244 312 370
#     4  11  21  37  61  90 119 156 206 251 304 360
#     4  11  21  39  62  87 125 155 200 258 296 361
#     4   9  20  36  56  89 129 161 195 240 300 379
#     4  11  22  35  52  82 125 157 188 235 305 367
#
# _framework density 19.17718
#
# number of rings (size 3 to 8) (size 9 to 14) (size 15 to 20)
#    0.000    1.750    2.500    1.500    3.500    2.000 
#    0.000    0.625    0.000    4.500    0.000    0.000 
#    0.000    0.000    0.000    0.000    0.000    0.000 
#
# Total GULP energy -178327.092535 kJ/mol
# GULP energy per Si atom -5572.721642 kJ/mol
# Density = 1.913353 g / cm^3
# Si number density = 19.177180 Si / 1000 Ang^3
#
#
#
# Elastic Constant Matrix: (Units=GPa)
#
#
# Indices 1 2 3 4 5 6 
#
# 1 98.9672 32.8909 9.6935 0.0000 0.0000 0.0000
# 2 32.8909 92.3500 29.1674 0.0000 0.0000 0.0000
# 3 9.6935 29.1674 53.1477 0.0000 0.0000 0.0000
# 4 0.0000 0.0000 0.0000 19.1472 0.0000 0.0000
# 5 0.0000 0.0000 0.0000 0.0000 23.2491 0.0000
# 6 0.0000 0.0000 0.0000 0.0000 0.0000 22.7494
#
#
#
# Elastic Compliance Matrix: (Units=1/GPa)
#
#
# Indices 1 2 3 4 5 6 
#
# 1 0.011462 -0.004140 0.000181 0.000000 0.000000 0.000000
# 2 -0.004140 0.014594 -0.007254 0.000000 0.000000 0.000000
# 3 0.000181 -0.007254 0.022763 0.000000 0.000000 0.000000
# 4 0.000000 0.000000 0.000000 0.052227 0.000000 0.000000
# 5 0.000000 0.000000 0.000000 0.000000 0.043012 0.000000
# 6 0.000000 0.000000 0.000000 0.000000 0.000000 0.043957
#
#
# Mechanical properties :
#
#
# Convention : Reuss Voigt Hill
#
# Bulk Modulus (GPa) = 37.88634 43.10760 40.49697
# Shear Modulus (GPa) = 22.80613 24.54335 23.67474
#
# Velocity S-wave (km/s) = 3.45227 3.58134 3.51740
# Velocity P-wave (km/s) = 5.97409 6.29513 6.13671
#
# Compressibility (1/GPa) = 0.02639474
#
# Stress axis : x y z
#
# Youngs Moduli (GPa) = 87.24201 68.52235 43.93014
#
# Poissons Ratio (x) = 0.28366 -0.00796
# Poissons Ratio (y) = 0.36115 0.31867
# Poissons Ratio (z) = -0.01581 0.49706
#
# Static dielectric constant tensor:
#      x y z
#    x 1.750580 0.000000 0.000000 
#    y 0.000000 1.726290 0.000000 
#    z 0.000000 0.000000 1.688070 
# 
# From -- ./inp_files/13665.got.cif
#   From: 2010.05.17/outbox.cif.g08.bks.cpg/sg39_7_cif.got.tgz:13665.got - 2010.06.03 18:22:40.
