data_PCOD9360518
_publ_section_title
;
Structure prediction by ZEFSAII (Michael W. Deem and Ramdas Pophale) SiO2 
 PCOD9360518
Probable space group: A B M 2
;
_chemical_formula_sum "Si O2"
_cell_formula_units_Z 40
_cell_length_a 11.131683
_cell_length_b 14.022136
_cell_length_c 13.136303
_cell_angle_alpha 90.000000
_cell_angle_beta 90.000000
_cell_angle_gamma 90.000000
_cell_volume 2050.445180
_symmetry_space_group_name_H-M "A B M 2"
_symmetry_group_IT_number 39
_symmetry_cell_setting 'orthorhombic'
loop_
_space_group_symop_operation_xyz
x,y,z
-x,-y,z
-x,1/2+y,z
x,1/2-y,z
x,1/2+y,1/2+z
-x,1/2-y,1/2+z
-x,y,1/2+z
x,-y,1/2+z
loop_
_atom_site_type_symbol
_atom_site_label
_atom_site_fract_x
_atom_site_fract_y
_atom_site_fract_z
Si Si1 0.147710 0.750000 0.822980
Si Si2 0.820194 0.250000 0.452746
Si Si3 0.511577 0.612409 0.540830
Si Si4 0.675390 0.750000 0.145840
Si Si5 0.060883 0.750000 0.153908
Si Si6 0.552883 0.250000 0.371223
Si Si7 0.024281 0.888521 0.968182
Si Si8 0.663255 0.750000 0.659614
O O1 0.272190 0.750000 0.759771
O O2 0.037300 0.750000 0.742487
O O3 0.126593 0.842883 0.894802
O O4 0.791881 0.250000 0.572992
O O5 0.692162 0.250000 0.402887
O O6 0.900907 0.340688 0.428685
O O7 0.500000 0.500000 0.540253
O O8 0.402645 0.659552 0.606790
O O9 0.502465 0.658597 0.428257
O O10 0.630164 0.657183 0.592405
O O11 0.198742 0.750000 0.191540
O O12 0.046210 0.841349 0.078867
O O13 0.565729 0.250000 0.251130
O O14 0.000000 0.000000 0.970186
#
# Coordination Sequence:
#
# PCOD9360518 Si02
#       8
#     4   4   8   4   4   4   8   4
#     4  10  19  40  56  84 120 160 192 230 308 347
#     4   8  16  36  55  73 113 152 183 226 297 333
#     4   9  21  39  60  84 112 152 199 246 295 349
#     4   9  17  38  62  76 117 157 183 241 294 349
#     4  10  21  38  59  79 123 153 186 250 288 360
#     4   9  19  37  62  76 114 151 186 248 289 349
#     4  10  21  35  55  87 118 150 197 241 281 348
#     4  10  20  39  56  88 115 151 196 241 306 344
#
# _framework density 19.507959
#
# number of rings (size 3 to 8) (size 9 to 14) (size 15 to 20)
#    0.000    3.200    2.000    1.200    0.000    4.800 
#   21.600    0.000    0.000    0.000    0.000    0.000 
#    0.000    0.000    0.000    0.000    0.000    0.000 
#
# Total GULP energy -111384.019949 kJ/mol
# GULP energy per Si atom -5569.200997 kJ/mol
# Density = 1.946356 g / cm^3
# Si number density = 19.507959 Si / 1000 Ang^3
#
#
#
# Elastic Constant Matrix: (Units=GPa)
#
#
# Indices 1 2 3 4 5 6 
#
# 1 47.9732 12.7326 3.9591 0.0000 0.0000 0.0000
# 2 12.7326 194.8453 33.1107 0.0000 0.0000 0.0000
# 3 3.9591 33.1107 94.6797 0.0000 0.0000 0.0000
# 4 0.0000 0.0000 0.0000 0.3504 0.0000 0.0000
# 5 0.0000 0.0000 0.0000 0.0000 39.8535 0.0000
# 6 0.0000 0.0000 0.0000 0.0000 0.0000 6.6855
#
#
#
# Elastic Compliance Matrix: (Units=1/GPa)
#
#
# Indices 1 2 3 4 5 6 
#
# 1 0.021229 -0.001315 -0.000428 0.000000 0.000000 0.000000
# 2 -0.001315 0.005538 -0.001882 0.000000 0.000000 0.000000
# 3 -0.000428 -0.001882 0.011238 0.000000 0.000000 0.000000
# 4 0.000000 0.000000 0.000000 2.853769 0.000000 0.000000
# 5 0.000000 0.000000 0.000000 0.000000 0.025092 0.000000
# 6 0.000000 0.000000 0.000000 0.000000 0.000000 0.149578
#
#
# Mechanical properties :
#
#
# Convention : Reuss Voigt Hill
#
# Bulk Modulus (GPa) = 32.51344 48.56698 40.54021
# Shear Modulus (GPa) = 1.62130 28.55759 15.08945
#
# Velocity S-wave (km/s) = 0.91263 3.83024 2.78421
# Velocity P-wave (km/s) = 4.22060 6.67166 5.58231
#
# Compressibility (1/GPa) = 0.03075652
#
# Stress axis : x y z
#
# Youngs Moduli (GPa) = 47.10492 180.57236 88.98467
#
# Poissons Ratio (x) = 0.23737 0.03809
# Poissons Ratio (y) = 0.06192 0.16744
# Poissons Ratio (z) = 0.02016 0.33979
#
# Static dielectric constant tensor:
#      x y z
#    x 1.727230 0.000000 0.000000 
#    y 0.000000 1.635550 0.000000 
#    z 0.000000 0.000000 1.769290 
# 
# From -- ./inp_files/9141.got.cif
#   From: 2010.05.17/outbox.cif.g08.bks.cpg/sg39_5_cif.got.tgz:9141.got - 2010.06.03 18:22:40.
