data_PCOD9360264
_publ_section_title
;
Structure prediction by ZEFSAII (Michael W. Deem and Ramdas Pophale) SiO2 
 PCOD9360264
Probable space group: A B M 2
;
_chemical_formula_sum "Si O2"
_cell_formula_units_Z 64
_cell_length_a 9.738792
_cell_length_b 18.549242
_cell_length_c 19.398399
_cell_angle_alpha 90.000000
_cell_angle_beta 90.000000
_cell_angle_gamma 90.000000
_cell_volume 3504.266650
_symmetry_space_group_name_H-M "A B M 2"
_symmetry_group_IT_number 39
_symmetry_cell_setting 'orthorhombic'
loop_
_space_group_symop_operation_xyz
x,y,z
-x,-y,z
-x,1/2+y,z
x,1/2-y,z
x,1/2+y,1/2+z
-x,1/2-y,1/2+z
-x,y,1/2+z
x,-y,1/2+z
loop_
_atom_site_type_symbol
_atom_site_label
_atom_site_fract_x
_atom_site_fract_y
_atom_site_fract_z
Si Si1 0.367409 0.167508 0.524410
Si Si2 0.601291 0.068065 0.485780
Si Si3 0.892889 0.664758 0.609417
Si Si4 0.004052 0.086469 0.367675
Si Si5 0.548101 0.918225 0.824269
Si Si6 0.916507 0.926816 0.022498
Si Si7 0.715405 0.833051 0.363386
Si Si8 0.203182 0.664163 0.265031
O O1 0.384435 0.250000 0.546341
O O2 0.514615 0.129759 0.523912
O O3 0.242609 0.135810 0.569167
O O4 0.318332 0.165199 0.445020
O O5 0.609090 0.081432 0.402922
O O6 0.753662 0.060249 0.515767
O O7 0.500000 0.000000 0.492739
O O8 0.902354 0.750000 0.594307
O O9 0.863873 0.655537 0.689937
O O10 0.028982 0.627184 0.580592
O O11 0.966419 0.100550 0.447460
O O12 0.899630 0.130376 0.320597
O O13 0.154382 0.116630 0.352305
O O14 0.000000 0.000000 0.357021
O O15 0.415531 0.867136 0.826458
O O16 0.658799 0.882633 0.773980
O O17 0.500000 0.000000 0.808918
O O18 0.000000 0.000000 0.034632
O O19 0.740853 0.750000 0.343949
O O20 0.227663 0.750000 0.276619
#
# Coordination Sequence:
#
# PCOD9360264 Si02
#       8
#     8   8   8   8   8   8   8   8
#     4   9  18  34  54  80 110 148 188 237 292 352
#     4  10  20  34  58  88 118 146 190 253 305 358
#     4  10  22  40  60  83 124 167 201 244 305 371
#     4  11  22  36  59  88 118 155 201 256 309 361
#     4  10  20  36  59  87 119 156 198 255 306 361
#     4  11  22  37  61  89 118 157 198 252 314 365
#     4  10  19  33  56  84 115 148 193 247 304 360
#     4  11  23  40  59  87 124 165 205 250 305 366
#
# _framework density 18.263451
#
# number of rings (size 3 to 8) (size 9 to 14) (size 15 to 20)
#    0.000    1.750    2.500    2.250    7.000    2.000 
#    0.000    3.125    0.000    3.000    0.000    0.000 
#    0.000    0.000    0.000    0.000    0.000    0.000 
#
# Total GULP energy -178563.523199 kJ/mol
# GULP energy per Si atom -5580.110100 kJ/mol
# Density = 1.822188 g / cm^3
# Si number density = 18.263451 Si / 1000 Ang^3
#
#
#
# Elastic Constant Matrix: (Units=GPa)
#
#
# Indices 1 2 3 4 5 6 
#
# 1 149.8536 63.3784 28.1210 0.0000 0.0000 0.0000
# 2 63.3784 100.3820 42.7005 0.0000 0.0000 0.0000
# 3 28.1210 42.7005 45.3282 0.0000 0.0000 0.0000
# 4 0.0000 0.0000 0.0000 23.4413 0.0000 0.0000
# 5 0.0000 0.0000 0.0000 0.0000 12.8584 0.0000
# 6 0.0000 0.0000 0.0000 0.0000 0.0000 31.9079
#
#
#
# Elastic Compliance Matrix: (Units=1/GPa)
#
#
# Indices 1 2 3 4 5 6 
#
# 1 0.009108 -0.005585 -0.000389 0.000000 0.000000 0.000000
# 2 -0.005585 0.020048 -0.015421 0.000000 0.000000 0.000000
# 3 -0.000389 -0.015421 0.036830 0.000000 0.000000 0.000000
# 4 0.000000 0.000000 0.000000 0.042660 0.000000 0.000000
# 5 0.000000 0.000000 0.000000 0.000000 0.077770 0.000000
# 6 0.000000 0.000000 0.000000 0.000000 0.000000 0.031340
#
#
# Mechanical properties :
#
#
# Convention : Reuss Voigt Hill
#
# Bulk Modulus (GPa) = 43.11187 62.66263 52.88725
# Shear Modulus (GPa) = 18.63730 24.39910 21.51820
#
# Velocity S-wave (km/s) = 3.19795 3.65903 3.43623
# Velocity P-wave (km/s) = 6.10677 7.22746 6.69062
#
# Compressibility (1/GPa) = 0.02319547
#
# Stress axis : x y z
#
# Youngs Moduli (GPa) = 109.78868 49.88030 27.15193
#
# Poissons Ratio (x) = 0.27859 0.01057
# Poissons Ratio (y) = 0.61319 0.41871
# Poissons Ratio (z) = 0.04274 0.76920
#
# Static dielectric constant tensor:
#      x y z
#    x 1.632490 0.000000 0.000000 
#    y 0.000000 1.658660 0.000000 
#    z 0.000000 0.000000 1.613700 
# 
# From -- ./inp_files/14239.got.cif
#   From: 2010.05.17/outbox.cif.g08.bks.cpg/sg39_8_cif.got.tgz:14239.got - 2010.06.03 18:22:40.
