data_PCOD9360723
_publ_section_title
;
Structure prediction by ZEFSAII (Michael W. Deem and Ramdas Pophale) SiO2 
 PCOD9360723
Probable space group: A B M 2
;
_chemical_formula_sum "Si O2"
_cell_formula_units_Z 48
_cell_length_a 9.468260
_cell_length_b 8.649263
_cell_length_c 31.672577
_cell_angle_alpha 90.000000
_cell_angle_beta 90.000000
_cell_angle_gamma 90.000000
_cell_volume 2593.777263
_symmetry_space_group_name_H-M "A B M 2"
_symmetry_group_IT_number 39
_symmetry_cell_setting 'orthorhombic'
loop_
_space_group_symop_operation_xyz
x,y,z
-x,-y,z
-x,1/2+y,z
x,1/2-y,z
x,1/2+y,1/2+z
-x,1/2-y,1/2+z
-x,y,1/2+z
x,-y,1/2+z
loop_
_atom_site_type_symbol
_atom_site_label
_atom_site_fract_x
_atom_site_fract_y
_atom_site_fract_z
Si Si1 0.158834 0.563768 0.198150
Si Si2 0.658434 0.064804 0.434055
Si Si3 0.342274 0.435840 0.523452
Si Si4 0.341613 0.434797 0.274419
Si Si5 0.843695 0.936009 0.602495
Si Si6 0.158612 0.564242 0.351937
O O1 0.156331 0.750000 0.201747
O O2 0.265067 0.494030 0.232083
O O3 0.201346 0.520471 0.150086
O O4 0.000000 0.500000 0.205194
O O5 0.648910 0.250000 0.437115
O O6 0.760296 0.024190 0.395342
O O7 0.500000 0.000000 0.426988
O O8 0.712631 0.997979 0.478561
O O9 0.500000 0.500000 0.527291
O O10 0.344788 0.250000 0.522169
O O11 0.254397 0.488212 0.564155
O O12 0.500000 0.500000 0.277313
O O13 0.345752 0.250000 0.274885
O O14 0.248400 0.495485 0.313428
O O15 0.848215 0.750000 0.601467
O O16 0.000000 0.000000 0.596244
O O17 0.154968 0.750000 0.348072
O O18 0.000000 0.500000 0.351591
#
# Coordination Sequence:
#
# PCOD9360723 Si02
#       6
#     8   8   8   8   8   8
#     4  10  20  38  60  84 115 150 190 233 281 334
#     4  10  21  37  58  83 111 146 187 230 279 332
#     4  10  20  35  55  81 112 147 187 230 278 330
#     4  12  25  41  61  86 115 148 187 231 281 335
#     4   9  20  36  56  82 112 148 188 230 276 329
#     4  11  24  41  61  86 115 149 188 230 279 334
#
# _framework density 18.505831000000001
#
# number of rings (size 3 to 8) (size 9 to 14) (size 15 to 20)
#    0.000    1.667    0.000    5.500    0.000    7.333 
#    0.000    5.000    0.000    0.000    0.000    0.000 
#    0.000    0.000    0.000    0.000    0.000    0.000 
#
# Total GULP energy -134106.075139 kJ/mol
# GULP energy per Si atom -5587.753131 kJ/mol
# Density = 1.846371 g / cm^3
# Si number density = 18.505831 Si / 1000 Ang^3
#
#
#
# Elastic Constant Matrix: (Units=GPa)
#
#
# Indices 1 2 3 4 5 6 
#
# 1 128.7818 54.2872 122.1521 0.0000 0.0000 0.0000
# 2 54.2872 81.5841 72.9029 0.0000 0.0000 0.0000
# 3 122.1521 72.9029 204.5927 0.0000 0.0000 0.0000
# 4 0.0000 0.0000 0.0000 22.0091 0.0000 0.0000
# 5 0.0000 0.0000 0.0000 0.0000 41.8988 0.0000
# 6 0.0000 0.0000 0.0000 0.0000 0.0000 32.7833
#
#
#
# Elastic Compliance Matrix: (Units=1/GPa)
#
#
# Indices 1 2 3 4 5 6 
#
# 1 0.018598 -0.003599 -0.009822 0.000000 0.000000 0.000000
# 2 -0.003599 0.018680 -0.004508 0.000000 0.000000 0.000000
# 3 -0.009822 -0.004508 0.012358 0.000000 0.000000 0.000000
# 4 0.000000 0.000000 0.000000 0.045436 0.000000 0.000000
# 5 0.000000 0.000000 0.000000 0.000000 0.023867 0.000000
# 6 0.000000 0.000000 0.000000 0.000000 0.000000 0.030503
#
#
# Mechanical properties :
#
#
# Convention : Reuss Voigt Hill
#
# Bulk Modulus (GPa) = 72.56949 101.51587 87.04268
# Shear Modulus (GPa) = 26.33079 30.37934 28.35507
#
# Velocity S-wave (km/s) = 3.77614 4.05607 3.91861
# Velocity P-wave (km/s) = 7.63622 8.76988 8.22261
#
# Compressibility (1/GPa) = 0.01377990
#
# Stress axis : x y z
#
# Youngs Moduli (GPa) = 53.76858 53.53330 80.91965
#
# Poissons Ratio (x) = 0.19266 0.79476
# Poissons Ratio (y) = 0.19351 0.36475
# Poissons Ratio (z) = 0.52810 0.24130
#
# Static dielectric constant tensor:
#      x y z
#    x 1.595250 0.000000 0.000000 
#    y 0.000000 1.624300 0.000000 
#    z 0.000000 0.000000 1.647450 
# 
# From -- ./inp_files/17594.got.cif
#   From: 2010.05.17/outbox.cif.g08.bks.cpg/sg39_9_cif.got.tgz:17594.got - 2010.06.03 18:22:40.
