data_PCOD9360719
_publ_section_title
;
Structure prediction by ZEFSAII (Michael W. Deem and Ramdas Pophale) SiO2 
 PCOD9360719
Probable space group: A B M 2
;
_chemical_formula_sum "Si O2"
_cell_formula_units_Z 64
_cell_length_a 7.653513
_cell_length_b 17.792022
_cell_length_c 22.045125
_cell_angle_alpha 90.000000
_cell_angle_beta 90.000000
_cell_angle_gamma 90.000000
_cell_volume 3001.917114
_symmetry_space_group_name_H-M "A B M 2"
_symmetry_group_IT_number 39
_symmetry_cell_setting 'orthorhombic'
loop_
_space_group_symop_operation_xyz
x,y,z
-x,-y,z
-x,1/2+y,z
x,1/2-y,z
x,1/2+y,1/2+z
-x,1/2-y,1/2+z
-x,y,1/2+z
x,-y,1/2+z
loop_
_atom_site_type_symbol
_atom_site_label
_atom_site_fract_x
_atom_site_fract_y
_atom_site_fract_z
Si Si1 0.026295 0.408913 0.282460
Si Si2 0.475296 0.834955 0.023987
Si Si3 0.029891 0.911693 0.653557
Si Si4 0.419342 0.659445 0.776519
Si Si5 0.542523 0.412065 0.900547
Si Si6 0.445658 0.912397 0.652295
Si Si7 0.939409 0.832665 0.531015
Si Si8 0.037023 0.912186 0.912168
O O1 0.953006 0.382639 0.217616
O O2 0.228540 0.381735 0.279432
O O3 0.959510 0.383266 0.348225
O O4 0.000000 0.500000 0.283018
O O5 0.546850 0.750000 0.026675
O O6 0.501348 0.877777 0.087546
O O7 0.266199 0.828299 0.017869
O O8 0.534504 0.878922 0.963320
O O9 0.237320 0.902285 0.653074
O O10 0.956738 0.875447 0.593645
O O11 0.000000 0.000000 0.650880
O O12 0.400761 0.750000 0.775623
O O13 0.509058 0.631775 0.839016
O O14 0.506187 0.629833 0.713957
O O15 0.500000 0.500000 0.894478
O O16 0.753137 0.404730 0.906215
O O17 0.500000 0.000000 0.655449
O O18 0.013209 0.750000 0.538680
O O19 0.023481 0.871993 0.472934
O O20 0.000000 0.000000 0.918132
#
# Coordination Sequence:
#
# PCOD9360719 Si02
#       8
#     8   8   8   8   8   8   8   8
#     4   8  17  33  54  80 107 138 180 230 276 328
#     4  10  21  37  55  79 113 149 186 232 285 338
#     4  10  20  35  55  79 107 139 178 225 273 325
#     4  10  20  35  57  84 112 145 186 233 285 340
#     4  10  20  35  56  82 109 143 188 232 275 330
#     4  11  22  36  57  83 111 147 189 232 280 336
#     4  10  21  35  53  78 109 144 180 222 275 329
#     4   9  18  34  55  77 103 137 177 222 270 322
#
# _framework density 21.319709
#
# number of rings (size 3 to 8) (size 9 to 14) (size 15 to 20)
#    0.000    2.250    0.000    2.625    0.000    8.500 
#    0.000    1.250    0.000    0.750    0.000   12.250 
#    0.000    0.000    0.000    0.000    0.000    0.000 
#
# Total GULP energy -178410.024319 kJ/mol
# GULP energy per Si atom -5575.313260 kJ/mol
# Density = 2.127118 g / cm^3
# Si number density = 21.319709 Si / 1000 Ang^3
#
#
#
# Elastic Constant Matrix: (Units=GPa)
#
#
# Indices 1 2 3 4 5 6 
#
# 1 38.7878 1.8785 -1.0519 0.0000 0.0000 0.0000
# 2 1.8785 113.3984 92.1781 0.0000 0.0000 0.0000
# 3 -1.0519 92.1781 243.1053 0.0000 0.0000 0.0000
# 4 0.0000 0.0000 0.0000 -0.1266 0.0000 0.0000
# 5 0.0000 0.0000 0.0000 0.0000 23.3489 0.0000
# 6 0.0000 0.0000 0.0000 0.0000 0.0000 16.2987
#
#
#
# Elastic Compliance Matrix: (Units=1/GPa)
#
#
# Indices 1 2 3 4 5 6 
#
# 1 0.025828 -0.000750 0.000396 0.000000 0.000000 0.000000
# 2 -0.000750 0.012769 -0.004845 0.000000 0.000000 0.000000
# 3 0.000396 -0.004845 0.005952 0.000000 0.000000 0.000000
# 4 0.000000 0.000000 0.000000 -7.895892 0.000000 0.000000
# 5 0.000000 0.000000 0.000000 0.000000 0.042829 0.000000
# 6 0.000000 0.000000 0.000000 0.000000 0.000000 0.061355
#
#
# Mechanical properties :
#
#
# Convention : Reuss Voigt Hill
#
# Bulk Modulus (GPa) = 29.28055 64.58901 46.93478
# Shear Modulus (GPa) = -0.64722 28.05663 13.70471
#
# Velocity S-wave (km/s) = -0.55158 3.63160 2.53814
# Velocity P-wave (km/s) = 3.65489 6.92430 5.53643
#
# Compressibility (1/GPa) = 0.03415237
#
# Stress axis : x y z
#
# Youngs Moduli (GPa) = 38.71718 78.31355 168.00491
#
# Poissons Ratio (x) = 0.05872 -0.06654
# Poissons Ratio (y) = 0.02903 0.81397
# Poissons Ratio (z) = -0.01533 0.37942
#
# Static dielectric constant tensor:
#      x y z
#    x 1.811700 0.000000 0.000000 
#    y 0.000000 1.733660 0.000000 
#    z 0.000000 0.000000 1.829450 
# 
# From -- ./inp_files/14207.got.cif
#   From: 2010.05.17/outbox.cif.g08.bks.cpg/sg39_8_cif.got.tgz:14207.got - 2010.06.03 18:22:40.
