data_PCOD9360826
_publ_section_title
;
Structure prediction by ZEFSAII (Michael W. Deem and Ramdas Pophale) SiO2 
 PCOD9360826
Probable space group: A B M 2
;
_chemical_formula_sum "Si O2"
_cell_formula_units_Z 48
_cell_length_a 11.173069
_cell_length_b 24.140632
_cell_length_c 8.784243
_cell_angle_alpha 90.000000
_cell_angle_beta 90.000000
_cell_angle_gamma 90.000000
_cell_volume 2369.329478
_symmetry_space_group_name_H-M "A B M 2"
_symmetry_group_IT_number 39
_symmetry_cell_setting 'orthorhombic'
loop_
_space_group_symop_operation_xyz
x,y,z
-x,-y,z
-x,1/2+y,z
x,1/2-y,z
x,1/2+y,1/2+z
-x,1/2-y,1/2+z
-x,y,1/2+z
x,-y,1/2+z
loop_
_atom_site_type_symbol
_atom_site_label
_atom_site_fract_x
_atom_site_fract_y
_atom_site_fract_z
Si Si1 0.430755 0.750000 0.500000
Si Si2 0.758048 0.130047 0.218203
Si Si3 0.253453 0.949483 0.787455
Si Si4 0.323769 0.634234 0.552806
Si Si5 0.120642 0.966500 0.086905
Si Si6 0.674021 0.750000 0.658383
Si Si7 0.554619 0.441746 0.047710
O O1 0.372508 0.695720 0.573133
O O2 0.572048 0.750000 0.529943
O O3 0.396637 0.750000 0.321200
O O4 0.754025 0.131669 0.400142
O O5 0.869681 0.093330 0.164503
O O6 0.747411 0.192639 0.156815
O O7 0.642822 0.095608 0.152951
O O8 0.259388 0.891911 0.698099
O O9 0.372039 0.953247 0.891778
O O10 0.226343 0.995860 0.661048
O O11 0.149114 0.957118 0.910458
O O12 0.439274 0.596183 0.520569
O O13 0.000000 0.000000 0.107544
O O14 0.500000 0.500000 0.104613
#
# Coordination Sequence:
#
# PCOD9360826 Si02
#       7
#     4   8   8   8   8   4   8
#     4  10  22  34  58  85 129 180 210 241 291 361
#     4  10  21  36  58  87 121 164 209 251 310 363
#     4  11  24  37  58  88 120 160 204 254 314 375
#     4  11  21  36  55  88 128 167 203 243 294 370
#     4  11  23  42  63  87 116 156 210 271 326 364
#     4  10  20  36  56  89 127 172 216 249 295 367
#     4  11  21  33  53  85 126 167 201 242 297 375
#
# _framework density 20.258896
#
# number of rings (size 3 to 8) (size 9 to 14) (size 15 to 20)
#    0.000    1.333    1.667    5.500    2.333    2.667 
#    0.000    0.833    0.000    1.000    0.000    8.167 
#    0.000    0.000    0.000    0.000    0.000    0.000 
#
# Total GULP energy -134072.421816 kJ/mol
# GULP energy per Si atom -5586.350909 kJ/mol
# Density = 2.021279 g / cm^3
# Si number density = 20.258896 Si / 1000 Ang^3
#
#
#
# Elastic Constant Matrix: (Units=GPa)
#
#
# Indices 1 2 3 4 5 6 
#
# 1 66.3261 54.7728 28.3937 0.0000 0.0000 0.0000
# 2 54.7728 180.1426 40.2065 0.0000 0.0000 0.0000
# 3 28.3937 40.2065 81.2005 0.0000 0.0000 0.0000
# 4 0.0000 0.0000 0.0000 25.8729 0.0000 0.0000
# 5 0.0000 0.0000 0.0000 0.0000 19.5979 0.0000
# 6 0.0000 0.0000 0.0000 0.0000 0.0000 30.4404
#
#
#
# Elastic Compliance Matrix: (Units=1/GPa)
#
#
# Indices 1 2 3 4 5 6 
#
# 1 0.021714 -0.005517 -0.004861 0.000000 0.000000 0.000000
# 2 -0.005517 0.007643 -0.001855 0.000000 0.000000 0.000000
# 3 -0.004861 -0.001855 0.014933 0.000000 0.000000 0.000000
# 4 0.000000 0.000000 0.000000 0.038650 0.000000 0.000000
# 5 0.000000 0.000000 0.000000 0.000000 0.051026 0.000000
# 6 0.000000 0.000000 0.000000 0.000000 0.000000 0.032851
#
#
# Mechanical properties :
#
#
# Convention : Reuss Voigt Hill
#
# Bulk Modulus (GPa) = 50.44457 63.82390 57.13423
# Shear Modulus (GPa) = 25.26623 28.80198 27.03411
#
# Velocity S-wave (km/s) = 3.53536 3.77463 3.65695
# Velocity P-wave (km/s) = 6.45128 7.11123 6.78928
#
# Compressibility (1/GPa) = 0.01982374
#
# Stress axis : x y z
#
# Youngs Moduli (GPa) = 46.05278 130.84296 66.96363
#
# Poissons Ratio (x) = 0.72190 0.32551
# Poissons Ratio (y) = 0.25409 0.12422
# Poissons Ratio (z) = 0.22386 0.24272
#
# Static dielectric constant tensor:
#      x y z
#    x 1.753370 0.000000 0.000000 
#    y 0.000000 1.724380 0.000000 
#    z 0.000000 0.000000 1.747660 
# 
# From -- ./inp_files/2734.got.cif
#   From: 2010.05.17/outbox.cif.g08.bks.cpg/sg39_2_cif.got.tgz:2734.got - 2010.06.03 18:22:40.
