data_PCOD9360475
_publ_section_title
;
Structure prediction by ZEFSAII (Michael W. Deem and Ramdas Pophale) SiO2 
 PCOD9360475
Probable space group: A B M 2
;
_chemical_formula_sum "Si O2"
_cell_formula_units_Z 64
_cell_length_a 9.605351
_cell_length_b 18.253949
_cell_length_c 15.129792
_cell_angle_alpha 90.000000
_cell_angle_beta 90.000000
_cell_angle_gamma 90.000000
_cell_volume 2652.790966
_symmetry_space_group_name_H-M "A B M 2"
_symmetry_group_IT_number 39
_symmetry_cell_setting 'orthorhombic'
loop_
_space_group_symop_operation_xyz
x,y,z
-x,-y,z
-x,1/2+y,z
x,1/2-y,z
x,1/2+y,1/2+z
-x,1/2-y,1/2+z
-x,y,1/2+z
x,-y,1/2+z
loop_
_atom_site_type_symbol
_atom_site_label
_atom_site_fract_x
_atom_site_fract_y
_atom_site_fract_z
Si Si1 0.898145 0.433607 0.141800
Si Si2 0.739468 0.117744 0.540947
Si Si3 0.948886 0.163411 0.299691
Si Si4 0.554566 0.831320 0.492363
Si Si5 0.041927 0.165798 0.488262
Si Si6 0.543161 0.834595 0.184882
Si Si7 0.322471 0.577885 0.281663
Si Si8 0.345746 0.981374 0.951722
O O1 0.756209 0.451564 0.193940
O O2 0.981176 0.381557 0.211957
O O3 0.000000 0.500000 0.125055
O O4 0.877331 0.385656 0.055221
O O5 0.610437 0.150174 0.482645
O O6 0.881339 0.158593 0.520387
O O7 0.752090 0.032466 0.512576
O O8 0.959211 0.250000 0.287404
O O9 0.036464 0.141930 0.386012
O O10 0.788020 0.139246 0.314718
O O11 0.584023 0.750000 0.460214
O O12 0.562660 0.832762 0.599801
O O13 0.646609 0.894176 0.449585
O O14 0.086534 0.250000 0.494388
O O15 0.565143 0.750000 0.211725
O O16 0.467561 0.884574 0.256487
O O17 0.681195 0.868057 0.139576
O O18 0.333271 0.515767 0.354846
O O19 0.500000 0.000000 0.989369
#
# Coordination Sequence:
#
# PCOD9360475 Si02
#       8
#     8   8   8   8   8   8   8   8
#     4  10  24  42  59  90 124 166 212 271 325 379
#     4   9  17  35  61  96 126 158 209 262 317 381
#     4   9  20  39  64  91 119 160 213 267 316 377
#     4   8  17  33  56  87 127 164 204 252 312 380
#     4  11  20  37  70  97 121 165 219 267 323 384
#     4   9  18  34  58  89 128 165 199 255 324 384
#     4  10  21  40  59  89 123 166 210 262 317 383
#     4  10  19  37  60  95 124 168 210 261 319 383
#
# _framework density 24.125533000000001
#
# number of rings (size 3 to 8) (size 9 to 14) (size 15 to 20)
#    1.500    1.000    1.250    1.500    0.000    1.500 
#    4.500    0.625    0.000    3.000    0.000    0.000 
#    0.000    0.000    0.000    0.000    0.000    0.000 
#
# Total GULP energy -178704.581979 kJ/mol
# GULP energy per Si atom -5584.518187 kJ/mol
# Density = 2.407062 g / cm^3
# Si number density = 24.125533 Si / 1000 Ang^3
#
#
#
# Elastic Constant Matrix: (Units=GPa)
#
#
# Indices 1 2 3 4 5 6 
#
# 1 79.5714 17.0457 20.0477 0.0000 0.0000 0.0000
# 2 17.0457 144.6282 47.1388 0.0000 0.0000 0.0000
# 3 20.0477 47.1388 88.0934 0.0000 0.0000 0.0000
# 4 0.0000 0.0000 0.0000 30.6438 0.0000 0.0000
# 5 0.0000 0.0000 0.0000 0.0000 41.4440 0.0000
# 6 0.0000 0.0000 0.0000 0.0000 0.0000 10.6176
#
#
#
# Elastic Compliance Matrix: (Units=1/GPa)
#
#
# Indices 1 2 3 4 5 6 
#
# 1 0.013391 -0.000709 -0.002668 0.000000 0.000000 0.000000
# 2 -0.000709 0.008412 -0.004340 0.000000 0.000000 0.000000
# 3 -0.002668 -0.004340 0.014281 0.000000 0.000000 0.000000
# 4 0.000000 0.000000 0.000000 0.032633 0.000000 0.000000
# 5 0.000000 0.000000 0.000000 0.000000 0.024129 0.000000
# 6 0.000000 0.000000 0.000000 0.000000 0.000000 0.094183
#
#
# Mechanical properties :
#
#
# Convention : Reuss Voigt Hill
#
# Bulk Modulus (GPa) = 48.42439 53.41749 50.92094
# Shear Modulus (GPa) = 23.88367 31.74513 27.81440
#
# Velocity S-wave (km/s) = 3.14980 3.63137 3.39913
# Velocity P-wave (km/s) = 5.77440 6.30651 6.04631
#
# Compressibility (1/GPa) = 0.02065075
#
# Stress axis : x y z
#
# Youngs Moduli (GPa) = 74.67473 118.87199 70.02164
#
# Poissons Ratio (x) = 0.08423 0.18684
# Poissons Ratio (y) = 0.05291 0.30391
# Poissons Ratio (z) = 0.19926 0.51593
#
# Static dielectric constant tensor:
#      x y z
#    x 1.961450 0.000000 0.000000 
#    y 0.000000 1.919000 0.000000 
#    z 0.000000 0.000000 1.958090 
# 
# From -- ./inp_files/12393.got.cif
#   From: 2010.05.17/outbox.cif.g08.bks.cpg/sg39_7_cif.got.tgz:12393.got - 2010.06.03 18:22:40.
