data_PCOD9360404
_publ_section_title
;
Structure prediction by ZEFSAII (Michael W. Deem and Ramdas Pophale) SiO2 
 PCOD9360404
Probable space group: A B M 2
;
_chemical_formula_sum "Si O2"
_cell_formula_units_Z 48
_cell_length_a 9.984072
_cell_length_b 15.486040
_cell_length_c 14.513737
_cell_angle_alpha 90.000000
_cell_angle_beta 90.000000
_cell_angle_gamma 90.000000
_cell_volume 2244.023135
_symmetry_space_group_name_H-M "A B M 2"
_symmetry_group_IT_number 39
_symmetry_cell_setting 'orthorhombic'
loop_
_space_group_symop_operation_xyz
x,y,z
-x,-y,z
-x,1/2+y,z
x,1/2-y,z
x,1/2+y,1/2+z
-x,1/2-y,1/2+z
-x,y,1/2+z
x,-y,1/2+z
loop_
_atom_site_type_symbol
_atom_site_label
_atom_site_fract_x
_atom_site_fract_y
_atom_site_fract_z
Si Si1 0.679226 0.653112 0.708160
Si Si2 0.790270 0.148316 0.557398
Si Si3 0.444319 0.901815 0.832097
Si Si4 0.483940 0.101771 0.538077
Si Si5 0.158123 0.144712 0.258746
Si Si6 0.113900 0.855923 0.357568
O O1 0.726048 0.750000 0.689730
O O2 0.543381 0.651571 0.767483
O O3 0.634131 0.616290 0.610687
O O4 0.787910 0.611829 0.776218
O O5 0.819710 0.250000 0.553613
O O6 0.629419 0.137914 0.566441
O O7 0.857607 0.116040 0.651916
O O8 0.839664 0.112236 0.458562
O O9 0.295052 0.894992 0.795570
O O10 0.500000 0.000000 0.828521
O O11 0.451600 0.866672 0.935800
O O12 0.500000 0.000000 0.532007
O O13 0.170103 0.250000 0.258790
O O14 0.035021 0.122148 0.325105
O O15 0.125089 0.750000 0.359217
#
# Coordination Sequence:
#
# PCOD9360404 Si02
#       6
#     8   8   8   8   8   8
#     4  11  21  36  61  89 116 154 204 251 300 354
#     4  10  19  35  60  87 119 158 201 251 310 360
#     4  11  23  38  59  86 121 158 201 249 299 356
#     4  11  23  37  59  86 125 158 203 250 302 359
#     4  10  21  37  61  91 119 159 204 249 303 361
#     4   9  20  37  58  88 125 155 197 256 305 353
#
# _framework density 21.390153000000002
#
# number of rings (size 3 to 8) (size 9 to 14) (size 15 to 20)
#    0.000    1.667    3.333    1.500    0.000    3.333 
#    0.000    4.167    0.000    2.000    0.000    0.000 
#    0.000    0.000    0.000    0.000    0.000    0.000 
#
# Total GULP energy -134003.564741 kJ/mol
# GULP energy per Si atom -5583.481864 kJ/mol
# Density = 2.134147 g / cm^3
# Si number density = 21.390153 Si / 1000 Ang^3
#
#
#
# Elastic Constant Matrix: (Units=GPa)
#
#
# Indices 1 2 3 4 5 6 
#
# 1 113.8614 -3.0287 29.4030 0.0000 0.0000 0.0000
# 2 -3.0287 20.5236 4.2363 0.0000 0.0000 0.0000
# 3 29.4030 4.2363 113.4067 0.0000 0.0000 0.0000
# 4 0.0000 0.0000 0.0000 -7.8644 0.0000 0.0000
# 5 0.0000 0.0000 0.0000 0.0000 33.7531 0.0000
# 6 0.0000 0.0000 0.0000 0.0000 0.0000 3.9250
#
#
#
# Elastic Compliance Matrix: (Units=1/GPa)
#
#
# Indices 1 2 3 4 5 6 
#
# 1 0.009488 0.001923 -0.002532 0.000000 0.000000 0.000000
# 2 0.001923 0.049493 -0.002347 0.000000 0.000000 0.000000
# 3 -0.002532 -0.002347 0.009562 0.000000 0.000000 0.000000
# 4 0.000000 0.000000 0.000000 -0.127155 0.000000 0.000000
# 5 0.000000 0.000000 0.000000 0.000000 0.029627 0.000000
# 6 0.000000 0.000000 0.000000 0.000000 0.000000 0.254774
#
#
# Mechanical properties :
#
#
# Convention : Reuss Voigt Hill
#
# Bulk Modulus (GPa) = 15.96691 34.33475 25.15083
# Shear Modulus (GPa) = 19.79594 20.44148 20.11871
#
# Velocity S-wave (km/s) = 3.04545 3.09471 3.07018
# Velocity P-wave (km/s) = 4.45502 5.37179 4.93474
#
# Compressibility (1/GPa) = 0.06262952
#
# Stress axis : x y z
#
# Youngs Moduli (GPa) = 105.40170 20.20502 104.58188
#
# Poissons Ratio (x) = -0.03885 0.26476
# Poissons Ratio (y) = -0.20265 0.24548
# Poissons Ratio (z) = 0.26684 0.04743
#
# Static dielectric constant tensor:
#      x y z
#    x 1.766930 0.000000 0.000000 
#    y 0.000000 1.817880 0.000000 
#    z 0.000000 0.000000 1.807010 
# 
# From -- ./inp_files/8313.got.cif
#   From: 2010.05.17/outbox.cif.g08.bks.cpg/sg39_5_cif.got.tgz:8313.got - 2010.06.03 18:22:40.
