data_PCOD9360412
_publ_section_title
;
Structure prediction by ZEFSAII (Michael W. Deem and Ramdas Pophale) SiO2 
 PCOD9360412
Probable space group: A B M 2
;
_chemical_formula_sum "Si O2"
_cell_formula_units_Z 52
_cell_length_a 8.899223
_cell_length_b 15.025093
_cell_length_c 21.376915
_cell_angle_alpha 90.000000
_cell_angle_beta 90.000000
_cell_angle_gamma 90.000000
_cell_volume 2858.342645
_symmetry_space_group_name_H-M "A B M 2"
_symmetry_group_IT_number 39
_symmetry_cell_setting 'orthorhombic'
loop_
_space_group_symop_operation_xyz
x,y,z
-x,-y,z
-x,1/2+y,z
x,1/2-y,z
x,1/2+y,1/2+z
-x,1/2-y,1/2+z
-x,y,1/2+z
x,-y,1/2+z
loop_
_atom_site_type_symbol
_atom_site_label
_atom_site_fract_x
_atom_site_fract_y
_atom_site_fract_z
Si Si1 0.096920 0.085307 0.812160
Si Si2 0.169562 0.518666 0.633676
Si Si3 0.000000 0.000000 0.013541
Si Si4 0.111580 0.149760 0.420261
Si Si5 0.293496 0.150113 0.695645
Si Si6 0.350782 0.354236 0.224778
Si Si7 0.661123 0.041425 0.855707
O O1 0.186905 0.132260 0.756209
O O2 0.986524 0.141875 0.856053
O O3 0.222123 0.039999 0.856038
O O4 0.000000 0.000000 0.790263
O O5 0.135400 0.529411 0.560146
O O6 0.258385 0.428085 0.647446
O O7 0.253767 0.597651 0.670392
O O8 0.000000 0.500000 0.657894
O O9 0.954696 0.081864 0.970313
O O10 0.110664 0.250000 0.442566
O O11 0.277512 0.115040 0.402931
O O12 0.262980 0.250000 0.672666
O O13 0.470006 0.143756 0.712136
O O14 0.307523 0.250000 0.232601
O O15 0.330937 0.412855 0.287244
O O16 0.500000 0.000000 0.867180
#
# Coordination Sequence:
#
# PCOD9360412 Si02
#       7
#     8   8   4   8   8   8   8
#     4  10  19  35  61  89 123 155 186 229 300 354
#     4  10  23  39  59  81 113 160 200 247 296 340
#     4  10  24  42  62  80 110 160 214 258 300 334
#     4  11  23  41  63  89 119 156 206 254 298 355
#     4  11  21  35  58  92 125 153 187 233 296 366
#     4  11  22  36  59  93 125 155 187 235 301 370
#     4  11  19  36  63  89 126 158 185 235 303 370
#
# _framework density 18.192360999999998
#
# number of rings (size 3 to 8) (size 9 to 14) (size 15 to 20)
#    0.462    0.923    5.385    1.846    2.154    1.846 
#    0.000    1.538    0.000    0.000    0.000    0.000 
#    0.000    0.000    0.000    0.000    0.000    0.000 
#
# Total GULP energy -144936.728518 kJ/mol
# GULP energy per Si atom -5574.489558 kJ/mol
# Density = 1.815095 g / cm^3
# Si number density = 18.192361 Si / 1000 Ang^3
#
#
#
# Elastic Constant Matrix: (Units=GPa)
#
#
# Indices 1 2 3 4 5 6 
#
# 1 100.6621 45.5306 27.4940 0.0000 0.0000 0.0000
# 2 45.5306 133.1563 40.4302 0.0000 0.0000 0.0000
# 3 27.4940 40.4302 86.1626 0.0000 0.0000 0.0000
# 4 0.0000 0.0000 0.0000 4.1943 0.0000 0.0000
# 5 0.0000 0.0000 0.0000 0.0000 15.6135 0.0000
# 6 0.0000 0.0000 0.0000 0.0000 0.0000 25.0277
#
#
#
# Elastic Compliance Matrix: (Units=1/GPa)
#
#
# Indices 1 2 3 4 5 6 
#
# 1 0.012112 -0.003461 -0.002241 0.000000 0.000000 0.000000
# 2 -0.003461 0.009747 -0.003469 0.000000 0.000000 0.000000
# 3 -0.002241 -0.003469 0.013949 0.000000 0.000000 0.000000
# 4 0.000000 0.000000 0.000000 0.238418 0.000000 0.000000
# 5 0.000000 0.000000 0.000000 0.000000 0.064047 0.000000
# 6 0.000000 0.000000 0.000000 0.000000 0.000000 0.039956
#
#
# Mechanical properties :
#
#
# Convention : Reuss Voigt Hill
#
# Bulk Modulus (GPa) = 57.25578 60.76563 59.01070
# Shear Modulus (GPa) = 12.42572 22.73552 17.58062
#
# Velocity S-wave (km/s) = 2.61630 3.53899 3.11203
# Velocity P-wave (km/s) = 6.37710 7.08332 6.73947
#
# Compressibility (1/GPa) = 0.01746549
#
# Stress axis : x y z
#
# Youngs Moduli (GPa) = 82.56468 102.59854 71.69088
#
# Poissons Ratio (x) = 0.35510 0.16064
# Poissons Ratio (y) = 0.28576 0.24870
# Poissons Ratio (z) = 0.18501 0.35592
#
# Static dielectric constant tensor:
#      x y z
#    x 1.671180 0.000000 0.000000 
#    y 0.000000 1.623530 0.000000 
#    z 0.000000 0.000000 1.631580 
# 
# From -- ./inp_files/15624.got.cif
#   From: 2010.05.17/outbox.cif.g08.bks.cpg/sg39_8_cif.got.tgz:15624.got - 2010.06.03 18:22:40.
