data_PCOD9360557
_publ_section_title
;
Structure prediction by ZEFSAII (Michael W. Deem and Ramdas Pophale) SiO2 
 PCOD9360557
Probable space group: A B M 2
;
_chemical_formula_sum "Si O2"
_cell_formula_units_Z 64
_cell_length_a 17.676673
_cell_length_b 9.022357
_cell_length_c 23.540675
_cell_angle_alpha 90.000000
_cell_angle_beta 90.000000
_cell_angle_gamma 90.000000
_cell_volume 3754.390541
_symmetry_space_group_name_H-M "A B M 2"
_symmetry_group_IT_number 39
_symmetry_cell_setting 'orthorhombic'
loop_
_space_group_symop_operation_xyz
x,y,z
-x,-y,z
-x,1/2+y,z
x,1/2-y,z
x,1/2+y,1/2+z
-x,1/2-y,1/2+z
-x,y,1/2+z
x,-y,1/2+z
loop_
_atom_site_type_symbol
_atom_site_label
_atom_site_fract_x
_atom_site_fract_y
_atom_site_fract_z
Si Si1 0.364100 0.579460 0.137280
Si Si2 0.274098 0.570835 0.971433
Si Si3 0.304874 0.579253 0.743306
Si Si4 0.762727 0.427925 0.351023
Si Si5 0.924347 0.925070 0.795188
Si Si6 0.136520 0.082300 0.187605
Si Si7 0.421899 0.072521 0.027275
Si Si8 0.194321 0.581153 0.083849
O O1 0.390893 0.750000 0.138346
O O2 0.358531 0.506709 0.199237
O O3 0.409354 0.480788 0.092320
O O4 0.278169 0.583028 0.112437
O O5 0.281881 0.750000 0.971201
O O6 0.253052 0.507000 0.910420
O O7 0.351806 0.496073 0.992561
O O8 0.210866 0.533689 0.019346
O O9 0.327935 0.750000 0.752017
O O10 0.291766 0.493303 0.802063
O O11 0.222079 0.582680 0.713077
O O12 0.754167 0.250000 0.354932
O O13 0.848518 0.460658 0.330460
O O14 0.933518 0.750000 0.794664
O O15 0.909863 0.982608 0.731266
O O16 0.000000 0.000000 0.818119
O O17 0.108046 0.250000 0.188511
O O18 0.143364 0.019569 0.124160
O O19 0.422900 0.250000 0.023663
O O20 0.500000 0.000000 0.007038
O O21 0.166158 0.750000 0.084586
#
# Coordination Sequence:
#
# PCOD9360557 Si02
#       8
#     8   8   8   8   8   8   8   8
#     4   9  16  28  46  70  98 126 157 196 243 293
#     4  10  20  34  52  75 102 135 175 218 258 302
#     4   9  16  27  45  70  97 126 159 198 242 290
#     4  10  20  33  50  74 102 135 174 218 260 304
#     4  10  20  33  50  72 100 131 166 208 258 310
#     4   9  16  26  44  69  95 122 154 192 239 291
#     4  11  21  34  52  75 103 134 169 211 259 311
#     4   8  15  27  44  67  95 123 153 193 241 287
#
# _framework density 17.046707999999999
#
# number of rings (size 3 to 8) (size 9 to 14) (size 15 to 20)
#    0.000    2.500    0.000    4.125    0.000    8.000 
#    0.000    0.000    0.000    1.500    0.000    7.000 
#    0.000    0.000    0.000    0.000    0.000    0.000 
#
# Total GULP energy -178386.849278 kJ/mol
# GULP energy per Si atom -5574.589040 kJ/mol
# Density = 1.700791 g / cm^3
# Si number density = 17.046708 Si / 1000 Ang^3
#
#
#
# Elastic Constant Matrix: (Units=GPa)
#
#
# Indices 1 2 3 4 5 6 
#
# 1 47.2016 40.3228 33.9070 0.0000 0.0000 0.0000
# 2 40.3228 113.7652 67.4006 0.0000 0.0000 0.0000
# 3 33.9070 67.4006 142.8837 0.0000 0.0000 0.0000
# 4 0.0000 0.0000 0.0000 30.2873 0.0000 0.0000
# 5 0.0000 0.0000 0.0000 0.0000 9.1068 0.0000
# 6 0.0000 0.0000 0.0000 0.0000 0.0000 21.0143
#
#
#
# Elastic Compliance Matrix: (Units=1/GPa)
#
#
# Indices 1 2 3 4 5 6 
#
# 1 0.031314 -0.009294 -0.003047 0.000000 0.000000 0.000000
# 2 -0.009294 0.014958 -0.004850 0.000000 0.000000 0.000000
# 3 -0.003047 -0.004850 0.010010 0.000000 0.000000 0.000000
# 4 0.000000 0.000000 0.000000 0.033017 0.000000 0.000000
# 5 0.000000 0.000000 0.000000 0.000000 0.109808 0.000000
# 6 0.000000 0.000000 0.000000 0.000000 0.000000 0.047587
#
#
# Mechanical properties :
#
#
# Convention : Reuss Voigt Hill
#
# Bulk Modulus (GPa) = 45.66360 65.23461 55.44911
# Shear Modulus (GPa) = 17.33857 22.89636 20.11746
#
# Velocity S-wave (km/s) = 3.19269 3.66888 3.43904
# Velocity P-wave (km/s) = 6.35897 7.50325 6.95469
#
# Compressibility (1/GPa) = 0.02189928
#
# Stress axis : x y z
#
# Youngs Moduli (GPa) = 31.93486 66.85532 99.90264
#
# Poissons Ratio (x) = 0.62133 0.30440
# Poissons Ratio (y) = 0.29679 0.48456
# Poissons Ratio (z) = 0.09730 0.32427
#
# Static dielectric constant tensor:
#      x y z
#    x 1.587320 0.000000 0.000000 
#    y 0.000000 1.571950 0.000000 
#    z 0.000000 0.000000 1.569660 
# 
# From -- ./inp_files/16355.got.cif
#   From: 2010.05.17/outbox.cif.g08.bks.cpg/sg39_9_cif.got.tgz:16355.got - 2010.06.03 18:22:40.
