data_PCOD9360297
_publ_section_title
;
Structure prediction by ZEFSAII (Michael W. Deem and Ramdas Pophale) SiO2 
 PCOD9360297
Probable space group: A B M 2
;
_chemical_formula_sum "Si O2"
_cell_formula_units_Z 56
_cell_length_a 5.236500
_cell_length_b 29.936071
_cell_length_c 22.269399
_cell_angle_alpha 90.000000
_cell_angle_beta 90.000000
_cell_angle_gamma 90.000000
_cell_volume 3490.956238
_symmetry_space_group_name_H-M "A B M 2"
_symmetry_group_IT_number 39
_symmetry_cell_setting 'orthorhombic'
loop_
_space_group_symop_operation_xyz
x,y,z
-x,-y,z
-x,1/2+y,z
x,1/2-y,z
x,1/2+y,1/2+z
-x,1/2-y,1/2+z
-x,y,1/2+z
x,-y,1/2+z
loop_
_atom_site_type_symbol
_atom_site_label
_atom_site_fract_x
_atom_site_fract_y
_atom_site_fract_z
Si Si1 0.426082 0.451354 0.213730
Si Si2 0.135955 0.697612 0.949224
Si Si3 0.558654 0.801292 0.145790
Si Si4 0.596361 0.362823 0.252878
Si Si5 0.916798 0.913594 0.665798
Si Si6 0.368564 0.197688 0.869508
Si Si7 0.053433 0.164882 0.579507
O O1 0.500000 0.500000 0.237224
O O2 0.460835 0.410876 0.261092
O O3 0.352254 0.560421 0.165163
O O4 0.149509 0.444966 0.184680
O O5 0.149218 0.750000 0.967849
O O6 0.897738 0.692991 0.904412
O O7 0.397200 0.687159 0.914278
O O8 0.086829 0.669016 0.008602
O O9 0.560005 0.750000 0.165483
O O10 0.555719 0.834383 0.202730
O O11 0.799277 0.810863 0.103267
O O12 0.300691 0.812150 0.109513
O O13 0.859639 0.377295 0.219198
O O14 0.626965 0.333959 0.311820
O O15 0.961933 0.885162 0.606187
O O16 0.396600 0.250000 0.851702
#
# Coordination Sequence:
#
# PCOD9360297 Si02
#       7
#     8   8   8   8   8   8   8
#     4  10  19  34  54  79 105 127 158 209 271 324
#     4  10  21  33  48  70  99 143 187 207 237 285
#     4  11  20  30  50  74 104 141 165 210 258 295
#     4   9  21  32  52  74 109 124 178 203 259 314
#     4   9  19  33  52  79 103 126 163 212 265 314
#     4  10  21  34  48  70 105 145 175 210 243 289
#     4  11  19  35  49  73 105 136 173 218 240 301
#
# _framework density 16.041450000000001
#
# number of rings (size 3 to 8) (size 9 to 14) (size 15 to 20)
#    0.857    1.143    1.429    3.000    2.000    1.143 
#    0.000    2.857    0.000    0.000    0.000    6.000 
#    0.000    0.000    0.000    0.000    0.000    0.000 
#
# Total GULP energy -155939.343705 kJ/mol
# GULP energy per Si atom -5569.262275 kJ/mol
# Density = 1.600494 g / cm^3
# Si number density = 16.041450 Si / 1000 Ang^3
#
#
#
# Elastic Constant Matrix: (Units=GPa)
#
#
# Indices 1 2 3 4 5 6 
#
# 1 88.3829 5.3542 -4.0535 0.0000 0.0000 0.0000
# 2 5.3542 76.1530 25.5960 0.0000 0.0000 0.0000
# 3 -4.0535 25.5960 56.5791 0.0000 0.0000 0.0000
# 4 0.0000 0.0000 0.0000 19.6156 0.0000 0.0000
# 5 0.0000 0.0000 0.0000 0.0000 13.1096 0.0000
# 6 0.0000 0.0000 0.0000 0.0000 0.0000 203.7216
#
#
#
# Elastic Compliance Matrix: (Units=1/GPa)
#
#
# Indices 1 2 3 4 5 6 
#
# 1 0.011456 -0.001275 0.001398 0.000000 0.000000 0.000000
# 2 -0.001275 0.015628 -0.007161 0.000000 0.000000 0.000000
# 3 0.001398 -0.007161 0.021014 0.000000 0.000000 0.000000
# 4 0.000000 0.000000 0.000000 0.050980 0.000000 0.000000
# 5 0.000000 0.000000 0.000000 0.000000 0.076280 0.000000
# 6 0.000000 0.000000 0.000000 0.000000 0.000000 0.004909
#
#
# Mechanical properties :
#
#
# Convention : Reuss Voigt Hill
#
# Bulk Modulus (GPa) = 29.39432 30.54538 29.96985
# Shear Modulus (GPa) = 24.30904 60.23724 42.27314
#
# Velocity S-wave (km/s) = 3.89702 6.13453 5.13903
# Velocity P-wave (km/s) = 6.21392 8.32223 7.34413
#
# Compressibility (1/GPa) = 0.03402017
#
# Stress axis : x y z
#
# Youngs Moduli (GPa) = 87.29237 63.98704 47.58671
#
# Poissons Ratio (x) = 0.08160 -0.06651
# Poissons Ratio (y) = 0.11131 0.34079
# Poissons Ratio (z) = -0.12200 0.45824
#
# Static dielectric constant tensor:
#      x y z
#    x 1.558040 0.000000 0.000000 
#    y 0.000000 1.562330 0.000000 
#    z 0.000000 0.000000 1.502710 
# 
# From -- ./inp_files/13588.got.cif
#   From: 2010.05.17/outbox.cif.g08.bks.cpg/sg39_7_cif.got.tgz:13588.got - 2010.06.03 18:22:40.
