data_PCOD9360536
_publ_section_title
;
Structure prediction by ZEFSAII (Michael W. Deem and Ramdas Pophale) SiO2 
 PCOD9360536
Probable space group: A B M 2
;
_chemical_formula_sum "Si O2"
_cell_formula_units_Z 56
_cell_length_a 20.893202
_cell_length_b 9.061853
_cell_length_c 15.197065
_cell_angle_alpha 90.000000
_cell_angle_beta 90.000000
_cell_angle_gamma 90.000000
_cell_volume 2877.277417
_symmetry_space_group_name_H-M "A B M 2"
_symmetry_group_IT_number 39
_symmetry_cell_setting 'orthorhombic'
loop_
_space_group_symop_operation_xyz
x,y,z
-x,-y,z
-x,1/2+y,z
x,1/2-y,z
x,1/2+y,1/2+z
-x,1/2-y,1/2+z
-x,y,1/2+z
x,-y,1/2+z
loop_
_atom_site_type_symbol
_atom_site_label
_atom_site_fract_x
_atom_site_fract_y
_atom_site_fract_z
Si Si1 0.069532 0.571843 0.611960
Si Si2 0.840701 0.930073 0.468869
Si Si3 0.700015 0.581924 0.479066
Si Si4 0.437356 0.583092 0.020125
Si Si5 0.562401 0.414668 0.231255
Si Si6 0.692779 0.582842 0.267953
Si Si7 0.831835 0.571019 0.264480
O O1 0.065474 0.750000 0.607059
O O2 0.105545 0.505925 0.527149
O O3 0.113416 0.530405 0.696066
O O4 0.000000 0.500000 0.619771
O O5 0.843407 0.750000 0.474847
O O6 0.769828 0.979362 0.502224
O O7 0.846145 0.970659 0.365532
O O8 0.697584 0.750000 0.515329
O O9 0.632164 0.510622 0.503481
O O10 0.700626 0.590932 0.373374
O O11 0.500000 0.500000 0.986329
O O12 0.435989 0.750000 0.983141
O O13 0.443769 0.592999 0.125401
O O14 0.500000 0.500000 0.264677
O O15 0.563286 0.250000 0.267495
O O16 0.629319 0.493179 0.249002
O O17 0.684701 0.750000 0.233962
O O18 0.760786 0.518023 0.236450
O O19 0.826900 0.750000 0.264710
#
# Coordination Sequence:
#
# PCOD9360536 Si02
#       7
#     8   8   8   8   8   8   8
#     4  11  23  39  58  86 117 147 185 225 271 329
#     4   9  18  37  62  85 112 149 187 227 277 331
#     4   8  16  32  54  76 101 135 174 213 265 323
#     4   9  18  32  47  68  98 134 174 216 260 311
#     4  10  20  32  47  70 102 137 176 221 267 317
#     4   9  17  33  55  76 100 135 174 216 267 320
#     4   8  18  37  59  83 115 151 185 224 276 335
#
# _framework density 19.462844
#
# number of rings (size 3 to 8) (size 9 to 14) (size 15 to 20)
#    0.000    2.857    0.000    2.571    2.000    1.714 
#    0.000    9.286    0.000    0.000    0.000    0.000 
#    0.000    0.000    0.000    0.000    0.000    0.000 
#
# Total GULP energy -156043.206220 kJ/mol
# GULP energy per Si atom -5572.971651 kJ/mol
# Density = 1.941855 g / cm^3
# Si number density = 19.462844 Si / 1000 Ang^3
#
#
#
# Elastic Constant Matrix: (Units=GPa)
#
#
# Indices 1 2 3 4 5 6 
#
# 1 225.3655 73.6234 53.9437 0.0000 0.0000 0.0000
# 2 73.6234 60.8458 23.5255 0.0000 0.0000 0.0000
# 3 53.9437 23.5255 55.2139 0.0000 0.0000 0.0000
# 4 0.0000 0.0000 0.0000 12.3059 0.0000 0.0000
# 5 0.0000 0.0000 0.0000 0.0000 47.8431 0.0000
# 6 0.0000 0.0000 0.0000 0.0000 0.0000 23.8638
#
#
#
# Elastic Compliance Matrix: (Units=1/GPa)
#
#
# Indices 1 2 3 4 5 6 
#
# 1 0.008183 -0.008153 -0.004521 0.000000 0.000000 0.000000
# 2 -0.008153 0.027801 -0.003879 0.000000 0.000000 0.000000
# 3 -0.004521 -0.003879 0.024181 0.000000 0.000000 0.000000
# 4 0.000000 0.000000 0.000000 0.081262 0.000000 0.000000
# 5 0.000000 0.000000 0.000000 0.000000 0.020902 0.000000
# 6 0.000000 0.000000 0.000000 0.000000 0.000000 0.041904
#
#
# Mechanical properties :
#
#
# Convention : Reuss Voigt Hill
#
# Bulk Modulus (GPa) = 36.95830 71.51228 54.23529
# Shear Modulus (GPa) = 20.29562 29.49140 24.89351
#
# Velocity S-wave (km/s) = 3.23273 3.89687 3.58023
# Velocity P-wave (km/s) = 5.74146 7.55448 6.70949
#
# Compressibility (1/GPa) = 0.02705752
#
# Stress axis : x y z
#
# Youngs Moduli (GPa) = 122.20590 35.97046 41.35487
#
# Poissons Ratio (x) = 0.29328 0.18695
# Poissons Ratio (y) = 0.99640 0.16043
# Poissons Ratio (z) = 0.55245 0.13954
#
# Static dielectric constant tensor:
#      x y z
#    x 1.698700 0.000000 0.000000 
#    y 0.000000 1.700690 0.000000 
#    z 0.000000 0.000000 1.688390 
# 
# From -- ./inp_files/10408.got.cif
#   From: 2010.05.17/outbox.cif.g08.bks.cpg/sg39_6_cif.got.tgz:10408.got - 2010.06.03 18:22:40.
