data_PCOD9360385
_publ_section_title
;
Structure prediction by ZEFSAII (Michael W. Deem and Ramdas Pophale) SiO2 
 PCOD9360385
Probable space group: A B M 2
;
_chemical_formula_sum "Si O2"
_cell_formula_units_Z 56
_cell_length_a 20.131546
_cell_length_b 9.016239
_cell_length_c 15.967827
_cell_angle_alpha 90.000000
_cell_angle_beta 90.000000
_cell_angle_gamma 90.000000
_cell_volume 2898.333535
_symmetry_space_group_name_H-M "A B M 2"
_symmetry_group_IT_number 39
_symmetry_cell_setting 'orthorhombic'
loop_
_space_group_symop_operation_xyz
x,y,z
-x,-y,z
-x,1/2+y,z
x,1/2-y,z
x,1/2+y,1/2+z
-x,1/2-y,1/2+z
-x,y,1/2+z
x,-y,1/2+z
loop_
_atom_site_type_symbol
_atom_site_label
_atom_site_fract_x
_atom_site_fract_y
_atom_site_fract_z
Si Si1 0.212089 0.923883 0.950810
Si Si2 0.657752 0.069991 0.212793
Si Si3 0.345579 0.427662 0.899443
Si Si4 0.932545 0.921270 0.195923
Si Si5 0.572678 0.070848 0.050580
Si Si6 0.932762 0.577921 0.398345
Si Si7 0.797009 0.077786 0.148438
O O1 0.216803 0.750000 0.923874
O O2 0.137829 0.979736 0.931065
O O3 0.269314 0.020839 0.909423
O O4 0.221652 0.926731 0.050642
O O5 0.661284 0.250000 0.209866
O O6 0.632860 0.030182 0.305112
O O7 0.611705 0.025388 0.135329
O O8 0.733351 0.016787 0.198207
O O9 0.351013 0.250000 0.909327
O O10 0.387311 0.510301 0.970565
O O11 0.934934 0.750000 0.172319
O O12 0.930977 0.931559 0.297335
O O13 0.865348 0.993960 0.163233
O O14 0.000000 0.000000 0.166881
O O15 0.569559 0.250000 0.047587
O O16 0.500000 0.000000 0.050980
O O17 0.936331 0.750000 0.422924
O O18 0.000000 0.500000 0.427844
O O19 0.807426 0.250000 0.171987
#
# Coordination Sequence:
#
# PCOD9360385 Si02
#       7
#     8   8   8   8   8   8   8
#     4  10  20  36  57  82 116 156 195 243 302 358
#     4   9  20  39  63  89 123 162 200 242 297 355
#     4  11  22  38  63  95 124 158 204 248 292 352
#     4  10  20  34  51  75 107 145 192 246 298 354
#     4  11  23  44  67  92 127 163 197 241 295 353
#     4   9  19  34  52  75 106 146 194 245 299 356
#     4  10  19  35  57  80 111 153 193 240 298 353
#
# _framework density 19.321446999999999
#
# number of rings (size 3 to 8) (size 9 to 14) (size 15 to 20)
#    0.000    2.000    1.429    2.143    0.000    2.857 
#    0.000    6.429    0.000    0.000    0.000    0.000 
#    0.000    0.000    0.000    0.000    0.000    0.000 
#
# Total GULP energy -156346.028399 kJ/mol
# GULP energy per Si atom -5583.786729 kJ/mol
# Density = 1.927747 g / cm^3
# Si number density = 19.321447 Si / 1000 Ang^3
#
#
#
# Elastic Constant Matrix: (Units=GPa)
#
#
# Indices 1 2 3 4 5 6 
#
# 1 139.7266 43.8333 67.6010 0.0000 0.0000 0.0000
# 2 43.8333 64.4006 43.2758 0.0000 0.0000 0.0000
# 3 67.6010 43.2758 99.7001 0.0000 0.0000 0.0000
# 4 0.0000 0.0000 0.0000 19.3117 0.0000 0.0000
# 5 0.0000 0.0000 0.0000 0.0000 -4.1564 0.0000
# 6 0.0000 0.0000 0.0000 0.0000 0.0000 36.7848
#
#
#
# Elastic Compliance Matrix: (Units=1/GPa)
#
#
# Indices 1 2 3 4 5 6 
#
# 1 0.011200 -0.003558 -0.006050 0.000000 0.000000 0.000000
# 2 -0.003558 0.023052 -0.007594 0.000000 0.000000 0.000000
# 3 -0.006050 -0.007594 0.017428 0.000000 0.000000 0.000000
# 4 0.000000 0.000000 0.000000 0.051782 0.000000 0.000000
# 5 0.000000 0.000000 0.000000 0.000000 -0.240593 0.000000
# 6 0.000000 0.000000 0.000000 0.000000 0.000000 0.027185
#
#
# Mechanical properties :
#
#
# Convention : Reuss Voigt Hill
#
# Bulk Modulus (GPa) = 57.87759 68.13862 63.00811
# Shear Modulus (GPa) = -71.64997 20.32917 -25.66040
#
# Velocity S-wave (km/s) = -6.09620 3.24721 -3.64823
# Velocity P-wave (km/s) = 4.41943 7.02862 3.86459
#
# Compressibility (1/GPa) = 0.01727784
#
# Stress axis : x y z
#
# Youngs Moduli (GPa) = 89.28724 43.37988 57.37839
#
# Poissons Ratio (x) = 0.15433 0.34712
# Poissons Ratio (y) = 0.31766 0.43572
# Poissons Ratio (z) = 0.54016 0.32942
#
# Static dielectric constant tensor:
#      x y z
#    x 1.660270 0.000000 0.000000 
#    y 0.000000 1.660610 0.000000 
#    z 0.000000 0.000000 1.684520 
# 
# From -- ./inp_files/10329.got.cif
#   From: 2010.05.17/outbox.cif.g08.bks.cpg/sg39_6_cif.got.tgz:10329.got - 2010.06.03 18:22:40.
