data_PCOD9360422
_publ_section_title
;
Structure prediction by ZEFSAII (Michael W. Deem and Ramdas Pophale) SiO2 
 PCOD9360422
Probable space group: A B M 2
;
_chemical_formula_sum "Si O2"
_cell_formula_units_Z 48
_cell_length_a 5.841413
_cell_length_b 25.681721
_cell_length_c 13.633499
_cell_angle_alpha 90.000000
_cell_angle_beta 90.000000
_cell_angle_gamma 90.000000
_cell_volume 2045.263967
_symmetry_space_group_name_H-M "A B M 2"
_symmetry_group_IT_number 39
_symmetry_cell_setting 'orthorhombic'
loop_
_space_group_symop_operation_xyz
x,y,z
-x,-y,z
-x,1/2+y,z
x,1/2-y,z
x,1/2+y,1/2+z
-x,1/2-y,1/2+z
-x,y,1/2+z
x,-y,1/2+z
loop_
_atom_site_type_symbol
_atom_site_label
_atom_site_fract_x
_atom_site_fract_y
_atom_site_fract_z
Si Si1 0.251878 0.007720 0.703820
Si Si2 0.746454 0.378006 0.116637
Si Si3 0.967698 0.190527 0.750318
Si Si4 0.072237 0.132074 0.932551
Si Si5 0.363607 0.806717 0.563544
Si Si6 0.749336 0.972850 0.985591
O O1 0.259011 0.066901 0.667300
O O2 0.500000 0.000000 0.753767
O O3 0.251765 0.971082 0.605766
O O4 0.000000 0.000000 0.751029
O O5 0.814283 0.333546 0.194455
O O6 0.518213 0.357162 0.068943
O O7 0.920596 0.381132 0.026844
O O8 0.997260 0.250000 0.783104
O O9 0.779823 0.191737 0.664265
O O10 0.928478 0.150065 0.838604
O O11 0.209978 0.183048 0.968146
O O12 0.229961 0.080926 0.924599
O O13 0.478393 0.750000 0.556339
O O14 0.500000 0.000000 0.966456
O O15 0.000000 0.000000 0.966888
#
# Coordination Sequence:
#
# PCOD9360422 Si02
#       6
#     8   8   8   8   8   8
#     4  10  19  35  64  96 131 173 216 274 334 400
#     4  11  22  40  67  94 129 177 224 276 342 408
#     4  10  24  43  62  95 136 170 225 289 342 407
#     4  11  22  40  68  95 130 182 225 277 347 413
#     4  10  22  40  65  94 130 173 226 284 345 411
#     4  10  19  36  63  97 135 172 218 280 332 399
#
# _framework density 23.468851999999998
#
# number of rings (size 3 to 8) (size 9 to 14) (size 15 to 20)
#    0.000    1.667    3.333    3.000    2.333    3.333 
#    0.000    3.333    0.000    0.000    0.000    0.000 
#    0.000    0.000    0.000    0.000    0.000    0.000 
#
# Total GULP energy -133839.947941 kJ/mol
# GULP energy per Si atom -5576.664498 kJ/mol
# Density = 2.341544 g / cm^3
# Si number density = 23.468852 Si / 1000 Ang^3
#
#
#
# Elastic Constant Matrix: (Units=GPa)
#
#
# Indices 1 2 3 4 5 6 
#
# 1 127.2752 36.6249 1.6339 0.0000 0.0000 0.0000
# 2 36.6249 102.3142 -1.6782 0.0000 0.0000 0.0000
# 3 1.6339 -1.6782 52.2432 0.0000 0.0000 0.0000
# 4 0.0000 0.0000 0.0000 16.2381 0.0000 0.0000
# 5 0.0000 0.0000 0.0000 0.0000 -12.4443 0.0000
# 6 0.0000 0.0000 0.0000 0.0000 0.0000 35.1168
#
#
#
# Elastic Compliance Matrix: (Units=1/GPa)
#
#
# Indices 1 2 3 4 5 6 
#
# 1 0.008767 -0.003144 -0.000375 0.000000 0.000000 0.000000
# 2 -0.003144 0.010907 0.000449 0.000000 0.000000 0.000000
# 3 -0.000375 0.000449 0.019167 0.000000 0.000000 0.000000
# 4 0.000000 0.000000 0.000000 0.061584 0.000000 0.000000
# 5 0.000000 0.000000 0.000000 0.000000 -0.080358 0.000000
# 6 0.000000 0.000000 0.000000 0.000000 0.000000 0.028476
#
#
# Mechanical properties :
#
#
# Convention : Reuss Voigt Hill
#
# Bulk Modulus (GPa) = 30.58183 39.44377 35.01280
# Shear Modulus (GPa) = 76.23800 24.13223 50.18511
#
# Velocity S-wave (km/s) = 5.70572 3.21014 4.62927
# Velocity P-wave (km/s) = 7.51440 5.53022 6.59733
#
# Compressibility (1/GPa) = 0.03269916
#
# Stress axis : x y z
#
# Youngs Moduli (GPa) = 114.06907 91.68651 52.17192
#
# Poissons Ratio (x) = 0.28829 0.01957
# Poissons Ratio (y) = 0.35867 -0.02341
# Poissons Ratio (z) = 0.04280 -0.04114
#
# Static dielectric constant tensor:
#      x y z
#    x 1.952120 0.000000 0.000000 
#    y 0.000000 1.936580 0.000000 
#    z 0.000000 0.000000 1.883080 
# 
# From -- ./inp_files/7550.got.cif
#   From: 2010.05.17/outbox.cif.g08.bks.cpg/sg39_4_cif.got.tgz:7550.got - 2010.06.03 18:22:40.
