data_PCOD9360850
_publ_section_title
;
Structure prediction by ZEFSAII (Michael W. Deem and Ramdas Pophale) SiO2 
 PCOD9360850
Probable space group: A B M 2
;
_chemical_formula_sum "Si O2"
_cell_formula_units_Z 48
_cell_length_a 9.704565
_cell_length_b 8.647431
_cell_length_c 31.046916
_cell_angle_alpha 90.000000
_cell_angle_beta 90.000000
_cell_angle_gamma 90.000000
_cell_volume 2605.443413
_symmetry_space_group_name_H-M "A B M 2"
_symmetry_group_IT_number 39
_symmetry_cell_setting 'orthorhombic'
loop_
_space_group_symop_operation_xyz
x,y,z
-x,-y,z
-x,1/2+y,z
x,1/2-y,z
x,1/2+y,1/2+z
-x,1/2-y,1/2+z
-x,y,1/2+z
x,-y,1/2+z
loop_
_atom_site_type_symbol
_atom_site_label
_atom_site_fract_x
_atom_site_fract_y
_atom_site_fract_z
Si Si1 0.345933 0.564296 0.783130
Si Si2 0.150846 0.563728 0.952285
Si Si3 0.151723 0.934933 0.357271
Si Si4 0.151497 0.935362 0.703381
Si Si5 0.346494 0.563666 0.030771
Si Si6 0.847920 0.935904 0.609200
O O1 0.500000 0.500000 0.781561
O O2 0.348600 0.750000 0.786615
O O3 0.262625 0.495290 0.823351
O O4 0.261115 0.522894 0.739963
O O5 0.144567 0.750000 0.949775
O O6 0.183661 0.496509 0.905215
O O7 0.000000 0.500000 0.964433
O O8 0.261626 0.517628 0.988169
O O9 0.146663 0.750000 0.357493
O O10 0.000000 0.000000 0.345862
O O11 0.142748 0.750000 0.700420
O O12 0.188870 0.002613 0.656622
O O13 0.000000 0.000000 0.714616
O O14 0.500000 0.500000 0.030818
O O15 0.351756 0.750000 0.031164
O O16 0.260351 0.514655 0.072885
O O17 0.854243 0.750000 0.610206
O O18 0.000000 0.000000 0.598883
#
# Coordination Sequence:
#
# PCOD9360850 Si02
#       6
#     8   8   8   8   8   8
#     4  11  24  40  58  83 115 151 189 230 281 337
#     4  10  20  37  59  84 112 144 187 233 278 329
#     4  11  22  38  61  87 114 147 188 233 281 332
#     4  10  21  37  59  85 111 144 186 230 277 329
#     4  10  23  38  55  81 113 149 186 226 274 331
#     4  10  20  36  58  84 111 143 185 230 276 326
#
# _framework density 18.422968999999998
#
# number of rings (size 3 to 8) (size 9 to 14) (size 15 to 20)
#    0.000    1.667    0.000    6.500    0.000    8.000 
#    0.000    5.000    0.000    0.000    0.000    0.000 
#    0.000    0.000    0.000    0.000    0.000    0.000 
#
# Total GULP energy -134147.844619 kJ/mol
# GULP energy per Si atom -5589.493526 kJ/mol
# Density = 1.838104 g / cm^3
# Si number density = 18.422969 Si / 1000 Ang^3
#
#
#
# Elastic Constant Matrix: (Units=GPa)
#
#
# Indices 1 2 3 4 5 6 
#
# 1 180.3450 63.5087 147.1610 0.0000 0.0000 0.0000
# 2 63.5087 82.0620 60.9309 0.0000 0.0000 0.0000
# 3 147.1610 60.9309 149.2911 0.0000 0.0000 0.0000
# 4 0.0000 0.0000 0.0000 19.8100 0.0000 0.0000
# 5 0.0000 0.0000 0.0000 0.0000 -29.3349 0.0000
# 6 0.0000 0.0000 0.0000 0.0000 0.0000 35.9640
#
#
#
# Elastic Compliance Matrix: (Units=1/GPa)
#
#
# Indices 1 2 3 4 5 6 
#
# 1 0.028510 -0.001718 -0.027401 0.000000 0.000000 0.000000
# 2 -0.001718 0.017588 -0.005484 0.000000 0.000000 0.000000
# 3 -0.027401 -0.005484 0.035947 0.000000 0.000000 0.000000
# 4 0.000000 0.000000 0.000000 0.050480 0.000000 0.000000
# 5 0.000000 0.000000 0.000000 0.000000 -0.034089 0.000000
# 6 0.000000 0.000000 0.000000 0.000000 0.000000 0.027806
#
#
# Mechanical properties :
#
#
# Convention : Reuss Voigt Hill
#
# Bulk Modulus (GPa) = 77.90446 106.09992 92.00219
# Shear Modulus (GPa) = 25.03404 14.62765 19.83085
#
# Velocity S-wave (km/s) = 3.69026 2.82084 3.28444
# Velocity P-wave (km/s) = 7.78047 8.26593 8.02687
#
# Compressibility (1/GPa) = 0.01283624
#
# Stress axis : x y z
#
# Youngs Moduli (GPa) = 35.07598 56.85713 27.81855
#
# Poissons Ratio (x) = 0.09770 0.76227
# Poissons Ratio (y) = 0.06027 0.15257
# Poissons Ratio (z) = 0.96113 0.31183
#
# Static dielectric constant tensor:
#      x y z
#    x 1.597600 0.000000 0.000000 
#    y 0.000000 1.622630 0.000000 
#    z 0.000000 0.000000 1.625850 
# 
# From -- ./inp_files/17607.got.cif
#   From: 2010.05.17/outbox.cif.g08.bks.cpg/sg39_9_cif.got.tgz:17607.got - 2010.06.03 18:22:40.
