data_PCOD9360888
_publ_section_title
;
Structure prediction by ZEFSAII (Michael W. Deem and Ramdas Pophale) SiO2 
 PCOD9360888
Probable space group: A B M 2
;
_chemical_formula_sum "Si O2"
_cell_formula_units_Z 44
_cell_length_a 13.581759
_cell_length_b 9.515322
_cell_length_c 17.281161
_cell_angle_alpha 90.000000
_cell_angle_beta 90.000000
_cell_angle_gamma 90.000000
_cell_volume 2233.327562
_symmetry_space_group_name_H-M "A B M 2"
_symmetry_group_IT_number 39
_symmetry_cell_setting 'orthorhombic'
loop_
_space_group_symop_operation_xyz
x,y,z
-x,-y,z
-x,1/2+y,z
x,1/2-y,z
x,1/2+y,1/2+z
-x,1/2-y,1/2+z
-x,y,1/2+z
x,-y,1/2+z
loop_
_atom_site_type_symbol
_atom_site_label
_atom_site_fract_x
_atom_site_fract_y
_atom_site_fract_z
Si Si1 0.619654 0.895594 0.320670
Si Si2 0.089442 0.585960 0.352277
Si Si3 0.817807 0.410710 0.721045
Si Si4 0.500000 0.500000 0.685315
Si Si5 0.303180 0.916081 0.096511
Si Si6 0.300063 0.411833 0.939315
O O1 0.607840 0.750000 0.365966
O O2 0.725673 0.896741 0.279487
O O3 0.547777 0.896440 0.247883
O O4 0.622258 0.029769 0.376139
O O5 0.064468 0.750000 0.341364
O O6 0.108915 0.506479 0.270988
O O7 0.190700 0.581344 0.401513
O O8 0.000000 0.500000 0.390638
O O9 0.850214 0.250000 0.702819
O O10 0.775322 0.496762 0.648265
O O11 0.411028 0.438744 0.635081
O O12 0.281199 0.750000 0.095252
O O13 0.304056 0.986995 0.012689
O O14 0.320330 0.250000 0.959690
#
# Coordination Sequence:
#
# PCOD9360888 Si02
#       6
#     8   8   8   4   8   8
#     4   9  18  34  55  77 103 139 182 225 272 327
#     4  10  20  36  60  87 113 145 188 233 279 337
#     4   9  18  34  56  81 111 144 179 224 277 330
#     4  10  22  36  56  82 110 144 190 240 284 332
#     4  11  22  37  58  83 114 151 191 234 284 338
#     4  10  22  38  56  81 114 149 184 229 285 338
#
# _framework density 19.701543000000001
#
# number of rings (size 3 to 8) (size 9 to 14) (size 15 to 20)
#    0.000    2.182    0.000    2.727    0.000   10.182 
#    0.000    0.909    0.000    2.182    0.000    0.000 
#    0.000    0.000    0.000    0.000    0.000    0.000 
#
# Total GULP energy -122584.358414 kJ/mol
# GULP energy per Si atom -5572.016292 kJ/mol
# Density = 1.965670 g / cm^3
# Si number density = 19.701543 Si / 1000 Ang^3
#
#
#
# Elastic Constant Matrix: (Units=GPa)
#
#
# Indices 1 2 3 4 5 6 
#
# 1 62.8593 36.3586 15.6498 0.0000 0.0000 0.0000
# 2 36.3586 199.4310 63.0141 0.0000 0.0000 0.0000
# 3 15.6498 63.0141 85.6431 0.0000 0.0000 0.0000
# 4 0.0000 0.0000 0.0000 29.5489 0.0000 0.0000
# 5 0.0000 0.0000 0.0000 0.0000 16.1715 0.0000
# 6 0.0000 0.0000 0.0000 0.0000 0.0000-1278.2888
#
#
#
# Elastic Compliance Matrix: (Units=1/GPa)
#
#
# Indices 1 2 3 4 5 6 
#
# 1 0.017868 -0.002900 -0.001131 0.000000 0.000000 0.000000
# 2 -0.002900 0.007004 -0.004623 0.000000 0.000000 0.000000
# 3 -0.001131 -0.004623 0.015285 0.000000 0.000000 0.000000
# 4 0.000000 0.000000 0.000000 0.033842 0.000000 0.000000
# 5 0.000000 0.000000 0.000000 0.000000 0.061837 0.000000
# 6 0.000000 0.000000 0.000000 0.000000 0.000000 -0.000782
#
#
# Mechanical properties :
#
#
# Convention : Reuss Voigt Hill
#
# Bulk Modulus (GPa) = 43.76932 64.21984 53.99458
# Shear Modulus (GPa) = 31.25428 -230.98630 -99.86601
#
# Velocity S-wave (km/s) = 3.98727 -10.83962 -7.12738
# Velocity P-wave (km/s) = 6.59258 11.13535 6.34562
#
# Compressibility (1/GPa) = 0.02284705
#
# Stress axis : x y z
#
# Youngs Moduli (GPa) = 55.96729 142.77976 65.42458
#
# Poissons Ratio (x) = 0.41407 0.07401
# Poissons Ratio (y) = 0.16231 0.30248
# Poissons Ratio (z) = 0.06331 0.66011
#
# Static dielectric constant tensor:
#      x y z
#    x 1.754550 0.000000 0.000000 
#    y 0.000000 1.771200 0.000000 
#    z 0.000000 0.000000 1.655010 
# 
# From -- ./inp_files/12559.got.cif
#   From: 2010.05.17/outbox.cif.g08.bks.cpg/sg39_7_cif.got.tgz:12559.got - 2010.06.03 18:22:40.
