data_PCOD9360323
_publ_section_title
;
Structure prediction by ZEFSAII (Michael W. Deem and Ramdas Pophale) SiO2 
 PCOD9360323
Probable space group: A B M 2
;
_chemical_formula_sum "Si O2"
_cell_formula_units_Z 56
_cell_length_a 15.433672
_cell_length_b 8.683981
_cell_length_c 20.495743
_cell_angle_alpha 90.000000
_cell_angle_beta 90.000000
_cell_angle_gamma 90.000000
_cell_volume 2746.956598
_symmetry_space_group_name_H-M "A B M 2"
_symmetry_group_IT_number 39
_symmetry_cell_setting 'orthorhombic'
loop_
_space_group_symop_operation_xyz
x,y,z
-x,-y,z
-x,1/2+y,z
x,1/2-y,z
x,1/2+y,1/2+z
-x,1/2-y,1/2+z
-x,y,1/2+z
x,-y,1/2+z
loop_
_atom_site_type_symbol
_atom_site_label
_atom_site_fract_x
_atom_site_fract_y
_atom_site_fract_z
Si Si1 0.225247 0.065718 0.437120
Si Si2 0.628646 0.929629 0.612538
Si Si3 0.832004 0.928516 0.579201
Si Si4 0.409897 0.933817 0.754635
Si Si5 0.231322 0.567560 0.301967
Si Si6 0.092830 0.431237 0.202885
Si Si7 0.590063 0.068369 0.475546
O O1 0.221920 0.250000 0.430492
O O2 0.174303 0.024152 0.503506
O O3 0.194062 0.983802 0.371788
O O4 0.324883 0.014673 0.447842
O O5 0.602100 0.750000 0.605734
O O6 0.732866 0.933799 0.605286
O O7 0.601282 0.996328 0.681882
O O8 0.593546 0.030395 0.552882
O O9 0.860460 0.750000 0.583183
O O10 0.888330 0.030921 0.627178
O O11 0.413130 0.750000 0.751968
O O12 0.500000 0.000000 0.781662
O O13 0.324866 0.988429 0.792951
O O14 0.242352 0.750000 0.298336
O O15 0.167673 0.511077 0.245261
O O16 0.095274 0.250000 0.214149
O O17 0.000000 0.500000 0.220978
O O18 0.595095 0.250000 0.464038
O O19 0.500000 0.000000 0.449956
#
# Coordination Sequence:
#
# PCOD9360323 Si02
#       7
#     8   8   8   8   8   8   8
#     4  10  22  41  64  90 124 167 212 259 321 382
#     4  10  19  34  56  84 121 162 206 263 322 375
#     4   9  19  38  65  94 127 161 203 258 315 376
#     4  12  24  38  58  87 124 170 220 269 323 380
#     4  12  25  44  66  94 133 172 216 267 324 386
#     4  12  25  43  71 102 133 168 212 262 321 385
#     4  11  21  34  53  81 118 162 215 268 320 376
#
# _framework density 20.386199000000001
#
# number of rings (size 3 to 8) (size 9 to 14) (size 15 to 20)
#    0.000    1.143    1.429    7.286    0.000    3.429 
#    0.000    3.571    0.000    3.429    0.000    0.000 
#    0.000    0.000    0.000    0.000    0.000    0.000 
#
# Total GULP energy -156663.598852 kJ/mol
# GULP energy per Si atom -5595.128530 kJ/mol
# Density = 2.033980 g / cm^3
# Si number density = 20.386199 Si / 1000 Ang^3
#
#
#
# Elastic Constant Matrix: (Units=GPa)
#
#
# Indices 1 2 3 4 5 6 
#
# 1 57.9544 20.0520 16.6989 0.0000 0.0000 0.0000
# 2 20.0520 98.0560 12.2544 0.0000 0.0000 0.0000
# 3 16.6989 12.2544 92.7082 0.0000 0.0000 0.0000
# 4 0.0000 0.0000 0.0000 31.3069 0.0000 0.0000
# 5 0.0000 0.0000 0.0000 0.0000 -6.2650 0.0000
# 6 0.0000 0.0000 0.0000 0.0000 0.0000 30.0866
#
#
#
# Elastic Compliance Matrix: (Units=1/GPa)
#
#
# Indices 1 2 3 4 5 6 
#
# 1 0.019363 -0.003583 -0.003014 0.000000 0.000000 0.000000
# 2 -0.003583 0.011033 -0.000813 0.000000 0.000000 0.000000
# 3 -0.003014 -0.000813 0.011437 0.000000 0.000000 0.000000
# 4 0.000000 0.000000 0.000000 0.031942 0.000000 0.000000
# 5 0.000000 0.000000 0.000000 0.000000 -0.159618 0.000000
# 6 0.000000 0.000000 0.000000 0.000000 0.000000 0.033237
#
#
# Mechanical properties :
#
#
# Convention : Reuss Voigt Hill
#
# Bulk Modulus (GPa) = 37.01995 38.52548 37.77271
# Shear Modulus (GPa) = -173.72168 24.33993 -74.69088
#
# Velocity S-wave (km/s) = -9.24123 3.45909 -6.05950
# Velocity P-wave (km/s) = 9.78102 5.90700 5.51252
#
# Compressibility (1/GPa) = 0.02701246
#
# Stress axis : x y z
#
# Youngs Moduli (GPa) = 51.64454 90.64088 87.43618
#
# Poissons Ratio (x) = 0.32476 0.26355
# Poissons Ratio (y) = 0.18504 0.07108
# Poissons Ratio (z) = 0.15566 0.07368
#
# Static dielectric constant tensor:
#      x y z
#    x 1.714340 0.000000 0.000000 
#    y 0.000000 1.671660 0.000000 
#    z 0.000000 0.000000 1.751790 
# 
# From -- ./inp_files/14797.got.cif
#   From: 2010.05.17/outbox.cif.g08.bks.cpg/sg39_8_cif.got.tgz:14797.got - 2010.06.03 18:22:40.
