data_PCOD9360909
_publ_section_title
;
Structure prediction by ZEFSAII (Michael W. Deem and Ramdas Pophale) SiO2 
 PCOD9360909
Probable space group: A B M 2
;
_chemical_formula_sum "Si O2"
_cell_formula_units_Z 56
_cell_length_a 20.437394
_cell_length_b 15.639536
_cell_length_c 8.993726
_cell_angle_alpha 90.000000
_cell_angle_beta 90.000000
_cell_angle_gamma 90.000000
_cell_volume 2874.676866
_symmetry_space_group_name_H-M "A B M 2"
_symmetry_group_IT_number 39
_symmetry_cell_setting 'orthorhombic'
loop_
_space_group_symop_operation_xyz
x,y,z
-x,-y,z
-x,1/2+y,z
x,1/2-y,z
x,1/2+y,1/2+z
-x,1/2-y,1/2+z
-x,y,1/2+z
x,-y,1/2+z
loop_
_atom_site_type_symbol
_atom_site_label
_atom_site_fract_x
_atom_site_fract_y
_atom_site_fract_z
Si Si1 0.837669 0.943935 0.668570
Si Si2 0.048605 0.154253 0.793135
Si Si3 0.054276 0.426498 0.112701
Si Si4 0.590157 0.150818 0.130185
Si Si5 0.454525 0.348225 0.288132
Si Si6 0.653236 0.468153 0.665865
Si Si7 0.746000 0.001756 0.417707
O O1 0.894465 0.873923 0.678846
O O2 0.790707 0.945058 0.526565
O O3 0.877077 0.034264 0.663220
O O4 0.793454 0.941982 0.815348
O O5 0.059620 0.250000 0.842047
O O6 0.977775 0.145231 0.716264
O O7 0.054857 0.096686 0.939735
O O8 0.000000 0.500000 0.132531
O O9 0.614928 0.250000 0.140480
O O10 0.530437 0.141733 0.246453
O O11 0.637808 0.070219 0.157432
O O12 0.560846 0.140201 0.963005
O O13 0.436782 0.250000 0.249578
O O14 0.412041 0.414843 0.193012
O O15 0.695004 0.446986 0.519976
O O16 0.700986 0.449854 0.803912
#
# Coordination Sequence:
#
# PCOD9360909 Si02
#       7
#     8   8   8   8   8   8   8
#     4  10  20  40  61  81 111 157 196 231 274 357
#     4  11  22  36  58  92 119 141 183 246 296 334
#     4  10  20  36  62  84 111 154 188 229 286 350
#     4  10  22  39  61  88 120 152 191 244 301 352
#     4  10  22  39  60  89 121 153 192 243 300 352
#     4  11  21  39  62  87 115 157 195 248 284 349
#     4  10  22  37  61  85 110 154 204 233 277 333
#
# _framework density 19.480450000000001
#
# number of rings (size 3 to 8) (size 9 to 14) (size 15 to 20)
#    0.000    1.714    2.857    2.143    4.000    1.143 
#    0.000    4.286    0.000    1.714    0.000    0.000 
#    0.000    0.000    0.000    0.000    0.000    0.000 
#
# Total GULP energy -156120.038617 kJ/mol
# GULP energy per Si atom -5575.715665 kJ/mol
# Density = 1.943611 g / cm^3
# Si number density = 19.480450 Si / 1000 Ang^3
#
#
#
# Elastic Constant Matrix: (Units=GPa)
#
#
# Indices 1 2 3 4 5 6 
#
# 1 74.3893 26.8688 20.3393 0.0000 0.0000 0.0000
# 2 26.8688 62.4551 12.7512 0.0000 0.0000 0.0000
# 3 20.3393 12.7512 81.1020 0.0000 0.0000 0.0000
# 4 0.0000 0.0000 0.0000 -34.5544 0.0000 0.0000
# 5 0.0000 0.0000 0.0000 0.0000 38.9557 0.0000
# 6 0.0000 0.0000 0.0000 0.0000 0.0000 9.3740
#
#
#
# Elastic Compliance Matrix: (Units=1/GPa)
#
#
# Indices 1 2 3 4 5 6 
#
# 1 0.016661 -0.006524 -0.003153 0.000000 0.000000 0.000000
# 2 -0.006524 0.019097 -0.001366 0.000000 0.000000 0.000000
# 3 -0.003153 -0.001366 0.013336 0.000000 0.000000 0.000000
# 4 0.000000 0.000000 0.000000 -0.028940 0.000000 0.000000
# 5 0.000000 0.000000 0.000000 0.000000 0.025670 0.000000
# 6 0.000000 0.000000 0.000000 0.000000 0.000000 0.106678
#
#
# Mechanical properties :
#
#
# Convention : Reuss Voigt Hill
#
# Bulk Modulus (GPa) = 37.02646 37.54055 37.28351
# Shear Modulus (GPa) = 27.23440 13.28753 20.26097
#
# Velocity S-wave (km/s) = 3.74309 2.61453 3.22851
# Velocity P-wave (km/s) = 6.14241 5.33170 5.75136
#
# Compressibility (1/GPa) = 0.02700771
#
# Stress axis : x y z
#
# Youngs Moduli (GPa) = 60.01949 52.36362 74.98716
#
# Poissons Ratio (x) = 0.34163 0.23641
# Poissons Ratio (y) = 0.39158 0.10246
# Poissons Ratio (z) = 0.18922 0.07155
#
# Static dielectric constant tensor:
#      x y z
#    x 1.703230 0.000000 0.000000 
#    y 0.000000 1.949320 0.000000 
#    z 0.000000 0.000000 1.701490 
# 
# From -- ./inp_files/3959.got.cif
#   From: 2010.05.17/outbox.cif.g08.bks.cpg/sg39_2_cif.got.tgz:3959.got - 2010.06.03 18:22:40.
