data_PCOD9360143
_publ_section_title
;
Structure prediction by ZEFSAII (Michael W. Deem and Ramdas Pophale) SiO2 
 PCOD9360143
Probable space group: A B M 2
;
_chemical_formula_sum "Si O2"
_cell_formula_units_Z 64
_cell_length_a 20.336840
_cell_length_b 8.412675
_cell_length_c 20.937210
_cell_angle_alpha 90.000000
_cell_angle_beta 90.000000
_cell_angle_gamma 90.000000
_cell_volume 3582.089168
_symmetry_space_group_name_H-M "A B M 2"
_symmetry_group_IT_number 39
_symmetry_cell_setting 'orthorhombic'
loop_
_space_group_symop_operation_xyz
x,y,z
-x,-y,z
-x,1/2+y,z
x,1/2-y,z
x,1/2+y,1/2+z
-x,1/2-y,1/2+z
-x,y,1/2+z
x,-y,1/2+z
loop_
_atom_site_type_symbol
_atom_site_label
_atom_site_fract_x
_atom_site_fract_y
_atom_site_fract_z
Si Si1 0.822503 0.940787 0.280370
Si Si2 0.193491 0.441712 0.422847
Si Si3 0.679589 0.557315 0.735111
Si Si4 0.159494 0.556643 0.059824
Si Si5 0.690458 0.558517 0.591843
Si Si6 0.661059 0.559975 0.957156
Si Si7 0.426287 0.058256 0.840299
Si Si8 0.926315 0.059733 0.177065
O O1 0.824845 0.750000 0.279346
O O2 0.830658 0.996979 0.353757
O O3 0.750669 0.995398 0.256843
O O4 0.878050 0.006049 0.233541
O O5 0.191531 0.250000 0.422742
O O6 0.154844 0.497078 0.486247
O O7 0.269174 0.491602 0.433109
O O8 0.682525 0.750000 0.736390
O O9 0.666926 0.508275 0.661848
O O10 0.623309 0.504983 0.784255
O O11 0.157654 0.750000 0.059777
O O12 0.232611 0.511821 0.084044
O O13 0.105546 0.500576 0.110197
O O14 0.688074 0.750000 0.588438
O O15 0.652896 0.492052 0.530403
O O16 0.665198 0.750000 0.954420
O O17 0.604872 0.506336 0.908036
O O18 0.426538 0.250000 0.839528
O O19 0.500000 0.000000 0.831562
O O20 0.926671 0.250000 0.175498
O O21 0.000000 0.000000 0.185574
#
# Coordination Sequence:
#
# PCOD9360143 Si02
#       8
#     8   8   8   8   8   8   8   8
#     4  11  21  33  55  86 114 143 183 231 276 328
#     4   9  18  33  54  80 108 140 179 220 270 327
#     4  10  19  36  57  79 109 147 186 227 278 331
#     4   8  15  31  54  76 101 139 177 214 264 322
#     4   9  17  32  55  79 105 140 177 217 274 330
#     4  10  19  32  52  80 109 137 175 228 274 319
#     4  10  22  37  55  78 109 148 188 227 278 335
#     4  11  22  38  57  78 110 149 187 229 277 336
#
# _framework density 17.866668000000001
#
# number of rings (size 3 to 8) (size 9 to 14) (size 15 to 20)
#    0.000    2.250    2.500    1.875    0.000    2.500 
#    0.000    1.875    0.000    4.500    0.000    0.000 
#    0.000    0.000    0.000    0.000    0.000    0.000 
#
# Total GULP energy -178483.594397 kJ/mol
# GULP energy per Si atom -5577.612325 kJ/mol
# Density = 1.782600 g / cm^3
# Si number density = 17.866668 Si / 1000 Ang^3
#
#
#
# Elastic Constant Matrix: (Units=GPa)
#
#
# Indices 1 2 3 4 5 6 
#
# 1 126.6607 17.0434 95.3735 0.0000 0.0000 0.0000
# 2 17.0434 11.7363 30.6322 0.0000 0.0000 0.0000
# 3 95.3735 30.6322 197.1361 0.0000 0.0000 0.0000
# 4 0.0000 0.0000 0.0000 22.9125 0.0000 0.0000
# 5 0.0000 0.0000 0.0000 0.0000 23.4332 0.0000
# 6 0.0000 0.0000 0.0000 0.0000 0.0000 25.1861
#
#
#
# Elastic Compliance Matrix: (Units=1/GPa)
#
#
# Indices 1 2 3 4 5 6 
#
# 1 0.012530 -0.003994 -0.005441 0.000000 0.000000 0.000000
# 2 -0.003994 0.144611 -0.020539 0.000000 0.000000 0.000000
# 3 -0.005441 -0.020539 0.010896 0.000000 0.000000 0.000000
# 4 0.000000 0.000000 0.000000 0.043644 0.000000 0.000000
# 5 0.000000 0.000000 0.000000 0.000000 0.042675 0.000000
# 6 0.000000 0.000000 0.000000 0.000000 0.000000 0.039704
#
#
# Mechanical properties :
#
#
# Convention : Reuss Voigt Hill
#
# Bulk Modulus (GPa) = 9.25148 69.07015 39.16082
# Shear Modulus (GPa) = 12.81927 27.13862 19.97894
#
# Velocity S-wave (km/s) = 2.68152 3.90160 3.34761
# Velocity P-wave (km/s) = 3.84405 7.68370 6.07519
#
# Compressibility (1/GPa) = 0.10809077
#
# Stress axis : x y z
#
# Youngs Moduli (GPa) = 79.81070 6.91508 91.77277
#
# Poissons Ratio (x) = 0.02762 0.49936
# Poissons Ratio (y) = 0.31874 1.88488
# Poissons Ratio (z) = 0.43427 0.14203
#
# Static dielectric constant tensor:
#      x y z
#    x 1.567590 0.000000 0.000000 
#    y 0.000000 1.617840 0.000000 
#    z 0.000000 0.000000 1.649730 
# 
# From -- ./inp_files/15035.got.cif
#   From: 2010.05.17/outbox.cif.g08.bks.cpg/sg39_8_cif.got.tgz:15035.got - 2010.06.03 18:22:40.
