data_PCOD9360480
_publ_section_title
;
Structure prediction by ZEFSAII (Michael W. Deem and Ramdas Pophale) SiO2 
 PCOD9360480
Probable space group: A B M 2
;
_chemical_formula_sum "Si O2"
_cell_formula_units_Z 48
_cell_length_a 9.743933
_cell_length_b 14.643561
_cell_length_c 16.626145
_cell_angle_alpha 90.000000
_cell_angle_beta 90.000000
_cell_angle_gamma 90.000000
_cell_volume 2372.316085
_symmetry_space_group_name_H-M "A B M 2"
_symmetry_group_IT_number 39
_symmetry_cell_setting 'orthorhombic'
loop_
_space_group_symop_operation_xyz
x,y,z
-x,-y,z
-x,1/2+y,z
x,1/2-y,z
x,1/2+y,1/2+z
-x,1/2-y,1/2+z
-x,y,1/2+z
x,-y,1/2+z
loop_
_atom_site_type_symbol
_atom_site_label
_atom_site_fract_x
_atom_site_fract_y
_atom_site_fract_z
Si Si1 0.032202 0.139645 0.791110
Si Si2 0.756623 0.856282 0.659274
Si Si3 0.254146 0.853714 0.857698
Si Si4 0.530158 0.892636 0.792056
Si Si5 0.748757 0.355338 0.428598
Si Si6 0.337968 0.476840 0.510631
O O1 0.027154 0.250000 0.783481
O O2 0.112405 0.109354 0.711195
O O3 0.127364 0.121079 0.868393
O O4 0.879731 0.108191 0.812317
O O5 0.777407 0.750000 0.635976
O O6 0.628554 0.860592 0.720996
O O7 0.717911 0.918994 0.584783
O O8 0.224899 0.750000 0.886829
O O9 0.380992 0.849357 0.796800
O O10 0.302694 0.918552 0.930317
O O11 0.612703 0.868621 0.873657
O O12 0.500000 0.000000 0.786528
O O13 0.759362 0.250000 0.452835
O O14 0.737996 0.426500 0.500249
O O15 0.500000 0.500000 0.517343
#
# Coordination Sequence:
#
# PCOD9360480 Si02
#       6
#     8   8   8   8   8   8
#     4   8  19  38  65  93 120 162 215 257 310 389
#     4  10  22  41  64  91 131 173 204 260 334 382
#     4  11  20  36  66  98 125 161 211 266 314 373
#     4  11  19  37  62  93 126 160 218 264 304 380
#     4  10  19  37  62  89 124 168 211 260 314 370
#     4  12  23  37  61 101 131 164 214 268 319 395
#
# _framework density 20.233391999999998
#
# number of rings (size 3 to 8) (size 9 to 14) (size 15 to 20)
#    0.000    1.667    3.333    3.500    0.000    1.333 
#    0.000    0.000   14.667    0.000    0.000    1.167 
#    0.000    0.000    0.000    0.000    0.000    0.000 
#
# Total GULP energy -134035.309477 kJ/mol
# GULP energy per Si atom -5584.804562 kJ/mol
# Density = 2.018734 g / cm^3
# Si number density = 20.233392 Si / 1000 Ang^3
#
#
#
# Elastic Constant Matrix: (Units=GPa)
#
#
# Indices 1 2 3 4 5 6 
#
# 1 155.5545 21.0923 52.8054 0.0000 0.0000 0.0000
# 2 21.0923 120.0056 45.7202 0.0000 0.0000 0.0000
# 3 52.8054 45.7202 102.0323 0.0000 0.0000 0.0000
# 4 0.0000 0.0000 0.0000 32.4474 0.0000 0.0000
# 5 0.0000 0.0000 0.0000 0.0000 19.6619 0.0000
# 6 0.0000 0.0000 0.0000 0.0000 0.0000 12.1533
#
#
#
# Elastic Compliance Matrix: (Units=1/GPa)
#
#
# Indices 1 2 3 4 5 6 
#
# 1 0.007803 0.000201 -0.004128 0.000000 0.000000 0.000000
# 2 0.000201 0.010054 -0.004609 0.000000 0.000000 0.000000
# 3 -0.004128 -0.004609 0.014003 0.000000 0.000000 0.000000
# 4 0.000000 0.000000 0.000000 0.030819 0.000000 0.000000
# 5 0.000000 0.000000 0.000000 0.000000 0.050860 0.000000
# 6 0.000000 0.000000 0.000000 0.000000 0.000000 0.082282
#
#
# Mechanical properties :
#
#
# Convention : Reuss Voigt Hill
#
# Bulk Modulus (GPa) = 67.62844 68.53647 68.08245
# Shear Modulus (GPa) = 22.95455 30.05082 26.50269
#
# Velocity S-wave (km/s) = 3.37187 3.85802 3.62311
# Velocity P-wave (km/s) = 6.97539 7.33432 7.15711
#
# Compressibility (1/GPa) = 0.01478668
#
# Stress axis : x y z
#
# Youngs Moduli (GPa) = 128.15949 99.46701 71.41404
#
# Poissons Ratio (x) = -0.02004 0.29483
# Poissons Ratio (y) = -0.02582 0.32916
# Poissons Ratio (z) = 0.52911 0.45847
#
# Static dielectric constant tensor:
#      x y z
#    x 1.729190 0.000000 0.000000 
#    y 0.000000 1.663400 0.000000 
#    z 0.000000 0.000000 1.689550 
# 
# From -- ./inp_files/11597.got.cif
#   From: 2010.05.17/outbox.cif.g08.bks.cpg/sg39_6_cif.got.tgz:11597.got - 2010.06.03 18:22:40.
