data_PCOD9360089
_publ_section_title
;
Structure prediction by ZEFSAII (Michael W. Deem and Ramdas Pophale) SiO2 
 PCOD9360089
Probable space group: A B M 2
;
_chemical_formula_sum "Si O2"
_cell_formula_units_Z 64
_cell_length_a 17.009388
_cell_length_b 9.109244
_cell_length_c 22.687487
_cell_angle_alpha 90.000000
_cell_angle_beta 90.000000
_cell_angle_gamma 90.000000
_cell_volume 3515.259711
_symmetry_space_group_name_H-M "A B M 2"
_symmetry_group_IT_number 39
_symmetry_cell_setting 'orthorhombic'
loop_
_space_group_symop_operation_xyz
x,y,z
-x,-y,z
-x,1/2+y,z
x,1/2-y,z
x,1/2+y,1/2+z
-x,1/2-y,1/2+z
-x,y,1/2+z
x,-y,1/2+z
loop_
_atom_site_type_symbol
_atom_site_label
_atom_site_fract_x
_atom_site_fract_y
_atom_site_fract_z
Si Si1 0.416376 0.428613 0.942350
Si Si2 0.075352 0.579629 0.322638
Si Si3 0.208230 0.411492 0.266037
Si Si4 0.426719 0.921756 0.196295
Si Si5 0.617869 0.920987 0.317332
Si Si6 0.082085 0.071982 0.960207
Si Si7 0.747522 0.923945 0.006822
Si Si8 0.287360 0.082701 0.142364
O O1 0.500000 0.500000 0.962833
O O2 0.422619 0.250000 0.943203
O O3 0.402798 0.489917 0.876012
O O4 0.336240 0.473680 0.978180
O O5 0.060737 0.750000 0.322463
O O6 0.151813 0.537423 0.287063
O O7 0.086008 0.534573 0.390739
O O8 0.000000 0.500000 0.296982
O O9 0.173155 0.250000 0.277764
O O10 0.289164 0.420085 0.302761
O O11 0.227097 0.421948 0.196775
O O12 0.437842 0.750000 0.203748
O O13 0.500000 0.000000 0.166199
O O14 0.416327 0.000806 0.259473
O O15 0.351252 0.961858 0.158226
O O16 0.592348 0.750000 0.321941
O O17 0.076692 0.250000 0.967076
O O18 0.166831 0.020076 0.985491
O O19 0.000000 0.000000 0.982728
O O20 0.749114 0.750000 0.992802
O O21 0.744357 0.940403 0.077223
O O22 0.321658 0.250000 0.144781
#
# Coordination Sequence:
#
# PCOD9360089 Si02
#       8
#     8   8   8   8   8   8   8   8
#     4  11  22  36  54  79 110 146 185 226 271 323
#     4  10  19  31  51  78 109 137 168 209 259 319
#     4   9  18  32  52  76 103 134 170 212 264 317
#     4  11  21  34  53  77 104 135 174 222 270 320
#     4  10  20  35  54  78 107 139 174 218 271 327
#     4   9  18  34  56  83 108 137 175 218 267 321
#     4   9  19  37  59  78 106 147 186 222 269 323
#     4   9  19  37  56  75 102 139 179 219 262 316
#
# _framework density 18.206336
#
# number of rings (size 3 to 8) (size 9 to 14) (size 15 to 20)
#    0.000    2.250    0.000    4.125    0.000    4.500 
#    0.000    5.000    0.000    1.500    0.000    0.000 
#    0.000    0.000    0.000    0.000    0.000    0.000 
#
# Total GULP energy -178293.053297 kJ/mol
# GULP energy per Si atom -5571.657916 kJ/mol
# Density = 1.816490 g / cm^3
# Si number density = 18.206336 Si / 1000 Ang^3
#
#
#
# Elastic Constant Matrix: (Units=GPa)
#
#
# Indices 1 2 3 4 5 6 
#
# 1 117.4852 35.4498 38.0488 0.0000 0.0000 0.0000
# 2 35.4498 62.8401 19.6917 0.0000 0.0000 0.0000
# 3 38.0488 19.6917 44.4109 0.0000 0.0000 0.0000
# 4 0.0000 0.0000 0.0000 20.7018 0.0000 0.0000
# 5 0.0000 0.0000 0.0000 0.0000 -9.7198 0.0000
# 6 0.0000 0.0000 0.0000 0.0000 0.0000 34.9321
#
#
#
# Elastic Compliance Matrix: (Units=1/GPa)
#
#
# Indices 1 2 3 4 5 6 
#
# 1 0.012738 -0.004374 -0.008974 0.000000 0.000000 0.000000
# 2 -0.004374 0.019983 -0.005113 0.000000 0.000000 0.000000
# 3 -0.008974 -0.005113 0.032472 0.000000 0.000000 0.000000
# 4 0.000000 0.000000 0.000000 0.048305 0.000000 0.000000
# 5 0.000000 0.000000 0.000000 0.000000 -0.102883 0.000000
# 6 0.000000 0.000000 0.000000 0.000000 0.000000 0.028627
#
#
# Mechanical properties :
#
#
# Convention : Reuss Voigt Hill
#
# Bulk Modulus (GPa) = 35.37094 45.67963 40.52528
# Shear Modulus (GPa) = 58.42023 17.95256 38.18640
#
# Velocity S-wave (km/s) = 5.67076 3.14357 4.58473
# Velocity P-wave (km/s) = 7.89599 6.19035 7.09462
#
# Compressibility (1/GPa) = 0.02827180
#
# Stress axis : x y z
#
# Youngs Moduli (GPa) = 78.50779 50.04251 30.79544
#
# Poissons Ratio (x) = 0.21887 0.27635
# Poissons Ratio (y) = 0.34336 0.15747
# Poissons Ratio (z) = 0.70450 0.25588
#
# Static dielectric constant tensor:
#      x y z
#    x 1.713950 0.000000 0.000000 
#    y 0.000000 1.626030 0.000000 
#    z 0.000000 0.000000 1.601560 
# 
# From -- ./inp_files/16155.got.cif
#   From: 2010.05.17/outbox.cif.g08.bks.cpg/sg39_9_cif.got.tgz:16155.got - 2010.06.03 18:22:40.
