data_PCOD9360583
_publ_section_title
;
Structure prediction by ZEFSAII (Michael W. Deem and Ramdas Pophale) SiO2 
 PCOD9360583
Probable space group: A B M 2
;
_chemical_formula_sum "Si O2"
_cell_formula_units_Z 56
_cell_length_a 10.345557
_cell_length_b 17.236632
_cell_length_c 14.390849
_cell_angle_alpha 90.000000
_cell_angle_beta 90.000000
_cell_angle_gamma 90.000000
_cell_volume 2566.213018
_symmetry_space_group_name_H-M "A B M 2"
_symmetry_group_IT_number 39
_symmetry_cell_setting 'orthorhombic'
loop_
_space_group_symop_operation_xyz
x,y,z
-x,-y,z
-x,1/2+y,z
x,1/2-y,z
x,1/2+y,1/2+z
-x,1/2-y,1/2+z
-x,y,1/2+z
x,-y,1/2+z
loop_
_atom_site_type_symbol
_atom_site_label
_atom_site_fract_x
_atom_site_fract_y
_atom_site_fract_z
Si Si1 0.028828 0.841169 0.375000
Si Si2 0.672244 0.658936 0.096570
Si Si3 0.234056 0.073405 0.325796
Si Si4 0.514889 0.658889 0.278196
Si Si5 0.625901 0.552668 0.920230
Si Si6 0.967836 0.340516 0.594460
Si Si7 0.124053 0.446156 0.726867
O O1 0.031826 0.750000 0.357517
O O2 0.893046 0.877549 0.344210
O O3 0.044816 0.853886 0.484438
O O4 0.131549 0.883851 0.309667
O O5 0.666409 0.750000 0.072017
O O6 0.557637 0.644648 0.171103
O O7 0.821089 0.648469 0.133176
O O8 0.652945 0.608050 0.005987
O O9 0.350497 0.133839 0.325775
O O10 0.260468 0.009901 0.405751
O O11 0.232873 0.012574 0.237324
O O12 0.485245 0.750000 0.289408
O O13 0.412231 0.603760 0.328960
O O14 0.500000 0.500000 0.938452
O O15 0.002688 0.250000 0.610275
O O16 0.076324 0.396941 0.638113
O O17 0.000000 0.500000 0.747403
#
# Coordination Sequence:
#
# PCOD9360583 Si02
#       7
#     8   8   8   8   8   8   8
#     4  10  20  35  55  80 114 153 190 226 269 332
#     4  10  20  37  61  84 110 149 192 234 284 340
#     4  10  21  36  56  83 117 152 184 230 287 331
#     4  10  21  39  61  81 108 148 193 237 282 339
#     4  10  22  38  58  84 112 144 187 242 293 336
#     4  10  21  36  57  85 115 151 191 227 272 337
#     4  10  20  33  53  81 113 147 184 230 277 329
#
# _framework density 21.822037999999999
#
# number of rings (size 3 to 8) (size 9 to 14) (size 15 to 20)
#    0.000    2.000    0.000    3.857    0.000    6.857 
#    0.000    3.571    0.000    6.857    0.000    0.000 
#    0.000    0.000    0.000    0.000    0.000    0.000 
#
# Total GULP energy -156059.812412 kJ/mol
# GULP energy per Si atom -5573.564729 kJ/mol
# Density = 2.177237 g / cm^3
# Si number density = 21.822038 Si / 1000 Ang^3
#
#
#
# Elastic Constant Matrix: (Units=GPa)
#
#
# Indices 1 2 3 4 5 6 
#
# 1 56.8417 5.4113 -10.9342 0.0000 0.0000 0.0000
# 2 5.4113 95.0589 41.3047 0.0000 0.0000 0.0000
# 3 -10.9342 41.3047 76.4967 0.0000 0.0000 0.0000
# 4 0.0000 0.0000 0.0000 44.0399 0.0000 0.0000
# 5 0.0000 0.0000 0.0000 0.0000 19.0738 0.0000
# 6 0.0000 0.0000 0.0000 0.0000 0.0000 -11.6212
#
#
#
# Elastic Compliance Matrix: (Units=1/GPa)
#
#
# Indices 1 2 3 4 5 6 
#
# 1 0.018685 -0.002906 0.004240 0.000000 0.000000 0.000000
# 2 -0.002906 0.014196 -0.008081 0.000000 0.000000 0.000000
# 3 0.004240 -0.008081 0.018042 0.000000 0.000000 0.000000
# 4 0.000000 0.000000 0.000000 0.022707 0.000000 0.000000
# 5 0.000000 0.000000 0.000000 0.000000 0.052428 0.000000
# 6 0.000000 0.000000 0.000000 0.000000 0.000000 -0.086049
#
#
# Mechanical properties :
#
#
# Convention : Reuss Voigt Hill
#
# Bulk Modulus (GPa) = 26.71698 33.32898 30.02298
# Shear Modulus (GPa) = 75.78219 23.13954 49.46086
#
# Velocity S-wave (km/s) = 5.89939 3.25987 4.76600
# Velocity P-wave (km/s) = 7.65985 5.42911 6.63885
#
# Compressibility (1/GPa) = 0.03742938
#
# Stress axis : x y z
#
# Youngs Moduli (GPa) = 53.51902 70.44010 55.42699
#
# Poissons Ratio (x) = 0.20469 -0.23500
# Poissons Ratio (y) = 0.15552 0.44789
# Poissons Ratio (z) = -0.22691 0.56921
#
# Static dielectric constant tensor:
#      x y z
#    x 1.820740 0.000000 0.000000 
#    y 0.000000 1.779150 0.000000 
#    z 0.000000 0.000000 1.850640 
# 
# From -- ./inp_files/9263.got.cif
#   From: 2010.05.17/outbox.cif.g08.bks.cpg/sg39_5_cif.got.tgz:9263.got - 2010.06.03 18:22:40.
