data_PCOD9360253
_publ_section_title
;
Structure prediction by ZEFSAII (Michael W. Deem and Ramdas Pophale) SiO2 
 PCOD9360253
Probable space group: A B M 2
;
_chemical_formula_sum "Si O2"
_cell_formula_units_Z 64
_cell_length_a 19.529487
_cell_length_b 8.088677
_cell_length_c 20.678942
_cell_angle_alpha 90.000000
_cell_angle_beta 90.000000
_cell_angle_gamma 90.000000
_cell_volume 3266.605161
_symmetry_space_group_name_H-M "A B M 2"
_symmetry_group_IT_number 39
_symmetry_cell_setting 'orthorhombic'
loop_
_space_group_symop_operation_xyz
x,y,z
-x,-y,z
-x,1/2+y,z
x,1/2-y,z
x,1/2+y,1/2+z
-x,1/2-y,1/2+z
-x,y,1/2+z
x,-y,1/2+z
loop_
_atom_site_type_symbol
_atom_site_label
_atom_site_fract_x
_atom_site_fract_y
_atom_site_fract_z
Si Si1 0.578578 0.552732 0.753480
Si Si2 0.308249 0.047646 0.499811
Si Si3 0.578691 0.552845 0.398119
Si Si4 0.689595 0.452248 0.150544
Si Si5 0.161124 0.047705 0.694576
Si Si6 0.079308 0.446604 0.819763
Si Si7 0.077717 0.051090 0.569900
Si Si8 0.839447 0.550060 0.446415
O O1 0.500000 0.500000 0.744765
O O2 0.581034 0.750000 0.752441
O O3 0.600652 0.499407 0.825717
O O4 0.626869 0.490955 0.695510
O O5 0.308488 0.250000 0.501004
O O6 0.371258 0.991396 0.454869
O O7 0.311805 0.994851 0.575146
O O8 0.237342 0.996690 0.465199
O O9 0.500000 0.500000 0.407370
O O10 0.580581 0.750000 0.399698
O O11 0.688688 0.250000 0.149075
O O12 0.760163 0.502515 0.185659
O O13 0.161205 0.250000 0.696381
O O14 0.118503 0.987706 0.756212
O O15 0.121506 0.993369 0.630568
O O16 0.077418 0.250000 0.814763
O O17 0.126600 0.493322 0.880245
O O18 0.000000 0.500000 0.825597
O O19 0.081558 0.250000 0.569263
O O20 0.111261 0.990898 0.503875
O O21 0.000000 0.000000 0.575956
O O22 0.838680 0.750000 0.445910
#
# Coordination Sequence:
#
# PCOD9360253 Si02
#       8
#     8   8   8   8   8   8   8   8
#     4  10  20  34  57  83 111 145 180 221 265 316
#     4   9  18  34  56  81 109 143 182 221 267 322
#     4  10  20  35  56  82 112 145 181 221 265 318
#     4   9  17  33  56  81 107 140 182 220 264 320
#     4   9  18  34  54  78 105 137 178 221 263 315
#     4  11  23  37  55  79 109 142 179 225 272 324
#     4  10  19  33  56  78 101 135 176 218 261 312
#     4  10  20  36  57  80 107 141 178 222 270 320
#
# _framework density 19.592203999999999
#
# number of rings (size 3 to 8) (size 9 to 14) (size 15 to 20)
#    0.000    2.250    1.250    2.625    1.750    2.000 
#    0.000    1.250    0.000    5.250    0.000    0.000 
#    0.000    0.000    0.000    0.000    0.000    0.000 
#
# Total GULP energy -178568.208872 kJ/mol
# GULP energy per Si atom -5580.256527 kJ/mol
# Density = 1.954761 g / cm^3
# Si number density = 19.592204 Si / 1000 Ang^3
#
#
#
# Elastic Constant Matrix: (Units=GPa)
#
#
# Indices 1 2 3 4 5 6 
#
# 1 100.9756 8.6294 41.0072 0.0000 0.0000 0.0000
# 2 8.6294 18.8791 10.1514 0.0000 0.0000 0.0000
# 3 41.0072 10.1514 98.0221 0.0000 0.0000 0.0000
# 4 0.0000 0.0000 0.0000 16.4917 0.0000 0.0000
# 5 0.0000 0.0000 0.0000 0.0000 43.5137 0.0000
# 6 0.0000 0.0000 0.0000 0.0000 0.0000 7.8808
#
#
#
# Elastic Compliance Matrix: (Units=1/GPa)
#
#
# Indices 1 2 3 4 5 6 
#
# 1 0.012086 -0.002971 -0.004748 0.000000 0.000000 0.000000
# 2 -0.002971 0.056822 -0.004642 0.000000 0.000000 0.000000
# 3 -0.004748 -0.004642 0.012669 0.000000 0.000000 0.000000
# 4 0.000000 0.000000 0.000000 0.060637 0.000000 0.000000
# 5 0.000000 0.000000 0.000000 0.000000 0.022981 0.000000
# 6 0.000000 0.000000 0.000000 0.000000 0.000000 0.126891
#
#
# Mechanical properties :
#
#
# Convention : Reuss Voigt Hill
#
# Bulk Modulus (GPa) = 17.58861 37.49474 27.54168
# Shear Modulus (GPa) = 14.89159 24.11649 19.50404
#
# Velocity S-wave (km/s) = 2.75994 3.51226 3.15858
# Velocity P-wave (km/s) = 4.37644 5.96884 5.23356
#
# Compressibility (1/GPa) = 0.05685497
#
# Stress axis : x y z
#
# Youngs Moduli (GPa) = 82.74305 17.59867 78.93334
#
# Poissons Ratio (x) = 0.05229 0.37480
# Poissons Ratio (y) = 0.24583 0.36639
# Poissons Ratio (z) = 0.39289 0.08169
#
# Static dielectric constant tensor:
#      x y z
#    x 1.671450 0.000000 0.000000 
#    y 0.000000 1.697520 0.000000 
#    z 0.000000 0.000000 1.686540 
# 
# From -- ./inp_files/13154.got.cif
#   From: 2010.05.17/outbox.cif.g08.bks.cpg/sg39_7_cif.got.tgz:13154.got - 2010.06.03 18:22:40.
