data_PCOD9360206
_publ_section_title
;
Structure prediction by ZEFSAII (Michael W. Deem and Ramdas Pophale) SiO2 
 PCOD9360206
Probable space group: A B M 2
;
_chemical_formula_sum "Si O2"
_cell_formula_units_Z 64
_cell_length_a 25.465331
_cell_length_b 8.917047
_cell_length_c 15.021204
_cell_angle_alpha 90.000000
_cell_angle_beta 90.000000
_cell_angle_gamma 90.000000
_cell_volume 3410.948211
_symmetry_space_group_name_H-M "A B M 2"
_symmetry_group_IT_number 39
_symmetry_cell_setting 'orthorhombic'
loop_
_space_group_symop_operation_xyz
x,y,z
-x,-y,z
-x,1/2+y,z
x,1/2-y,z
x,1/2+y,1/2+z
-x,1/2-y,1/2+z
-x,y,1/2+z
x,-y,1/2+z
loop_
_atom_site_type_symbol
_atom_site_label
_atom_site_fract_x
_atom_site_fract_y
_atom_site_fract_z
Si Si1 0.943975 0.929899 0.180950
Si Si2 0.332425 0.567322 0.876602
Si Si3 0.134613 0.068298 0.541352
Si Si4 0.663015 0.430089 0.181705
Si Si5 0.553011 0.079218 0.893065
Si Si6 0.553761 0.577611 0.175401
Si Si7 0.944864 0.570610 0.388195
Si Si8 0.254992 0.567855 0.031102
O O1 0.946124 0.750000 0.172620
O O2 0.936057 0.969833 0.285014
O O3 0.897644 0.997045 0.122053
O O4 0.000000 0.000000 0.153474
O O5 0.334428 0.750000 0.869912
O O6 0.326905 0.498905 0.778916
O O7 0.389256 0.517684 0.915675
O O8 0.285412 0.522922 0.941533
O O9 0.133693 0.250000 0.549222
O O10 0.102770 0.026758 0.452023
O O11 0.194964 0.017660 0.537576
O O12 0.661307 0.250000 0.186704
O O13 0.606256 0.489319 0.149981
O O14 0.708799 0.476811 0.114130
O O15 0.550703 0.250000 0.923662
O O16 0.552701 0.077429 0.784332
O O17 0.500000 0.000000 0.923223
O O18 0.500000 0.500000 0.145659
O O19 0.556224 0.750000 0.146747
O O20 0.950144 0.750000 0.392438
O O21 0.000000 0.500000 0.417690
O O22 0.254062 0.750000 0.030536
#
# Coordination Sequence:
#
# PCOD9360206 Si02
#       8
#     8   8   8   8   8   8   8   8
#     4  10  20  35  55  83 113 141 172 212 260 312
#     4   9  18  35  55  73  98 138 179 217 263 319
#     4  10  20  36  56  78 105 142 182 221 262 308
#     4  10  19  33  53  77 104 137 175 220 268 315
#     4   8  14  24  43  69  94 121 159 202 250 305
#     4   9  16  28  48  75 103 134 170 212 264 324
#     4   9  19  34  54  79 108 138 171 209 256 310
#     4   9  20  37  55  74 103 143 184 219 261 315
#
# _framework density 18.763110000000001
#
# number of rings (size 3 to 8) (size 9 to 14) (size 15 to 20)
#    0.000    2.750    0.000    2.250    0.000    6.000 
#    0.000    5.000    0.000    1.500    0.000    0.000 
#    0.000    0.000    0.000    0.000    0.000    0.000 
#
# Total GULP energy -178536.235257 kJ/mol
# GULP energy per Si atom -5579.257352 kJ/mol
# Density = 1.872040 g / cm^3
# Si number density = 18.763110 Si / 1000 Ang^3
#
#
#
# Elastic Constant Matrix: (Units=GPa)
#
#
# Indices 1 2 3 4 5 6 
#
# 1 219.2464 49.7294 89.5582 0.0000 0.0000 0.0000
# 2 49.7294 37.6744 30.7891 0.0000 0.0000 0.0000
# 3 89.5582 30.7891 89.3401 0.0000 0.0000 0.0000
# 4 0.0000 0.0000 0.0000 0.5670 0.0000 0.0000
# 5 0.0000 0.0000 0.0000 0.0000 -12.0353 0.0000
# 6 0.0000 0.0000 0.0000 0.0000 0.0000 27.4352
#
#
#
# Elastic Compliance Matrix: (Units=1/GPa)
#
#
# Indices 1 2 3 4 5 6 
#
# 1 0.008597 -0.005993 -0.006553 0.000000 0.000000 0.000000
# 2 -0.005993 0.041127 -0.008166 0.000000 0.000000 0.000000
# 3 -0.006553 -0.008166 0.020576 0.000000 0.000000 0.000000
# 4 0.000000 0.000000 0.000000 1.763641 0.000000 0.000000
# 5 0.000000 0.000000 0.000000 0.000000 -0.083089 0.000000
# 6 0.000000 0.000000 0.000000 0.000000 0.000000 0.036450
#
#
# Mechanical properties :
#
#
# Convention : Reuss Voigt Hill
#
# Bulk Modulus (GPa) = 34.62949 76.26826 55.44888
# Shear Modulus (GPa) = 2.71983 14.93901 8.82942
#
# Velocity S-wave (km/s) = 1.20528 2.82475 2.17162
# Velocity P-wave (km/s) = 4.52031 7.16765 5.99201
#
# Compressibility (1/GPa) = 0.02887712
#
# Stress axis : x y z
#
# Youngs Moduli (GPa) = 116.31935 24.31474 48.59977
#
# Poissons Ratio (x) = 0.14571 0.31846
# Poissons Ratio (y) = 0.69707 0.39688
# Poissons Ratio (z) = 0.76221 0.19856
#
# Static dielectric constant tensor:
#      x y z
#    x 1.636820 0.000000 0.000000 
#    y 0.000000 1.633770 0.000000 
#    z 0.000000 0.000000 1.666180 
# 
# From -- ./inp_files/10669.got.cif
#   From: 2010.05.17/outbox.cif.g08.bks.cpg/sg39_6_cif.got.tgz:10669.got - 2010.06.03 18:22:40.
