data_PCOD9360139
_publ_section_title
;
Structure prediction by ZEFSAII (Michael W. Deem and Ramdas Pophale) SiO2 
 PCOD9360139
Probable space group: A B M 2
;
_chemical_formula_sum "Si O2"
_cell_formula_units_Z 64
_cell_length_a 18.669160
_cell_length_b 8.240425
_cell_length_c 21.555714
_cell_angle_alpha 90.000000
_cell_angle_beta 90.000000
_cell_angle_gamma 90.000000
_cell_volume 3316.170118
_symmetry_space_group_name_H-M "A B M 2"
_symmetry_group_IT_number 39
_symmetry_cell_setting 'orthorhombic'
loop_
_space_group_symop_operation_xyz
x,y,z
-x,-y,z
-x,1/2+y,z
x,1/2-y,z
x,1/2+y,1/2+z
-x,1/2-y,1/2+z
-x,y,1/2+z
x,-y,1/2+z
loop_
_atom_site_type_symbol
_atom_site_label
_atom_site_fract_x
_atom_site_fract_y
_atom_site_fract_z
Si Si1 0.335654 0.938278 0.148630
Si Si2 0.182095 0.449241 0.498366
Si Si3 0.162534 0.938906 0.132028
Si Si4 0.848775 0.557039 0.765784
Si Si5 0.920370 0.057201 0.889487
Si Si6 0.312978 0.058406 0.280780
Si Si7 0.420220 0.054012 0.387926
Si Si8 0.652550 0.948278 0.513159
O O1 0.356600 0.750000 0.156415
O O2 0.249285 0.940441 0.138449
O O3 0.365972 0.002959 0.083208
O O4 0.348257 0.027769 0.213320
O O5 0.181720 0.250000 0.499457
O O6 0.148430 0.507489 0.563768
O O7 0.137223 0.506005 0.439496
O O8 0.265631 0.495975 0.497035
O O9 0.140225 0.750000 0.130489
O O10 0.135113 0.011674 0.196693
O O11 0.857002 0.750000 0.762856
O O12 0.897276 0.491614 0.820575
O O13 0.765512 0.520628 0.780545
O O14 0.918580 0.250000 0.893317
O O15 0.000000 0.000000 0.903881
O O16 0.301890 0.250000 0.289178
O O17 0.363347 0.997788 0.336240
O O18 0.417639 0.250000 0.387982
O O19 0.397483 0.998272 0.456849
O O20 0.500000 0.000000 0.372785
O O21 0.651813 0.750000 0.515643
#
# Coordination Sequence:
#
# PCOD9360139 Si02
#       8
#     8   8   8   8   8   8   8   8
#     4   8  14  27  50  76  99 124 158 202 249 299
#     4   8  14  28  52  76  96 123 161 202 245 294
#     4   7  12  25  48  76  98 120 156 200 243 289
#     4  10  19  33  55  79 102 130 166 206 249 300
#     4  11  22  35  51  72 102 137 170 207 248 292
#     4  10  19  32  52  77 103 130 164 207 253 300
#     4  10  21  35  50  70  99 136 174 211 251 296
#     4   8  14  29  53  76  95 122 164 207 249 298
#
# _framework density 19.299372000000002
#
# number of rings (size 3 to 8) (size 9 to 14) (size 15 to 20)
#    0.000    3.000    0.000    4.125    0.000    3.000 
#    0.000    1.875    0.000   22.500    0.000    0.000 
#    0.000    0.000    0.000    0.000    0.000    0.000 
#
# Total GULP energy -178284.379383 kJ/mol
# GULP energy per Si atom -5571.386856 kJ/mol
# Density = 1.925545 g / cm^3
# Si number density = 19.299372 Si / 1000 Ang^3
#
#
#
# Elastic Constant Matrix: (Units=GPa)
#
#
# Indices 1 2 3 4 5 6 
#
# 1 16.7162 -3.6214 -8.5312 0.0000 0.0000 0.0000
# 2 -3.6214 12.2098 1.3908 0.0000 0.0000 0.0000
# 3 -8.5312 1.3908 59.8967 0.0000 0.0000 0.0000
# 4 0.0000 0.0000 0.0000 18.9812 0.0000 0.0000
# 5 0.0000 0.0000 0.0000 0.0000 6.2417 0.0000
# 6 0.0000 0.0000 0.0000 0.0000 0.0000 15.0861
#
#
#
# Elastic Compliance Matrix: (Units=1/GPa)
#
#
# Indices 1 2 3 4 5 6 
#
# 1 0.068782 0.019336 0.009348 0.000000 0.000000 0.000000
# 2 0.019336 0.087554 0.000721 0.000000 0.000000 0.000000
# 3 0.009348 0.000721 0.018010 0.000000 0.000000 0.000000
# 4 0.000000 0.000000 0.000000 0.052684 0.000000 0.000000
# 5 0.000000 0.000000 0.000000 0.000000 0.160213 0.000000
# 6 0.000000 0.000000 0.000000 0.000000 0.000000 0.066286
#
#
# Mechanical properties :
#
#
# Convention : Reuss Voigt Hill
#
# Bulk Modulus (GPa) = 4.28898 7.47765 5.88332
# Shear Modulus (GPa) = 10.58340 14.70077 12.64208
#
# Velocity S-wave (km/s) = 2.34429 2.76293 2.56217
# Velocity P-wave (km/s) = 3.09108 3.74984 3.43628
#
# Compressibility (1/GPa) = 0.23315568
#
# Stress axis : x y z
#
# Youngs Moduli (GPa) = 14.53870 11.42149 55.52436
#
# Poissons Ratio (x) = -0.22084 -0.51903
# Poissons Ratio (y) = -0.28112 -0.04004
# Poissons Ratio (z) = -0.13591 -0.00824
#
# Static dielectric constant tensor:
#      x y z
#    x 1.629400 0.000000 0.000000 
#    y 0.000000 1.681850 0.000000 
#    z 0.000000 0.000000 1.733870 
# 
# From -- ./inp_files/15074.got.cif
#   From: 2010.05.17/outbox.cif.g08.bks.cpg/sg39_8_cif.got.tgz:15074.got - 2010.06.03 18:22:40.
