data_PCOD9360858
_publ_section_title
;
Structure prediction by ZEFSAII (Michael W. Deem and Ramdas Pophale) SiO2 
 PCOD9360858
Probable space group: A B M 2
;
_chemical_formula_sum "Si O2"
_cell_formula_units_Z 48
_cell_length_a 8.364038
_cell_length_b 15.402422
_cell_length_c 17.885645
_cell_angle_alpha 90.000000
_cell_angle_beta 90.000000
_cell_angle_gamma 90.000000
_cell_volume 2304.144024
_symmetry_space_group_name_H-M "A B M 2"
_symmetry_group_IT_number 39
_symmetry_cell_setting 'orthorhombic'
loop_
_space_group_symop_operation_xyz
x,y,z
-x,-y,z
-x,1/2+y,z
x,1/2-y,z
x,1/2+y,1/2+z
-x,1/2-y,1/2+z
-x,y,1/2+z
x,-y,1/2+z
loop_
_atom_site_type_symbol
_atom_site_label
_atom_site_fract_x
_atom_site_fract_y
_atom_site_fract_z
Si Si1 0.800369 0.654672 0.214230
Si Si2 0.311843 0.984503 0.277745
Si Si3 0.300640 0.349383 0.504028
Si Si4 0.106826 0.412791 0.646283
Si Si5 0.669729 0.349633 0.551339
Si Si6 0.811960 0.018671 0.432526
O O1 0.757528 0.750000 0.241727
O O2 0.772157 0.578599 0.272222
O O3 0.982015 0.650616 0.186056
O O4 0.698736 0.634385 0.139137
O O5 0.500000 0.000000 0.276544
O O6 0.246369 0.935082 0.204976
O O7 0.252374 0.942517 0.354737
O O8 0.272720 0.250000 0.479128
O O9 0.181001 0.373478 0.571756
O O10 0.482641 0.355716 0.532838
O O11 0.274586 0.426247 0.445324
O O12 0.000000 0.500000 0.632229
O O13 0.722632 0.250000 0.536920
O O14 0.764817 0.417714 0.500464
O O15 0.000000 0.000000 0.429904
#
# Coordination Sequence:
#
# PCOD9360858 Si02
#       6
#     8   8   8   8   8   8
#     4  10  20  37  61  87 116 148 190 240 284 335
#     4  11  23  40  60  82 114 155 193 234 288 345
#     4  11  22  37  61  90 119 153 193 236 285 342
#     4  10  20  36  58  87 118 152 193 235 284 337
#     4  10  22  40  62  88 116 151 195 240 286 338
#     4  12  24  40  60  84 118 155 193 239 290 345
#
# _framework density 20.832032000000002
#
# number of rings (size 3 to 8) (size 9 to 14) (size 15 to 20)
#    0.000    1.333    0.000    8.000    0.000    2.667 
#    0.000    5.000    0.000    0.000    0.000    0.000 
#    0.000    0.000    0.000    0.000    0.000    0.000 
#
# Total GULP energy -134188.294529 kJ/mol
# GULP energy per Si atom -5591.178939 kJ/mol
# Density = 2.078462 g / cm^3
# Si number density = 20.832032 Si / 1000 Ang^3
#
#
#
# Elastic Constant Matrix: (Units=GPa)
#
#
# Indices 1 2 3 4 5 6 
#
# 1 89.5845 -4.9939 -4.7916 0.0000 0.0000 0.0000
# 2 -4.9939 70.3721 4.2948 0.0000 0.0000 0.0000
# 3 -4.7916 4.2948 41.8973 0.0000 0.0000 0.0000
# 4 0.0000 0.0000 0.0000 -51.5459 0.0000 0.0000
# 5 0.0000 0.0000 0.0000 0.0000 29.2998 0.0000
# 6 0.0000 0.0000 0.0000 0.0000 0.0000 15.1223
#
#
#
# Elastic Compliance Matrix: (Units=1/GPa)
#
#
# Indices 1 2 3 4 5 6 
#
# 1 0.011268 0.000726 0.001214 0.000000 0.000000 0.000000
# 2 0.000726 0.014346 -0.001388 0.000000 0.000000 0.000000
# 3 0.001214 -0.001388 0.024149 0.000000 0.000000 0.000000
# 4 0.000000 0.000000 0.000000 -0.019400 0.000000 0.000000
# 5 0.000000 0.000000 0.000000 0.000000 0.034130 0.000000
# 6 0.000000 0.000000 0.000000 0.000000 0.000000 0.066127
#
#
# Mechanical properties :
#
#
# Convention : Reuss Voigt Hill
#
# Bulk Modulus (GPa) = 19.65881 21.20804 20.43343
# Shear Modulus (GPa) = 34.13618 12.39821 23.26720
#
# Velocity S-wave (km/s) = 4.05240 2.44222 3.34562
# Velocity P-wave (km/s) = 5.59940 4.26089 4.97536
#
# Compressibility (1/GPa) = 0.05086778
#
# Stress axis : x y z
#
# Youngs Moduli (GPa) = 88.74653 69.70418 41.40959
#
# Poissons Ratio (x) = -0.05057 -0.05028
# Poissons Ratio (y) = -0.06439 0.05746
# Poissons Ratio (z) = -0.10777 0.09672
#
# Static dielectric constant tensor:
#      x y z
#    x 1.728560 0.000000 0.000000 
#    y 0.000000 1.771620 0.000000 
#    z 0.000000 0.000000 1.729670 
# 
# From -- ./inp_files/13934.got.cif
#   From: 2010.05.17/outbox.cif.g08.bks.cpg/sg39_7_cif.got.tgz:13934.got - 2010.06.03 18:22:40.
