data_PCOD9360645
_publ_section_title
;
Structure prediction by ZEFSAII (Michael W. Deem and Ramdas Pophale) SiO2 
 PCOD9360645
Probable space group: A B M 2
;
_chemical_formula_sum "Si O2"
_cell_formula_units_Z 64
_cell_length_a 17.460599
_cell_length_b 14.571089
_cell_length_c 10.621570
_cell_angle_alpha 90.000000
_cell_angle_beta 90.000000
_cell_angle_gamma 90.000000
_cell_volume 2702.339224
_symmetry_space_group_name_H-M "A B M 2"
_symmetry_group_IT_number 39
_symmetry_cell_setting 'orthorhombic'
loop_
_space_group_symop_operation_xyz
x,y,z
-x,-y,z
-x,1/2+y,z
x,1/2-y,z
x,1/2+y,1/2+z
-x,1/2-y,1/2+z
-x,y,1/2+z
x,-y,1/2+z
loop_
_atom_site_type_symbol
_atom_site_label
_atom_site_fract_x
_atom_site_fract_y
_atom_site_fract_z
Si Si1 0.925717 0.637694 0.205720
Si Si2 0.200398 0.859888 0.310628
Si Si3 0.445026 0.080972 0.675574
Si Si4 0.959315 0.362520 0.424657
Si Si5 0.710791 0.639039 0.560590
Si Si6 0.240772 0.362295 0.283862
Si Si7 0.639529 0.355065 0.398303
Si Si8 0.603083 0.150680 0.683447
O O1 0.926771 0.750000 0.203798
O O2 0.838006 0.605745 0.221161
O O3 0.973339 0.609892 0.329519
O O4 0.961112 0.608737 0.071091
O O5 0.189344 0.750000 0.296306
O O6 0.120489 0.894992 0.362141
O O7 0.236756 0.891158 0.178255
O O8 0.270036 0.872337 0.408690
O O9 0.378004 0.107698 0.579361
O O10 0.398599 0.072200 0.805712
O O11 0.515453 0.142504 0.722277
O O12 0.500000 0.000000 0.627526
O O13 0.959247 0.250000 0.426570
O O14 0.707632 0.750000 0.562714
O O15 0.748927 0.611691 0.429777
O O16 0.233270 0.250000 0.277884
O O17 0.318999 0.400498 0.221044
O O18 0.633004 0.250000 0.343388
O O19 0.601872 0.353061 0.533102
O O20 0.623489 0.250000 0.733226
#
# Coordination Sequence:
#
# PCOD9360645 Si02
#       8
#     8   8   8   8   8   8   8   8
#     4   9  17  26  39  66 104 143 180 217 271 332
#     4   8  14  26  45  66  92 131 176 216 257 311
#     4  11  23  36  51  76 107 135 171 227 286 339
#     4   9  16  24  39  65 103 144 179 218 272 332
#     4   9  18  33  53  75 102 142 190 229 270 329
#     4   9  18  31  49  72 101 139 183 226 267 321
#     4   9  18  34  54  72  95 132 181 224 262 322
#     4  10  20  34  54  74  98 137 182 223 267 323
#
# _framework density 23.683184000000001
#
# number of rings (size 3 to 8) (size 9 to 14) (size 15 to 20)
#    0.000    2.750    0.000    2.625    3.500    3.500 
#    0.000    0.000    0.000    0.000    0.000    0.000 
#    0.000    4.000    0.500    0.000    0.000    0.000 
#
# Total GULP energy -178266.534032 kJ/mol
# GULP energy per Si atom -5570.829188 kJ/mol
# Density = 2.362928 g / cm^3
# Si number density = 23.683184 Si / 1000 Ang^3
#
#
#
# Elastic Constant Matrix: (Units=GPa)
#
#
# Indices 1 2 3 4 5 6 
#
# 1 143.4744 21.2552 59.3595 0.0000 0.0000 0.0000
# 2 21.2552 47.7328 2.3703 0.0000 0.0000 0.0000
# 3 59.3595 2.3703 86.3671 0.0000 0.0000 0.0000
# 4 0.0000 0.0000 0.0000 -713.7158 0.0000 0.0000
# 5 0.0000 0.0000 0.0000 0.0000 29.8294 0.0000
# 6 0.0000 0.0000 0.0000 0.0000 0.0000 -61.0138
#
#
#
# Elastic Compliance Matrix: (Units=1/GPa)
#
#
# Indices 1 2 3 4 5 6 
#
# 1 0.010571 -0.004352 -0.007146 0.000000 0.000000 0.000000
# 2 -0.004352 0.022771 0.002366 0.000000 0.000000 0.000000
# 3 -0.007146 0.002366 0.016425 0.000000 0.000000 0.000000
# 4 0.000000 0.000000 0.000000 -0.001401 0.000000 0.000000
# 5 0.000000 0.000000 0.000000 0.000000 0.033524 0.000000
# 6 0.000000 0.000000 0.000000 0.000000 0.000000 -0.016390
#
#
# Mechanical properties :
#
#
# Convention : Reuss Voigt Hill
#
# Bulk Modulus (GPa) = 31.74332 49.28270 40.51301
# Shear Modulus (GPa) = 53.04198 -136.00743 -41.48273
#
# Velocity S-wave (km/s) = 4.73763 -7.58634 -4.18972
# Velocity P-wave (km/s) = 6.58477 7.47545 2.50231
#
# Compressibility (1/GPa) = 0.03150269
#
# Stress axis : x y z
#
# Youngs Moduli (GPa) = 94.59633 43.91629 60.88280
#
# Poissons Ratio (x) = 0.19114 0.43507
# Poissons Ratio (y) = 0.41173 -0.14408
# Poissons Ratio (z) = 0.67599 -0.10393
#
# Static dielectric constant tensor:
#      x y z
#    x 1.938490 0.000000 0.000000 
#    y 0.000000 14.394600 0.000000 
#    z 0.000000 0.000000 1.847580 
# 
# From -- ./inp_files/6650.got.cif
#   From: 2010.05.17/outbox.cif.g08.bks.cpg/sg39_4_cif.got.tgz:6650.got - 2010.06.03 18:22:40.
