data_PCOD9360156
_publ_section_title
;
Structure prediction by ZEFSAII (Michael W. Deem and Ramdas Pophale) SiO2 
 PCOD9360156
Probable space group: A B M 2
;
_chemical_formula_sum "Si O2"
_cell_formula_units_Z 64
_cell_length_a 14.825849
_cell_length_b 8.798546
_cell_length_c 25.233775
_cell_angle_alpha 90.000000
_cell_angle_beta 90.000000
_cell_angle_gamma 90.000000
_cell_volume 3291.642854
_symmetry_space_group_name_H-M "A B M 2"
_symmetry_group_IT_number 39
_symmetry_cell_setting 'orthorhombic'
loop_
_space_group_symop_operation_xyz
x,y,z
-x,-y,z
-x,1/2+y,z
x,1/2-y,z
x,1/2+y,1/2+z
-x,1/2-y,1/2+z
-x,y,1/2+z
x,-y,1/2+z
loop_
_atom_site_type_symbol
_atom_site_label
_atom_site_fract_x
_atom_site_fract_y
_atom_site_fract_z
Si Si1 0.404961 0.568740 0.672230
Si Si2 0.899692 0.567044 0.533870
Si Si3 0.154246 0.423201 0.816892
Si Si4 0.794895 0.066705 0.926586
Si Si5 0.407981 0.068613 0.399276
Si Si6 0.226341 0.932126 0.132626
Si Si7 0.635291 0.575243 0.786738
Si Si8 0.907160 0.428951 0.714856
O O1 0.500000 0.500000 0.654615
O O2 0.406822 0.750000 0.672798
O O3 0.323900 0.508104 0.635836
O O4 0.387827 0.507849 0.732152
O O5 0.907335 0.750000 0.535088
O O6 0.847981 0.524841 0.479729
O O7 0.835559 0.522399 0.582863
O O8 0.000000 0.500000 0.537063
O O9 0.119746 0.250000 0.814872
O O10 0.159754 0.486697 0.876119
O O11 0.257230 0.421629 0.795791
O O12 0.101747 0.531014 0.776697
O O13 0.799281 0.250000 0.919951
O O14 0.687903 0.026098 0.926368
O O15 0.414480 0.250000 0.399215
O O16 0.500000 0.000000 0.422810
O O17 0.401018 0.008411 0.338888
O O18 0.235800 0.750000 0.133373
O O19 0.173004 0.988161 0.184273
O O20 0.602676 0.750000 0.784564
O O21 0.903823 0.250000 0.706066
O O22 0.000000 0.500000 0.694395
#
# Coordination Sequence:
#
# PCOD9360156 Si02
#       8
#     8   8   8   8   8   8   8   8
#     4  12  24  38  59  87 121 162 205 247 301 358
#     4  10  23  43  68  92 117 153 199 253 308 364
#     4  10  20  35  57  86 122 160 198 246 301 356
#     4   9  20  39  60  85 119 159 200 245 301 362
#     4  10  19  32  53  81 118 158 202 244 292 352
#     4  11  23  42  64  89 122 156 199 253 307 364
#     4  10  19  33  54  81 119 160 202 245 292 351
#     4  12  24  38  59  87 121 160 200 245 304 369
#
# _framework density 19.443179000000001
#
# number of rings (size 3 to 8) (size 9 to 14) (size 15 to 20)
#    0.000    1.500    1.250    4.500    0.000    4.500 
#    0.000    1.875    0.000    1.500    0.000    0.000 
#    0.000    0.000    0.000    0.000    0.000    0.000 
#
# Total GULP energy -178839.466295 kJ/mol
# GULP energy per Si atom -5588.733322 kJ/mol
# Density = 1.939892 g / cm^3
# Si number density = 19.443179 Si / 1000 Ang^3
#
#
#
# Elastic Constant Matrix: (Units=GPa)
#
#
# Indices 1 2 3 4 5 6 
#
# 1 137.8342 43.1776 60.4089 0.0000 0.0000 0.0000
# 2 43.1776 88.0885 34.6726 0.0000 0.0000 0.0000
# 3 60.4089 34.6726 106.5715 0.0000 0.0000 0.0000
# 4 0.0000 0.0000 0.0000 20.4080 0.0000 0.0000
# 5 0.0000 0.0000 0.0000 0.0000 16.4849 0.0000
# 6 0.0000 0.0000 0.0000 0.0000 0.0000 33.9934
#
#
#
# Elastic Compliance Matrix: (Units=1/GPa)
#
#
# Indices 1 2 3 4 5 6 
#
# 1 0.010375 -0.003177 -0.004847 0.000000 0.000000 0.000000
# 2 -0.003177 0.013993 -0.002751 0.000000 0.000000 0.000000
# 3 -0.004847 -0.002751 0.013026 0.000000 0.000000 0.000000
# 4 0.000000 0.000000 0.000000 0.049001 0.000000 0.000000
# 5 0.000000 0.000000 0.000000 0.000000 0.060661 0.000000
# 6 0.000000 0.000000 0.000000 0.000000 0.000000 0.029417
#
#
# Mechanical properties :
#
#
# Convention : Reuss Voigt Hill
#
# Bulk Modulus (GPa) = 63.12445 67.66804 65.39624
# Shear Modulus (GPa) = 24.59356 27.12626 25.85991
#
# Velocity S-wave (km/s) = 3.56039 3.73923 3.65091
# Velocity P-wave (km/s) = 7.03125 7.31580 7.17494
#
# Compressibility (1/GPa) = 0.01584172
#
# Stress axis : x y z
#
# Youngs Moduli (GPa) = 96.38738 71.46609 76.76939
#
# Poissons Ratio (x) = 0.22708 0.37211
# Poissons Ratio (y) = 0.30627 0.21122
# Poissons Ratio (z) = 0.46720 0.19663
#
# Static dielectric constant tensor:
#      x y z
#    x 1.702070 0.000000 0.000000 
#    y 0.000000 1.652150 0.000000 
#    z 0.000000 0.000000 1.660520 
# 
# From -- ./inp_files/16260.got.cif
#   From: 2010.05.17/outbox.cif.g08.bks.cpg/sg39_9_cif.got.tgz:16260.got - 2010.06.03 18:22:40.
