data_PCOD9360121
_publ_section_title
;
Structure prediction by ZEFSAII (Michael W. Deem and Ramdas Pophale) SiO2 
 PCOD9360121
Probable space group: A B M 2
;
_chemical_formula_sum "Si O2"
_cell_formula_units_Z 64
_cell_length_a 21.894465
_cell_length_b 9.153189
_cell_length_c 14.968333
_cell_angle_alpha 90.000000
_cell_angle_beta 90.000000
_cell_angle_gamma 90.000000
_cell_volume 2999.716444
_symmetry_space_group_name_H-M "A B M 2"
_symmetry_group_IT_number 39
_symmetry_cell_setting 'orthorhombic'
loop_
_space_group_symop_operation_xyz
x,y,z
-x,-y,z
-x,1/2+y,z
x,1/2-y,z
x,1/2+y,1/2+z
-x,1/2-y,1/2+z
-x,y,1/2+z
x,-y,1/2+z
loop_
_atom_site_type_symbol
_atom_site_label
_atom_site_fract_x
_atom_site_fract_y
_atom_site_fract_z
Si Si1 0.438139 0.580611 0.101760
Si Si2 0.560032 0.417246 0.882634
Si Si3 0.058024 0.413371 0.644373
Si Si4 0.177310 0.076186 0.403590
Si Si5 0.942962 0.588052 0.854059
Si Si6 0.315366 0.424441 0.098334
Si Si7 0.180517 0.925533 0.596993
Si Si8 0.310113 0.573592 0.904162
O O1 0.500000 0.500000 0.130399
O O2 0.438770 0.750000 0.127076
O O3 0.376132 0.502706 0.133762
O O4 0.438191 0.575183 0.992010
O O5 0.500000 0.500000 0.852320
O O6 0.553353 0.250000 0.856258
O O7 0.627607 0.467799 0.853889
O O8 0.065504 0.250000 0.605162
O O9 0.044566 0.394756 0.749108
O O10 0.120377 0.505218 0.639867
O O11 0.000000 0.500000 0.605355
O O12 0.168837 0.250000 0.409713
O O13 0.244082 0.050233 0.360318
O O14 0.119158 0.002122 0.360164
O O15 0.180964 0.001907 0.500417
O O16 0.936222 0.750000 0.894166
O O17 0.000000 0.500000 0.893501
O O18 0.324113 0.250000 0.099872
O O19 0.247907 0.456366 0.138065
O O20 0.310704 0.483322 0.996286
O O21 0.174953 0.750000 0.591043
O O22 0.314297 0.750000 0.923323
#
# Coordination Sequence:
#
# PCOD9360121 Si02
#       8
#     8   8   8   8   8   8   8   8
#     4   9  15  22  33  50  76 112 152 191 229 274
#     4   8  13  20  30  47  73 107 146 183 219 261
#     4  10  21  37  56  75  97 125 157 195 239 288
#     4  10  19  32  51  73  98 129 163 198 239 286
#     4  10  21  37  55  75  98 124 156 195 239 287
#     4   9  16  25  38  58  85 117 151 189 232 276
#     4  10  20  33  50  73 101 130 162 200 240 286
#     4   8  15  26  38  55  83 118 152 187 228 274
#
# _framework density 21.335349999999998
#
# number of rings (size 3 to 8) (size 9 to 14) (size 15 to 20)
#    0.000    2.750    0.000    3.000    0.000    7.000 
#    0.000    2.500    0.000    0.000    0.000    0.000 
#    0.000    1.000    0.000    4.500    0.000   12.750 
#
# Total GULP energy -178371.763544 kJ/mol
# GULP energy per Si atom -5574.117611 kJ/mol
# Density = 2.128679 g / cm^3
# Si number density = 21.335350 Si / 1000 Ang^3
#
#
#
# Elastic Constant Matrix: (Units=GPa)
#
#
# Indices 1 2 3 4 5 6 
#
# 1 243.6354 116.9389 9.6840 0.0000 0.0000 0.0000
# 2 116.9389 138.2930 9.7033 0.0000 0.0000 0.0000
# 3 9.6840 9.7033 36.0202 0.0000 0.0000 0.0000
# 4 0.0000 0.0000 0.0000 8.2346 0.0000 0.0000
# 5 0.0000 0.0000 0.0000 0.0000 -17.7950 0.0000
# 6 0.0000 0.0000 0.0000 0.0000 0.0000 24.0891
#
#
#
# Elastic Compliance Matrix: (Units=1/GPa)
#
#
# Indices 1 2 3 4 5 6 
#
# 1 0.006911 -0.005824 -0.000289 0.000000 0.000000 0.000000
# 2 -0.005824 0.012278 -0.001742 0.000000 0.000000 0.000000
# 3 -0.000289 -0.001742 0.028309 0.000000 0.000000 0.000000
# 4 0.000000 0.000000 0.000000 0.121439 0.000000 0.000000
# 5 0.000000 0.000000 0.000000 0.000000 -0.056195 0.000000
# 6 0.000000 0.000000 0.000000 0.000000 0.000000 0.041512
#
#
# Mechanical properties :
#
#
# Convention : Reuss Voigt Hill
#
# Bulk Modulus (GPa) = 31.45777 76.73346 54.09562
# Shear Modulus (GPa) = 27.69162 21.68056 24.68609
#
# Velocity S-wave (km/s) = 3.60658 3.19122 3.40524
# Velocity P-wave (km/s) = 5.66742 7.04429 6.39303
#
# Compressibility (1/GPa) = 0.03178865
#
# Stress axis : x y z
#
# Youngs Moduli (GPa) = 144.69130 81.44813 35.32429
#
# Poissons Ratio (x) = 0.47434 0.01022
# Poissons Ratio (y) = 0.84265 0.06152
# Poissons Ratio (z) = 0.04185 0.14186
#
# Static dielectric constant tensor:
#      x y z
#    x 1.815670 0.000000 0.000000 
#    y 0.000000 1.749350 0.000000 
#    z 0.000000 0.000000 1.783690 
# 
# From -- ./inp_files/15027.got.cif
#   From: 2010.05.17/outbox.cif.g08.bks.cpg/sg39_8_cif.got.tgz:15027.got - 2010.06.03 18:22:40.
