data_PCOD9360799
_publ_section_title
;
Structure prediction by ZEFSAII (Michael W. Deem and Ramdas Pophale) SiO2 
 PCOD9360799
Probable space group: A B M 2
;
_chemical_formula_sum "Si O2"
_cell_formula_units_Z 64
_cell_length_a 24.271797
_cell_length_b 8.900610
_cell_length_c 15.286377
_cell_angle_alpha 90.000000
_cell_angle_beta 90.000000
_cell_angle_gamma 90.000000
_cell_volume 3302.374098
_symmetry_space_group_name_H-M "A B M 2"
_symmetry_group_IT_number 39
_symmetry_cell_setting 'orthorhombic'
loop_
_space_group_symop_operation_xyz
x,y,z
-x,-y,z
-x,1/2+y,z
x,1/2-y,z
x,1/2+y,1/2+z
-x,1/2-y,1/2+z
-x,y,1/2+z
x,-y,1/2+z
loop_
_atom_site_type_symbol
_atom_site_label
_atom_site_fract_x
_atom_site_fract_y
_atom_site_fract_z
Si Si1 0.876326 0.429054 0.869080
Si Si2 0.940992 0.930466 0.197491
Si Si3 0.629814 0.070815 0.625429
Si Si4 0.559394 0.429906 0.976875
Si Si5 0.648367 0.930172 0.328390
Si Si6 0.142912 0.070773 0.046241
Si Si7 0.745187 0.423499 0.099265
Si Si8 0.236134 0.576632 0.308576
O O1 0.877863 0.250000 0.881951
O O2 0.919364 0.471529 0.793686
O O3 0.815686 0.477981 0.836785
O O4 0.886409 0.515470 0.958693
O O5 0.944918 0.750000 0.193184
O O6 0.894114 0.977080 0.128595
O O7 0.000000 0.000000 0.178150
O O8 0.625855 0.250000 0.617101
O O9 0.629082 0.032990 0.729089
O O10 0.583087 0.992334 0.568150
O O11 0.688535 0.013192 0.588984
O O12 0.500000 0.500000 0.958819
O O13 0.555606 0.250000 0.980445
O O14 0.602790 0.469979 0.900212
O O15 0.657443 0.750000 0.331352
O O16 0.706317 0.012379 0.344243
O O17 0.148936 0.250000 0.047954
O O18 0.203011 0.996136 0.051140
O O19 0.737618 0.250000 0.073038
O O20 0.758790 0.428042 0.203078
O O21 0.227981 0.750000 0.335405
#
# Coordination Sequence:
#
# PCOD9360799 Si02
#       8
#     8   8   8   8   8   8   8   8
#     4  11  23  40  61  90 124 162 203 250 307 364
#     4  10  24  44  66  88 121 164 207 254 306 361
#     4  10  21  39  62  89 121 160 202 250 303 361
#     4  11  24  42  62  87 120 160 206 253 304 365
#     4   9  21  40  61  86 120 161 201 247 304 361
#     4  11  23  40  61  91 123 160 205 252 305 365
#     4  10  20  36  60  91 125 162 201 249 305 365
#     4  10  20  35  60  92 124 159 202 249 302 364
#
# _framework density 19.379996999999999
#
# number of rings (size 3 to 8) (size 9 to 14) (size 15 to 20)
#    0.000    1.750    1.250    2.250    1.750    5.500 
#    0.000    3.750    0.000    0.000    0.000    0.000 
#    0.000    0.000    0.000    0.000    0.000    0.000 
#
# Total GULP energy -178892.941757 kJ/mol
# GULP energy per Si atom -5590.404430 kJ/mol
# Density = 1.933589 g / cm^3
# Si number density = 19.379997 Si / 1000 Ang^3
#
#
#
# Elastic Constant Matrix: (Units=GPa)
#
#
# Indices 1 2 3 4 5 6 
#
# 1 56.5649 8.1847 -1.7701 0.0000 0.0000 0.0000
# 2 8.1847 38.5975 7.1217 0.0000 0.0000 0.0000
# 3 -1.7701 7.1217 39.1476 0.0000 0.0000 0.0000
# 4 0.0000 0.0000 0.0000 29.1148 0.0000 0.0000
# 5 0.0000 0.0000 0.0000 0.0000 18.8674 0.0000
# 6 0.0000 0.0000 0.0000 0.0000 0.0000 36.4806
#
#
#
# Elastic Compliance Matrix: (Units=1/GPa)
#
#
# Indices 1 2 3 4 5 6 
#
# 1 0.018334 -0.004181 0.001590 0.000000 0.000000 0.000000
# 2 -0.004181 0.027762 -0.005239 0.000000 0.000000 0.000000
# 3 0.001590 -0.005239 0.026569 0.000000 0.000000 0.000000
# 4 0.000000 0.000000 0.000000 0.034347 0.000000 0.000000
# 5 0.000000 0.000000 0.000000 0.000000 0.053001 0.000000
# 6 0.000000 0.000000 0.000000 0.000000 0.000000 0.027412
#
#
# Mechanical properties :
#
#
# Convention : Reuss Voigt Hill
#
# Bulk Modulus (GPa) = 17.54297 17.93142 17.73719
# Shear Modulus (GPa) = 22.51365 24.94413 23.72889
#
# Velocity S-wave (km/s) = 3.41206 3.59152 3.50294
# Velocity P-wave (km/s) = 4.95930 5.14503 5.05302
#
# Compressibility (1/GPa) = 0.05700290
#
# Stress axis : x y z
#
# Youngs Moduli (GPa) = 54.54490 36.02075 37.63734
#
# Poissons Ratio (x) = 0.15060 -0.05983
# Poissons Ratio (y) = 0.22805 0.19720
# Poissons Ratio (z) = -0.08670 0.18873
#
# Static dielectric constant tensor:
#      x y z
#    x 1.630570 0.000000 0.000000 
#    y 0.000000 1.646790 0.000000 
#    z 0.000000 0.000000 1.700540 
# 
# From -- ./inp_files/10602.got.cif
#   From: 2010.05.17/outbox.cif.g08.bks.cpg/sg39_6_cif.got.tgz:10602.got - 2010.06.03 18:22:40.
