data_PCOD9360641
_publ_section_title
;
Structure prediction by ZEFSAII (Michael W. Deem and Ramdas Pophale) SiO2 
 PCOD9360641
Probable space group: A B M 2
;
_chemical_formula_sum "Si O2"
_cell_formula_units_Z 64
_cell_length_a 17.105155
_cell_length_b 8.755854
_cell_length_c 22.978853
_cell_angle_alpha 90.000000
_cell_angle_beta 90.000000
_cell_angle_gamma 90.000000
_cell_volume 3441.548325
_symmetry_space_group_name_H-M "A B M 2"
_symmetry_group_IT_number 39
_symmetry_cell_setting 'orthorhombic'
loop_
_space_group_symop_operation_xyz
x,y,z
-x,-y,z
-x,1/2+y,z
x,1/2-y,z
x,1/2+y,1/2+z
-x,1/2-y,1/2+z
-x,y,1/2+z
x,-y,1/2+z
loop_
_atom_site_type_symbol
_atom_site_label
_atom_site_fract_x
_atom_site_fract_y
_atom_site_fract_z
Si Si1 0.424557 0.931379 0.892310
Si Si2 0.413589 0.933607 0.643374
Si Si3 0.258047 0.567007 0.841679
Si Si4 0.752006 0.434658 0.706809
Si Si5 0.226630 0.423240 0.959167
Si Si6 0.627343 0.067805 0.017630
Si Si7 0.072323 0.423679 0.033629
Si Si8 0.084219 0.931016 0.158646
O O1 0.429958 0.750000 0.894253
O O2 0.347194 0.971557 0.857926
O O3 0.500000 0.000000 0.863374
O O4 0.417388 0.984720 0.959192
O O5 0.418661 0.750000 0.646978
O O6 0.332969 0.980026 0.678382
O O7 0.500000 0.000000 0.660767
O O8 0.398098 0.985032 0.576503
O O9 0.247809 0.750000 0.847189
O O10 0.245097 0.524870 0.775155
O O11 0.213340 0.485359 0.894174
O O12 0.755215 0.250000 0.700736
O O13 0.832872 0.501861 0.681245
O O14 0.258876 0.250000 0.956708
O O15 0.284845 0.527871 0.997105
O O16 0.146679 0.420669 0.993459
O O17 0.618212 0.250000 0.025261
O O18 0.055111 0.250000 0.052391
O O19 0.085370 0.525075 0.090585
O O20 0.000000 0.500000 0.001185
O O21 0.083067 0.750000 0.167938
O O22 0.000000 0.000000 0.180666
#
# Coordination Sequence:
#
# PCOD9360641 Si02
#       8
#     8   8   8   8   8   8   8   8
#     4   9  18  31  49  74 100 131 172 218 268 319
#     4  11  23  37  55  81 115 152 190 234 284 337
#     4   9  20  38  56  74 102 142 185 226 270 324
#     4  10  22  41  60  79 110 152 194 238 285 331
#     4  10  20  34  54  81 110 139 176 224 276 329
#     4  10  20  34  53  77 107 143 183 225 276 336
#     4  10  20  34  54  82 114 143 172 211 264 327
#     4  11  22  37  61  90 117 146 184 230 280 337
#
# _framework density 18.596281999999999
#
# number of rings (size 3 to 8) (size 9 to 14) (size 15 to 20)
#    0.000    2.000    0.000    5.250    0.000   10.500 
#    0.000    0.625    0.000    1.500    0.000    0.000 
#    0.000    0.000    0.000    0.000    0.000    0.000 
#
# Total GULP energy -178280.100439 kJ/mol
# GULP energy per Si atom -5571.253139 kJ/mol
# Density = 1.855396 g / cm^3
# Si number density = 18.596282 Si / 1000 Ang^3
#
#
#
# Elastic Constant Matrix: (Units=GPa)
#
#
# Indices 1 2 3 4 5 6 
#
# 1 128.1195 41.4197 48.2340 0.0000 0.0000 0.0000
# 2 41.4197 44.0231 26.0856 0.0000 0.0000 0.0000
# 3 48.2340 26.0856 68.8769 0.0000 0.0000 0.0000
# 4 0.0000 0.0000 0.0000 48.3195 0.0000 0.0000
# 5 0.0000 0.0000 0.0000 0.0000 -263.0996 0.0000
# 6 0.0000 0.0000 0.0000 0.0000 0.0000 34.4210
#
#
#
# Elastic Compliance Matrix: (Units=1/GPa)
#
#
# Indices 1 2 3 4 5 6 
#
# 1 0.012716 -0.008622 -0.005639 0.000000 0.000000 0.000000
# 2 -0.008622 0.035134 -0.007268 0.000000 0.000000 0.000000
# 3 -0.005639 -0.007268 0.021220 0.000000 0.000000 0.000000
# 4 0.000000 0.000000 0.000000 0.020696 0.000000 0.000000
# 5 0.000000 0.000000 0.000000 0.000000 -0.003801 0.000000
# 6 0.000000 0.000000 0.000000 0.000000 0.000000 0.029052
#
#
# Mechanical properties :
#
#
# Convention : Reuss Voigt Hill
#
# Bulk Modulus (GPa) = 38.44517 52.49979 45.47248
# Shear Modulus (GPa) = 29.98546 -27.71980 1.13283
#
# Velocity S-wave (km/s) = 4.01988 -3.86503 0.78134
# Velocity P-wave (km/s) = 6.50111 2.89390 5.03185
#
# Compressibility (1/GPa) = 0.02601107
#
# Stress axis : x y z
#
# Youngs Moduli (GPa) = 78.64269 28.46207 47.12427
#
# Poissons Ratio (x) = 0.24541 0.26575
# Poissons Ratio (y) = 0.67808 0.34251
# Poissons Ratio (z) = 0.44348 0.20687
#
# Static dielectric constant tensor:
#      x y z
#    x 1.882650 0.000000 0.000000 
#    y 0.000000 1.630080 0.000000 
#    z 0.000000 0.000000 1.627360 
# 
# From -- ./inp_files/16371.got.cif
#   From: 2010.05.17/outbox.cif.g08.bks.cpg/sg39_9_cif.got.tgz:16371.got - 2010.06.03 18:22:40.
