data_PCOD9360366
_publ_section_title
;
Structure prediction by ZEFSAII (Michael W. Deem and Ramdas Pophale) SiO2 
 PCOD9360366
Probable space group: A B M 2
;
_chemical_formula_sum "Si O2"
_cell_formula_units_Z 64
_cell_length_a 8.007195
_cell_length_b 15.373601
_cell_length_c 22.586239
_cell_angle_alpha 90.000000
_cell_angle_beta 90.000000
_cell_angle_gamma 90.000000
_cell_volume 2780.352945
_symmetry_space_group_name_H-M "A B M 2"
_symmetry_group_IT_number 39
_symmetry_cell_setting 'orthorhombic'
loop_
_space_group_symop_operation_xyz
x,y,z
-x,-y,z
-x,1/2+y,z
x,1/2-y,z
x,1/2+y,1/2+z
-x,1/2-y,1/2+z
-x,y,1/2+z
x,-y,1/2+z
loop_
_atom_site_type_symbol
_atom_site_label
_atom_site_fract_x
_atom_site_fract_y
_atom_site_fract_z
Si Si1 0.402386 0.921974 0.568820
Si Si2 0.846184 0.845014 0.658528
Si Si3 0.475657 0.146648 0.445912
Si Si4 0.134619 0.056293 0.547827
Si Si5 0.755094 0.345831 0.684647
Si Si6 0.772916 0.644431 0.856826
Si Si7 0.200228 0.985526 0.251340
Si Si8 0.895770 0.854239 0.428358
O O1 0.501865 0.879355 0.514620
O O2 0.330163 0.862906 0.620723
O O3 0.500000 0.000000 0.600599
O O4 0.264633 0.980444 0.535324
O O5 0.781083 0.750000 0.674991
O O6 0.812309 0.865932 0.590238
O O7 0.771721 0.923484 0.695100
O O8 0.045170 0.845279 0.671536
O O9 0.469429 0.250000 0.444991
O O10 0.637781 0.123824 0.407697
O O11 0.297292 0.117390 0.418660
O O12 0.059713 0.097348 0.489128
O O13 0.000000 0.000000 0.584514
O O14 0.708060 0.250000 0.706680
O O15 0.724090 0.421251 0.732943
O O16 0.761264 0.750000 0.842515
O O17 0.741430 0.575052 0.805135
O O18 0.962341 0.628734 0.880079
O O19 0.000000 0.000000 0.258629
O O20 0.898112 0.750000 0.437729
#
# Coordination Sequence:
#
# PCOD9360366 Si02
#       8
#     8   8   8   8   8   8   8   8
#     4  12  22  37  61  95 138 177 223 279 348 422
#     4  10  19  34  61  93 128 168 217 279 336 401
#     4  10  22  41  63  97 140 180 226 281 347 420
#     4  12  20  35  58  91 132 169 222 273 332 414
#     4  10  21  39  66  97 132 175 222 285 351 411
#     4  10  22  40  68  99 136 186 233 280 343 413
#     4  10  20  39  64  95 128 167 234 283 336 413
#     4  10  22  40  62  97 138 177 224 281 344 412
#
# _framework density 23.018660000000001
#
# number of rings (size 3 to 8) (size 9 to 14) (size 15 to 20)
#    0.000    1.500    3.750    2.250    0.000    2.000 
#    0.000    0.000    5.500    0.000    0.000    0.000 
#    0.000    0.000    0.000    0.000    0.000    0.000 
#
# Total GULP energy -178570.014367 kJ/mol
# GULP energy per Si atom -5580.312949 kJ/mol
# Density = 2.296627 g / cm^3
# Si number density = 23.018660 Si / 1000 Ang^3
#
#
#
# Elastic Constant Matrix: (Units=GPa)
#
#
# Indices 1 2 3 4 5 6 
#
# 1 77.4302 28.9535 28.1517 0.0000 0.0000 0.0000
# 2 28.9535 136.7613 62.3119 0.0000 0.0000 0.0000
# 3 28.1517 62.3119 98.6711 0.0000 0.0000 0.0000
# 4 0.0000 0.0000 0.0000 40.3220 0.0000 0.0000
# 5 0.0000 0.0000 0.0000 0.0000 7.3005 0.0000
# 6 0.0000 0.0000 0.0000 0.0000 0.0000 13.6357
#
#
#
# Elastic Compliance Matrix: (Units=1/GPa)
#
#
# Indices 1 2 3 4 5 6 
#
# 1 0.014681 -0.001684 -0.003125 0.000000 0.000000 0.000000
# 2 -0.001684 0.010459 -0.006124 0.000000 0.000000 0.000000
# 3 -0.003125 -0.006124 0.014894 0.000000 0.000000 0.000000
# 4 0.000000 0.000000 0.000000 0.024800 0.000000 0.000000
# 5 0.000000 0.000000 0.000000 0.000000 0.136976 0.000000
# 6 0.000000 0.000000 0.000000 0.000000 0.000000 0.073337
#
#
# Mechanical properties :
#
#
# Convention : Reuss Voigt Hill
#
# Bulk Modulus (GPa) = 55.04653 61.29965 58.17309
# Shear Modulus (GPa) = 16.49784 25.14803 20.82293
#
# Velocity S-wave (km/s) = 2.68006 3.30889 3.01094
# Velocity P-wave (km/s) = 5.79161 6.42546 6.11675
#
# Compressibility (1/GPa) = 0.01816645
#
# Stress axis : x y z
#
# Youngs Moduli (GPa) = 68.11624 95.61099 67.14151
#
# Poissons Ratio (x) = 0.16103 0.20981
# Poissons Ratio (y) = 0.11472 0.41121
# Poissons Ratio (z) = 0.21286 0.58557
#
# Static dielectric constant tensor:
#      x y z
#    x 1.991490 0.000000 0.000000 
#    y 0.000000 1.834740 0.000000 
#    z 0.000000 0.000000 1.833250 
# 
# From -- ./inp_files/15684.got.cif
#   From: 2010.05.17/outbox.cif.g08.bks.cpg/sg39_8_cif.got.tgz:15684.got - 2010.06.03 18:22:40.
