data_PCOD9360377
_publ_section_title
;
Structure prediction by ZEFSAII (Michael W. Deem and Ramdas Pophale) SiO2 
 PCOD9360377
Probable space group: A B M 2
;
_chemical_formula_sum "Si O2"
_cell_formula_units_Z 56
_cell_length_a 14.797488
_cell_length_b 8.767044
_cell_length_c 25.856609
_cell_angle_alpha 90.000000
_cell_angle_beta 90.000000
_cell_angle_gamma 90.000000
_cell_volume 3354.383791
_symmetry_space_group_name_H-M "A B M 2"
_symmetry_group_IT_number 39
_symmetry_cell_setting 'orthorhombic'
loop_
_space_group_symop_operation_xyz
x,y,z
-x,-y,z
-x,1/2+y,z
x,1/2-y,z
x,1/2+y,1/2+z
-x,1/2-y,1/2+z
-x,y,1/2+z
x,-y,1/2+z
loop_
_atom_site_type_symbol
_atom_site_label
_atom_site_fract_x
_atom_site_fract_y
_atom_site_fract_z
Si Si1 0.786880 0.066169 0.957840
Si Si2 0.899106 0.066300 0.061237
Si Si3 0.901009 0.433016 0.246566
Si Si4 0.595378 0.432959 0.999721
Si Si5 0.901736 0.431756 0.366875
Si Si6 0.782972 0.067634 0.656189
Si Si7 0.403428 0.933054 0.121699
O O1 0.786826 0.250000 0.953907
O O2 0.829071 0.996725 0.906469
O O3 0.848990 0.027103 0.007445
O O4 0.684527 0.014981 0.969574
O O5 0.901618 0.250000 0.065856
O O6 0.841151 0.999044 0.108414
O O7 0.000000 0.000000 0.061935
O O8 0.902339 0.250000 0.240430
O O9 0.882420 0.469390 0.306826
O O10 0.829201 0.506772 0.208274
O O11 0.000000 0.500000 0.234092
O O12 0.500000 0.500000 0.981854
O O13 0.591050 0.250000 0.996558
O O14 0.606908 0.471472 0.060531
O O15 0.906326 0.250000 0.371458
O O16 0.000000 0.500000 0.379804
O O17 0.784400 0.250000 0.654460
O O18 0.681379 0.005666 0.650539
O O19 0.402409 0.750000 0.126603
O O20 0.500000 0.000000 0.138423
#
# Coordination Sequence:
#
# PCOD9360377 Si02
#       7
#     8   8   8   8   8   8   8
#     4  10  20  35  54  77 108 142 176 217 266 316
#     4  11  22  36  50  73 109 145 177 215 265 322
#     4  10  21  38  57  78 106 140 180 226 270 320
#     4   9  18  33  52  77 106 140 176 215 260 311
#     4  10  21  36  56  80 105 139 181 223 268 316
#     4  12  23  35  54  80 107 142 181 220 270 320
#     4  10  19  35  55  79 110 142 179 220 265 319
#
# _framework density 16.694572000000001
#
# number of rings (size 3 to 8) (size 9 to 14) (size 15 to 20)
#    0.000    1.714    1.429    3.857    0.000    5.143 
#    0.000    0.000    0.000    0.857    0.000    2.000 
#    0.000    0.000    0.000    0.000    0.000    0.000 
#
# Total GULP energy -156401.585503 kJ/mol
# GULP energy per Si atom -5585.770911 kJ/mol
# Density = 1.665657 g / cm^3
# Si number density = 16.694572 Si / 1000 Ang^3
#
#
#
# Elastic Constant Matrix: (Units=GPa)
#
#
# Indices 1 2 3 4 5 6 
#
# 1 186.4666 61.8904 87.9906 0.0000 0.0000 0.0000
# 2 61.8904 65.3560 44.4630 0.0000 0.0000 0.0000
# 3 87.9906 44.4630 84.4465 0.0000 0.0000 0.0000
# 4 0.0000 0.0000 0.0000 25.9059 0.0000 0.0000
# 5 0.0000 0.0000 0.0000 0.0000 20.1489 0.0000
# 6 0.0000 0.0000 0.0000 0.0000 0.0000 33.4434
#
#
#
# Elastic Compliance Matrix: (Units=1/GPa)
#
#
# Indices 1 2 3 4 5 6 
#
# 1 0.011235 -0.004168 -0.009512 0.000000 0.000000 0.000000
# 2 -0.004168 0.025387 -0.009024 0.000000 0.000000 0.000000
# 3 -0.009512 -0.009024 0.026504 0.000000 0.000000 0.000000
# 4 0.000000 0.000000 0.000000 0.038601 0.000000 0.000000
# 5 0.000000 0.000000 0.000000 0.000000 0.049631 0.000000
# 6 0.000000 0.000000 0.000000 0.000000 0.000000 0.029901
#
#
# Mechanical properties :
#
#
# Convention : Reuss Voigt Hill
#
# Bulk Modulus (GPa) = 56.43817 80.55077 68.49447
# Shear Modulus (GPa) = 21.49875 25.36132 23.43003
#
# Velocity S-wave (km/s) = 3.59244 3.90184 3.75033
# Velocity P-wave (km/s) = 7.14753 8.28574 7.73759
#
# Compressibility (1/GPa) = 0.01771850
#
# Stress axis : x y z
#
# Youngs Moduli (GPa) = 89.01010 39.39043 37.73030
#
# Poissons Ratio (x) = 0.16418 0.35888
# Poissons Ratio (y) = 0.37099 0.34047
# Poissons Ratio (z) = 0.84663 0.35545
#
# Static dielectric constant tensor:
#      x y z
#    x 1.547290 0.000000 0.000000 
#    y 0.000000 1.557990 0.000000 
#    z 0.000000 0.000000 1.545940 
# 
# From -- ./inp_files/14785.got.cif
#   From: 2010.05.17/outbox.cif.g08.bks.cpg/sg39_8_cif.got.tgz:14785.got - 2010.06.03 18:22:40.
