data_PCOD9360894
_publ_section_title
;
Structure prediction by ZEFSAII (Michael W. Deem and Ramdas Pophale) SiO2 
 PCOD9360894
Probable space group: A B M 2
;
_chemical_formula_sum "Si O2"
_cell_formula_units_Z 52
_cell_length_a 17.163125
_cell_length_b 31.149609
_cell_length_c 5.052874
_cell_angle_alpha 90.000000
_cell_angle_beta 90.000000
_cell_angle_gamma 90.000000
_cell_volume 2701.390908
_symmetry_space_group_name_H-M "A B M 2"
_symmetry_group_IT_number 39
_symmetry_cell_setting 'orthorhombic'
loop_
_space_group_symop_operation_xyz
x,y,z
-x,-y,z
-x,1/2+y,z
x,1/2-y,z
x,1/2+y,1/2+z
-x,1/2-y,1/2+z
-x,y,1/2+z
x,-y,1/2+z
loop_
_atom_site_type_symbol
_atom_site_label
_atom_site_fract_x
_atom_site_fract_y
_atom_site_fract_z
Si Si1 0.766823 0.891500 0.559530
Si Si2 0.356370 0.335864 0.310150
Si Si3 0.699309 0.027543 0.773983
Si Si4 0.048718 0.698523 0.356158
Si Si5 0.548678 0.582173 0.159407
Si Si6 0.446360 0.750000 0.965918
Si Si7 0.197152 0.650721 0.566065
O O1 0.686653 0.863818 0.538178
O O2 0.751438 0.935838 0.411280
O O3 0.823464 0.865853 0.359023
O O4 0.792006 0.888640 0.860850
O O5 0.417807 0.369500 0.189506
O O6 0.396093 0.292648 0.407946
O O7 0.282612 0.328173 0.113698
O O8 0.613740 0.048925 0.759501
O O9 0.710292 0.012325 0.472913
O O10 0.054409 0.750000 0.359301
O O11 0.131879 0.680282 0.441287
O O12 0.015616 0.685454 0.072863
O O13 0.476193 0.576184 0.357023
O O14 0.518570 0.750000 0.759998
#
# Coordination Sequence:
#
# PCOD9360894 Si02
#       7
#     8   8   8   8   8   4   8
#     4   9  21  36  57  82 109 146 190 235 281 336
#     4   9  24  37  58  77 108 148 199 238 287 324
#     4  11  22  36  56  80 113 142 186 242 292 351
#     4  10  21  37  57  90 128 156 184 230 285 335
#     4  11  23  36  55  73 108 151 186 238 301 343
#     4  12  26  38  54  78 108 142 200 256 284 324
#     4  10  20  36  61  79 113 153 191 222 271 348
#
# _framework density 19.249341999999999
#
# number of rings (size 3 to 8) (size 9 to 14) (size 15 to 20)
#    0.923    0.923    0.000    3.692    7.538    1.846 
#    1.385    0.000    0.000    0.000    0.000    0.000 
#    0.000   43.077    0.000    0.000    0.000    0.000 
#
# Total GULP energy -144849.243589 kJ/mol
# GULP energy per Si atom -5571.124753 kJ/mol
# Density = 1.920553 g / cm^3
# Si number density = 19.249342 Si / 1000 Ang^3
#
#
#
# Elastic Constant Matrix: (Units=GPa)
#
#
# Indices 1 2 3 4 5 6 
#
# 1 44.0366 11.4480 4.8848 0.0000 0.0000 0.0000
# 2 11.4480 48.9272 3.0128 0.0000 0.0000 0.0000
# 3 4.8848 3.0128 56.0555 0.0000 0.0000 0.0000
# 4 0.0000 0.0000 0.0000 22.7101 0.0000 0.0000
# 5 0.0000 0.0000 0.0000 0.0000 20.9526 0.0000
# 6 0.0000 0.0000 0.0000 0.0000 0.0000 16.4940
#
#
#
# Elastic Compliance Matrix: (Units=1/GPa)
#
#
# Indices 1 2 3 4 5 6 
#
# 1 0.024363 -0.005588 -0.001823 0.000000 0.000000 0.000000
# 2 -0.005588 0.021788 -0.000684 0.000000 0.000000 0.000000
# 3 -0.001823 -0.000684 0.018035 0.000000 0.000000 0.000000
# 4 0.000000 0.000000 0.000000 0.044033 0.000000 0.000000
# 5 0.000000 0.000000 0.000000 0.000000 0.047727 0.000000
# 6 0.000000 0.000000 0.000000 0.000000 0.000000 0.060628
#
#
# Mechanical properties :
#
#
# Convention : Reuss Voigt Hill
#
# Bulk Modulus (GPa) = 20.83488 20.85672 20.84580
# Shear Modulus (GPa) = 20.09938 20.67624 20.38781
#
# Velocity S-wave (km/s) = 3.23485 3.28094 3.25798
# Velocity P-wave (km/s) = 4.97991 5.02109 5.00054
#
# Compressibility (1/GPa) = 0.04799644
#
# Stress axis : x y z
#
# Youngs Moduli (GPa) = 41.04528 45.89640 55.44758
#
# Poissons Ratio (x) = 0.25648 0.10107
# Poissons Ratio (y) = 0.22937 0.03793
# Poissons Ratio (z) = 0.07482 0.03140
#
# Static dielectric constant tensor:
#      x y z
#    x 1.668860 0.000000 0.000000 
#    y 0.000000 1.685020 0.000000 
#    z 0.000000 0.000000 1.679900 
# 
# From -- ./inp_files/846.got.cif
#   From: 2010.05.17/outbox.cif.g08.bks.cpg/sg39_1_cif.got.tgz:846.got - 2010.06.03 18:22:40.
