data_PCOD9360569
_publ_section_title
;
Structure prediction by ZEFSAII (Michael W. Deem and Ramdas Pophale) SiO2 
 PCOD9360569
Probable space group: A B M 2
;
_chemical_formula_sum "Si O2"
_cell_formula_units_Z 56
_cell_length_a 15.708989
_cell_length_b 9.103820
_cell_length_c 20.401098
_cell_angle_alpha 90.000000
_cell_angle_beta 90.000000
_cell_angle_gamma 90.000000
_cell_volume 2917.597915
_symmetry_space_group_name_H-M "A B M 2"
_symmetry_group_IT_number 39
_symmetry_cell_setting 'orthorhombic'
loop_
_space_group_symop_operation_xyz
x,y,z
-x,-y,z
-x,1/2+y,z
x,1/2-y,z
x,1/2+y,1/2+z
-x,1/2-y,1/2+z
-x,y,1/2+z
x,-y,1/2+z
loop_
_atom_site_type_symbol
_atom_site_label
_atom_site_fract_x
_atom_site_fract_y
_atom_site_fract_z
Si Si1 0.737592 0.076521 0.964260
Si Si2 0.084295 0.579893 0.490215
Si Si3 0.677960 0.576659 0.090145
Si Si4 0.912763 0.575797 0.770975
Si Si5 0.259863 0.925155 0.816473
Si Si6 0.587789 0.427143 0.719320
Si Si7 0.870660 0.917126 0.140525
O O1 0.746731 0.250000 0.974833
O O2 0.707208 0.050942 0.890271
O O3 0.830085 0.001294 0.969144
O O4 0.680929 0.009411 0.022175
O O5 0.086636 0.750000 0.470393
O O6 0.085371 0.574876 0.569765
O O7 0.000000 0.500000 0.465862
O O8 0.668226 0.750000 0.076625
O O9 0.610318 0.529690 0.144566
O O10 0.770821 0.560455 0.124463
O O11 0.916932 0.750000 0.778937
O O12 0.828341 0.509537 0.804506
O O13 0.902257 0.531019 0.694231
O O14 0.000000 0.500000 0.794463
O O15 0.243822 0.750000 0.808395
O O16 0.332439 0.969120 0.764955
O O17 0.500000 0.500000 0.740334
O O18 0.581472 0.250000 0.721563
O O19 0.881671 0.750000 0.166309
#
# Coordination Sequence:
#
# PCOD9360569 Si02
#       7
#     8   8   8   8   8   8   8
#     4  10  21  36  59  84 112 153 196 241 291 349
#     4  10  20  33  51  76 111 152 197 246 294 347
#     4   9  18  36  61  85 116 153 185 235 294 346
#     4  12  24  35  54  83 116 157 203 250 295 348
#     4  10  22  43  62  82 120 162 198 243 298 350
#     4  10  21  40  66  93 120 153 193 241 298 354
#     4   9  17  33  54  77 110 151 191 239 296 346
#
# _framework density 19.193871999999999
#
# number of rings (size 3 to 8) (size 9 to 14) (size 15 to 20)
#    0.000    2.000    1.429    3.429    0.000    6.857 
#    0.000    0.714    0.000    3.429    0.000    0.000 
#    0.000    0.000    0.000    0.000    0.000    0.000 
#
# Total GULP energy -156390.785833 kJ/mol
# GULP energy per Si atom -5585.385208 kJ/mol
# Density = 1.915019 g / cm^3
# Si number density = 19.193872 Si / 1000 Ang^3
#
#
#
# Elastic Constant Matrix: (Units=GPa)
#
#
# Indices 1 2 3 4 5 6 
#
# 1 85.9106 43.0513 37.9964 0.0000 0.0000 0.0000
# 2 43.0513 85.2207 53.1451 0.0000 0.0000 0.0000
# 3 37.9964 53.1451 107.2460 0.0000 0.0000 0.0000
# 4 0.0000 0.0000 0.0000 23.8691 0.0000 0.0000
# 5 0.0000 0.0000 0.0000 0.0000 -2.1552 0.0000
# 6 0.0000 0.0000 0.0000 0.0000 0.0000 27.9748
#
#
#
# Elastic Compliance Matrix: (Units=1/GPa)
#
#
# Indices 1 2 3 4 5 6 
#
# 1 0.016004 -0.006583 -0.002408 0.000000 0.000000 0.000000
# 2 -0.006583 0.019690 -0.007425 0.000000 0.000000 0.000000
# 3 -0.002408 -0.007425 0.013857 0.000000 0.000000 0.000000
# 4 0.000000 0.000000 0.000000 0.041895 0.000000 0.000000
# 5 0.000000 0.000000 0.000000 0.000000 -0.463985 0.000000
# 6 0.000000 0.000000 0.000000 0.000000 0.000000 0.035746
#
#
# Mechanical properties :
#
#
# Convention : Reuss Voigt Hill
#
# Bulk Modulus (GPa) = 59.81224 60.75141 60.28183
# Shear Modulus (GPa) = -16.75676 19.55005 1.39665
#
# Velocity S-wave (km/s) = -2.95791 3.19495 0.85395
# Velocity P-wave (km/s) = 4.42314 6.73279 5.69625
#
# Compressibility (1/GPa) = 0.01671898
#
# Stress axis : x y z
#
# Youngs Moduli (GPa) = 62.48485 50.78654 72.16658
#
# Poissons Ratio (x) = 0.33434 0.17376
# Poissons Ratio (y) = 0.41135 0.53584
# Poissons Ratio (z) = 0.15045 0.37709
#
# Static dielectric constant tensor:
#      x y z
#    x 1.655080 0.000000 0.000000 
#    y 0.000000 1.645370 0.000000 
#    z 0.000000 0.000000 1.693970 
# 
# From -- ./inp_files/14729.got.cif
#   From: 2010.05.17/outbox.cif.g08.bks.cpg/sg39_8_cif.got.tgz:14729.got - 2010.06.03 18:22:40.
