data_PCOD9360358
_publ_section_title
;
Structure prediction by ZEFSAII (Michael W. Deem and Ramdas Pophale) SiO2 
 PCOD9360358
Probable space group: A B M 2
;
_chemical_formula_sum "Si O2"
_cell_formula_units_Z 64
_cell_length_a 9.065209
_cell_length_b 15.129629
_cell_length_c 23.143934
_cell_angle_alpha 90.000000
_cell_angle_beta 90.000000
_cell_angle_gamma 90.000000
_cell_volume 3174.265742
_symmetry_space_group_name_H-M "A B M 2"
_symmetry_group_IT_number 39
_symmetry_cell_setting 'orthorhombic'
loop_
_space_group_symop_operation_xyz
x,y,z
-x,-y,z
-x,1/2+y,z
x,1/2-y,z
x,1/2+y,1/2+z
-x,1/2-y,1/2+z
-x,y,1/2+z
x,-y,1/2+z
loop_
_atom_site_type_symbol
_atom_site_label
_atom_site_fract_x
_atom_site_fract_y
_atom_site_fract_z
Si Si1 0.825548 0.477864 0.726130
Si Si2 0.644402 0.350742 0.932914
Si Si3 0.084768 0.151594 0.130439
Si Si4 0.743447 0.348472 0.172162
Si Si5 0.825512 0.517968 0.352768
Si Si6 0.868056 0.940495 0.013477
Si Si7 0.369358 0.428937 0.559002
Si Si8 0.301706 0.647058 0.405891
O O1 0.819880 0.413204 0.671108
O O2 0.734813 0.567179 0.713895
O O3 0.789908 0.441832 0.789663
O O4 0.000000 0.500000 0.729730
O O5 0.695825 0.250000 0.924936
O O6 0.753083 0.419656 0.901579
O O7 0.478323 0.359915 0.909075
O O8 0.625590 0.371850 0.000692
O O9 0.143993 0.250000 0.136681
O O10 0.080011 0.125982 0.063217
O O11 0.915535 0.150310 0.152260
O O12 0.711626 0.250000 0.194914
O O13 0.646832 0.369996 0.115676
O O14 0.754871 0.420669 0.357972
O O15 0.000000 0.500000 0.358452
O O16 0.773151 0.010527 0.049627
O O17 0.773226 0.890902 0.964847
O O18 0.000000 0.000000 0.988363
O O19 0.500000 0.500000 0.562206
O O20 0.261850 0.750000 0.398267
#
# Coordination Sequence:
#
# PCOD9360358 Si02
#       8
#     8   8   8   8   8   8   8   8
#     4   9  19  37  59  85 117 155 200 253 307 351
#     4  11  24  42  62  86 122 165 202 243 304 371
#     4  10  19  34  59  91 123 154 194 245 299 354
#     4  10  20  36  60  89 120 157 196 240 297 360
#     4  11  23  40  63  90 118 156 208 262 307 354
#     4  12  20  37  62  89 122 156 197 242 296 355
#     4  12  21  37  61  86 121 159 193 237 299 359
#     4  11  24  41  61  88 122 162 201 245 306 369
#
# _framework density 20.162143
#
# number of rings (size 3 to 8) (size 9 to 14) (size 15 to 20)
#    0.000    1.250    5.000    1.875    0.000    1.500 
#    0.000    3.750    0.000    0.000    0.000    0.000 
#    0.000    0.000    0.000    0.000    0.000    0.000 
#
# Total GULP energy -178571.656522 kJ/mol
# GULP energy per Si atom -5580.364266 kJ/mol
# Density = 2.011625 g / cm^3
# Si number density = 20.162143 Si / 1000 Ang^3
#
#
#
# Elastic Constant Matrix: (Units=GPa)
#
#
# Indices 1 2 3 4 5 6 
#
# 1 52.3061 38.8525 15.1789 0.0000 0.0000 0.0000
# 2 38.8525 130.1041 30.1263 0.0000 0.0000 0.0000
# 3 15.1789 30.1263 88.5592 0.0000 0.0000 0.0000
# 4 0.0000 0.0000 0.0000 9.9710 0.0000 0.0000
# 5 0.0000 0.0000 0.0000 0.0000 -9.4081 0.0000
# 6 0.0000 0.0000 0.0000 0.0000 0.0000 10.7920
#
#
#
# Elastic Compliance Matrix: (Units=1/GPa)
#
#
# Indices 1 2 3 4 5 6 
#
# 1 0.024854 -0.006986 -0.001883 0.000000 0.000000 0.000000
# 2 -0.006986 0.010307 -0.002309 0.000000 0.000000 0.000000
# 3 -0.001883 -0.002309 0.012400 0.000000 0.000000 0.000000
# 4 0.000000 0.000000 0.000000 0.100291 0.000000 0.000000
# 5 0.000000 0.000000 0.000000 0.000000 -0.106292 0.000000
# 6 0.000000 0.000000 0.000000 0.000000 0.000000 0.092661
#
#
# Mechanical properties :
#
#
# Convention : Reuss Voigt Hill
#
# Bulk Modulus (GPa) = 39.67537 48.80942 44.24240
# Shear Modulus (GPa) = 30.30669 14.72508 22.51588
#
# Velocity S-wave (km/s) = 3.88125 2.70540 3.34539
# Velocity P-wave (km/s) = 6.30923 5.83266 6.07562
#
# Compressibility (1/GPa) = 0.02520455
#
# Stress axis : x y z
#
# Youngs Moduli (GPa) = 40.23515 97.02181 80.64422
#
# Poissons Ratio (x) = 0.67779 0.15189
# Poissons Ratio (y) = 0.28108 0.18620
# Poissons Ratio (z) = 0.07578 0.22401
#
# Static dielectric constant tensor:
#      x y z
#    x 1.787960 0.000000 0.000000 
#    y 0.000000 1.733550 0.000000 
#    z 0.000000 0.000000 1.754850 
# 
# From -- ./inp_files/15722.got.cif
#   From: 2010.05.17/outbox.cif.g08.bks.cpg/sg39_8_cif.got.tgz:15722.got - 2010.06.03 18:22:40.
