data_PCOD9360491
_publ_section_title
;
Structure prediction by ZEFSAII (Michael W. Deem and Ramdas Pophale) SiO2 
 PCOD9360491
Probable space group: A B M 2
;
_chemical_formula_sum "Si O2"
_cell_formula_units_Z 64
_cell_length_a 11.647848
_cell_length_b 17.878869
_cell_length_c 15.476899
_cell_angle_alpha 90.000000
_cell_angle_beta 90.000000
_cell_angle_gamma 90.000000
_cell_volume 3223.069611
_symmetry_space_group_name_H-M "A B M 2"
_symmetry_group_IT_number 39
_symmetry_cell_setting 'orthorhombic'
loop_
_space_group_symop_operation_xyz
x,y,z
-x,-y,z
-x,1/2+y,z
x,1/2-y,z
x,1/2+y,1/2+z
-x,1/2-y,1/2+z
-x,y,1/2+z
x,-y,1/2+z
loop_
_atom_site_type_symbol
_atom_site_label
_atom_site_fract_x
_atom_site_fract_y
_atom_site_fract_z
Si Si1 0.009311 0.410667 0.433140
Si Si2 0.799497 0.421722 0.184364
Si Si3 0.438426 0.581876 0.844553
Si Si4 0.006659 0.662810 0.749466
Si Si5 0.227242 0.896351 0.508279
Si Si6 0.670813 0.664685 0.834854
Si Si7 0.262467 0.426201 0.494756
Si Si8 0.243013 0.904852 0.700339
O O1 0.981411 0.366749 0.345850
O O2 0.139693 0.396251 0.461219
O O3 0.000000 0.500000 0.416400
O O4 0.911167 0.390475 0.502321
O O5 0.733540 0.389159 0.266747
O O6 0.807704 0.511028 0.192079
O O7 0.924645 0.384400 0.186253
O O8 0.732029 0.405374 0.095551
O O9 0.500000 0.500000 0.845813
O O10 0.538120 0.642205 0.835331
O O11 0.366004 0.594819 0.932101
O O12 0.348929 0.588644 0.765599
O O13 0.981256 0.750000 0.741451
O O14 0.140232 0.646341 0.734017
O O15 0.280732 0.849699 0.430658
O O16 0.272734 0.878921 0.603489
O O17 0.255445 0.983417 0.490170
O O18 0.689960 0.750000 0.809316
#
# Coordination Sequence:
#
# PCOD9360491 Si02
#       8
#     8   8   8   8   8   8   8   8
#     4  10  19  37  66  93 128 167 209 272 339 405
#     4  11  22  42  69 101 126 172 227 282 333 407
#     4  12  23  44  68  97 130 177 232 283 329 395
#     4  12  24  38  63  98 138 178 215 271 351 420
#     4  10  21  39  68 101 124 164 220 276 335 399
#     4  12  26  44  65  94 137 181 220 279 348 404
#     4  10  21  40  68 100 127 161 226 283 329 388
#     4  11  23  42  71  97 130 173 226 283 333 398
#
# _framework density 19.856847999999999
#
# number of rings (size 3 to 8) (size 9 to 14) (size 15 to 20)
#    0.000    1.000    5.000    2.250    0.000    4.000 
#    0.000    5.000    0.000    0.000    0.000    0.000 
#    0.000    0.000    0.000    0.000    0.000    0.000 
#
# Total GULP energy -178854.316416 kJ/mol
# GULP energy per Si atom -5589.197388 kJ/mol
# Density = 1.981165 g / cm^3
# Si number density = 19.856848 Si / 1000 Ang^3
#
#
#
# Elastic Constant Matrix: (Units=GPa)
#
#
# Indices 1 2 3 4 5 6 
#
# 1 99.9211 7.4721 30.1790 0.0000 0.0000 0.0000
# 2 7.4721 39.4466 11.9191 0.0000 0.0000 0.0000
# 3 30.1790 11.9191 104.7923 0.0000 0.0000 0.0000
# 4 0.0000 0.0000 0.0000 -0.4262 0.0000 0.0000
# 5 0.0000 0.0000 0.0000 0.0000 14.9098 0.0000
# 6 0.0000 0.0000 0.0000 0.0000 0.0000 12.6051
#
#
#
# Elastic Compliance Matrix: (Units=1/GPa)
#
#
# Indices 1 2 3 4 5 6 
#
# 1 0.011013 -0.001168 -0.003039 0.000000 0.000000 0.000000
# 2 -0.001168 0.026377 -0.002664 0.000000 0.000000 0.000000
# 3 -0.003039 -0.002664 0.010721 0.000000 0.000000 0.000000
# 4 0.000000 0.000000 0.000000 -2.346554 0.000000 0.000000
# 5 0.000000 0.000000 0.000000 0.000000 0.067070 0.000000
# 6 0.000000 0.000000 0.000000 0.000000 0.000000 0.079333
#
#
# Mechanical properties :
#
#
# Convention : Reuss Voigt Hill
#
# Bulk Modulus (GPa) = 29.09540 38.14450 33.61995
# Shear Modulus (GPa) = -2.35090 18.39040 8.01975
#
# Velocity S-wave (km/s) = -1.08926 3.04657 2.01185
# Velocity P-wave (km/s) = 3.61972 5.62378 4.72913
#
# Compressibility (1/GPa) = 0.03436969
#
# Stress axis : x y z
#
# Youngs Moduli (GPa) = 90.80152 37.91207 93.27667
#
# Poissons Ratio (x) = 0.04428 0.28345
# Poissons Ratio (y) = 0.10605 0.24847
# Poissons Ratio (z) = 0.27593 0.10099
#
# Static dielectric constant tensor:
#      x y z
#    x 1.704730 0.000000 0.000000 
#    y 0.000000 1.662120 0.000000 
#    z 0.000000 0.000000 1.712680 
# 
# From -- ./inp_files/9428.got.cif
#   From: 2010.05.17/outbox.cif.g08.bks.cpg/sg39_5_cif.got.tgz:9428.got - 2010.06.03 18:22:40.
