data_PCOD9360566
_publ_section_title
;
Structure prediction by ZEFSAII (Michael W. Deem and Ramdas Pophale) SiO2 
 PCOD9360566
Probable space group: A B M 2
;
_chemical_formula_sum "Si O2"
_cell_formula_units_Z 64
_cell_length_a 6.800228
_cell_length_b 14.941689
_cell_length_c 22.615516
_cell_angle_alpha 90.000000
_cell_angle_beta 90.000000
_cell_angle_gamma 90.000000
_cell_volume 2297.892290
_symmetry_space_group_name_H-M "A B M 2"
_symmetry_group_IT_number 39
_symmetry_cell_setting 'orthorhombic'
loop_
_space_group_symop_operation_xyz
x,y,z
-x,-y,z
-x,1/2+y,z
x,1/2-y,z
x,1/2+y,1/2+z
-x,1/2-y,1/2+z
-x,y,1/2+z
x,-y,1/2+z
loop_
_atom_site_type_symbol
_atom_site_label
_atom_site_fract_x
_atom_site_fract_y
_atom_site_fract_z
Si Si1 0.039017 0.393620 0.291110
Si Si2 0.323977 0.854770 0.076389
Si Si3 0.139550 0.917118 0.671340
Si Si4 0.488565 0.605932 0.826073
Si Si5 0.601442 0.356777 0.952522
Si Si6 0.534118 0.855725 0.702570
Si Si7 0.136928 0.853901 0.543735
Si Si8 0.040227 0.142241 0.920270
O O1 0.025382 0.359091 0.222611
O O2 0.261216 0.365723 0.311994
O O3 0.920386 0.375362 0.351596
O O4 0.000000 0.500000 0.282719
O O5 0.369515 0.750000 0.080164
O O6 0.349829 0.884858 0.143797
O O7 0.097140 0.861421 0.057419
O O8 0.440616 0.891975 0.019150
O O9 0.348531 0.923258 0.703516
O O10 0.213633 0.885932 0.606856
O O11 0.000000 0.000000 0.659938
O O12 0.500000 0.500000 0.826514
O O13 0.528481 0.633371 0.893766
O O14 0.613362 0.638819 0.769461
O O15 0.619087 0.250000 0.960137
O O16 0.817130 0.391886 0.933253
O O17 0.475726 0.750000 0.695678
O O18 0.192098 0.750000 0.540053
O O19 0.159671 0.892606 0.477742
O O20 0.039183 0.250000 0.926222
#
# Coordination Sequence:
#
# PCOD9360566 Si02
#       8
#     8   8   8   8   8   8   8   8
#     4   9  19  34  50  69  97 131 164 204 251 300
#     4   8  16  31  53  77  99 126 166 211 251 295
#     4  10  21  34  49  74 104 133 169 212 258 304
#     4  10  20  33  51  75 102 132 167 209 255 301
#     4   8  14  30  53  74  96 126 166 209 247 295
#     4  10  20  35  55  78 102 136 176 211 251 305
#     4   9  17  32  53  75 100 132 168 209 254 305
#     4   8  15  29  52  76  95 124 170 211 246 295
#
# _framework density 27.851609
#
# number of rings (size 3 to 8) (size 9 to 14) (size 15 to 20)
#    0.000    3.000    0.000    2.250    0.000    7.000 
#    0.000    5.625    0.000    3.000    0.000    0.000 
#    0.000    0.000    0.000    0.000    0.000    0.000 
#
# Total GULP energy -178465.745263 kJ/mol
# GULP energy per Si atom -5577.054539 kJ/mol
# Density = 2.778822 g / cm^3
# Si number density = 27.851609 Si / 1000 Ang^3
#
#
#
# Elastic Constant Matrix: (Units=GPa)
#
#
# Indices 1 2 3 4 5 6 
#
# 1 81.1305 -6.3883 56.6532 0.0000 0.0000 0.0000
# 2 -6.3883 71.0875 13.3374 0.0000 0.0000 0.0000
# 3 56.6532 13.3374 343.2525 0.0000 0.0000 0.0000
# 4 0.0000 0.0000 0.0000 32.9320 0.0000 0.0000
# 5 0.0000 0.0000 0.0000 0.0000 64.4476 0.0000
# 6 0.0000 0.0000 0.0000 0.0000 0.0000 11.7539
#
#
#
# Elastic Compliance Matrix: (Units=1/GPa)
#
#
# Indices 1 2 3 4 5 6 
#
# 1 0.014137 0.001721 -0.002400 0.000000 0.000000 0.000000
# 2 0.001721 0.014380 -0.000843 0.000000 0.000000 0.000000
# 3 -0.002400 -0.000843 0.003342 0.000000 0.000000 0.000000
# 4 0.000000 0.000000 0.000000 0.030366 0.000000 0.000000
# 5 0.000000 0.000000 0.000000 0.000000 0.015516 0.000000
# 6 0.000000 0.000000 0.000000 0.000000 0.000000 0.085078
#
#
# Mechanical properties :
#
#
# Convention : Reuss Voigt Hill
#
# Bulk Modulus (GPa) = 34.70397 69.18614 51.94506
# Shear Modulus (GPa) = 28.49503 50.61790 39.55647
#
# Velocity S-wave (km/s) = 3.20207 4.26774 3.77272
# Velocity P-wave (km/s) = 5.11452 7.01282 6.13751
#
# Compressibility (1/GPa) = 0.02881514
#
# Stress axis : x y z
#
# Youngs Moduli (GPa) = 70.73449 69.54134 299.20368
#
# Poissons Ratio (x) = -0.11967 0.71815
# Poissons Ratio (y) = -0.12172 0.25216
# Poissons Ratio (z) = 0.16978 0.05861
#
# Static dielectric constant tensor:
#      x y z
#    x 2.342850 0.000000 0.000000 
#    y 0.000000 2.112920 0.000000 
#    z 0.000000 0.000000 2.276780 
# 
# From -- ./inp_files/14192.got.cif
#   From: 2010.05.17/outbox.cif.g08.bks.cpg/sg39_8_cif.got.tgz:14192.got - 2010.06.03 18:22:40.
