data_PCOD9360429
_publ_section_title
;
Structure prediction by ZEFSAII (Michael W. Deem and Ramdas Pophale) SiO2 
 PCOD9360429
Probable space group: A B M 2
;
_chemical_formula_sum "Si O2"
_cell_formula_units_Z 48
_cell_length_a 17.800108
_cell_length_b 23.450562
_cell_length_c 5.344207
_cell_angle_alpha 90.000000
_cell_angle_beta 90.000000
_cell_angle_gamma 90.000000
_cell_volume 2230.792440
_symmetry_space_group_name_H-M "A B M 2"
_symmetry_group_IT_number 39
_symmetry_cell_setting 'orthorhombic'
loop_
_space_group_symop_operation_xyz
x,y,z
-x,-y,z
-x,1/2+y,z
x,1/2-y,z
x,1/2+y,1/2+z
-x,1/2-y,1/2+z
-x,y,1/2+z
x,-y,1/2+z
loop_
_atom_site_type_symbol
_atom_site_label
_atom_site_fract_x
_atom_site_fract_y
_atom_site_fract_z
Si Si1 0.283446 0.314543 0.925520
Si Si2 0.951866 0.816104 0.341903
Si Si3 0.543462 0.662869 0.840331
Si Si4 0.187339 0.896239 0.724481
Si Si5 0.597482 0.964699 0.802607
Si Si6 0.233654 0.423389 0.724435
O O1 0.255687 0.250000 0.934872
O O2 0.372675 0.314782 0.889861
O O3 0.246922 0.354041 0.711047
O O4 0.256617 0.352900 0.160255
O O5 0.926346 0.750000 0.326549
O O6 0.884133 0.859091 0.294967
O O7 0.989191 0.824201 0.614029
O O8 0.509192 0.679663 0.572797
O O9 0.553241 0.594284 0.831274
O O10 0.178537 0.928481 0.459535
O O11 0.207835 0.938296 0.948723
O O12 0.686099 0.949140 0.795760
O O13 0.582763 0.995682 0.540678
#
# Coordination Sequence:
#
# PCOD9360429 Si02
#       6
#     8   8   8   8   8   8
#     4   9  22  37  58  80 107 155 199 232 276 327
#     4  10  20  32  49  80 119 156 195 231 267 325
#     4  11  25  40  55  80 115 145 185 240 284 336
#     4  10  19  36  56  78 115 154 189 229 282 321
#     4  11  22  38  63  84 110 142 181 232 300 356
#     4   9  21  35  56  84 112 139 188 244 270 336
#
# _framework density 21.517018
#
# number of rings (size 3 to 8) (size 9 to 14) (size 15 to 20)
#    1.000    1.000    0.000    3.500    4.667    4.000 
#    0.000    0.000    0.000    0.000    0.000    0.000 
#    0.000   46.667    0.000    0.000    0.000    0.000 
#
# Total GULP energy -133947.075036 kJ/mol
# GULP energy per Si atom -5581.128127 kJ/mol
# Density = 2.146804 g / cm^3
# Si number density = 21.517018 Si / 1000 Ang^3
#
#
#
# Elastic Constant Matrix: (Units=GPa)
#
#
# Indices 1 2 3 4 5 6 
#
# 1 47.1389 9.9738 4.3759 0.0000 0.0000 0.0000
# 2 9.9738 87.7143 14.9080 0.0000 0.0000 0.0000
# 3 4.3759 14.9080 115.8888 0.0000 0.0000 0.0000
# 4 0.0000 0.0000 0.0000 -10.6115 0.0000 0.0000
# 5 0.0000 0.0000 0.0000 0.0000 56.8173 0.0000
# 6 0.0000 0.0000 0.0000 0.0000 0.0000 17.1590
#
#
#
# Elastic Compliance Matrix: (Units=1/GPa)
#
#
# Indices 1 2 3 4 5 6 
#
# 1 0.021767 -0.002388 -0.000515 0.000000 0.000000 0.000000
# 2 -0.002388 0.011917 -0.001443 0.000000 0.000000 0.000000
# 3 -0.000515 -0.001443 0.008834 0.000000 0.000000 0.000000
# 4 0.000000 0.000000 0.000000 -0.094237 0.000000 0.000000
# 5 0.000000 0.000000 0.000000 0.000000 0.017600 0.000000
# 6 0.000000 0.000000 0.000000 0.000000 0.000000 0.058278
#
#
# Mechanical properties :
#
#
# Convention : Reuss Voigt Hill
#
# Bulk Modulus (GPa) = 29.56149 34.36191 31.96170
# Shear Modulus (GPa) = 113.31105 27.43858 70.37481
#
# Velocity S-wave (km/s) = 7.26467 3.57487 5.72517
# Velocity P-wave (km/s) = 9.17255 5.74839 7.65440
#
# Compressibility (1/GPa) = 0.03382779
#
# Stress axis : x y z
#
# Youngs Moduli (GPa) = 45.94138 83.91116 113.19879
#
# Poissons Ratio (x) = 0.20034 0.05827
# Poissons Ratio (y) = 0.10969 0.16333
# Poissons Ratio (z) = 0.02365 0.12108
#
# Static dielectric constant tensor:
#      x y z
#    x 1.746560 0.000000 0.000000 
#    y 0.000000 1.800280 0.000000 
#    z 0.000000 0.000000 1.818430 
# 
# From -- ./inp_files/809.got.cif
#   From: 2010.05.17/outbox.cif.g08.bks.cpg/sg39_1_cif.got.tgz:809.got - 2010.06.03 18:22:40.
