data_PCOD9360125
_publ_section_title
;
Structure prediction by ZEFSAII (Michael W. Deem and Ramdas Pophale) SiO2 
 PCOD9360125
Probable space group: A B M 2
;
_chemical_formula_sum "Si O2"
_cell_formula_units_Z 56
_cell_length_a 14.577379
_cell_length_b 7.935071
_cell_length_c 22.224297
_cell_angle_alpha 90.000000
_cell_angle_beta 90.000000
_cell_angle_gamma 90.000000
_cell_volume 2570.740825
_symmetry_space_group_name_H-M "A B M 2"
_symmetry_group_IT_number 39
_symmetry_cell_setting 'orthorhombic'
loop_
_space_group_symop_operation_xyz
x,y,z
-x,-y,z
-x,1/2+y,z
x,1/2-y,z
x,1/2+y,1/2+z
-x,1/2-y,1/2+z
-x,y,1/2+z
x,-y,1/2+z
loop_
_atom_site_type_symbol
_atom_site_label
_atom_site_fract_x
_atom_site_fract_y
_atom_site_fract_z
Si Si1 0.709799 0.042448 0.636700
Si Si2 0.894234 0.546931 0.325220
Si Si3 0.606977 0.546768 0.017289
Si Si4 0.105369 0.055475 0.088028
Si Si5 0.107560 0.548409 0.957713
Si Si6 0.285214 0.548196 0.766682
Si Si7 0.606956 0.549028 0.886096
O O1 0.707619 0.250000 0.634638
O O2 0.655314 0.983282 0.577838
O O3 0.815085 0.982042 0.629452
O O4 0.676110 0.987809 0.702614
O O5 0.892580 0.750000 0.326772
O O6 0.861092 0.489791 0.391979
O O7 0.818721 0.485694 0.278342
O O8 0.000000 0.500000 0.314691
O O9 0.500000 0.500000 0.019950
O O10 0.615066 0.750000 0.016954
O O11 0.642263 0.484808 0.951637
O O12 0.102002 0.250000 0.102415
O O13 0.000000 0.000000 0.092267
O O14 0.141437 0.032178 0.019421
O O15 0.116845 0.750000 0.962813
O O16 0.000000 0.500000 0.956869
O O17 0.279793 0.750000 0.761796
O O18 0.342446 0.511888 0.826462
O O19 0.500000 0.500000 0.882547
O O20 0.613885 0.750000 0.886931
#
# Coordination Sequence:
#
# PCOD9360125 Si02
#       7
#     8   8   8   8   8   8   8
#     4   9  20  37  56  79 111 151 186 221 273 330
#     4   9  19  33  51  76 108 147 188 231 278 326
#     4   9  19  38  61  85 109 139 179 223 272 328
#     4  10  19  32  51  75 106 145 186 227 273 321
#     4   9  16  28  45  70  99 131 175 225 273 319
#     4  10  21  38  57  81 115 151 188 230 279 331
#     4  10  21  38  62  88 113 142 181 227 279 335
#
# _framework density 21.783604
#
# number of rings (size 3 to 8) (size 9 to 14) (size 15 to 20)
#    0.000    2.571    0.000    2.143    2.000    2.857 
#    0.000    5.000    0.000    0.000    0.000    0.000 
#    0.000    0.000    0.000    0.000    0.000    0.000 
#
# Total GULP energy -156126.349639 kJ/mol
# GULP energy per Si atom -5575.941059 kJ/mol
# Density = 2.173402 g / cm^3
# Si number density = 21.783604 Si / 1000 Ang^3
#
#
#
# Elastic Constant Matrix: (Units=GPa)
#
#
# Indices 1 2 3 4 5 6 
#
# 1 72.5728 -3.2589 77.1521 0.0000 0.0000 0.0000
# 2 -3.2589 8.3832 -0.5291 0.0000 0.0000 0.0000
# 3 77.1521 -0.5291 197.4195 0.0000 0.0000 0.0000
# 4 0.0000 0.0000 0.0000 2.7331 0.0000 0.0000
# 5 0.0000 0.0000 0.0000 0.0000 23.0622 0.0000
# 6 0.0000 0.0000 0.0000 0.0000 0.0000 8.5814
#
#
#
# Elastic Compliance Matrix: (Units=1/GPa)
#
#
# Indices 1 2 3 4 5 6 
#
# 1 0.024207 0.008815 -0.009437 0.000000 0.000000 0.000000
# 2 0.008815 0.122516 -0.003116 0.000000 0.000000 0.000000
# 3 -0.009437 -0.003116 0.008745 0.000000 0.000000 0.000000
# 4 0.000000 0.000000 0.000000 0.365887 0.000000 0.000000
# 5 0.000000 0.000000 0.000000 0.000000 0.043361 0.000000
# 6 0.000000 0.000000 0.000000 0.000000 0.000000 0.116531
#
#
# Mechanical properties :
#
#
# Convention : Reuss Voigt Hill
#
# Bulk Modulus (GPa) = 6.75717 47.23374 26.99546
# Shear Modulus (GPa) = 6.77458 20.54278 13.65868
#
# Velocity S-wave (km/s) = 1.76542 3.07422 2.50675
# Velocity P-wave (km/s) = 2.69523 5.85930 4.56046
#
# Compressibility (1/GPa) = 0.14799090
#
# Stress axis : x y z
#
# Youngs Moduli (GPa) = 41.31019 8.16223 114.35314
#
# Poissons Ratio (x) = -0.07195 1.07910
# Poissons Ratio (y) = -0.36414 0.35638
# Poissons Ratio (z) = 0.38983 0.02544
#
# Static dielectric constant tensor:
#      x y z
#    x 1.786800 0.000000 0.000000 
#    y 0.000000 1.840560 0.000000 
#    z 0.000000 0.000000 1.851830 
# 
# From -- ./inp_files/14776.got.cif
#   From: 2010.05.17/outbox.cif.g08.bks.cpg/sg39_8_cif.got.tgz:14776.got - 2010.06.03 18:22:40.
