data_PCOD9360187
_publ_section_title
;
Structure prediction by ZEFSAII (Michael W. Deem and Ramdas Pophale) SiO2 
 PCOD9360187
Probable space group: A B M 2
;
_chemical_formula_sum "Si O2"
_cell_formula_units_Z 56
_cell_length_a 17.180508
_cell_length_b 24.837255
_cell_length_c 5.711660
_cell_angle_alpha 90.000000
_cell_angle_beta 90.000000
_cell_angle_gamma 90.000000
_cell_volume 2437.260468
_symmetry_space_group_name_H-M "A B M 2"
_symmetry_group_IT_number 39
_symmetry_cell_setting 'orthorhombic'
loop_
_space_group_symop_operation_xyz
x,y,z
-x,-y,z
-x,1/2+y,z
x,1/2-y,z
x,1/2+y,1/2+z
-x,1/2-y,1/2+z
-x,y,1/2+z
x,-y,1/2+z
loop_
_atom_site_type_symbol
_atom_site_label
_atom_site_fract_x
_atom_site_fract_y
_atom_site_fract_z
Si Si1 0.029744 0.439092 0.375000
Si Si2 0.823744 0.609465 0.189100
Si Si3 0.734310 0.189538 0.032640
Si Si4 0.313217 0.382183 0.918758
Si Si5 0.529181 0.087238 0.282830
Si Si6 0.045776 0.811683 0.558768
Si Si7 0.420609 0.688185 0.761308
O O1 0.120889 0.432049 0.323557
O O2 0.000000 0.500000 0.389905
O O3 0.011814 0.417339 0.636007
O O4 0.781676 0.652061 0.358118
O O5 0.884223 0.645741 0.041883
O O6 0.751388 0.583346 0.052451
O O7 0.764092 0.250000 0.027659
O O8 0.737280 0.160413 0.277420
O O9 0.641555 0.191425 0.973034
O O10 0.377382 0.413502 0.768777
O O11 0.367274 0.344896 0.080947
O O12 0.504776 0.064403 0.538726
O O13 0.492867 0.148434 0.301750
O O14 0.075127 0.750000 0.547507
O O15 0.990581 0.816606 0.325897
O O16 0.440923 0.750000 0.695191
#
# Coordination Sequence:
#
# PCOD9360187 Si02
#       7
#     8   8   8   8   8   8   8
#     4  10  23  44  71 100 122 147 189 238 305 391
#     4  11  23  36  58  83 116 155 192 248 312 369
#     4  10  20  33  48  75 113 157 211 259 300 342
#     4  10  21  33  48  75 109 155 205 259 310 352
#     4  10  19  33  48  67  99 147 206 259 291 338
#     4  10  22  38  54  75 103 144 195 236 276 339
#     4   9  18  31  45  65  97 149 213 265 298 331
#
# _framework density 22.976617999999998
#
# number of rings (size 3 to 8) (size 9 to 14) (size 15 to 20)
#    0.000    2.000    1.429    1.714    4.000    4.571 
#    0.000    0.000    0.000    0.000    0.000    0.000 
#    0.000    0.000    0.000  138.857    0.000    0.000 
#
# Total GULP energy -155994.457817 kJ/mol
# GULP energy per Si atom -5571.230636 kJ/mol
# Density = 2.292432 g / cm^3
# Si number density = 22.976618 Si / 1000 Ang^3
#
#
#
# Elastic Constant Matrix: (Units=GPa)
#
#
# Indices 1 2 3 4 5 6 
#
# 1 109.3208 25.4477 11.3770 0.0000 0.0000 0.0000
# 2 25.4477 42.0102 5.0053 0.0000 0.0000 0.0000
# 3 11.3770 5.0053 89.9434 0.0000 0.0000 0.0000
# 4 0.0000 0.0000 0.0000 8.4610 0.0000 0.0000
# 5 0.0000 0.0000 0.0000 0.0000 28.6018 0.0000
# 6 0.0000 0.0000 0.0000 0.0000 0.0000 18.1604
#
#
#
# Elastic Compliance Matrix: (Units=1/GPa)
#
#
# Indices 1 2 3 4 5 6 
#
# 1 0.010738 -0.006385 -0.001003 0.000000 0.000000 0.000000
# 2 -0.006385 0.027759 -0.000737 0.000000 0.000000 0.000000
# 3 -0.001003 -0.000737 0.011286 0.000000 0.000000 0.000000
# 4 0.000000 0.000000 0.000000 0.118189 0.000000 0.000000
# 5 0.000000 0.000000 0.000000 0.000000 0.034963 0.000000
# 6 0.000000 0.000000 0.000000 0.000000 0.000000 0.055065
#
#
# Mechanical properties :
#
#
# Convention : Reuss Voigt Hill
#
# Bulk Modulus (GPa) = 29.82131 36.10381 32.96256
# Shear Modulus (GPa) = 17.51753 24.34095 20.92924
#
# Velocity S-wave (km/s) = 2.76417 3.25834 3.02137
# Velocity P-wave (km/s) = 4.81608 5.46837 5.15256
#
# Compressibility (1/GPa) = 0.03353307
#
# Stress axis : x y z
#
# Youngs Moduli (GPa) = 93.12638 36.02386 88.60545
#
# Poissons Ratio (x) = 0.23002 0.08887
# Poissons Ratio (y) = 0.59462 0.06532
# Poissons Ratio (z) = 0.09340 0.02655
#
# Static dielectric constant tensor:
#      x y z
#    x 2.012870 0.000000 0.000000 
#    y 0.000000 1.847980 0.000000 
#    z 0.000000 0.000000 1.988660 
# 
# From -- ./inp_files/656.got.cif
#   From: 2010.05.17/outbox.cif.g08.bks.cpg/sg39_1_cif.got.tgz:656.got - 2010.06.03 18:22:40.
