data_PCOD9360849
_publ_section_title
;
Structure prediction by ZEFSAII (Michael W. Deem and Ramdas Pophale) SiO2 
 PCOD9360849
Probable space group: A B M 2
;
_chemical_formula_sum "Si O2"
_cell_formula_units_Z 56
_cell_length_a 21.020933
_cell_length_b 7.558317
_cell_length_c 15.736904
_cell_angle_alpha 90.000000
_cell_angle_beta 90.000000
_cell_angle_gamma 90.000000
_cell_volume 2500.324555
_symmetry_space_group_name_H-M "A B M 2"
_symmetry_group_IT_number 39
_symmetry_cell_setting 'orthorhombic'
loop_
_space_group_symop_operation_xyz
x,y,z
-x,-y,z
-x,1/2+y,z
x,1/2-y,z
x,1/2+y,1/2+z
-x,1/2-y,1/2+z
-x,y,1/2+z
x,-y,1/2+z
loop_
_atom_site_type_symbol
_atom_site_label
_atom_site_fract_x
_atom_site_fract_y
_atom_site_fract_z
Si Si1 0.841712 0.038069 0.894570
Si Si2 0.568455 0.038337 0.148889
Si Si3 0.925581 0.962491 0.550581
Si Si4 0.294665 0.035802 0.449381
Si Si5 0.158288 0.538069 0.206593
Si Si6 0.294664 0.964198 0.151782
Si Si7 0.568455 0.538337 0.452274
O O1 0.838082 0.250000 0.904440
O O2 0.769601 0.968172 0.906454
O O3 0.865205 0.000001 0.800581
O O4 0.888451 0.970460 0.967545
O O5 0.572778 0.250000 0.145229
O O6 0.636176 0.972734 0.184430
O O7 0.500000 0.000000 0.189471
O O8 0.565826 0.972403 0.050581
O O9 0.919521 0.750000 0.550581
O O10 0.888451 0.029540 0.633618
O O11 0.000000 0.000000 0.550581
O O12 0.294300 0.250000 0.441617
O O13 0.290985 0.998024 0.550581
O O14 0.363824 0.972734 0.416732
O O15 0.161918 0.750000 0.196723
O O16 0.230399 0.468172 0.194708
O O17 0.294299 0.750000 0.159545
O O18 0.500000 0.500000 0.411691
O O19 0.572778 0.750000 0.455933
#
# Coordination Sequence:
#
# PCOD9360849 Si02
#       7
#     8   8   8   8   8   8   8
#     4  10  20  36  58  83 109 141 180 220 262 312
#     4   8  13  21  37  63  93 126 166 213 259 305
#     4  10  22  40  62  84 111 144 176 212 259 318
#     4   8  13  26  49  71  95 134 180 216 254 310
#     4  10  20  36  58  83 109 141 180 220 262 312
#     4   8  13  26  49  71  95 134 180 216 254 310
#     4   8  13  21  37  63  93 126 166 213 259 305
#
# _framework density 22.397093000000002
#
# number of rings (size 3 to 8) (size 9 to 14) (size 15 to 20)
#    0.000    3.143    1.429    1.714    0.000    1.714 
#    0.000    4.286    0.000    2.571    0.000    6.000 
#    0.000    0.000    0.000    0.000    0.000    0.000 
#
# Total GULP energy -156132.247481 kJ/mol
# GULP energy per Si atom -5576.151696 kJ/mol
# Density = 2.234612 g / cm^3
# Si number density = 22.397093 Si / 1000 Ang^3
#
#
#
# Elastic Constant Matrix: (Units=GPa)
#
#
# Indices 1 2 3 4 5 6 
#
# 1 215.5779 10.4736 92.2424 0.0000 0.0000 0.0000
# 2 10.4736 52.4518 -0.6561 0.0000 0.0000 0.0000
# 3 92.2424 -0.6561 111.9591 0.0000 0.0000 0.0000
# 4 0.0000 0.0000 0.0000 8.9498 0.0000 0.0000
# 5 0.0000 0.0000 0.0000 0.0000 -11.8751 0.0000
# 6 0.0000 0.0000 0.0000 0.0000 0.0000 20.9564
#
#
#
# Elastic Compliance Matrix: (Units=1/GPa)
#
#
# Indices 1 2 3 4 5 6 
#
# 1 0.007285 -0.001530 -0.006011 0.000000 0.000000 0.000000
# 2 -0.001530 0.019388 0.001374 0.000000 0.000000 0.000000
# 3 -0.006011 0.001374 0.013892 0.000000 0.000000 0.000000
# 4 0.000000 0.000000 0.000000 0.111734 0.000000 0.000000
# 5 0.000000 0.000000 0.000000 0.000000 -0.084210 0.000000
# 6 0.000000 0.000000 0.000000 0.000000 0.000000 0.047718
#
#
# Mechanical properties :
#
#
# Convention : Reuss Voigt Hill
#
# Bulk Modulus (GPa) = 35.42148 64.90094 50.16121
# Shear Modulus (GPa) = 36.34997 22.13483 29.24240
#
# Velocity S-wave (km/s) = 4.03299 3.14712 3.61728
# Velocity P-wave (km/s) = 6.12668 6.49970 6.31595
#
# Compressibility (1/GPa) = 0.02823146
#
# Stress axis : x y z
#
# Youngs Moduli (GPa) = 137.26698 51.57884 71.98190
#
# Poissons Ratio (x) = 0.07891 0.43269
# Poissons Ratio (y) = 0.21000 -0.09891
# Poissons Ratio (z) = 0.82512 -0.07087
#
# Static dielectric constant tensor:
#      x y z
#    x 1.864950 0.000000 0.000000 
#    y 0.000000 1.860970 0.000000 
#    z 0.000000 0.000000 1.810920 
# 
# From -- ./inp_files/10335.got.cif
#   From: 2010.05.17/outbox.cif.g08.bks.cpg/sg39_6_cif.got.tgz:10335.got - 2010.06.03 18:22:40.
