data_PCOD9360513
_publ_section_title
;
Structure prediction by ZEFSAII (Michael W. Deem and Ramdas Pophale) SiO2 
 PCOD9360513
Probable space group: A B M 2
;
_chemical_formula_sum "Si O2"
_cell_formula_units_Z 64
_cell_length_a 13.327234
_cell_length_b 20.043771
_cell_length_c 13.014323
_cell_angle_alpha 90.000000
_cell_angle_beta 90.000000
_cell_angle_gamma 90.000000
_cell_volume 3476.490417
_symmetry_space_group_name_H-M "A B M 2"
_symmetry_group_IT_number 39
_symmetry_cell_setting 'orthorhombic'
loop_
_space_group_symop_operation_xyz
x,y,z
-x,-y,z
-x,1/2+y,z
x,1/2-y,z
x,1/2+y,1/2+z
-x,1/2-y,1/2+z
-x,y,1/2+z
x,-y,1/2+z
loop_
_atom_site_type_symbol
_atom_site_label
_atom_site_fract_x
_atom_site_fract_y
_atom_site_fract_z
Si Si1 0.632610 0.960207 0.504970
Si Si2 0.301383 0.827246 0.674734
Si Si3 0.211120 0.566679 0.827575
Si Si4 0.715769 0.672696 0.834970
Si Si5 0.563176 0.112642 0.496614
Si Si6 0.946702 0.428586 0.998453
Si Si7 0.215893 0.558636 0.180188
Si Si8 0.121180 0.823487 0.514259
O O1 0.714288 0.957205 0.416063
O O2 0.556865 0.897238 0.495250
O O3 0.686039 0.959152 0.614559
O O4 0.591130 0.034757 0.495208
O O5 0.321357 0.750000 0.702901
O O6 0.271427 0.875833 0.767231
O O7 0.390012 0.854122 0.599580
O O8 0.200380 0.829062 0.606230
O O9 0.188867 0.504479 0.752091
O O10 0.113030 0.587597 0.892779
O O11 0.701316 0.750000 0.803539
O O12 0.750799 0.622603 0.746322
O O13 0.617928 0.647784 0.899656
O O14 0.808004 0.670224 0.915153
O O15 0.871119 0.428774 0.095961
O O16 0.000000 0.500000 0.987969
O O17 0.035324 0.377143 0.017507
O O18 0.075322 0.750000 0.515709
#
# Coordination Sequence:
#
# PCOD9360513 Si02
#       8
#     8   8   8   8   8   8   8   8
#     4  10  22  37  60  88 114 153 187 245 292 343
#     4  10  21  39  63  87 118 158 195 243 294 345
#     4  11  22  39  58  85 122 152 197 245 294 352
#     4  10  21  39  63  87 118 158 195 243 294 345
#     4  10  19  39  61  87 115 147 201 235 286 352
#     4  11  24  36  57  87 118 156 197 249 300 338
#     4  11  22  39  58  85 122 152 197 245 294 352
#     4   9  20  38  59  83 114 154 199 239 287 350
#
# _framework density 18.409369999999999
#
# number of rings (size 3 to 8) (size 9 to 14) (size 15 to 20)
#    0.000    1.750    2.500    2.625    3.500    5.500 
#    0.000    8.125    0.000    0.000    0.000    0.000 
#    0.000    0.000    0.000    0.000    0.000    0.000 
#
# Total GULP energy -178376.386610 kJ/mol
# GULP energy per Si atom -5574.262082 kJ/mol
# Density = 1.836747 g / cm^3
# Si number density = 18.409370 Si / 1000 Ang^3
#
#
#
# Elastic Constant Matrix: (Units=GPa)
#
#
# Indices 1 2 3 4 5 6 
#
# 1 33.0772 -11.0255 -23.0289 0.0000 0.0000 0.0000
# 2 -11.0255 67.4074 0.0333 0.0000 0.0000 0.0000
# 3 -23.0289 0.0333 55.3694 0.0000 0.0000 0.0000
# 4 0.0000 0.0000 0.0000 65.1984 0.0000 0.0000
# 5 0.0000 0.0000 0.0000 0.0000 13.8944 0.0000
# 6 0.0000 0.0000 0.0000 0.0000 0.0000 -58.2909
#
#
#
# Elastic Compliance Matrix: (Units=1/GPa)
#
#
# Indices 1 2 3 4 5 6 
#
# 1 0.046082 0.007528 0.019162 0.000000 0.000000 0.000000
# 2 0.007528 0.016065 0.003121 0.000000 0.000000 0.000000
# 3 0.019162 0.003121 0.026028 0.000000 0.000000 0.000000
# 4 0.000000 0.000000 0.000000 0.015338 0.000000 0.000000
# 5 0.000000 0.000000 0.000000 0.000000 0.071971 0.000000
# 6 0.000000 0.000000 0.000000 0.000000 0.000000 -0.017155
#
#
# Mechanical properties :
#
#
# Convention : Reuss Voigt Hill
#
# Bulk Modulus (GPa) = 6.76600 9.75685 8.26143
# Shear Modulus (GPa) = 33.78996 16.81874 25.30435
#
# Velocity S-wave (km/s) = 4.28889 3.02585 3.71150
# Velocity P-wave (km/s) = 5.31125 4.18559 4.78166
#
# Compressibility (1/GPa) = 0.14779789
#
# Stress axis : x y z
#
# Youngs Moduli (GPa) = 21.70028 62.24732 38.41971
#
# Poissons Ratio (x) = -0.46860 -0.73619
# Poissons Ratio (y) = -0.16336 -0.11992
# Poissons Ratio (z) = -0.41582 -0.19430
#
# Static dielectric constant tensor:
#      x y z
#    x 1.657620 0.000000 0.000000 
#    y 0.000000 1.452250 0.000000 
#    z 0.000000 0.000000 1.664080 
# 
# From -- ./inp_files/6671.got.cif
#   From: 2010.05.17/outbox.cif.g08.bks.cpg/sg39_4_cif.got.tgz:6671.got - 2010.06.03 18:22:40.
