data_PCOD9360676
_publ_section_title
;
Structure prediction by ZEFSAII (Michael W. Deem and Ramdas Pophale) SiO2 
 PCOD9360676
Probable space group: A B M 2
;
_chemical_formula_sum "Si O2"
_cell_formula_units_Z 64
_cell_length_a 9.507610
_cell_length_b 19.675402
_cell_length_c 18.488753
_cell_angle_alpha 90.000000
_cell_angle_beta 90.000000
_cell_angle_gamma 90.000000
_cell_volume 3458.617971
_symmetry_space_group_name_H-M "A B M 2"
_symmetry_group_IT_number 39
_symmetry_cell_setting 'orthorhombic'
loop_
_space_group_symop_operation_xyz
x,y,z
-x,-y,z
-x,1/2+y,z
x,1/2-y,z
x,1/2+y,1/2+z
-x,1/2-y,1/2+z
-x,y,1/2+z
x,-y,1/2+z
loop_
_atom_site_type_symbol
_atom_site_label
_atom_site_fract_x
_atom_site_fract_y
_atom_site_fract_z
Si Si1 0.029846 0.077371 0.376730
Si Si2 0.783911 0.172995 0.412216
Si Si3 0.863944 0.827830 0.082011
Si Si4 0.477643 0.672263 0.951304
Si Si5 0.588468 0.169720 0.674995
Si Si6 0.582014 0.928314 0.582757
Si Si7 0.091395 0.432727 0.547674
Si Si8 0.739806 0.173114 0.823628
O O1 0.086496 0.078417 0.460283
O O2 0.140802 0.116624 0.327349
O O3 0.885068 0.119067 0.376118
O O4 0.000000 0.000000 0.356805
O O5 0.815578 0.250000 0.388530
O O6 0.814565 0.169463 0.498407
O O7 0.618830 0.159789 0.405503
O O8 0.895923 0.750000 0.100773
O O9 0.730047 0.848742 0.129784
O O10 0.003372 0.872779 0.085500
O O11 0.490667 0.750000 0.980636
O O12 0.345411 0.670461 0.898457
O O13 0.463580 0.616840 0.013407
O O14 0.557248 0.250000 0.661193
O O15 0.466768 0.119093 0.649407
O O16 0.632061 0.162700 0.758191
O O17 0.749443 0.938734 0.575180
O O18 0.500000 0.000000 0.584012
O O19 0.000000 0.500000 0.560598
O O20 0.798498 0.250000 0.815903
#
# Coordination Sequence:
#
# PCOD9360676 Si02
#       8
#     8   8   8   8   8   8   8   8
#     4  10  20  34  55  85 117 154 193 243 296 355
#     4   9  17  31  54  82 112 143 188 243 294 346
#     4   9  17  32  55  81 108 145 185 236 288 343
#     4  10  20  35  58  87 113 147 197 249 297 348
#     4  10  21  40  62  85 121 161 200 242 299 364
#     4  12  23  36  60  87 117 157 195 249 309 359
#     4  10  21  35  54  84 119 147 190 246 297 354
#     4  10  21  39  60  85 119 158 198 244 296 353
#
# _framework density 18.504501000000001
#
# number of rings (size 3 to 8) (size 9 to 14) (size 15 to 20)
#    0.000    2.000    2.500    1.500    3.500    1.500 
#    0.000    5.000    0.000    4.500    0.000    0.000 
#    0.000    0.000    0.000    0.000    0.000    0.000 
#
# Total GULP energy -178549.590567 kJ/mol
# GULP energy per Si atom -5579.674705 kJ/mol
# Density = 1.846238 g / cm^3
# Si number density = 18.504501 Si / 1000 Ang^3
#
#
#
# Elastic Constant Matrix: (Units=GPa)
#
#
# Indices 1 2 3 4 5 6 
#
# 1 113.1162 68.6820 1.6599 0.0000 0.0000 0.0000
# 2 68.6820 113.6751 27.5398 0.0000 0.0000 0.0000
# 3 1.6599 27.5398 28.9182 0.0000 0.0000 0.0000
# 4 0.0000 0.0000 0.0000 37.2278 0.0000 0.0000
# 5 0.0000 0.0000 0.0000 0.0000 18.0846 0.0000
# 6 0.0000 0.0000 0.0000 0.0000 0.0000 32.6248
#
#
#
# Elastic Compliance Matrix: (Units=1/GPa)
#
#
# Indices 1 2 3 4 5 6 
#
# 1 0.016252 -0.012470 0.010943 0.000000 0.000000 0.000000
# 2 -0.012470 0.021004 -0.019287 0.000000 0.000000 0.000000
# 3 0.010943 -0.019287 0.052320 0.000000 0.000000 0.000000
# 4 0.000000 0.000000 0.000000 0.026862 0.000000 0.000000
# 5 0.000000 0.000000 0.000000 0.000000 0.055296 0.000000
# 6 0.000000 0.000000 0.000000 0.000000 0.000000 0.030652
#
#
# Mechanical properties :
#
#
# Convention : Reuss Voigt Hill
#
# Bulk Modulus (GPa) = 20.85632 50.16365 35.50999
# Shear Modulus (GPa) = 19.23101 28.10926 23.67014
#
# Velocity S-wave (km/s) = 3.22726 3.90173 3.58041
# Velocity P-wave (km/s) = 5.01820 6.88954 6.02694
#
# Compressibility (1/GPa) = 0.04794709
#
# Stress axis : x y z
#
# Youngs Moduli (GPa) = 61.53221 47.60940 19.11305
#
# Poissons Ratio (x) = 0.59371 -0.20916
# Poissons Ratio (y) = 0.76733 0.36864
# Poissons Ratio (z) = -0.67336 0.91826
#
# Static dielectric constant tensor:
#      x y z
#    x 1.629660 0.000000 0.000000 
#    y 0.000000 1.637340 0.000000 
#    z 0.000000 0.000000 1.632040 
# 
# From -- ./inp_files/11948.got.cif
#   From: 2010.05.17/outbox.cif.g08.bks.cpg/sg39_6_cif.got.tgz:11948.got - 2010.06.03 18:22:40.
