data_PCOD9360134
_publ_section_title
;
Structure prediction by ZEFSAII (Michael W. Deem and Ramdas Pophale) SiO2 
 PCOD9360134
Probable space group: A B M 2
;
_chemical_formula_sum "Si O2"
_cell_formula_units_Z 56
_cell_length_a 20.091961
_cell_length_b 8.388787
_cell_length_c 16.438483
_cell_angle_alpha 90.000000
_cell_angle_beta 90.000000
_cell_angle_gamma 90.000000
_cell_volume 2770.659974
_symmetry_space_group_name_H-M "A B M 2"
_symmetry_group_IT_number 39
_symmetry_cell_setting 'orthorhombic'
loop_
_space_group_symop_operation_xyz
x,y,z
-x,-y,z
-x,1/2+y,z
x,1/2-y,z
x,1/2+y,1/2+z
-x,1/2-y,1/2+z
-x,y,1/2+z
x,-y,1/2+z
loop_
_atom_site_type_symbol
_atom_site_label
_atom_site_fract_x
_atom_site_fract_y
_atom_site_fract_z
Si Si1 0.151786 0.554971 0.042130
Si Si2 0.924834 0.559757 0.380006
Si Si3 0.151777 0.561041 0.221047
Si Si4 0.569638 0.940807 0.220151
Si Si5 0.570207 0.440444 0.034558
Si Si6 0.711186 0.056200 0.969796
Si Si7 0.713703 0.557600 0.283939
O O1 0.151033 0.750000 0.042179
O O2 0.128703 0.502961 0.131732
O O3 0.109519 0.501047 0.963922
O O4 0.228268 0.504341 0.026762
O O5 0.924311 0.750000 0.383957
O O6 0.884873 0.511846 0.298941
O O7 0.000000 0.500000 0.374854
O O8 0.141980 0.750000 0.224501
O O9 0.230135 0.522113 0.229200
O O10 0.567364 0.750000 0.217146
O O11 0.638046 0.988628 0.263483
O O12 0.500000 0.000000 0.257529
O O13 0.572621 0.007359 0.128596
O O14 0.500000 0.500000 0.999555
O O15 0.569742 0.250000 0.030319
O O16 0.637841 0.501568 0.993455
O O17 0.708995 0.250000 0.973256
O O18 0.727770 0.014084 0.877280
O O19 0.718932 0.750000 0.275933
#
# Coordination Sequence:
#
# PCOD9360134 Si02
#       7
#     8   8   8   8   8   8   8
#     4   9  19  37  63  88 118 158 199 239 291 351
#     4  11  23  43  67  91 125 162 195 240 291 352
#     4  11  22  38  63  96 124 156 201 247 294 352
#     4  10  20  33  51  75 107 147 193 245 298 356
#     4  10  19  32  52  74 104 145 190 243 297 354
#     4   9  17  33  56  79 106 148 194 235 290 349
#     4  10  20  36  57  81 113 155 198 243 299 357
#
# _framework density 20.211793
#
# number of rings (size 3 to 8) (size 9 to 14) (size 15 to 20)
#    0.000    2.000    1.429    3.429    0.000    3.429 
#    0.000    5.714    0.000    0.000    0.000    0.000 
#    0.000    0.000    0.000    0.000    0.000    0.000 
#
# Total GULP energy -156305.144712 kJ/mol
# GULP energy per Si atom -5582.326597 kJ/mol
# Density = 2.016579 g / cm^3
# Si number density = 20.211793 Si / 1000 Ang^3
#
#
#
# Elastic Constant Matrix: (Units=GPa)
#
#
# Indices 1 2 3 4 5 6 
#
# 1 125.7396 18.7701 57.5508 0.0000 0.0000 0.0000
# 2 18.7701 28.5654 17.9829 0.0000 0.0000 0.0000
# 3 57.5508 17.9829 128.8446 0.0000 0.0000 0.0000
# 4 0.0000 0.0000 0.0000 17.8131 0.0000 0.0000
# 5 0.0000 0.0000 0.0000 0.0000 19.0723 0.0000
# 6 0.0000 0.0000 0.0000 0.0000 0.0000 33.8413
#
#
#
# Elastic Compliance Matrix: (Units=1/GPa)
#
#
# Indices 1 2 3 4 5 6 
#
# 1 0.010459 -0.004310 -0.004070 0.000000 0.000000 0.000000
# 2 -0.004310 0.040156 -0.003679 0.000000 0.000000 0.000000
# 3 -0.004070 -0.003679 0.010093 0.000000 0.000000 0.000000
# 4 0.000000 0.000000 0.000000 0.056139 0.000000 0.000000
# 5 0.000000 0.000000 0.000000 0.000000 0.052432 0.000000
# 6 0.000000 0.000000 0.000000 0.000000 0.000000 0.029550
#
#
# Mechanical properties :
#
#
# Convention : Reuss Voigt Hill
#
# Bulk Modulus (GPa) = 27.33116 52.41747 39.87432
# Shear Modulus (GPa) = 21.26354 26.73504 23.99929
#
# Velocity S-wave (km/s) = 3.24703 3.64090 3.44959
# Velocity P-wave (km/s) = 5.25446 6.60797 5.96970
#
# Compressibility (1/GPa) = 0.03658828
#
# Stress axis : x y z
#
# Youngs Moduli (GPa) = 95.60838 24.90296 99.07990
#
# Poissons Ratio (x) = 0.10734 0.40328
# Poissons Ratio (y) = 0.41211 0.36454
# Poissons Ratio (z) = 0.38915 0.09162
#
# Static dielectric constant tensor:
#      x y z
#    x 1.723200 0.000000 0.000000 
#    y 0.000000 1.703770 0.000000 
#    z 0.000000 0.000000 1.720550 
# 
# From -- ./inp_files/10359.got.cif
#   From: 2010.05.17/outbox.cif.g08.bks.cpg/sg39_6_cif.got.tgz:10359.got - 2010.06.03 18:22:40.
