data_PCOD9360553
_publ_section_title
;
Structure prediction by ZEFSAII (Michael W. Deem and Ramdas Pophale) SiO2 
 PCOD9360553
Probable space group: A B M 2
;
_chemical_formula_sum "Si O2"
_cell_formula_units_Z 60
_cell_length_a 13.294000
_cell_length_b 14.399379
_cell_length_c 14.060245
_cell_angle_alpha 90.000000
_cell_angle_beta 90.000000
_cell_angle_gamma 90.000000
_cell_volume 2691.487242
_symmetry_space_group_name_H-M "A B M 2"
_symmetry_group_IT_number 39
_symmetry_cell_setting 'orthorhombic'
loop_
_space_group_symop_operation_xyz
x,y,z
-x,-y,z
-x,1/2+y,z
x,1/2-y,z
x,1/2+y,1/2+z
-x,1/2-y,1/2+z
-x,y,1/2+z
x,-y,1/2+z
loop_
_atom_site_type_symbol
_atom_site_label
_atom_site_fract_x
_atom_site_fract_y
_atom_site_fract_z
Si Si1 0.724203 0.639087 0.765230
Si Si2 0.406451 0.555051 0.525186
Si Si3 0.068225 0.639234 0.217187
Si Si4 0.795001 0.472431 0.450593
Si Si5 0.868279 0.860937 0.125845
Si Si6 0.672732 0.359320 0.713290
Si Si7 0.515530 0.138424 0.325881
Si Si8 0.000000 0.500000 0.877964
O O1 0.728656 0.750000 0.785907
O O2 0.815169 0.620200 0.691851
O O3 0.757486 0.579825 0.856291
O O4 0.606667 0.618545 0.751351
O O5 0.500000 0.500000 0.565850
O O6 0.309292 0.492104 0.497261
O O7 0.370672 0.625126 0.607200
O O8 0.449204 0.601417 0.428372
O O9 0.059463 0.750000 0.231610
O O10 0.982343 0.610243 0.143993
O O11 0.035945 0.584860 0.311864
O O12 0.832792 0.395677 0.524823
O O13 0.896905 0.529561 0.431435
O O14 0.863920 0.750000 0.128441
O O15 0.787414 0.896039 0.205291
O O16 0.679564 0.250000 0.733056
O O17 0.591555 0.398552 0.787872
O O18 0.507743 0.250000 0.332692
#
# Coordination Sequence:
#
# PCOD9360553 Si02
#       8
#     8   8   8   8   8   8   8   4
#     4   8  14  28  50  73  95 121 159 202 244 294
#     4  10  20  33  49  72 101 130 164 208 252 298
#     4   9  18  32  51  75 102 131 163 205 253 299
#     4   9  18  32  49  70  95 129 166 201 243 293
#     4   9  17  31  52  75  98 126 164 207 249 296
#     4   9  18  33  52  73  98 131 170 208 248 298
#     4   9  17  31  53  75  95 126 166 206 250 299
#     4  10  20  34  52  74 102 134 168 206 250 300
#
# _framework density 22.292508000000002
#
# number of rings (size 3 to 8) (size 9 to 14) (size 15 to 20)
#    0.000    2.933    0.000    0.800    0.000    5.867 
#    0.000    8.000    0.000    0.800    0.000    9.333 
#    0.000    0.000    0.000    0.000    0.000    0.000 
#
# Total GULP energy -167105.960997 kJ/mol
# GULP energy per Si atom -5570.198700 kJ/mol
# Density = 2.224177 g / cm^3
# Si number density = 22.292508 Si / 1000 Ang^3
#
#
#
# Elastic Constant Matrix: (Units=GPa)
#
#
# Indices 1 2 3 4 5 6 
#
# 1 -43.6228 37.5097 -3.5643 0.0000 0.0000 0.0000
# 2 37.5097 55.6123 -2.3624 0.0000 0.0000 0.0000
# 3 -3.5643 -2.3624 38.1195 0.0000 0.0000 0.0000
# 4 0.0000 0.0000 0.0000 18.4490 0.0000 0.0000
# 5 0.0000 0.0000 0.0000 0.0000 32.8078 0.0000
# 6 0.0000 0.0000 0.0000 0.0000 0.0000 20.9893
#
#
#
# Elastic Compliance Matrix: (Units=1/GPa)
#
#
# Indices 1 2 3 4 5 6 
#
# 1 -0.014488 0.009740 -0.000751 0.000000 0.000000 0.000000
# 2 0.009740 0.011481 0.001622 0.000000 0.000000 0.000000
# 3 -0.000751 0.001622 0.026264 0.000000 0.000000 0.000000
# 4 0.000000 0.000000 0.000000 0.054203 0.000000 0.000000
# 5 0.000000 0.000000 0.000000 0.000000 0.030481 0.000000
# 6 0.000000 0.000000 0.000000 0.000000 0.000000 0.047643
#
#
# Mechanical properties :
#
#
# Convention : Reuss Voigt Hill
#
# Bulk Modulus (GPa) = 22.48242 12.58611 17.53427
# Shear Modulus (GPa) = 33.51453 15.68430 24.59942
#
# Velocity S-wave (km/s) = 3.88158 2.65536 3.32548
# Velocity P-wave (km/s) = 5.49508 3.88065 4.75686
#
# Compressibility (1/GPa) = 0.04447920
#
# Stress axis : x y z
#
# Youngs Moduli (GPa) = -69.02471 87.09873 38.07554
#
# Poissons Ratio (x) = -0.84832 0.02860
# Poissons Ratio (y) = 0.67228 -0.06177
# Poissons Ratio (z) = -0.05184 -0.14129
#
# Static dielectric constant tensor:
#      x y z
#    x 1.953160 0.000000 0.000000 
#    y 0.000000 1.856580 0.000000 
#    z 0.000000 0.000000 1.823260 
# 
# From -- ./inp_files/9389.got.cif
#   From: 2010.05.17/outbox.cif.g08.bks.cpg/sg39_5_cif.got.tgz:9389.got - 2010.06.03 18:22:40.
