data_PCOD9360639
_publ_section_title
;
Structure prediction by ZEFSAII (Michael W. Deem and Ramdas Pophale) SiO2 
 PCOD9360639
Probable space group: A B M 2
;
_chemical_formula_sum "Si O2"
_cell_formula_units_Z 64
_cell_length_a 20.828729
_cell_length_b 8.654449
_cell_length_c 20.151167
_cell_angle_alpha 90.000000
_cell_angle_beta 90.000000
_cell_angle_gamma 90.000000
_cell_volume 3632.472998
_symmetry_space_group_name_H-M "A B M 2"
_symmetry_group_IT_number 39
_symmetry_cell_setting 'orthorhombic'
loop_
_space_group_symop_operation_xyz
x,y,z
-x,-y,z
-x,1/2+y,z
x,1/2-y,z
x,1/2+y,1/2+z
-x,1/2-y,1/2+z
-x,y,1/2+z
x,-y,1/2+z
loop_
_atom_site_type_symbol
_atom_site_label
_atom_site_fract_x
_atom_site_fract_y
_atom_site_fract_z
Si Si1 0.680848 0.564226 0.781350
Si Si2 0.070252 0.434910 0.031575
Si Si3 0.929502 0.935277 0.876880
Si Si4 0.679334 0.562561 0.628650
Si Si5 0.174947 0.064200 0.632029
Si Si6 0.430023 0.935440 0.874988
Si Si7 0.430508 0.563489 0.029084
Si Si8 0.178151 0.934526 0.779255
O O1 0.683550 0.750000 0.784109
O O2 0.666450 0.517814 0.704916
O O3 0.626072 0.502118 0.829524
O O4 0.751215 0.498079 0.797697
O O5 0.069629 0.250000 0.037212
O O6 0.082670 0.475283 0.954304
O O7 0.000000 0.500000 0.048765
O O8 0.123596 0.504166 0.079692
O O9 0.929865 0.750000 0.870816
O O10 0.875159 0.005506 0.830166
O O11 0.000000 0.000000 0.859658
O O12 0.677997 0.750000 0.626707
O O13 0.752367 0.516456 0.612403
O O14 0.625943 0.506967 0.577248
O O15 0.172932 0.250000 0.635639
O O16 0.163234 0.997575 0.705478
O O17 0.430685 0.750000 0.870780
O O18 0.500000 0.000000 0.855573
O O19 0.419282 0.980171 0.952209
O O20 0.500000 0.500000 0.049173
O O21 0.432443 0.750000 0.031758
O O22 0.179311 0.750000 0.778437
#
# Coordination Sequence:
#
# PCOD9360639 Si02
#       8
#     8   8   8   8   8   8   8   8
#     4  10  20  36  56  78 107 140 176 221 271 322
#     4  10  21  37  57  82 111 142 178 221 268 322
#     4  10  21  38  58  82 112 144 181 225 273 324
#     4   8  17  34  54  75 101 135 172 213 261 311
#     4  10  20  36  57  80 109 144 181 223 272 321
#     4  10  20  34  53  77 106 140 177 219 265 318
#     4   9  18  34  53  75 103 135 173 214 258 309
#     4  11  22  37  57  81 110 144 184 226 271 325
#
# _framework density 17.618850999999999
#
# number of rings (size 3 to 8) (size 9 to 14) (size 15 to 20)
#    0.000    2.250    0.000    3.750    0.000    4.000 
#    0.000    8.750    0.000    0.000    0.000    0.000 
#    0.000    0.000    0.000    0.000    0.000    0.000 
#
# Total GULP energy -178626.624100 kJ/mol
# GULP energy per Si atom -5582.082003 kJ/mol
# Density = 1.757875 g / cm^3
# Si number density = 17.618851 Si / 1000 Ang^3
#
#
#
# Elastic Constant Matrix: (Units=GPa)
#
#
# Indices 1 2 3 4 5 6 
#
# 1 193.8364 62.6990 135.0368 0.0000 0.0000 0.0000
# 2 62.6990 70.3756 49.1995 0.0000 0.0000 0.0000
# 3 135.0368 49.1995 112.4517 0.0000 0.0000 0.0000
# 4 0.0000 0.0000 0.0000 24.3200 0.0000 0.0000
# 5 0.0000 0.0000 0.0000 0.0000 44.0058 0.0000
# 6 0.0000 0.0000 0.0000 0.0000 0.0000 34.1059
#
#
#
# Elastic Compliance Matrix: (Units=1/GPa)
#
#
# Indices 1 2 3 4 5 6 
#
# 1 0.031837 -0.002358 -0.037199 0.000000 0.000000 0.000000
# 2 -0.002358 0.020645 -0.006201 0.000000 0.000000 0.000000
# 3 -0.037199 -0.006201 0.056276 0.000000 0.000000 0.000000
# 4 0.000000 0.000000 0.000000 0.041118 0.000000 0.000000
# 5 0.000000 0.000000 0.000000 0.000000 0.022724 0.000000
# 6 0.000000 0.000000 0.000000 0.000000 0.000000 0.029320
#
#
# Mechanical properties :
#
#
# Convention : Reuss Voigt Hill
#
# Bulk Modulus (GPa) = 57.99904 96.72602 77.36253
# Shear Modulus (GPa) = 16.71205 29.13489 22.92347
#
# Velocity S-wave (km/s) = 3.08317 4.07088 3.61096
# Velocity P-wave (km/s) = 6.75757 8.78148 7.83515
#
# Compressibility (1/GPa) = 0.01724167
#
# Stress axis : x y z
#
# Youngs Moduli (GPa) = 31.41035 48.43673 17.76950
#
# Poissons Ratio (x) = 0.11421 0.66101
# Poissons Ratio (y) = 0.07406 0.11019
# Poissons Ratio (z) = 1.16844 0.30037
#
# Static dielectric constant tensor:
#      x y z
#    x 1.571150 0.000000 0.000000 
#    y 0.000000 1.593260 0.000000 
#    z 0.000000 0.000000 1.585830 
# 
# From -- ./inp_files/13133.got.cif
#   From: 2010.05.17/outbox.cif.g08.bks.cpg/sg39_7_cif.got.tgz:13133.got - 2010.06.03 18:22:40.
