data_PCOD9360709
_publ_section_title
;
Structure prediction by ZEFSAII (Michael W. Deem and Ramdas Pophale) SiO2 
 PCOD9360709
Probable space group: A B M 2
;
_chemical_formula_sum "Si O2"
_cell_formula_units_Z 64
_cell_length_a 21.403792
_cell_length_b 8.965959
_cell_length_c 18.327566
_cell_angle_alpha 90.000000
_cell_angle_beta 90.000000
_cell_angle_gamma 90.000000
_cell_volume 3517.161111
_symmetry_space_group_name_H-M "A B M 2"
_symmetry_group_IT_number 39
_symmetry_cell_setting 'orthorhombic'
loop_
_space_group_symop_operation_xyz
x,y,z
-x,-y,z
-x,1/2+y,z
x,1/2-y,z
x,1/2+y,1/2+z
-x,1/2-y,1/2+z
-x,y,1/2+z
x,-y,1/2+z
loop_
_atom_site_type_symbol
_atom_site_label
_atom_site_fract_x
_atom_site_fract_y
_atom_site_fract_z
Si Si1 0.435902 0.922917 0.041070
Si Si2 0.065351 0.927854 0.045150
Si Si3 0.192030 0.926242 0.965455
Si Si4 0.693749 0.571959 0.047499
Si Si5 0.699358 0.430624 0.207981
Si Si6 0.437288 0.920938 0.218977
Si Si7 0.933997 0.571644 0.717901
Si Si8 0.814238 0.074474 0.791594
O O1 0.432902 0.750000 0.019140
O O2 0.437442 0.925740 0.130107
O O3 0.500000 0.000000 0.015913
O O4 0.373110 0.009920 0.020039
O O5 0.059837 0.750000 0.036503
O O6 0.074182 0.959232 0.131276
O O7 0.126797 0.976849 0.001695
O O8 0.000000 0.000000 0.021405
O O9 0.200682 0.750000 0.984020
O O10 0.187793 0.939281 0.878698
O O11 0.249956 0.017949 0.996735
O O12 0.691486 0.750000 0.053667
O O13 0.704904 0.498578 0.127019
O O14 0.699620 0.250000 0.203067
O O15 0.631423 0.479441 0.239108
O O16 0.755722 0.490137 0.256111
O O17 0.440781 0.750000 0.241732
O O18 0.500000 0.000000 0.244842
O O19 0.934932 0.750000 0.727837
O O20 0.877241 0.497833 0.760678
O O21 0.000000 0.500000 0.740069
O O22 0.811912 0.250000 0.772642
#
# Coordination Sequence:
#
# PCOD9360709 Si02
#       8
#     8   8   8   8   8   8   8   8
#     4   9  16  28  47  74 108 141 175 220 273 323
#     4   9  19  36  58  81 105 136 172 214 265 318
#     4  10  22  39  55  76 110 146 179 222 275 324
#     4  11  21  33  54  82 108 140 184 228 272 326
#     4  10  20  35  54  77 108 144 180 223 275 326
#     4   8  15  26  44  71 101 133 168 211 263 316
#     4  10  20  36  59  83 109 141 177 220 270 323
#     4  11  23  37  55  80 109 143 184 228 273 324
#
# _framework density 18.196494999999999
#
# number of rings (size 3 to 8) (size 9 to 14) (size 15 to 20)
#    0.000    2.250    0.000    4.125    0.000    7.000 
#    0.000    1.250    0.000    0.750    0.000    1.750 
#    0.000    0.000    0.000    0.000    0.000    0.000 
#
# Total GULP energy -178581.612133 kJ/mol
# GULP energy per Si atom -5580.675379 kJ/mol
# Density = 1.815508 g / cm^3
# Si number density = 18.196495 Si / 1000 Ang^3
#
#
#
# Elastic Constant Matrix: (Units=GPa)
#
#
# Indices 1 2 3 4 5 6 
#
# 1 204.2061 87.7108 57.7948 0.0000 0.0000 0.0000
# 2 87.7108 107.7748 41.1805 0.0000 0.0000 0.0000
# 3 57.7948 41.1805 32.9092 0.0000 0.0000 0.0000
# 4 0.0000 0.0000 0.0000 15.7800 0.0000 0.0000
# 5 0.0000 0.0000 0.0000 0.0000 -11.7748 0.0000
# 6 0.0000 0.0000 0.0000 0.0000 0.0000 39.3000
#
#
#
# Elastic Compliance Matrix: (Units=1/GPa)
#
#
# Indices 1 2 3 4 5 6 
#
# 1 0.010153 -0.002778 -0.014354 0.000000 0.000000 0.000000
# 2 -0.002778 0.018540 -0.018321 0.000000 0.000000 0.000000
# 3 -0.014354 -0.018321 0.078520 0.000000 0.000000 0.000000
# 4 0.000000 0.000000 0.000000 0.063371 0.000000 0.000000
# 5 0.000000 0.000000 0.000000 0.000000 -0.084927 0.000000
# 6 0.000000 0.000000 0.000000 0.000000 0.000000 0.025445
#
#
# Mechanical properties :
#
#
# Convention : Reuss Voigt Hill
#
# Bulk Modulus (GPa) = 27.54270 79.80693 53.67482
# Shear Modulus (GPa) = 25.75876 19.20799 22.48338
#
# Velocity S-wave (km/s) = 3.76651 3.25250 3.51891
# Velocity P-wave (km/s) = 5.83820 7.61962 6.78761
#
# Compressibility (1/GPa) = 0.03630726
#
# Stress axis : x y z
#
# Youngs Moduli (GPa) = 98.49649 53.93809 12.73567
#
# Poissons Ratio (x) = 0.14984 0.18280
# Poissons Ratio (y) = 0.27363 0.23333
# Poissons Ratio (z) = 1.41378 0.98818
#
# Static dielectric constant tensor:
#      x y z
#    x 1.624160 0.000000 0.000000 
#    y 0.000000 1.616700 0.000000 
#    z 0.000000 0.000000 1.598920 
# 
# From -- ./inp_files/13102.got.cif
#   From: 2010.05.17/outbox.cif.g08.bks.cpg/sg39_7_cif.got.tgz:13102.got - 2010.06.03 18:22:40.
