data_PCOD9360200
_publ_section_title
;
Structure prediction by ZEFSAII (Michael W. Deem and Ramdas Pophale) SiO2 
 PCOD9360200
Probable space group: A B M 2
;
_chemical_formula_sum "Si O2"
_cell_formula_units_Z 48
_cell_length_a 16.898768
_cell_length_b 8.675891
_cell_length_c 19.032673
_cell_angle_alpha 90.000000
_cell_angle_beta 90.000000
_cell_angle_gamma 90.000000
_cell_volume 2790.415764
_symmetry_space_group_name_H-M "A B M 2"
_symmetry_group_IT_number 39
_symmetry_cell_setting 'orthorhombic'
loop_
_space_group_symop_operation_xyz
x,y,z
-x,-y,z
-x,1/2+y,z
x,1/2-y,z
x,1/2+y,1/2+z
-x,1/2-y,1/2+z
-x,y,1/2+z
x,-y,1/2+z
loop_
_atom_site_type_symbol
_atom_site_label
_atom_site_fract_x
_atom_site_fract_y
_atom_site_fract_z
Si Si1 0.915554 0.563108 0.042380
Si Si2 0.264427 0.935808 0.803340
Si Si3 0.757928 0.936624 0.958343
Si Si4 0.832746 0.427100 0.676991
Si Si5 0.585713 0.432068 0.220894
Si Si6 0.333837 0.572794 0.591888
O O1 0.916630 0.750000 0.044464
O O2 0.894560 0.504419 0.121488
O O3 0.000000 0.500000 0.019726
O O4 0.842834 0.518672 0.991688
O O5 0.264006 0.750000 0.800633
O O6 0.193536 0.994518 0.751757
O O7 0.254167 0.993894 0.882023
O O8 0.346338 0.993993 0.769566
O O9 0.756072 0.750000 0.955205
O O10 0.689633 0.982525 0.014223
O O11 0.857283 0.250000 0.689615
O O12 0.750473 0.423505 0.632929
O O13 0.500000 0.500000 0.237246
O O14 0.586161 0.250000 0.230190
O O15 0.608734 0.474470 0.140497
O O16 0.362352 0.750000 0.589027
#
# Coordination Sequence:
#
# PCOD9360200 Si02
#       6
#     8   8   8   8   8   8
#     4   9  17  31  50  71  97 129 167 210 255 299
#     4  10  19  33  53  75 101 133 170 208 251 303
#     4   9  18  33  52  74 103 136 168 206 252 302
#     4   7  13  28  48  67  90 124 160 196 240 289
#     4  11  21  34  53  76 102 130 165 207 251 298
#     4   8  15  31  52  71  94 126 163 201 243 291
#
# _framework density 17.201737000000001
#
# number of rings (size 3 to 8) (size 9 to 14) (size 15 to 20)
#    0.000    3.000    0.000    5.000    0.000    1.333 
#    0.000    9.167    0.000    8.000    0.000    0.000 
#    0.000    0.000    0.000    0.000    0.000    0.000 
#
# Total GULP energy -133606.776674 kJ/mol
# GULP energy per Si atom -5566.949028 kJ/mol
# Density = 1.716259 g / cm^3
# Si number density = 17.201737 Si / 1000 Ang^3
#
#
#
# Elastic Constant Matrix: (Units=GPa)
#
#
# Indices 1 2 3 4 5 6 
#
# 1 78.0997 24.6201 44.1082 0.0000 0.0000 0.0000
# 2 24.6201 40.0795 32.2510 0.0000 0.0000 0.0000
# 3 44.1082 32.2510 149.5687 0.0000 0.0000 0.0000
# 4 0.0000 0.0000 0.0000 25.9546 0.0000 0.0000
# 5 0.0000 0.0000 0.0000 0.0000 15.7407 0.0000
# 6 0.0000 0.0000 0.0000 0.0000 0.0000 23.0588
#
#
#
# Elastic Compliance Matrix: (Units=1/GPa)
#
#
# Indices 1 2 3 4 5 6 
#
# 1 0.017182 -0.007837 -0.003377 0.000000 0.000000 0.000000
# 2 -0.007837 0.033763 -0.004969 0.000000 0.000000 0.000000
# 3 -0.003377 -0.004969 0.008753 0.000000 0.000000 0.000000
# 4 0.000000 0.000000 0.000000 0.038529 0.000000 0.000000
# 5 0.000000 0.000000 0.000000 0.000000 0.063530 0.000000
# 6 0.000000 0.000000 0.000000 0.000000 0.000000 0.043367
#
#
# Mechanical properties :
#
#
# Convention : Reuss Voigt Hill
#
# Bulk Modulus (GPa) = 36.58744 52.18964 44.38854
# Shear Modulus (GPa) = 20.27566 24.06874 22.17220
#
# Velocity S-wave (km/s) = 3.43694 3.74465 3.59409
# Velocity P-wave (km/s) = 6.08818 7.00729 6.56384
#
# Compressibility (1/GPa) = 0.02733178
#
# Stress axis : x y z
#
# Youngs Moduli (GPa) = 58.20048 29.61818 114.24304
#
# Poissons Ratio (x) = 0.23212 0.38581
# Poissons Ratio (y) = 0.45612 0.56768
# Poissons Ratio (z) = 0.19655 0.14717
#
# Static dielectric constant tensor:
#      x y z
#    x 1.579220 0.000000 0.000000 
#    y 0.000000 1.584450 0.000000 
#    z 0.000000 0.000000 1.607050 
# 
# From -- ./inp_files/12843.got.cif
#   From: 2010.05.17/outbox.cif.g08.bks.cpg/sg39_7_cif.got.tgz:12843.got - 2010.06.03 18:22:40.
