data_PCOD9360616
_publ_section_title
;
Structure prediction by ZEFSAII (Michael W. Deem and Ramdas Pophale) SiO2 
 PCOD9360616
Probable space group: A B M 2
;
_chemical_formula_sum "Si O2"
_cell_formula_units_Z 56
_cell_length_a 19.895554
_cell_length_b 9.376440
_cell_length_c 15.809124
_cell_angle_alpha 90.000000
_cell_angle_beta 90.000000
_cell_angle_gamma 90.000000
_cell_volume 2949.183677
_symmetry_space_group_name_H-M "A B M 2"
_symmetry_group_IT_number 39
_symmetry_cell_setting 'orthorhombic'
loop_
_space_group_symop_operation_xyz
x,y,z
-x,-y,z
-x,1/2+y,z
x,1/2-y,z
x,1/2+y,1/2+z
-x,1/2-y,1/2+z
-x,y,1/2+z
x,-y,1/2+z
loop_
_atom_site_type_symbol
_atom_site_label
_atom_site_fract_x
_atom_site_fract_y
_atom_site_fract_z
Si Si1 0.658615 0.919388 0.853760
Si Si2 0.197922 0.414008 0.097555
Si Si3 0.789376 0.083779 0.797504
Si Si4 0.934631 0.413065 0.053707
Si Si5 0.571308 0.421436 0.187708
Si Si6 0.935376 0.913526 0.349107
Si Si7 0.653959 0.420497 0.542531
O O1 0.671809 0.750000 0.852555
O O2 0.608537 0.951679 0.776761
O O3 0.728280 0.000017 0.838265
O O4 0.630865 0.952934 0.947084
O O5 0.179237 0.250000 0.077722
O O6 0.216762 0.421662 0.196343
O O7 0.134659 0.513105 0.079900
O O8 0.266005 0.449889 0.047685
O O9 0.786930 0.250000 0.824192
O O10 0.863259 0.027035 0.821125
O O11 0.937584 0.250000 0.082898
O O12 0.000000 0.500000 0.083352
O O13 0.936295 0.412864 0.951184
O O14 0.500000 0.500000 0.186377
O O15 0.564569 0.250000 0.178851
O O16 0.615869 0.487279 0.112246
O O17 0.939595 0.750000 0.318937
O O18 0.000000 0.000000 0.318926
O O19 0.645344 0.250000 0.559352
#
# Coordination Sequence:
#
# PCOD9360616 Si02
#       7
#     8   8   8   8   8   8   8
#     4  10  22  39  62  92 123 157 201 245 291 351
#     4  10  20  34  55  82 114 151 191 241 296 352
#     4  10  20  35  56  83 115 152 195 243 296 354
#     4  10  20  34  52  74 105 146 192 246 298 354
#     4  11  24  42  64  92 125 158 196 242 291 351
#     4   9  19  34  51  74 105 143 192 242 294 351
#     4  10  21  40  64  91 124 161 200 245 297 353
#
# _framework density 18.988306000000001
#
# number of rings (size 3 to 8) (size 9 to 14) (size 15 to 20)
#    0.000    2.000    1.429    1.714    0.000    4.571 
#    0.000    2.857    0.000    0.000    0.000    0.000 
#    0.000    0.000    0.000    0.000    0.000    0.000 
#
# Total GULP energy -156359.958918 kJ/mol
# GULP energy per Si atom -5584.284247 kJ/mol
# Density = 1.894509 g / cm^3
# Si number density = 18.988306 Si / 1000 Ang^3
#
#
#
# Elastic Constant Matrix: (Units=GPa)
#
#
# Indices 1 2 3 4 5 6 
#
# 1 123.3157 75.7197 50.9302 0.0000 0.0000 0.0000
# 2 75.7197 84.7138 52.8836 0.0000 0.0000 0.0000
# 3 50.9302 52.8836 89.2373 0.0000 0.0000 0.0000
# 4 0.0000 0.0000 0.0000 22.5066 0.0000 0.0000
# 5 0.0000 0.0000 0.0000 0.0000 -57.7825 0.0000
# 6 0.0000 0.0000 0.0000 0.0000 0.0000 38.1766
#
#
#
# Elastic Compliance Matrix: (Units=1/GPa)
#
#
# Indices 1 2 3 4 5 6 
#
# 1 0.018052 -0.015401 -0.001176 0.000000 0.000000 0.000000
# 2 -0.015401 0.031876 -0.010100 0.000000 0.000000 0.000000
# 3 -0.001176 -0.010100 0.017863 0.000000 0.000000 0.000000
# 4 0.000000 0.000000 0.000000 0.044431 0.000000 0.000000
# 5 0.000000 0.000000 0.000000 0.000000 -0.017306 0.000000
# 6 0.000000 0.000000 0.000000 0.000000 0.000000 0.026194
#
#
# Mechanical properties :
#
#
# Convention : Reuss Voigt Hill
#
# Bulk Modulus (GPa) = 69.27148 72.92599 71.09874
# Shear Modulus (GPa) = 27.89018 8.42904 18.15961
#
# Velocity S-wave (km/s) = 3.83666 2.10920 3.09586
# Velocity P-wave (km/s) = 7.49580 6.66489 7.09252
#
# Compressibility (1/GPa) = 0.01443596
#
# Stress axis : x y z
#
# Youngs Moduli (GPa) = 55.39687 31.37192 55.98314
#
# Poissons Ratio (x) = 0.48316 0.06581
# Poissons Ratio (y) = 0.85318 0.56544
# Poissons Ratio (z) = 0.06512 0.31686
#
# Static dielectric constant tensor:
#      x y z
#    x 1.634180 0.000000 0.000000 
#    y 0.000000 1.648790 0.000000 
#    z 0.000000 0.000000 1.672740 
# 
# From -- ./inp_files/10322.got.cif
#   From: 2010.05.17/outbox.cif.g08.bks.cpg/sg39_6_cif.got.tgz:10322.got - 2010.06.03 18:22:40.
