data_PCOD9360487
_publ_section_title
;
Structure prediction by ZEFSAII (Michael W. Deem and Ramdas Pophale) SiO2 
 PCOD9360487
Probable space group: A B M 2
;
_chemical_formula_sum "Si O2"
_cell_formula_units_Z 64
_cell_length_a 12.685830
_cell_length_b 17.960051
_cell_length_c 14.298526
_cell_angle_alpha 90.000000
_cell_angle_beta 90.000000
_cell_angle_gamma 90.000000
_cell_volume 3257.749766
_symmetry_space_group_name_H-M "A B M 2"
_symmetry_group_IT_number 39
_symmetry_cell_setting 'orthorhombic'
loop_
_space_group_symop_operation_xyz
x,y,z
-x,-y,z
-x,1/2+y,z
x,1/2-y,z
x,1/2+y,1/2+z
-x,1/2-y,1/2+z
-x,y,1/2+z
x,-y,1/2+z
loop_
_atom_site_type_symbol
_atom_site_label
_atom_site_fract_x
_atom_site_fract_y
_atom_site_fract_z
Si Si1 0.377130 0.906432 0.250000
Si Si2 0.266269 0.940462 0.747428
Si Si3 0.134933 0.916076 0.936621
Si Si4 0.199223 0.338010 0.611868
Si Si5 0.672862 0.161420 0.451068
Si Si6 0.579420 0.660898 0.149136
Si Si7 0.897530 0.047902 0.214674
Si Si8 0.890304 0.913312 0.928750
O O1 0.288191 0.869426 0.181956
O O2 0.368962 0.872312 0.353820
O O3 0.483425 0.882859 0.197207
O O4 0.354026 0.994643 0.263409
O O5 0.195700 0.919770 0.837576
O O6 0.317686 0.868306 0.703393
O O7 0.187735 0.987331 0.681182
O O8 0.012785 0.888224 0.934484
O O9 0.122283 0.002513 0.966507
O O10 0.205882 0.868179 0.006861
O O11 0.194752 0.250000 0.616549
O O12 0.095341 0.381266 0.648628
O O13 0.672212 0.250000 0.442605
O O14 0.600642 0.141411 0.540400
O O15 0.794052 0.135372 0.466641
O O16 0.564116 0.750000 0.156925
O O17 0.868792 0.077923 0.317415
O O18 0.000000 0.000000 0.226216
#
# Coordination Sequence:
#
# PCOD9360487 Si02
#       8
#     8   8   8   8   8   8   8   8
#     4  11  23  44  69  90 126 170 224 273 324 389
#     4  10  21  41  65  94 122 165 216 265 317 384
#     4  10  21  38  63  94 132 166 208 260 319 386
#     4  11  24  37  60  97 131 171 217 267 328 393
#     4  11  23  41  67  94 129 172 219 272 324 390
#     4  11  26  43  64  96 131 169 216 272 336 387
#     4  10  19  37  64  90 122 169 215 264 316 384
#     4  10  19  40  63  91 126 172 216 257 318 384
#
# _framework density 19.645461999999998
#
# number of rings (size 3 to 8) (size 9 to 14) (size 15 to 20)
#    0.000    1.500    6.250    1.500    5.250    2.000 
#    0.000    3.125    0.000    0.000    0.000    0.000 
#    0.000    0.000    0.000    0.000    0.000    0.000 
#
# Total GULP energy -178292.641687 kJ/mol
# GULP energy per Si atom -5571.645053 kJ/mol
# Density = 1.960075 g / cm^3
# Si number density = 19.645462 Si / 1000 Ang^3
#
#
#
# Elastic Constant Matrix: (Units=GPa)
#
#
# Indices 1 2 3 4 5 6 
#
# 1 88.0349 19.8494 48.2841 0.0000 0.0000 0.0000
# 2 19.8494 53.4181 30.8069 0.0000 0.0000 0.0000
# 3 48.2841 30.8069 109.3481 0.0000 0.0000 0.0000
# 4 0.0000 0.0000 0.0000 27.8826 0.0000 0.0000
# 5 0.0000 0.0000 0.0000 0.0000 18.7775 0.0000
# 6 0.0000 0.0000 0.0000 0.0000 0.0000 18.7026
#
#
#
# Elastic Compliance Matrix: (Units=1/GPa)
#
#
# Indices 1 2 3 4 5 6 
#
# 1 0.015188 -0.002120 -0.006109 0.000000 0.000000 0.000000
# 2 -0.002120 0.022648 -0.005444 0.000000 0.000000 0.000000
# 3 -0.006109 -0.005444 0.013376 0.000000 0.000000 0.000000
# 4 0.000000 0.000000 0.000000 0.035865 0.000000 0.000000
# 5 0.000000 0.000000 0.000000 0.000000 0.053255 0.000000
# 6 0.000000 0.000000 0.000000 0.000000 0.000000 0.053469
#
#
# Mechanical properties :
#
#
# Convention : Reuss Voigt Hill
#
# Bulk Modulus (GPa) = 41.90289 49.85355 45.87822
# Shear Modulus (GPa) = 21.82421 23.19656 22.51038
#
# Velocity S-wave (km/s) = 3.33664 3.43995 3.38869
# Velocity P-wave (km/s) = 6.01831 6.41945 6.22211
#
# Compressibility (1/GPa) = 0.02386470
#
# Stress axis : x y z
#
# Youngs Moduli (GPa) = 65.84233 44.15398 74.75813
#
# Poissons Ratio (x) = 0.09362 0.45670
# Poissons Ratio (y) = 0.13961 0.40701
# Poissons Ratio (z) = 0.40223 0.24039
#
# Static dielectric constant tensor:
#      x y z
#    x 1.766790 0.000000 0.000000 
#    y 0.000000 1.670920 0.000000 
#    z 0.000000 0.000000 1.724150 
# 
# From -- ./inp_files/9446.got.cif
#   From: 2010.05.17/outbox.cif.g08.bks.cpg/sg39_5_cif.got.tgz:9446.got - 2010.06.03 18:22:40.
