data_PCOD9360337
_publ_section_title
;
Structure prediction by ZEFSAII (Michael W. Deem and Ramdas Pophale) SiO2 
 PCOD9360337
Probable space group: A B M 2
;
_chemical_formula_sum "Si O2"
_cell_formula_units_Z 64
_cell_length_a 24.598948
_cell_length_b 8.654947
_cell_length_c 15.751334
_cell_angle_alpha 90.000000
_cell_angle_beta 90.000000
_cell_angle_gamma 90.000000
_cell_volume 3353.499823
_symmetry_space_group_name_H-M "A B M 2"
_symmetry_group_IT_number 39
_symmetry_cell_setting 'orthorhombic'
loop_
_space_group_symop_operation_xyz
x,y,z
-x,-y,z
-x,1/2+y,z
x,1/2-y,z
x,1/2+y,1/2+z
-x,1/2-y,1/2+z
-x,y,1/2+z
x,-y,1/2+z
loop_
_atom_site_type_symbol
_atom_site_label
_atom_site_fract_x
_atom_site_fract_y
_atom_site_fract_z
Si Si1 0.439727 0.564344 0.080910
Si Si2 0.244464 0.934996 0.940784
Si Si3 0.440092 0.563840 0.275537
Si Si4 0.634659 0.935422 0.931809
Si Si5 0.172320 0.434444 0.789709
Si Si6 0.057929 0.066154 0.337833
Si Si7 0.057256 0.066470 0.541138
Si Si8 0.825905 0.061658 0.101190
O O1 0.500000 0.500000 0.062365
O O2 0.440666 0.750000 0.076159
O O3 0.426323 0.518703 0.178465
O O4 0.397535 0.499329 0.013122
O O5 0.248835 0.750000 0.943742
O O6 0.303834 0.006355 0.931847
O O7 0.206356 0.983206 0.862696
O O8 0.214425 0.988650 0.026956
O O9 0.500000 0.500000 0.295315
O O10 0.442642 0.750000 0.277374
O O11 0.397192 0.513314 0.346506
O O12 0.633901 0.750000 0.933987
O O13 0.177401 0.250000 0.799197
O O14 0.109297 0.481952 0.797308
O O15 0.191730 0.480480 0.695704
O O16 0.060755 0.250000 0.323878
O O17 0.061401 0.038305 0.439730
O O18 0.000000 0.000000 0.308738
O O19 0.055414 0.250000 0.553563
O O20 0.112624 0.005981 0.582894
O O21 0.000000 0.000000 0.571924
O O22 0.827893 0.250000 0.097760
#
# Coordination Sequence:
#
# PCOD9360337 Si02
#       8
#     8   8   8   8   8   8   8   8
#     4  10  20  37  60  89 121 158 193 232 284 338
#     4  11  23  43  62  80 112 154 196 241 290 342
#     4   9  20  37  59  86 122 157 191 232 283 339
#     4  11  23  39  59  87 118 153 197 244 287 339
#     4  11  22  38  61  86 112 146 189 238 291 345
#     4  10  19  34  57  84 116 150 186 229 284 346
#     4   9  17  33  55  80 109 144 181 223 276 339
#     4   9  20  39  60  80 110 150 188 231 288 348
#
# _framework density 19.084540000000001
#
# number of rings (size 3 to 8) (size 9 to 14) (size 15 to 20)
#    0.000    2.000    1.250    2.250    0.000    4.500 
#    0.000   10.000    0.000    0.000    0.000    0.000 
#    0.000    0.000    0.000    0.000    0.000    0.000 
#
# Total GULP energy -178740.691430 kJ/mol
# GULP energy per Si atom -5585.646607 kJ/mol
# Density = 1.904110 g / cm^3
# Si number density = 19.084540 Si / 1000 Ang^3
#
#
#
# Elastic Constant Matrix: (Units=GPa)
#
#
# Indices 1 2 3 4 5 6 
#
# 1 130.5675 19.4784 71.5286 0.0000 0.0000 0.0000
# 2 19.4784 27.6884 29.2817 0.0000 0.0000 0.0000
# 3 71.5286 29.2817 101.9230 0.0000 0.0000 0.0000
# 4 0.0000 0.0000 0.0000 22.2035 0.0000 0.0000
# 5 0.0000 0.0000 0.0000 0.0000 -9.0417 0.0000
# 6 0.0000 0.0000 0.0000 0.0000 0.0000 37.1919
#
#
#
# Elastic Compliance Matrix: (Units=1/GPa)
#
#
# Indices 1 2 3 4 5 6 
#
# 1 0.012452 0.000692 -0.008937 0.000000 0.000000 0.000000
# 2 0.000692 0.051917 -0.015401 0.000000 0.000000 0.000000
# 3 -0.008937 -0.015401 0.020508 0.000000 0.000000 0.000000
# 4 0.000000 0.000000 0.000000 0.045038 0.000000 0.000000
# 5 0.000000 0.000000 0.000000 0.000000 -0.110598 0.000000
# 6 0.000000 0.000000 0.000000 0.000000 0.000000 0.026888
#
#
# Mechanical properties :
#
#
# Convention : Reuss Voigt Hill
#
# Bulk Modulus (GPa) = 26.60711 55.63958 41.12335
# Shear Modulus (GPa) = 47.15909 19.39674 33.27792
#
# Velocity S-wave (km/s) = 4.97637 3.19150 4.18031
# Velocity P-wave (km/s) = 6.85500 6.54205 6.70035
#
# Compressibility (1/GPa) = 0.03758394
#
# Stress axis : x y z
#
# Youngs Moduli (GPa) = 80.30983 19.26167 48.76140
#
# Poissons Ratio (x) = -0.01333 0.43580
# Poissons Ratio (y) = -0.05557 0.75097
# Poissons Ratio (z) = 0.71776 0.29665
#
# Static dielectric constant tensor:
#      x y z
#    x 1.628930 0.000000 0.000000 
#    y 0.000000 1.647330 0.000000 
#    z 0.000000 0.000000 1.679930 
# 
# From -- ./inp_files/10553.got.cif
#   From: 2010.05.17/outbox.cif.g08.bks.cpg/sg39_6_cif.got.tgz:10553.got - 2010.06.03 18:22:40.
