data_PCOD9360442
_publ_section_title
;
Structure prediction by ZEFSAII (Michael W. Deem and Ramdas Pophale) SiO2 
 PCOD9360442
Probable space group: A B M 2
;
_chemical_formula_sum "Si O2"
_cell_formula_units_Z 64
_cell_length_a 19.730466
_cell_length_b 8.681851
_cell_length_c 20.589628
_cell_angle_alpha 90.000000
_cell_angle_beta 90.000000
_cell_angle_gamma 90.000000
_cell_volume 3526.940807
_symmetry_space_group_name_H-M "A B M 2"
_symmetry_group_IT_number 39
_symmetry_cell_setting 'orthorhombic'
loop_
_space_group_symop_operation_xyz
x,y,z
-x,-y,z
-x,1/2+y,z
x,1/2-y,z
x,1/2+y,1/2+z
-x,1/2-y,1/2+z
-x,y,1/2+z
x,-y,1/2+z
loop_
_atom_site_type_symbol
_atom_site_label
_atom_site_fract_x
_atom_site_fract_y
_atom_site_fract_z
Si Si1 0.791778 0.932459 0.480070
Si Si2 0.572321 0.064774 0.658773
Si Si3 0.426696 0.935100 0.810622
Si Si4 0.287827 0.566437 0.357301
Si Si5 0.073019 0.434375 0.678514
Si Si6 0.793923 0.567669 0.236103
Si Si7 0.287042 0.432973 0.101106
Si Si8 0.926994 0.065722 0.533070
O O1 0.800020 0.750000 0.474514
O O2 0.750944 0.997980 0.419079
O O3 0.749494 0.974937 0.544562
O O4 0.865277 0.010489 0.488623
O O5 0.570290 0.250000 0.657770
O O6 0.583106 0.019710 0.734421
O O7 0.500000 0.000000 0.637653
O O8 0.636020 0.016576 0.615475
O O9 0.426542 0.750000 0.814114
O O10 0.364045 0.001982 0.850571
O O11 0.500000 0.000000 0.830552
O O12 0.200526 0.250000 0.249294
O O13 0.247206 0.512073 0.293501
O O14 0.071506 0.250000 0.675765
O O15 0.132761 0.493963 0.724331
O O16 0.085471 0.499853 0.605764
O O17 0.000000 0.500000 0.698809
O O18 0.713843 0.750000 0.084792
O O19 0.753038 0.549645 0.168712
O O20 0.289486 0.750000 0.361044
O O21 0.929329 0.250000 0.536618
O O22 0.000000 0.000000 0.512196
#
# Coordination Sequence:
#
# PCOD9360442 Si02
#       8
#     8   8   8   8   8   8   8   8
#     4  12  25  41  61  88 121 159 204 251 302 360
#     4   9  18  33  55  85 119 153 191 240 295 350
#     4  10  19  36  59  88 120 156 199 246 300 357
#     4  12  25  41  61  88 122 162 205 250 301 361
#     4  11  21  35  57  89 122 157 200 247 300 355
#     4  11  21  38  62  88 121 156 195 248 302 352
#     4  10  20  37  60  86 119 155 194 243 299 354
#     4  11  21  37  60  88 120 156 198 245 297 355
#
# _framework density 18.146037
#
# number of rings (size 3 to 8) (size 9 to 14) (size 15 to 20)
#    0.000    1.250    2.500    6.000    0.000    1.500 
#    0.000    1.250    0.000    1.500    0.000    0.000 
#    0.000    0.000    0.000    0.000    0.000    0.000 
#
# Total GULP energy -178872.260076 kJ/mol
# GULP energy per Si atom -5589.758127 kJ/mol
# Density = 1.810474 g / cm^3
# Si number density = 18.146037 Si / 1000 Ang^3
#
#
#
# Elastic Constant Matrix: (Units=GPa)
#
#
# Indices 1 2 3 4 5 6 
#
# 1 170.6789 59.6268 48.8367 0.0000 0.0000 0.0000
# 2 59.6268 127.6695 36.7140 0.0000 0.0000 0.0000
# 3 48.8367 36.7140 57.0078 0.0000 0.0000 0.0000
# 4 0.0000 0.0000 0.0000 26.5811 0.0000 0.0000
# 5 0.0000 0.0000 0.0000 0.0000 29.8397 0.0000
# 6 0.0000 0.0000 0.0000 0.0000 0.0000 36.2980
#
#
#
# Elastic Compliance Matrix: (Units=1/GPa)
#
#
# Indices 1 2 3 4 5 6 
#
# 1 0.008250 -0.002235 -0.005628 0.000000 0.000000 0.000000
# 2 -0.002235 0.010218 -0.004667 0.000000 0.000000 0.000000
# 3 -0.005628 -0.004667 0.025369 0.000000 0.000000 0.000000
# 4 0.000000 0.000000 0.000000 0.037621 0.000000 0.000000
# 5 0.000000 0.000000 0.000000 0.000000 0.033512 0.000000
# 6 0.000000 0.000000 0.000000 0.000000 0.000000 0.027550
#
#
# Mechanical properties :
#
#
# Convention : Reuss Voigt Hill
#
# Bulk Modulus (GPa) = 53.25431 71.74567 62.49999
# Shear Modulus (GPa) = 28.76240 32.55567 30.65904
#
# Velocity S-wave (km/s) = 3.98559 4.24027 4.11490
# Velocity P-wave (km/s) = 7.11275 7.97477 7.55606
#
# Compressibility (1/GPa) = 0.01877782
#
# Stress axis : x y z
#
# Youngs Moduli (GPa) = 121.21097 97.86373 39.41896
#
# Poissons Ratio (x) = 0.21868 0.22187
# Poissons Ratio (y) = 0.27085 0.18395
# Poissons Ratio (z) = 0.68223 0.45668
#
# Static dielectric constant tensor:
#      x y z
#    x 1.625950 0.000000 0.000000 
#    y 0.000000 1.606940 0.000000 
#    z 0.000000 0.000000 1.596890 
# 
# From -- ./inp_files/13128.got.cif
#   From: 2010.05.17/outbox.cif.g08.bks.cpg/sg39_7_cif.got.tgz:13128.got - 2010.06.03 18:22:40.
