data_PCOD9360780
_publ_section_title
;
Structure prediction by ZEFSAII (Michael W. Deem and Ramdas Pophale) SiO2 
 PCOD9360780
Probable space group: A B M 2
;
_chemical_formula_sum "Si O2"
_cell_formula_units_Z 56
_cell_length_a 10.932467
_cell_length_b 15.622627
_cell_length_c 15.086195
_cell_angle_alpha 90.000000
_cell_angle_beta 90.000000
_cell_angle_gamma 90.000000
_cell_volume 2576.629388
_symmetry_space_group_name_H-M "A B M 2"
_symmetry_group_IT_number 39
_symmetry_cell_setting 'orthorhombic'
loop_
_space_group_symop_operation_xyz
x,y,z
-x,-y,z
-x,1/2+y,z
x,1/2-y,z
x,1/2+y,1/2+z
-x,1/2-y,1/2+z
-x,y,1/2+z
x,-y,1/2+z
loop_
_atom_site_type_symbol
_atom_site_label
_atom_site_fract_x
_atom_site_fract_y
_atom_site_fract_z
Si Si1 0.895817 0.071103 0.001350
Si Si2 0.564401 0.349387 0.589467
Si Si3 0.028250 0.653346 0.657999
Si Si4 0.244907 0.982363 0.632686
Si Si5 0.956732 0.849975 0.859830
Si Si6 0.671820 0.151871 0.207063
Si Si7 0.683104 0.850943 0.904471
O O1 0.934314 0.139611 0.076839
O O2 0.773828 0.025241 0.034999
O O3 0.000000 0.000000 0.008870
O O4 0.923858 0.109065 0.905660
O O5 0.604800 0.250000 0.602719
O O6 0.639707 0.421150 0.641654
O O7 0.428371 0.351469 0.628819
O O8 0.596806 0.373759 0.487399
O O9 0.078620 0.750000 0.651341
O O10 0.131344 0.580674 0.649805
O O11 0.968789 0.643450 0.754554
O O12 0.251713 0.065416 0.693571
O O13 0.960178 0.750000 0.882661
O O14 0.824683 0.884440 0.895403
O O15 0.725217 0.250000 0.205006
O O16 0.622532 0.141176 0.307533
O O17 0.702511 0.750000 0.917521
#
# Coordination Sequence:
#
# PCOD9360780 Si02
#       7
#     8   8   8   8   8   8   8
#     4  10  21  33  52  83 118 155 195 238 284 344
#     4  10  21  40  64  86 113 152 201 252 299 353
#     4  10  21  37  57  85 121 158 197 239 285 346
#     4  11  22  37  58  87 123 161 194 239 299 349
#     4  10  20  35  58  87 120 159 198 237 288 354
#     4  10  22  40  62  87 115 152 200 252 302 352
#     4   9  18  36  63  89 115 155 201 245 298 354
#
# _framework density 21.733820999999999
#
# number of rings (size 3 to 8) (size 9 to 14) (size 15 to 20)
#    0.000    2.000    0.000    3.857    0.000    7.429 
#    0.000    4.286    0.000    3.429    0.000    0.000 
#    0.000    0.000    0.000    0.000    0.000    0.000 
#
# Total GULP energy -155889.706322 kJ/mol
# GULP energy per Si atom -5567.489512 kJ/mol
# Density = 2.168435 g / cm^3
# Si number density = 21.733821 Si / 1000 Ang^3
#
#
#
# Elastic Constant Matrix: (Units=GPa)
#
#
# Indices 1 2 3 4 5 6 
#
# 1 41.6911 41.7874 7.9210 0.0000 0.0000 0.0000
# 2 41.7874 135.5108 43.5033 0.0000 0.0000 0.0000
# 3 7.9210 43.5033 67.7735 0.0000 0.0000 0.0000
# 4 0.0000 0.0000 0.0000 7.9577 0.0000 0.0000
# 5 0.0000 0.0000 0.0000 0.0000 32.1604 0.0000
# 6 0.0000 0.0000 0.0000 0.0000 0.0000 6.2470
#
#
#
# Elastic Compliance Matrix: (Units=1/GPa)
#
#
# Indices 1 2 3 4 5 6 
#
# 1 0.035406 -0.012079 0.003615 0.000000 0.000000 0.000000
# 2 -0.012079 0.013415 -0.007200 0.000000 0.000000 0.000000
# 3 0.003615 -0.007200 0.018954 0.000000 0.000000 0.000000
# 4 0.000000 0.000000 0.000000 0.125665 0.000000 0.000000
# 5 0.000000 0.000000 0.000000 0.000000 0.031094 0.000000
# 6 0.000000 0.000000 0.000000 0.000000 0.000000 0.160077
#
#
# Mechanical properties :
#
#
# Convention : Reuss Voigt Hill
#
# Bulk Modulus (GPa) = 27.43573 47.93319 37.68446
# Shear Modulus (GPa) = 11.67988 19.39058 15.53523
#
# Velocity S-wave (km/s) = 2.32072 2.99019 2.67647
# Velocity P-wave (km/s) = 4.45330 5.83302 5.18922
#
# Compressibility (1/GPa) = 0.03644881
#
# Stress axis : x y z
#
# Youngs Moduli (GPa) = 28.24414 74.54095 52.75963
#
# Poissons Ratio (x) = 0.90035 -0.19073
# Poissons Ratio (y) = 0.34115 0.37985
# Poissons Ratio (z) = -0.10211 0.53666
#
# Static dielectric constant tensor:
#      x y z
#    x 1.837630 0.000000 0.000000 
#    y 0.000000 1.806060 0.000000 
#    z 0.000000 0.000000 1.835070 
# 
# From -- ./inp_files/9264.got.cif
#   From: 2010.05.17/outbox.cif.g08.bks.cpg/sg39_5_cif.got.tgz:9264.got - 2010.06.03 18:22:40.
