data_PCOD9360016
_publ_section_title
;
Structure prediction by ZEFSAII (Michael W. Deem and Ramdas Pophale) SiO2 
 PCOD9360016
Probable space group: A B M 2
;
_chemical_formula_sum "Si O2"
_cell_formula_units_Z 48
_cell_length_a 13.580477
_cell_length_b 17.377355
_cell_length_c 8.793401
_cell_angle_alpha 90.000000
_cell_angle_beta 90.000000
_cell_angle_gamma 90.000000
_cell_volume 2075.179059
_symmetry_space_group_name_H-M "A B M 2"
_symmetry_group_IT_number 39
_symmetry_cell_setting 'orthorhombic'
loop_
_space_group_symop_operation_xyz
x,y,z
-x,-y,z
-x,1/2+y,z
x,1/2-y,z
x,1/2+y,1/2+z
-x,1/2-y,1/2+z
-x,y,1/2+z
x,-y,1/2+z
loop_
_atom_site_type_symbol
_atom_site_label
_atom_site_fract_x
_atom_site_fract_y
_atom_site_fract_z
Si Si1 0.878122 0.250000 0.816790
Si Si2 0.576067 0.658494 0.862162
Si Si3 0.265944 0.941146 0.508797
Si Si4 0.866567 0.999940 0.751451
Si Si5 0.057836 0.250000 0.008228
Si Si6 0.423062 0.432113 0.552907
Si Si7 0.927919 0.388075 0.981999
O O1 0.851575 0.323638 0.919600
O O2 0.855822 0.250000 0.637905
O O3 0.002463 0.250000 0.835772
O O4 0.569979 0.750000 0.852967
O O5 0.662265 0.629532 0.975031
O O6 0.598514 0.619513 0.699758
O O7 0.476387 0.620118 0.927179
O O8 0.183380 0.946793 0.379229
O O9 0.330172 0.019631 0.495322
O O10 0.215935 0.946134 0.671930
O O11 0.940131 0.058487 0.835105
O O12 0.898084 0.945138 0.614611
O O13 0.016861 0.335737 0.039889
O O14 0.500000 0.500000 0.598242
#
# Coordination Sequence:
#
# PCOD9360016 Si02
#       7
#     4   8   8   8   4   8   8
#     4   8  18  42  62  86 120 158 188 220 286 340
#     4  11  22  36  51  83 110 136 194 264 306 342
#     4  10  20  35  59  77 105 161 198 232 295 365
#     4  10  18  39  57  83 118 152 200 235 269 350
#     4   8  18  42  62  86 122 156 192 216 286 342
#     4  10  20  36  57  73 104 150 194 247 307 356
#     4   8  20  36  60  87 120 154 187 234 282 323
#
# _framework density 23.130531999999999
#
# number of rings (size 3 to 8) (size 9 to 14) (size 15 to 20)
#    1.000    1.333    1.667    2.000    2.333    0.000 
#   12.000    2.500    3.667    0.000    0.000    0.000 
#    0.000    0.000    0.000    0.000    0.000    0.000 
#
# Total GULP energy -133604.105790 kJ/mol
# GULP energy per Si atom -5566.837741 kJ/mol
# Density = 2.307789 g / cm^3
# Si number density = 23.130532 Si / 1000 Ang^3
#
#
#
# Elastic Constant Matrix: (Units=GPa)
#
#
# Indices 1 2 3 4 5 6 
#
# 1 32.4655 31.3173 21.0334 0.0000 0.0000 0.0000
# 2 31.3173 185.3062 47.5614 0.0000 0.0000 0.0000
# 3 21.0334 47.5614 91.9388 0.0000 0.0000 0.0000
# 4 0.0000 0.0000 0.0000 45.4742 0.0000 0.0000
# 5 0.0000 0.0000 0.0000 0.0000 19.4032 0.0000
# 6 0.0000 0.0000 0.0000 0.0000 0.0000 7.8981
#
#
#
# Elastic Compliance Matrix: (Units=1/GPa)
#
#
# Indices 1 2 3 4 5 6 
#
# 1 0.039913 -0.005076 -0.006505 0.000000 0.000000 0.000000
# 2 -0.005076 0.006868 -0.002392 0.000000 0.000000 0.000000
# 3 -0.006505 -0.002392 0.013602 0.000000 0.000000 0.000000
# 4 0.000000 0.000000 0.000000 0.021990 0.000000 0.000000
# 5 0.000000 0.000000 0.000000 0.000000 0.051538 0.000000
# 6 0.000000 0.000000 0.000000 0.000000 0.000000 0.126613
#
#
# Mechanical properties :
#
#
# Convention : Reuss Voigt Hill
#
# Bulk Modulus (GPa) = 30.82843 56.61496 43.72170
# Shear Modulus (GPa) = 16.70658 28.54165 22.62412
#
# Velocity S-wave (km/s) = 2.69043 3.51656 3.13086
# Velocity P-wave (km/s) = 4.79668 6.40450 5.65800
#
# Compressibility (1/GPa) = 0.03243759
#
# Stress axis : x y z
#
# Youngs Moduli (GPa) = 25.05468 145.59912 73.51652
#
# Poissons Ratio (x) = 0.73902 0.47825
# Poissons Ratio (y) = 0.12717 0.17584
# Poissons Ratio (z) = 0.16299 0.34825
#
# Static dielectric constant tensor:
#      x y z
#    x 1.991370 0.000000 0.000000 
#    y 0.000000 1.857610 0.000000 
#    z 0.000000 0.000000 1.863400 
# 
# From -- ./inp_files/3774.got.cif
#   From: 2010.05.17/outbox.cif.g08.bks.cpg/sg39_2_cif.got.tgz:3774.got - 2010.06.03 18:22:40.
