data_PCOD9360391
_publ_section_title
;
Structure prediction by ZEFSAII (Michael W. Deem and Ramdas Pophale) SiO2 
 PCOD9360391
Probable space group: A B M 2
;
_chemical_formula_sum "Si O2"
_cell_formula_units_Z 64
_cell_length_a 24.496110
_cell_length_b 8.722213
_cell_length_c 15.745923
_cell_angle_alpha 90.000000
_cell_angle_beta 90.000000
_cell_angle_gamma 90.000000
_cell_volume 3364.278460
_symmetry_space_group_name_H-M "A B M 2"
_symmetry_group_IT_number 39
_symmetry_cell_setting 'orthorhombic'
loop_
_space_group_symop_operation_xyz
x,y,z
-x,-y,z
-x,1/2+y,z
x,1/2-y,z
x,1/2+y,1/2+z
-x,1/2-y,1/2+z
-x,y,1/2+z
x,-y,1/2+z
loop_
_atom_site_type_symbol
_atom_site_label
_atom_site_fract_x
_atom_site_fract_y
_atom_site_fract_z
Si Si1 0.943296 0.067395 0.310690
Si Si2 0.439676 0.065763 0.554485
Si Si3 0.943398 0.433944 0.001389
Si Si4 0.244094 0.065194 0.407218
Si Si5 0.825714 0.065799 0.073202
Si Si6 0.634823 0.566038 0.906129
Si Si7 0.559888 0.934558 0.749306
Si Si8 0.831889 0.432574 0.749040
O O1 0.946591 0.250000 0.313513
O O2 0.937713 0.001088 0.406321
O O3 0.890200 0.013626 0.260537
O O4 0.000000 0.000000 0.275785
O O5 0.441103 0.250000 0.549233
O O6 0.425992 0.021538 0.652171
O O7 0.500000 0.000000 0.536226
O O8 0.397177 0.000881 0.486937
O O9 0.947001 0.250000 0.995669
O O10 0.888665 0.473747 0.051961
O O11 0.000000 0.500000 0.037241
O O12 0.249628 0.250000 0.406062
O O13 0.211195 0.024220 0.492545
O O14 0.207550 0.020820 0.326158
O O15 0.303312 0.991083 0.404885
O O16 0.822862 0.250000 0.084337
O O17 0.808258 0.982356 0.158719
O O18 0.633372 0.750000 0.909915
O O19 0.603025 0.516210 0.820398
O O20 0.556692 0.750000 0.751402
O O21 0.500000 0.000000 0.768844
O O22 0.839629 0.250000 0.753648
#
# Coordination Sequence:
#
# PCOD9360391 Si02
#       8
#     8   8   8   8   8   8   8   8
#     4  11  21  35  59  88 119 154 192 237 295 355
#     4  10  20  37  60  88 122 159 194 235 292 347
#     4  10  19  35  58  86 119 152 189 238 295 356
#     4  10  23  44  62  80 116 159 197 245 298 347
#     4  10  22  41  62  84 116 155 196 242 299 357
#     4  11  23  38  59  88 118 153 201 247 288 345
#     4   9  20  37  58  86 121 156 191 235 286 342
#     4  11  23  41  63  88 117 152 197 245 298 357
#
# _framework density 19.023394
#
# number of rings (size 3 to 8) (size 9 to 14) (size 15 to 20)
#    0.000    1.750    1.250    3.750    0.000    6.500 
#    0.000    5.000    0.000    0.000    0.000    0.000 
#    0.000    0.000    0.000    0.000    0.000    0.000 
#
# Total GULP energy -178833.297604 kJ/mol
# GULP energy per Si atom -5588.540550 kJ/mol
# Density = 1.898010 g / cm^3
# Si number density = 19.023394 Si / 1000 Ang^3
#
#
#
# Elastic Constant Matrix: (Units=GPa)
#
#
# Indices 1 2 3 4 5 6 
#
# 1 148.1029 49.5137 91.3834 0.0000 0.0000 0.0000
# 2 49.5137 55.1708 47.7119 0.0000 0.0000 0.0000
# 3 91.3834 47.7119 133.3602 0.0000 0.0000 0.0000
# 4 0.0000 0.0000 0.0000 27.1291 0.0000 0.0000
# 5 0.0000 0.0000 0.0000 0.0000 -9.6839 0.0000
# 6 0.0000 0.0000 0.0000 0.0000 0.0000 35.4133
#
#
#
# Elastic Compliance Matrix: (Units=1/GPa)
#
#
# Indices 1 2 3 4 5 6 
#
# 1 0.012811 -0.005655 -0.006755 0.000000 0.000000 0.000000
# 2 -0.005655 0.028743 -0.006408 0.000000 0.000000 0.000000
# 3 -0.006755 -0.006408 0.014420 0.000000 0.000000 0.000000
# 4 0.000000 0.000000 0.000000 0.036861 0.000000 0.000000
# 5 0.000000 0.000000 0.000000 0.000000 -0.103264 0.000000
# 6 0.000000 0.000000 0.000000 0.000000 0.000000 0.028238
#
#
# Mechanical properties :
#
#
# Convention : Reuss Voigt Hill
#
# Bulk Modulus (GPa) = 54.53604 79.31690 66.92647
# Shear Modulus (GPa) = 81.22500 20.44003 50.83251
#
# Velocity S-wave (km/s) = 6.54142 3.28146 5.17485
# Velocity P-wave (km/s) = 9.26194 7.49281 8.42395
#
# Compressibility (1/GPa) = 0.01833650
#
# Stress axis : x y z
#
# Youngs Moduli (GPa) = 78.05849 34.79159 69.34842
#
# Poissons Ratio (x) = 0.19676 0.46846
# Poissons Ratio (y) = 0.44145 0.44438
# Poissons Ratio (z) = 0.52730 0.22294
#
# Static dielectric constant tensor:
#      x y z
#    x 1.631890 0.000000 0.000000 
#    y 0.000000 1.639090 0.000000 
#    z 0.000000 0.000000 1.673380 
# 
# From -- ./inp_files/10554.got.cif
#   From: 2010.05.17/outbox.cif.g08.bks.cpg/sg39_6_cif.got.tgz:10554.got - 2010.06.03 18:22:40.
