data_PCOD9360647
_publ_section_title
;
Structure prediction by ZEFSAII (Michael W. Deem and Ramdas Pophale) SiO2 
 PCOD9360647
Probable space group: A B M 2
;
_chemical_formula_sum "Si O2"
_cell_formula_units_Z 40
_cell_length_a 20.581586
_cell_length_b 11.171461
_cell_length_c 8.801641
_cell_angle_alpha 90.000000
_cell_angle_beta 90.000000
_cell_angle_gamma 90.000000
_cell_volume 2023.729500
_symmetry_space_group_name_H-M "A B M 2"
_symmetry_group_IT_number 39
_symmetry_cell_setting 'orthorhombic'
loop_
_space_group_symop_operation_xyz
x,y,z
-x,-y,z
-x,1/2+y,z
x,1/2-y,z
x,1/2+y,1/2+z
-x,1/2-y,1/2+z
-x,y,1/2+z
x,-y,1/2+z
loop_
_atom_site_type_symbol
_atom_site_label
_atom_site_fract_x
_atom_site_fract_y
_atom_site_fract_z
Si Si1 0.580663 0.384585 0.236610
Si Si2 0.779396 0.389108 0.780565
Si Si3 0.276514 0.389092 0.602743
Si Si4 0.080775 0.384838 0.431325
Si Si5 0.500000 0.500000 0.988826
Si Si6 0.000000 0.500000 0.184116
O O1 0.580136 0.250000 0.293570
O O2 0.651177 0.408273 0.166566
O O3 0.558395 0.464440 0.377381
O O4 0.527848 0.400689 0.102840
O O5 0.778749 0.250000 0.720496
O O6 0.764725 0.499420 0.668800
O O7 0.849466 0.410116 0.858628
O O8 0.728684 0.393967 0.920574
O O9 0.256586 0.250000 0.643582
O O10 0.081835 0.250000 0.487545
O O11 0.027501 0.400319 0.298179
O O12 0.058335 0.464268 0.572406
#
# Coordination Sequence:
#
# PCOD9360647 Si02
#       6
#     8   8   8   8   4   4
#     4  10  20  35  54  77 106 138 175 219 265 315
#     4  10  21  37  56  80 110 143 180 222 268 318
#     4  10  21  37  56  80 110 143 180 222 268 318
#     4  10  20  35  54  77 106 138 175 219 265 315
#     4  10  20  34  54  78 104 136 176 216 266 318
#     4  10  20  34  54  78 104 136 176 216 266 318
#
# _framework density 19.765487
#
# number of rings (size 3 to 8) (size 9 to 14) (size 15 to 20)
#    0.000    2.000    0.000    3.600    0.000    0.800 
#    0.000   10.000    0.000    0.000    0.000    0.000 
#    0.000    0.000    0.000    0.000    0.000    0.000 
#
# Total GULP energy -111435.550077 kJ/mol
# GULP energy per Si atom -5571.777504 kJ/mol
# Density = 1.972050 g / cm^3
# Si number density = 19.765487 Si / 1000 Ang^3
#
#
#
# Elastic Constant Matrix: (Units=GPa)
#
#
# Indices 1 2 3 4 5 6 
#
# 1 36.3218 12.4172 -10.6350 0.0000 0.0000 0.0000
# 2 12.4172 70.1406 19.4337 0.0000 0.0000 0.0000
# 3 -10.6350 19.4337 56.4756 0.0000 0.0000 0.0000
# 4 0.0000 0.0000 0.0000 19.8486 0.0000 0.0000
# 5 0.0000 0.0000 0.0000 0.0000 31.1946 0.0000
# 6 0.0000 0.0000 0.0000 0.0000 0.0000 25.2249
#
#
#
# Elastic Compliance Matrix: (Units=1/GPa)
#
#
# Indices 1 2 3 4 5 6 
#
# 1 0.033062 -0.008377 0.009109 0.000000 0.000000 0.000000
# 2 -0.008377 0.017882 -0.007731 0.000000 0.000000 0.000000
# 3 0.009109 -0.007731 0.022082 0.000000 0.000000 0.000000
# 4 0.000000 0.000000 0.000000 0.050381 0.000000 0.000000
# 5 0.000000 0.000000 0.000000 0.000000 0.032057 0.000000
# 6 0.000000 0.000000 0.000000 0.000000 0.000000 0.039643
#
#
# Mechanical properties :
#
#
# Convention : Reuss Voigt Hill
#
# Bulk Modulus (GPa) = 16.94100 22.81890 19.87995
# Shear Modulus (GPa) = 21.85481 24.70175 23.27828
#
# Velocity S-wave (km/s) = 3.32882 3.53900 3.43552
# Velocity P-wave (km/s) = 4.83367 5.31689 5.08103
#
# Compressibility (1/GPa) = 0.05902841
#
# Stress axis : x y z
#
# Youngs Moduli (GPa) = 30.24586 55.92211 45.28533
#
# Poissons Ratio (x) = 0.46845 -0.41248
# Poissons Ratio (y) = 0.25336 0.35009
# Poissons Ratio (z) = -0.27550 0.43232
#
# Static dielectric constant tensor:
#      x y z
#    x 1.720540 0.000000 0.000000 
#    y 0.000000 1.705410 0.000000 
#    z 0.000000 0.000000 1.659360 
# 
# From -- ./inp_files/3931.got.cif
#   From: 2010.05.17/outbox.cif.g08.bks.cpg/sg39_2_cif.got.tgz:3931.got - 2010.06.03 18:22:40.
