data_PCOD9360797
_publ_section_title
;
Structure prediction by ZEFSAII (Michael W. Deem and Ramdas Pophale) SiO2 
 PCOD9360797
Probable space group: A B M 2
;
_chemical_formula_sum "Si O2"
_cell_formula_units_Z 40
_cell_length_a 14.696846
_cell_length_b 8.639315
_cell_length_c 15.738914
_cell_angle_alpha 90.000000
_cell_angle_beta 90.000000
_cell_angle_gamma 90.000000
_cell_volume 1998.380646
_symmetry_space_group_name_H-M "A B M 2"
_symmetry_group_IT_number 39
_symmetry_cell_setting 'orthorhombic'
loop_
_space_group_symop_operation_xyz
x,y,z
-x,-y,z
-x,1/2+y,z
x,1/2-y,z
x,1/2+y,1/2+z
-x,1/2-y,1/2+z
-x,y,1/2+z
x,-y,1/2+z
loop_
_atom_site_type_symbol
_atom_site_label
_atom_site_fract_x
_atom_site_fract_y
_atom_site_fract_z
Si Si1 0.601764 0.434892 0.657690
Si Si2 0.291250 0.565262 0.995607
Si Si3 0.094146 0.435122 0.567365
Si Si4 0.713933 0.566235 0.815878
Si Si5 0.096901 0.065196 0.258627
O O1 0.500000 0.500000 0.661116
O O2 0.600933 0.250000 0.652728
O O3 0.652730 0.503664 0.575689
O O4 0.656070 0.487967 0.741282
O O5 0.301988 0.750000 0.988488
O O6 0.184531 0.532951 0.013971
O O7 0.319792 0.484555 0.908451
O O8 0.086616 0.250000 0.579384
O O9 0.105027 0.514135 0.659750
O O10 0.000000 0.500000 0.529991
O O11 0.710666 0.750000 0.805603
O O12 0.817337 0.507182 0.805971
O O13 0.098586 0.250000 0.265181
O O14 0.000000 0.000000 0.289021
#
# Coordination Sequence:
#
# PCOD9360797 Si02
#       5
#     8   8   8   8   8
#     4  12  26  47  73  99 129 168 213 268 332 392
#     4  11  24  43  67  98 134 173 219 268 322 386
#     4  10  20  35  60  91 130 172 217 264 317 379
#     4  12  25  43  67  98 134 173 220 270 323 386
#     4  11  21  36  61  92 130 174 221 267 321 382
#
# _framework density 20.016207999999999
#
# number of rings (size 3 to 8) (size 9 to 14) (size 15 to 20)
#    0.000    0.800    2.000    7.800    0.000    4.000 
#    0.000    6.000    0.000    0.000    0.000    0.000 
#    0.000    0.000    0.000    0.000    0.000    0.000 
#
# Total GULP energy -111962.444030 kJ/mol
# GULP energy per Si atom -5598.122201 kJ/mol
# Density = 1.997065 g / cm^3
# Si number density = 20.016208 Si / 1000 Ang^3
#
#
#
# Elastic Constant Matrix: (Units=GPa)
#
#
# Indices 1 2 3 4 5 6 
#
# 1 110.6624 22.7294 32.9459 0.0000 0.0000 0.0000
# 2 22.7294 88.8078 -3.6965 0.0000 0.0000 0.0000
# 3 32.9459 -3.6965 84.1214 0.0000 0.0000 0.0000
# 4 0.0000 0.0000 0.0000 30.5993 0.0000 0.0000
# 5 0.0000 0.0000 0.0000 0.0000 -10.8643 0.0000
# 6 0.0000 0.0000 0.0000 0.0000 0.0000 36.9752
#
#
#
# Elastic Compliance Matrix: (Units=1/GPa)
#
#
# Indices 1 2 3 4 5 6 
#
# 1 0.010969 -0.002992 -0.004427 0.000000 0.000000 0.000000
# 2 -0.002992 0.012097 0.001703 0.000000 0.000000 0.000000
# 3 -0.004427 0.001703 0.013696 0.000000 0.000000 0.000000
# 4 0.000000 0.000000 0.000000 0.032681 0.000000 0.000000
# 5 0.000000 0.000000 0.000000 0.000000 -0.092044 0.000000
# 6 0.000000 0.000000 0.000000 0.000000 0.000000 0.027045
#
#
# Mechanical properties :
#
#
# Convention : Reuss Voigt Hill
#
# Bulk Modulus (GPa) = 39.47805 43.06103 41.26954
# Shear Modulus (GPa) = 205.59878 26.78288 116.19083
#
# Velocity S-wave (km/s) = 10.14589 3.66192 7.62721
# Velocity P-wave (km/s) = 12.53068 6.28007 9.91104
#
# Compressibility (1/GPa) = 0.02533053
#
# Stress axis : x y z
#
# Youngs Moduli (GPa) = 91.16513 82.66607 73.01169
#
# Poissons Ratio (x) = 0.24731 0.32326
# Poissons Ratio (y) = 0.27274 -0.12436
# Poissons Ratio (z) = 0.40363 -0.14080
#
# Static dielectric constant tensor:
#      x y z
#    x 1.711620 0.000000 0.000000 
#    y 0.000000 1.662900 0.000000 
#    z 0.000000 0.000000 1.705740 
# 
# From -- ./inp_files/9633.got.cif
#   From: 2010.05.17/outbox.cif.g08.bks.cpg/sg39_5_cif.got.tgz:9633.got - 2010.06.03 18:22:40.
