data_PCOD9360703
_publ_section_title
;
Structure prediction by ZEFSAII (Michael W. Deem and Ramdas Pophale) SiO2 
 PCOD9360703
Probable space group: A B M 2
;
_chemical_formula_sum "Si O2"
_cell_formula_units_Z 60
_cell_length_a 14.005487
_cell_length_b 27.567770
_cell_length_c 8.785728
_cell_angle_alpha 90.000000
_cell_angle_beta 90.000000
_cell_angle_gamma 90.000000
_cell_volume 3392.169970
_symmetry_space_group_name_H-M "A B M 2"
_symmetry_group_IT_number 39
_symmetry_cell_setting 'orthorhombic'
loop_
_space_group_symop_operation_xyz
x,y,z
-x,-y,z
-x,1/2+y,z
x,1/2-y,z
x,1/2+y,1/2+z
-x,1/2-y,1/2+z
-x,y,1/2+z
x,-y,1/2+z
loop_
_atom_site_type_symbol
_atom_site_label
_atom_site_fract_x
_atom_site_fract_y
_atom_site_fract_z
Si Si1 0.871224 0.956354 0.376760
Si Si2 0.281649 0.098509 0.237863
Si Si3 0.613417 0.097700 0.258578
Si Si4 0.552214 0.942523 0.448211
Si Si5 0.000000 0.500000 0.116494
Si Si6 0.415006 0.304943 0.600173
Si Si7 0.625257 0.695355 0.237280
Si Si8 0.302062 0.027860 0.950256
O O1 0.818339 0.907504 0.325440
O O2 0.920530 0.977726 0.226339
O O3 0.783658 0.990338 0.431733
O O4 0.950781 0.960009 0.507419
O O5 0.365332 0.084914 0.354564
O O6 0.304192 0.152820 0.186750
O O7 0.290891 0.058413 0.104573
O O8 0.540374 0.088956 0.397018
O O9 0.631347 0.151293 0.196919
O O10 0.703168 0.066335 0.312272
O O11 0.561687 0.068174 0.125300
O O12 0.595893 0.998249 0.436848
O O13 0.385835 0.250000 0.644430
O O14 0.397689 0.309449 0.418955
O O15 0.526714 0.309520 0.643844
O O16 0.661494 0.750000 0.213575
#
# Coordination Sequence:
#
# PCOD9360703 Si02
#       8
#     8   8   8   8   4   8   8   8
#     4  10  21  37  57  83 109 138 168 211 261 329
#     4  11  20  36  54  77 107 140 181 223 270 312
#     4  12  21  34  49  70 101 150 185 225 266 308
#     4  11  22  34  47  69 103 147 187 214 260 315
#     4  10  20  38  60  80 110 138 166 204 266 338
#     4  10  20  35  51  71  97 140 196 239 269 301
#     4  10  21  36  53  72 102 143 192 241 276 308
#     4  11  24  34  49  75 112 140 176 219 255 317
#
# _framework density 17.687792000000002
#
# number of rings (size 3 to 8) (size 9 to 14) (size 15 to 20)
#    0.000    1.333    4.000    2.800    3.733    1.067 
#    0.000    0.000    0.000    0.000    0.000    0.933 
#    0.000    0.000    0.000    0.000    0.000    0.000 
#
# Total GULP energy -167132.395040 kJ/mol
# GULP energy per Si atom -5571.079835 kJ/mol
# Density = 1.764753 g / cm^3
# Si number density = 17.687792 Si / 1000 Ang^3
#
#
#
# Elastic Constant Matrix: (Units=GPa)
#
#
# Indices 1 2 3 4 5 6 
#
# 1 31.0113 8.4656 1.5103 0.0000 0.0000 0.0000
# 2 8.4656 112.4826 3.7812 0.0000 0.0000 0.0000
# 3 1.5103 3.7812 50.1686 0.0000 0.0000 0.0000
# 4 0.0000 0.0000 0.0000 23.5718 0.0000 0.0000
# 5 0.0000 0.0000 0.0000 0.0000 21.8594 0.0000
# 6 0.0000 0.0000 0.0000 0.0000 0.0000 20.0165
#
#
#
# Elastic Compliance Matrix: (Units=1/GPa)
#
#
# Indices 1 2 3 4 5 6 
#
# 1 0.032955 -0.002453 -0.000807 0.000000 0.000000 0.000000
# 2 -0.002453 0.009095 -0.000612 0.000000 0.000000 0.000000
# 3 -0.000807 -0.000612 0.020003 0.000000 0.000000 0.000000
# 4 0.000000 0.000000 0.000000 0.042424 0.000000 0.000000
# 5 0.000000 0.000000 0.000000 0.000000 0.045747 0.000000
# 6 0.000000 0.000000 0.000000 0.000000 0.000000 0.049959
#
#
# Mechanical properties :
#
#
# Convention : Reuss Voigt Hill
#
# Bulk Modulus (GPa) = 18.41283 24.57520 21.49401
# Shear Modulus (GPa) = 22.12091 25.08324 23.60208
#
# Velocity S-wave (km/s) = 3.54026 3.76987 3.65687
# Velocity P-wave (km/s) = 5.20997 5.73352 5.47800
#
# Compressibility (1/GPa) = 0.05430997
#
# Stress axis : x y z
#
# Youngs Moduli (GPa) = 30.34409 109.94508 49.99204
#
# Poissons Ratio (x) = 0.26971 0.04035
# Poissons Ratio (y) = 0.07444 0.03058
# Poissons Ratio (z) = 0.02449 0.06725
#
# Static dielectric constant tensor:
#      x y z
#    x 1.631190 0.000000 0.000000 
#    y 0.000000 1.690240 0.000000 
#    z 0.000000 0.000000 1.643570 
# 
# From -- ./inp_files/3552.got.cif
#   From: 2010.05.17/outbox.cif.g08.bks.cpg/sg39_2_cif.got.tgz:3552.got - 2010.06.03 18:22:40.
