data_PCOD9360657
_publ_section_title
;
Structure prediction by ZEFSAII (Michael W. Deem and Ramdas Pophale) SiO2 
 PCOD9360657
Probable space group: A B M 2
;
_chemical_formula_sum "Si O2"
_cell_formula_units_Z 56
_cell_length_a 13.862429
_cell_length_b 7.533838
_cell_length_c 22.497117
_cell_angle_alpha 90.000000
_cell_angle_beta 90.000000
_cell_angle_gamma 90.000000
_cell_volume 2349.538031
_symmetry_space_group_name_H-M "A B M 2"
_symmetry_group_IT_number 39
_symmetry_cell_setting 'orthorhombic'
loop_
_space_group_symop_operation_xyz
x,y,z
-x,-y,z
-x,1/2+y,z
x,1/2-y,z
x,1/2+y,1/2+z
-x,1/2-y,1/2+z
-x,y,1/2+z
x,-y,1/2+z
loop_
_atom_site_type_symbol
_atom_site_label
_atom_site_fract_x
_atom_site_fract_y
_atom_site_fract_z
Si Si1 0.712434 0.958488 0.485570
Si Si2 0.386110 0.539339 0.361959
Si Si3 0.887684 0.036565 0.918775
Si Si4 0.886590 0.037922 0.658696
Si Si5 0.114660 0.538136 0.789595
Si Si6 0.692788 0.547031 0.609947
Si Si7 0.614079 0.462886 0.233264
O O1 0.723707 0.750000 0.498986
O O2 0.817521 0.033977 0.469362
O O3 0.666617 0.033985 0.545907
O O4 0.655782 0.969755 0.423684
O O5 0.500000 0.500000 0.361963
O O6 0.372114 0.750000 0.362711
O O7 0.348405 0.469014 0.297654
O O8 0.877694 0.250000 0.916748
O O9 0.853092 0.968111 0.853818
O O10 0.000000 0.000000 0.927496
O O11 0.876246 0.250000 0.657599
O O12 0.856087 0.969053 0.724863
O O13 0.809304 0.957849 0.613858
O O14 0.000000 0.000000 0.649022
O O15 0.128729 0.750000 0.788781
O O16 0.000000 0.500000 0.790789
O O17 0.656656 0.750000 0.612058
O O18 0.656836 0.463478 0.671772
O O19 0.500000 0.500000 0.231916
O O20 0.628927 0.250000 0.234710
#
# Coordination Sequence:
#
# PCOD9360657 Si02
#       7
#     8   8   8   8   8   8   8
#     4  10  22  38  57  83 118 156 190 234 285 336
#     4  10  21  39  63  89 114 145 185 233 286 342
#     4   9  18  33  52  76 108 147 189 233 281 329
#     4  10  20  34  54  80 111 152 196 240 287 336
#     4   8  15  28  46  71  99 130 176 228 276 324
#     4  10  22  39  56  82 119 155 192 233 283 338
#     4   9  20  39  62  87 114 145 185 233 285 341
#
# _framework density 23.834472999999999
#
# number of rings (size 3 to 8) (size 9 to 14) (size 15 to 20)
#    0.000    2.571    0.000    0.857    2.000    4.000 
#    0.000    2.857    0.000    0.000    0.000    0.000 
#    0.000    0.000    0.000    0.000    0.000    0.000 
#
# Total GULP energy -156250.400609 kJ/mol
# GULP energy per Si atom -5580.371450 kJ/mol
# Density = 2.378022 g / cm^3
# Si number density = 23.834473 Si / 1000 Ang^3
#
#
#
# Elastic Constant Matrix: (Units=GPa)
#
#
# Indices 1 2 3 4 5 6 
#
# 1 63.4261 -10.8432 53.0141 0.0000 0.0000 0.0000
# 2 -10.8432 82.0790 3.7351 0.0000 0.0000 0.0000
# 3 53.0141 3.7351 218.8150 0.0000 0.0000 0.0000
# 4 0.0000 0.0000 0.0000 4.1899 0.0000 0.0000
# 5 0.0000 0.0000 0.0000 0.0000 22.3061 0.0000
# 6 0.0000 0.0000 0.0000 0.0000 0.0000 22.4434
#
#
#
# Elastic Compliance Matrix: (Units=1/GPa)
#
#
# Indices 1 2 3 4 5 6 
#
# 1 0.020450 0.002929 -0.005005 0.000000 0.000000 0.000000
# 2 0.002929 0.012612 -0.000925 0.000000 0.000000 0.000000
# 3 -0.005005 -0.000925 0.005798 0.000000 0.000000 0.000000
# 4 0.000000 0.000000 0.000000 0.238672 0.000000 0.000000
# 5 0.000000 0.000000 0.000000 0.000000 0.044831 0.000000
# 6 0.000000 0.000000 0.000000 0.000000 0.000000 0.044557
#
#
# Mechanical properties :
#
#
# Convention : Reuss Voigt Hill
#
# Bulk Modulus (GPa) = 30.43164 50.68134 40.55649
# Shear Modulus (GPa) = 13.02511 31.01548 22.02029
#
# Velocity S-wave (km/s) = 2.34023 3.61125 3.04284
# Velocity P-wave (km/s) = 4.48306 6.22079 5.42200
#
# Compressibility (1/GPa) = 0.03286054
#
# Stress axis : x y z
#
# Youngs Moduli (GPa) = 48.89905 79.28658 172.46194
#
# Poissons Ratio (x) = -0.23226 0.86311
# Poissons Ratio (y) = -0.14324 0.15953
# Poissons Ratio (z) = 0.24472 0.07334
#
# Static dielectric constant tensor:
#      x y z
#    x 1.877690 0.000000 0.000000 
#    y 0.000000 1.659320 0.000000 
#    z 0.000000 0.000000 1.997110 
# 
# From -- ./inp_files/14740.got.cif
#   From: 2010.05.17/outbox.cif.g08.bks.cpg/sg39_8_cif.got.tgz:14740.got - 2010.06.03 18:22:40.
