data_PCOD9360746
_publ_section_title
;
Structure prediction by ZEFSAII (Michael W. Deem and Ramdas Pophale) SiO2 
 PCOD9360746
Probable space group: A B M 2
;
_chemical_formula_sum "Si O2"
_cell_formula_units_Z 64
_cell_length_a 14.412590
_cell_length_b 8.486033
_cell_length_c 26.825751
_cell_angle_alpha 90.000000
_cell_angle_beta 90.000000
_cell_angle_gamma 90.000000
_cell_volume 3280.942639
_symmetry_space_group_name_H-M "A B M 2"
_symmetry_group_IT_number 39
_symmetry_cell_setting 'orthorhombic'
loop_
_space_group_symop_operation_xyz
x,y,z
-x,-y,z
-x,1/2+y,z
x,1/2-y,z
x,1/2+y,1/2+z
-x,1/2-y,1/2+z
-x,y,1/2+z
x,-y,1/2+z
loop_
_atom_site_type_symbol
_atom_site_label
_atom_site_fract_x
_atom_site_fract_y
_atom_site_fract_z
Si Si1 0.791482 0.559201 0.978340
Si Si2 0.104883 0.059360 0.078386
Si Si3 0.394323 0.060053 0.826968
Si Si4 0.604963 0.060728 0.216956
Si Si5 0.894367 0.562120 0.774040
Si Si6 0.213444 0.561337 0.677449
Si Si7 0.604193 0.060020 0.436645
Si Si8 0.105692 0.562021 0.880061
O O1 0.794606 0.750000 0.977175
O O2 0.683419 0.511147 0.975273
O O3 0.841522 0.498365 0.928692
O O4 0.843595 0.505513 0.028053
O O5 0.103956 0.250000 0.078017
O O6 0.160112 0.008310 0.127725
O O7 0.000000 0.000000 0.079506
O O8 0.390534 0.250000 0.826771
O O9 0.360014 0.008819 0.772578
O O10 0.360208 0.007685 0.881343
O O11 0.500000 0.000000 0.827095
O O12 0.603913 0.250000 0.215550
O O13 0.500000 0.000000 0.210011
O O14 0.680309 0.995041 0.178952
O O15 0.894798 0.750000 0.775464
O O16 0.838263 0.505029 0.726116
O O17 0.855915 0.501546 0.827209
O O18 0.000000 0.500000 0.769962
O O19 0.210808 0.750000 0.679465
O O20 0.599415 0.250000 0.436195
O O21 0.500000 0.000000 0.444986
O O22 0.105370 0.750000 0.878658
O O23 0.000000 0.500000 0.883182
#
# Coordination Sequence:
#
# PCOD9360746 Si02
#       8
#     8   8   8   8   8   8   8   8
#     4  10  21  38  60  86 117 157 198 243 297 352
#     4  10  23  42  64  87 115 152 198 249 302 356
#     4   8  15  28  47  74 106 145 185 227 276 332
#     4  10  20  35  56  84 118 157 201 244 296 354
#     4  11  22  38  59  85 118 154 192 239 299 366
#     4  11  23  39  59  86 118 154 200 250 302 361
#     4   9  18  33  54  80 115 153 193 237 285 339
#     4  11  22  37  57  86 119 154 191 237 295 358
#
# _framework density 19.506589999999999
#
# number of rings (size 3 to 8) (size 9 to 14) (size 15 to 20)
#    0.000    2.000    0.000    4.500    1.750    4.500 
#    0.000    0.625    0.000    1.500    0.000    0.000 
#    0.000    0.000    0.000    0.000    0.000    0.000 
#
# Total GULP energy -178640.337125 kJ/mol
# GULP energy per Si atom -5582.510535 kJ/mol
# Density = 1.946219 g / cm^3
# Si number density = 19.506590 Si / 1000 Ang^3
#
#
#
# Elastic Constant Matrix: (Units=GPa)
#
#
# Indices 1 2 3 4 5 6 
#
# 1 140.2251 28.6507 99.7126 0.0000 0.0000 0.0000
# 2 28.6507 52.8416 39.1194 0.0000 0.0000 0.0000
# 3 99.7126 39.1194 159.1099 0.0000 0.0000 0.0000
# 4 0.0000 0.0000 0.0000 20.4715 0.0000 0.0000
# 5 0.0000 0.0000 0.0000 0.0000 38.6441 0.0000
# 6 0.0000 0.0000 0.0000 0.0000 0.0000 26.7761
#
#
#
# Elastic Compliance Matrix: (Units=1/GPa)
#
#
# Indices 1 2 3 4 5 6 
#
# 1 0.012930 -0.001237 -0.007799 0.000000 0.000000 0.000000
# 2 -0.001237 0.023254 -0.004942 0.000000 0.000000 0.000000
# 3 -0.007799 -0.004942 0.012388 0.000000 0.000000 0.000000
# 4 0.000000 0.000000 0.000000 0.048848 0.000000 0.000000
# 5 0.000000 0.000000 0.000000 0.000000 0.025877 0.000000
# 6 0.000000 0.000000 0.000000 0.000000 0.000000 0.037347
#
#
# Mechanical properties :
#
#
# Convention : Reuss Voigt Hill
#
# Bulk Modulus (GPa) = 48.50745 76.34910 62.42827
# Shear Modulus (GPa) = 25.57921 29.49126 27.53524
#
# Velocity S-wave (km/s) = 3.62513 3.89248 3.76118
# Velocity P-wave (km/s) = 6.51485 7.70889 7.13689
#
# Compressibility (1/GPa) = 0.02061539
#
# Stress axis : x y z
#
# Youngs Moduli (GPa) = 77.34064 43.00359 80.72634
#
# Poissons Ratio (x) = 0.05319 0.62957
# Poissons Ratio (y) = 0.09566 0.39896
# Poissons Ratio (z) = 0.60317 0.21253
#
# Static dielectric constant tensor:
#      x y z
#    x 1.683750 0.000000 0.000000 
#    y 0.000000 1.673810 0.000000 
#    z 0.000000 0.000000 1.694090 
# 
# From -- ./inp_files/16247.got.cif
#   From: 2010.05.17/outbox.cif.g08.bks.cpg/sg39_9_cif.got.tgz:16247.got - 2010.06.03 18:22:40.
