data_PCOD9360428
_publ_section_title
;
Structure prediction by ZEFSAII (Michael W. Deem and Ramdas Pophale) SiO2 
 PCOD9360428
Probable space group: A B M 2
;
_chemical_formula_sum "Si O2"
_cell_formula_units_Z 64
_cell_length_a 18.414684
_cell_length_b 13.685962
_cell_length_c 11.272222
_cell_angle_alpha 90.000000
_cell_angle_beta 90.000000
_cell_angle_gamma 90.000000
_cell_volume 2840.855434
_symmetry_space_group_name_H-M "A B M 2"
_symmetry_group_IT_number 39
_symmetry_cell_setting 'orthorhombic'
loop_
_space_group_symop_operation_xyz
x,y,z
-x,-y,z
-x,1/2+y,z
x,1/2-y,z
x,1/2+y,1/2+z
-x,1/2-y,1/2+z
-x,y,1/2+z
x,-y,1/2+z
loop_
_atom_site_type_symbol
_atom_site_label
_atom_site_fract_x
_atom_site_fract_y
_atom_site_fract_z
Si Si1 0.450013 0.134023 0.607740
Si Si2 0.190487 0.428827 0.715515
Si Si3 0.707760 0.136660 0.015955
Si Si4 0.964954 0.891646 0.023308
Si Si5 0.465145 0.132585 0.872277
Si Si6 0.807163 0.635064 0.111246
Si Si7 0.026094 0.611906 0.266606
Si Si8 0.698474 0.567522 0.917400
O O1 0.461873 0.250000 0.607768
O O2 0.363383 0.119041 0.598448
O O3 0.479953 0.100417 0.735792
O O4 0.484316 0.100318 0.482496
O O5 0.220466 0.387298 0.591366
O O6 0.186150 0.547594 0.707188
O O7 0.111905 0.387800 0.744633
O O8 0.249147 0.398405 0.812604
O O9 0.706226 0.250000 0.976787
O O10 0.701107 0.050706 0.920425
O O11 0.877566 0.886466 0.028332
O O12 0.989917 0.849721 0.897734
O O13 0.000000 0.000000 0.025994
O O14 0.988913 0.848349 0.148864
O O15 0.469386 0.250000 0.869808
O O16 0.383100 0.102324 0.901782
O O17 0.807901 0.750000 0.146352
O O18 0.734528 0.609950 0.037307
O O19 0.000000 0.500000 0.272784
#
# Coordination Sequence:
#
# PCOD9360428 Si02
#       8
#     8   8   8   8   8   8   8   8
#     4   9  19  39  66  97 137 177 219 279 339 401
#     4  11  21  41  67  93 128 180 223 279 343 401
#     4  10  23  42  64  96 133 173 225 281 338 404
#     4  10  19  37  64  88 123 174 215 274 332 404
#     4  10  20  40  69 103 137 178 227 281 340 406
#     4  11  23  40  63  98 135 170 222 285 345 407
#     4  10  19  35  67  90 124 171 221 271 333 401
#     4  11  23  40  69  96 129 179 225 279 336 412
#
# _framework density 22.528426
#
# number of rings (size 3 to 8) (size 9 to 14) (size 15 to 20)
#    0.000    1.750    5.000    0.375    0.000    1.500 
#    4.500    2.500    0.000    0.000    0.000    0.000 
#    0.000    0.000    0.000    0.000    0.000    0.000 
#
# Total GULP energy -178509.025620 kJ/mol
# GULP energy per Si atom -5578.407051 kJ/mol
# Density = 2.247715 g / cm^3
# Si number density = 22.528426 Si / 1000 Ang^3
#
#
#
# Elastic Constant Matrix: (Units=GPa)
#
#
# Indices 1 2 3 4 5 6 
#
# 1 77.5074 2.4950 26.1096 0.0000 0.0000 0.0000
# 2 2.4950 117.9470 -7.9196 0.0000 0.0000 0.0000
# 3 26.1096 -7.9196 137.5161 0.0000 0.0000 0.0000
# 4 0.0000 0.0000 0.0000 -25.3687 0.0000 0.0000
# 5 0.0000 0.0000 0.0000 0.0000 31.5149 0.0000
# 6 0.0000 0.0000 0.0000 0.0000 0.0000 291.4154
#
#
#
# Elastic Compliance Matrix: (Units=1/GPa)
#
#
# Indices 1 2 3 4 5 6 
#
# 1 0.013809 -0.000470 -0.002649 0.000000 0.000000 0.000000
# 2 -0.000470 0.008527 0.000580 0.000000 0.000000 0.000000
# 3 -0.002649 0.000580 0.007808 0.000000 0.000000 0.000000
# 4 0.000000 0.000000 0.000000 -0.039419 0.000000 0.000000
# 5 0.000000 0.000000 0.000000 0.000000 0.031731 0.000000
# 6 0.000000 0.000000 0.000000 0.000000 0.000000 0.003432
#
#
# Mechanical properties :
#
#
# Convention : Reuss Voigt Hill
#
# Bulk Modulus (GPa) = 39.89202 41.59338 40.74270
# Shear Modulus (GPa) = 127.15477 80.33136 103.74307
#
# Velocity S-wave (km/s) = 7.52093 5.97789 6.79337
# Velocity P-wave (km/s) = 9.65221 8.13324 8.92510
#
# Compressibility (1/GPa) = 0.02506767
#
# Stress axis : x y z
#
# Youngs Moduli (GPa) = 72.41403 117.27055 128.06962
#
# Poissons Ratio (x) = 0.05512 0.33926
# Poissons Ratio (y) = 0.03403 -0.07432
# Poissons Ratio (z) = 0.19183 -0.06806
#
# Static dielectric constant tensor:
#      x y z
#    x 1.946000 0.000000 0.000000 
#    y 0.000000 1.831840 0.000000 
#    z 0.000000 0.000000 1.882070 
# 
# From -- ./inp_files/6894.got.cif
#   From: 2010.05.17/outbox.cif.g08.bks.cpg/sg39_4_cif.got.tgz:6894.got - 2010.06.03 18:22:40.
