data_PCOD9360588
_publ_section_title
;
Structure prediction by ZEFSAII (Michael W. Deem and Ramdas Pophale) SiO2 
 PCOD9360588
Probable space group: A B M 2
;
_chemical_formula_sum "Si O2"
_cell_formula_units_Z 60
_cell_length_a 11.809620
_cell_length_b 29.595901
_cell_length_c 8.629698
_cell_angle_alpha 90.000000
_cell_angle_beta 90.000000
_cell_angle_gamma 90.000000
_cell_volume 3016.220498
_symmetry_space_group_name_H-M "A B M 2"
_symmetry_group_IT_number 39
_symmetry_cell_setting 'orthorhombic'
loop_
_space_group_symop_operation_xyz
x,y,z
-x,-y,z
-x,1/2+y,z
x,1/2-y,z
x,1/2+y,1/2+z
-x,1/2-y,1/2+z
-x,y,1/2+z
x,-y,1/2+z
loop_
_atom_site_type_symbol
_atom_site_label
_atom_site_fract_x
_atom_site_fract_y
_atom_site_fract_z
Si Si1 0.845078 0.133580 0.135580
Si Si2 0.050936 0.336759 0.922920
Si Si3 0.356694 0.196880 0.718707
Si Si4 0.487099 0.852164 0.480903
Si Si5 0.722055 0.614439 0.354991
Si Si6 0.500000 0.000000 0.399971
Si Si7 0.387992 0.558569 0.641046
Si Si8 0.856469 0.300024 0.722323
O O1 0.884452 0.127531 0.312751
O O2 0.761070 0.176853 0.152471
O O3 0.770988 0.101231 0.024428
O O4 0.958366 0.140903 0.035899
O O5 0.978924 0.304954 0.806727
O O6 0.129292 0.308743 0.039320
O O7 0.349702 0.250000 0.740508
O O8 0.456501 0.183354 0.599001
O O9 0.392514 0.170881 0.874837
O O10 0.593835 0.869636 0.381864
O O11 0.438863 0.896312 0.565054
O O12 0.726031 0.575633 0.225086
O O13 0.785873 0.658752 0.292711
O O14 0.401399 0.979993 0.510560
O O15 0.541381 0.960963 0.285798
O O16 0.810432 0.250000 0.752810
#
# Coordination Sequence:
#
# PCOD9360588 Si02
#       8
#     8   8   8   8   8   4   8   8
#     4   9  21  36  55  77 109 153 199 254 289 337
#     4   9  19  37  53  75 110 153 209 261 302 323
#     4  11  23  35  51  79 113 168 217 239 277 342
#     4  11  21  38  54  74 122 160 191 245 286 333
#     4  10  21  36  55  81 119 153 194 240 292 346
#     4  10  22  36  68  82 112 150 194 232 300 388
#     4  11  20  40  57  89 110 154 184 237 300 353
#     4  10  20  33  54  80 114 161 208 253 295 337
#
# _framework density 19.892446
#
# number of rings (size 3 to 8) (size 9 to 14) (size 15 to 20)
#    0.000    1.867    2.667    0.800    1.867    8.000 
#    0.000    0.000    0.000    0.000    0.000    0.000 
#    0.000   51.200    0.000    0.000    0.000    0.000 
#
# Total GULP energy -167085.828686 kJ/mol
# GULP energy per Si atom -5569.527623 kJ/mol
# Density = 1.984717 g / cm^3
# Si number density = 19.892446 Si / 1000 Ang^3
#
#
#
# Elastic Constant Matrix: (Units=GPa)
#
#
# Indices 1 2 3 4 5 6 
#
# 1 40.9788 15.0474 22.7993 0.0000 0.0000 0.0000
# 2 15.0474 66.6130 36.4714 0.0000 0.0000 0.0000
# 3 22.7993 36.4714 125.9955 0.0000 0.0000 0.0000
# 4 0.0000 0.0000 0.0000 24.5888 0.0000 0.0000
# 5 0.0000 0.0000 0.0000 0.0000 35.8998 0.0000
# 6 0.0000 0.0000 0.0000 0.0000 0.0000 12.1912
#
#
#
# Elastic Compliance Matrix: (Units=1/GPa)
#
#
# Indices 1 2 3 4 5 6 
#
# 1 0.028106 -0.004236 -0.003860 0.000000 0.000000 0.000000
# 2 -0.004236 0.018478 -0.004582 0.000000 0.000000 0.000000
# 3 -0.003860 -0.004582 0.009962 0.000000 0.000000 0.000000
# 4 0.000000 0.000000 0.000000 0.040669 0.000000 0.000000
# 5 0.000000 0.000000 0.000000 0.000000 0.027855 0.000000
# 6 0.000000 0.000000 0.000000 0.000000 0.000000 0.082026
#
#
# Mechanical properties :
#
#
# Convention : Reuss Voigt Hill
#
# Bulk Modulus (GPa) = 32.06179 42.46928 37.26554
# Shear Modulus (GPa) = 20.58910 25.15391 22.87150
#
# Velocity S-wave (km/s) = 3.22066 3.55983 3.39449
# Velocity P-wave (km/s) = 5.47566 6.18808 5.84274
#
# Compressibility (1/GPa) = 0.03118977
#
# Stress axis : x y z
#
# Youngs Moduli (GPa) = 35.58013 54.11928 100.38537
#
# Poissons Ratio (x) = 0.22923 0.38746
# Poissons Ratio (y) = 0.15070 0.45999
# Poissons Ratio (z) = 0.13733 0.24799
#
# Static dielectric constant tensor:
#      x y z
#    x 1.742490 0.000000 0.000000 
#    y 0.000000 1.708100 0.000000 
#    z 0.000000 0.000000 1.796070 
# 
# From -- ./inp_files/2839.got.cif
#   From: 2010.05.17/outbox.cif.g08.bks.cpg/sg39_2_cif.got.tgz:2839.got - 2010.06.03 18:22:40.
