data_PCOD9360696
_publ_section_title
;
Structure prediction by ZEFSAII (Michael W. Deem and Ramdas Pophale) SiO2 
 PCOD9360696
Probable space group: A B M 2
;
_chemical_formula_sum "Si O2"
_cell_formula_units_Z 56
_cell_length_a 14.434235
_cell_length_b 22.808710
_cell_length_c 8.543227
_cell_angle_alpha 90.000000
_cell_angle_beta 90.000000
_cell_angle_gamma 90.000000
_cell_volume 2812.654846
_symmetry_space_group_name_H-M "A B M 2"
_symmetry_group_IT_number 39
_symmetry_cell_setting 'orthorhombic'
loop_
_space_group_symop_operation_xyz
x,y,z
-x,-y,z
-x,1/2+y,z
x,1/2-y,z
x,1/2+y,1/2+z
-x,1/2-y,1/2+z
-x,y,1/2+z
x,-y,1/2+z
loop_
_atom_site_type_symbol
_atom_site_label
_atom_site_fract_x
_atom_site_fract_y
_atom_site_fract_z
Si Si1 0.457492 0.121459 0.019030
Si Si2 0.235983 0.133036 0.560733
Si Si3 0.887095 0.456656 0.470062
Si Si4 0.692314 0.550049 0.833363
Si Si5 0.942941 0.078728 0.121737
Si Si6 0.517697 0.250000 0.394433
Si Si7 0.648640 0.750000 0.591929
Si Si8 0.369072 0.083289 0.341374
O O1 0.421555 0.109676 0.192659
O O2 0.390094 0.087883 0.901972
O O3 0.453633 0.189726 0.977625
O O4 0.559461 0.095374 0.984746
O O5 0.268744 0.080859 0.677815
O O6 0.124996 0.131912 0.577530
O O7 0.287387 0.192796 0.607035
O O8 0.274668 0.115420 0.390840
O O9 0.777320 0.449219 0.457067
O O10 0.926044 0.440448 0.299406
O O11 0.907829 0.523548 0.517477
O O12 0.947926 0.417124 0.587416
O O13 0.655250 0.484326 0.812017
O O14 0.406153 0.250000 0.424860
O O15 0.568508 0.250000 0.225962
#
# Coordination Sequence:
#
# PCOD9360696 Si02
#       8
#     8   8   8   8   8   4   4   8
#     4  12  25  39  62  85 125 168 211 263 304 367
#     4  11  23  40  64  92 123 167 207 255 313 370
#     4  10  20  34  60  86 128 153 197 247 307 383
#     4  11  23  40  59  92 126 166 199 256 319 378
#     4  10  20  36  61  93 122 161 199 249 316 373
#     4  12  24  44  64  85 117 168 226 255 305 355
#     4  12  24  44  66  83 127 166 222 263 299 365
#     4  12  24  40  59  88 127 165 207 255 317 381
#
# _framework density 19.910015999999999
#
# number of rings (size 3 to 8) (size 9 to 14) (size 15 to 20)
#    0.000    0.857    4.286    4.714    2.000    2.286 
#    0.000    0.000    0.000    4.286    0.000    0.000 
#    0.000    0.000    0.000    0.000    0.000    0.000 
#
# Total GULP energy -156421.593903 kJ/mol
# GULP energy per Si atom -5586.485497 kJ/mol
# Density = 1.986470 g / cm^3
# Si number density = 19.910016 Si / 1000 Ang^3
#
#
#
# Elastic Constant Matrix: (Units=GPa)
#
#
# Indices 1 2 3 4 5 6 
#
# 1 73.2909 29.9352 2.1055 0.0000 0.0000 0.0000
# 2 29.9352 123.8554 19.1977 0.0000 0.0000 0.0000
# 3 2.1055 19.1977 54.9182 0.0000 0.0000 0.0000
# 4 0.0000 0.0000 0.0000 11.1238 0.0000 0.0000
# 5 0.0000 0.0000 0.0000 0.0000 33.0062 0.0000
# 6 0.0000 0.0000 0.0000 0.0000 0.0000 18.7786
#
#
#
# Elastic Compliance Matrix: (Units=1/GPa)
#
#
# Indices 1 2 3 4 5 6 
#
# 1 0.015167 -0.003781 0.000740 0.000000 0.000000 0.000000
# 2 -0.003781 0.009479 -0.003169 0.000000 0.000000 0.000000
# 3 0.000740 -0.003169 0.019288 0.000000 0.000000 0.000000
# 4 0.000000 0.000000 0.000000 0.089898 0.000000 0.000000
# 5 0.000000 0.000000 0.000000 0.000000 0.030297 0.000000
# 6 0.000000 0.000000 0.000000 0.000000 0.000000 0.053252
#
#
# Mechanical properties :
#
#
# Convention : Reuss Voigt Hill
#
# Bulk Modulus (GPa) = 31.72985 39.39346 35.56165
# Shear Modulus (GPa) = 20.80693 25.97011 23.38852
#
# Velocity S-wave (km/s) = 3.23623 3.61553 3.43112
# Velocity P-wave (km/s) = 5.47133 6.10394 5.79627
#
# Compressibility (1/GPa) = 0.03151607
#
# Stress axis : x y z
#
# Youngs Moduli (GPa) = 65.93202 105.49863 51.84529
#
# Poissons Ratio (x) = 0.39884 -0.03837
# Poissons Ratio (y) = 0.24926 0.16427
# Poissons Ratio (z) = -0.04879 0.33428
#
# Static dielectric constant tensor:
#      x y z
#    x 1.763590 0.000000 0.000000 
#    y 0.000000 1.682450 0.000000 
#    z 0.000000 0.000000 1.760220 
# 
# From -- ./inp_files/3428.got.cif
#   From: 2010.05.17/outbox.cif.g08.bks.cpg/sg39_2_cif.got.tgz:3428.got - 2010.06.03 18:22:40.
