data_PCOD9360704
_publ_section_title
;
Structure prediction by ZEFSAII (Michael W. Deem and Ramdas Pophale) SiO2 
 PCOD9360704
Probable space group: A B M 2
;
_chemical_formula_sum "Si O2"
_cell_formula_units_Z 48
_cell_length_a 13.525612
_cell_length_b 8.659554
_cell_length_c 23.517648
_cell_angle_alpha 90.000000
_cell_angle_beta 90.000000
_cell_angle_gamma 90.000000
_cell_volume 2754.522572
_symmetry_space_group_name_H-M "A B M 2"
_symmetry_group_IT_number 39
_symmetry_cell_setting 'orthorhombic'
loop_
_space_group_symop_operation_xyz
x,y,z
-x,-y,z
-x,1/2+y,z
x,1/2-y,z
x,1/2+y,1/2+z
-x,1/2-y,1/2+z
-x,y,1/2+z
x,-y,1/2+z
loop_
_atom_site_type_symbol
_atom_site_label
_atom_site_fract_x
_atom_site_fract_y
_atom_site_fract_z
Si Si1 0.892074 0.935605 0.318860
Si Si2 0.610087 0.565073 0.506062
Si Si3 0.908528 0.918458 0.011732
Si Si4 0.770661 0.062053 0.418017
Si Si5 0.262339 0.575602 0.604101
Si Si6 0.107764 0.064577 0.691106
O O1 0.894466 0.750000 0.319690
O O2 0.800869 0.998878 0.356634
O O3 0.880318 0.997819 0.254640
O O4 0.000000 0.000000 0.338350
O O5 0.500000 0.500000 0.500317
O O6 0.612342 0.750000 0.503600
O O7 0.676561 0.498558 0.453723
O O8 0.653228 0.510721 0.567680
O O9 0.942805 0.750000 0.994346
O O10 0.821247 0.908513 0.055920
O O11 0.863241 0.995505 0.956364
O O12 0.000000 0.000000 0.038724
O O13 0.767390 0.250000 0.418262
O O14 0.293046 0.750000 0.621070
O O15 0.202185 0.490060 0.653964
O O16 0.102543 0.250000 0.691467
O O17 0.000000 0.000000 0.671174
#
# Coordination Sequence:
#
# PCOD9360704 Si02
#       6
#     8   8   8   8   8   8
#     4  11  21  34  52  77 109 148 186 222 261 310
#     4  11  22  38  59  83 107 137 174 219 272 324
#     4   9  18  28  43  67  99 133 165 203 252 304
#     4  10  20  35  52  75 105 138 175 219 265 316
#     4  10  20  35  52  75 105 138 175 219 265 316
#     4  11  21  34  52  77 109 148 186 222 261 310
#
# _framework density 17.425888
#
# number of rings (size 3 to 8) (size 9 to 14) (size 15 to 20)
#    0.000    1.667    0.000    8.500    0.000    6.667 
#    0.000    0.000    0.000    1.000    0.000    7.000 
#    0.000    0.000    0.000    0.000    0.000    0.000 
#
# Total GULP energy -133683.147706 kJ/mol
# GULP energy per Si atom -5570.131154 kJ/mol
# Density = 1.738623 g / cm^3
# Si number density = 17.425888 Si / 1000 Ang^3
#
#
#
# Elastic Constant Matrix: (Units=GPa)
#
#
# Indices 1 2 3 4 5 6 
#
# 1 101.1454 60.1761 54.8245 0.0000 0.0000 0.0000
# 2 60.1761 153.5005 45.7324 0.0000 0.0000 0.0000
# 3 54.8245 45.7324 98.6330 0.0000 0.0000 0.0000
# 4 0.0000 0.0000 0.0000 27.7154 0.0000 0.0000
# 5 0.0000 0.0000 0.0000 0.0000 25.7065 0.0000
# 6 0.0000 0.0000 0.0000 0.0000 0.0000 25.2190
#
#
#
# Elastic Compliance Matrix: (Units=1/GPa)
#
#
# Indices 1 2 3 4 5 6 
#
# 1 0.016249 -0.004269 -0.007053 0.000000 0.000000 0.000000
# 2 -0.004269 0.008680 -0.001652 0.000000 0.000000 0.000000
# 3 -0.007053 -0.001652 0.014825 0.000000 0.000000 0.000000
# 4 0.000000 0.000000 0.000000 0.036081 0.000000 0.000000
# 5 0.000000 0.000000 0.000000 0.000000 0.038901 0.000000
# 6 0.000000 0.000000 0.000000 0.000000 0.000000 0.039653
#
#
# Mechanical properties :
#
#
# Convention : Reuss Voigt Hill
#
# Bulk Modulus (GPa) = 72.42553 74.97164 73.69859
# Shear Modulus (GPa) = 27.03602 28.56457 27.80030
#
# Velocity S-wave (km/s) = 3.94316 4.05310 3.99851
# Velocity P-wave (km/s) = 7.89833 8.06350 7.98134
#
# Compressibility (1/GPa) = 0.01380729
#
# Stress axis : x y z
#
# Youngs Moduli (GPa) = 61.54071 115.20323 67.45476
#
# Poissons Ratio (x) = 0.49180 0.47574
# Poissons Ratio (y) = 0.26271 0.11143
# Poissons Ratio (z) = 0.43403 0.19030
#
# Static dielectric constant tensor:
#      x y z
#    x 1.663240 0.000000 0.000000 
#    y 0.000000 1.619600 0.000000 
#    z 0.000000 0.000000 1.616630 
# 
# From -- ./inp_files/15843.got.cif
#   From: 2010.05.17/outbox.cif.g08.bks.cpg/sg39_8_cif.got.tgz:15843.got - 2010.06.03 18:22:40.
