data_PCOD9360765
_publ_section_title
;
Structure prediction by ZEFSAII (Michael W. Deem and Ramdas Pophale) SiO2 
 PCOD9360765
Probable space group: A B M 2
;
_chemical_formula_sum "Si O2"
_cell_formula_units_Z 48
_cell_length_a 11.738941
_cell_length_b 13.471221
_cell_length_c 17.478971
_cell_angle_alpha 90.000000
_cell_angle_beta 90.000000
_cell_angle_gamma 90.000000
_cell_volume 2764.087218
_symmetry_space_group_name_H-M "A B M 2"
_symmetry_group_IT_number 39
_symmetry_cell_setting 'orthorhombic'
loop_
_space_group_symop_operation_xyz
x,y,z
-x,-y,z
-x,1/2+y,z
x,1/2-y,z
x,1/2+y,1/2+z
-x,1/2-y,1/2+z
-x,y,1/2+z
x,-y,1/2+z
loop_
_atom_site_type_symbol
_atom_site_label
_atom_site_fract_x
_atom_site_fract_y
_atom_site_fract_z
Si Si1 0.456759 0.368452 0.934930
Si Si2 0.635065 0.970272 0.652721
Si Si3 0.280581 0.630393 0.307037
Si Si4 0.868817 0.026719 0.435166
Si Si5 0.264546 0.866385 0.559796
Si Si6 0.692149 0.368571 0.992596
O O1 0.468429 0.250000 0.939356
O O2 0.393769 0.388969 0.856865
O O3 0.373168 0.391130 0.005336
O O4 0.583560 0.406088 0.943604
O O5 0.690085 0.915967 0.725403
O O6 0.657678 0.899878 0.578882
O O7 0.500000 0.000000 0.660122
O O8 0.709531 0.068503 0.633881
O O9 0.261074 0.750000 0.303628
O O10 0.182953 0.577623 0.358571
O O11 0.841198 0.099889 0.507038
O O12 0.799098 0.928305 0.459948
O O13 0.000000 0.000000 0.426756
O O14 0.260511 0.750000 0.574732
O O15 0.707347 0.250000 0.988004
#
# Coordination Sequence:
#
# PCOD9360765 Si02
#       6
#     8   8   8   8   8   8
#     4   8  15  31  54  79 106 143 181 221 284 346
#     4  11  21  32  56  89 122 151 182 224 284 360
#     4  10  22  37  56  82 118 157 190 230 289 348
#     4  10  22  38  60  83 107 151 207 244 277 327
#     4   9  18  35  59  84 114 149 184 230 288 341
#     4  10  20  35  57  85 115 144 187 242 290 339
#
# _framework density 17.365587999999999
#
# number of rings (size 3 to 8) (size 9 to 14) (size 15 to 20)
#    0.000    2.333    1.667    2.000    2.333    2.000 
#    0.000    4.167    0.000    4.000    0.000    0.000 
#    0.000    0.000    0.000    0.000    0.000    0.000 
#
# Total GULP energy -133720.969104 kJ/mol
# GULP energy per Si atom -5571.707046 kJ/mol
# Density = 1.732606 g / cm^3
# Si number density = 17.365588 Si / 1000 Ang^3
#
#
#
# Elastic Constant Matrix: (Units=GPa)
#
#
# Indices 1 2 3 4 5 6 
#
# 1 134.6679 55.9698 63.6329 0.0000 0.0000 0.0000
# 2 55.9698 143.8730 62.3580 0.0000 0.0000 0.0000
# 3 63.6329 62.3580 106.6017 0.0000 0.0000 0.0000
# 4 0.0000 0.0000 0.0000 28.8907 0.0000 0.0000
# 5 0.0000 0.0000 0.0000 0.0000 7.6944 0.0000
# 6 0.0000 0.0000 0.0000 0.0000 0.0000 21.5518
#
#
#
# Elastic Compliance Matrix: (Units=1/GPa)
#
#
# Indices 1 2 3 4 5 6 
#
# 1 0.010705 -0.001869 -0.005297 0.000000 0.000000 0.000000
# 2 -0.001869 0.009638 -0.004522 0.000000 0.000000 0.000000
# 3 -0.005297 -0.004522 0.015188 0.000000 0.000000 0.000000
# 4 0.000000 0.000000 0.000000 0.034613 0.000000 0.000000
# 5 0.000000 0.000000 0.000000 0.000000 0.129964 0.000000
# 6 0.000000 0.000000 0.000000 0.000000 0.000000 0.046400
#
#
# Mechanical properties :
#
#
# Convention : Reuss Voigt Hill
#
# Bulk Modulus (GPa) = 82.27130 83.22935 82.75032
# Shear Modulus (GPa) = 18.25245 25.17284 21.71264
#
# Velocity S-wave (km/s) = 3.24554 3.81147 3.53983
# Velocity P-wave (km/s) = 7.84370 8.20984 8.02886
#
# Compressibility (1/GPa) = 0.01215491
#
# Stress axis : x y z
#
# Youngs Moduli (GPa) = 93.41159 103.76090 65.84170
#
# Poissons Ratio (x) = 0.19390 0.34877
# Poissons Ratio (y) = 0.17456 0.29774
# Poissons Ratio (z) = 0.49481 0.46922
#
# Static dielectric constant tensor:
#      x y z
#    x 1.584280 0.000000 0.000000 
#    y 0.000000 1.636500 0.000000 
#    z 0.000000 0.000000 1.601120 
# 
# From -- ./inp_files/9206.got.cif
#   From: 2010.05.17/outbox.cif.g08.bks.cpg/sg39_5_cif.got.tgz:9206.got - 2010.06.03 18:22:40.
