data_PCOD9360816
_publ_section_title
;
Structure prediction by ZEFSAII (Michael W. Deem and Ramdas Pophale) SiO2 
 PCOD9360816
Probable space group: A B M 2
;
_chemical_formula_sum "Si O2"
_cell_formula_units_Z 52
_cell_length_a 16.608714
_cell_length_b 9.259775
_cell_length_c 13.849767
_cell_angle_alpha 90.000000
_cell_angle_beta 90.000000
_cell_angle_gamma 90.000000
_cell_volume 2129.996589
_symmetry_space_group_name_H-M "A B M 2"
_symmetry_group_IT_number 39
_symmetry_cell_setting 'orthorhombic'
loop_
_space_group_symop_operation_xyz
x,y,z
-x,-y,z
-x,1/2+y,z
x,1/2-y,z
x,1/2+y,1/2+z
-x,1/2-y,1/2+z
-x,y,1/2+z
x,-y,1/2+z
loop_
_atom_site_type_symbol
_atom_site_label
_atom_site_fract_x
_atom_site_fract_y
_atom_site_fract_z
Si Si1 0.600354 0.990790 0.635710
Si Si2 0.232651 0.412656 0.655462
Si Si3 0.487302 0.750000 0.203705
Si Si4 0.921125 0.413688 0.665817
Si Si5 0.581639 0.416343 0.918026
Si Si6 0.916000 0.082854 0.900640
Si Si7 0.249321 0.083888 0.886056
O O1 0.694298 0.014587 0.625017
O O2 0.582687 0.873591 0.717151
O O3 0.575719 0.915545 0.534719
O O4 0.550765 0.126781 0.667057
O O5 0.242973 0.250000 0.616228
O O6 0.150862 0.488341 0.629561
O O7 0.235409 0.405071 0.771158
O O8 0.919059 0.250000 0.629949
O O9 0.917324 0.408416 0.782893
O O10 0.000000 0.500000 0.639885
O O11 0.500000 0.500000 0.887576
O O12 0.576243 0.250000 0.879265
O O13 0.667666 0.491750 0.898945
O O14 0.915241 0.250000 0.935745
O O15 0.831803 0.998521 0.922284
O O16 0.000000 0.000000 0.925800
O O17 0.257236 0.250000 0.922841
#
# Coordination Sequence:
#
# PCOD9360816 Si02
#       7
#     8   8   4   8   8   8   8
#     4  11  20  38  59  81 101 140 183 229 262 318
#     4  10  20  36  54  81 112 141 176 224 271 316
#     4  10  20  36  58  80 102 134 186 228 264 312
#     4   9  17  29  49  76 107 142 177 214 263 319
#     4  12  22  39  58  78 105 144 184 226 268 322
#     4   9  16  30  52  77 106 142 180 218 264 320
#     4  10  22  36  53  81 116 143 177 223 273 322
#
# _framework density 24.413186
#
# number of rings (size 3 to 8) (size 9 to 14) (size 15 to 20)
#    0.000    1.846    3.077    1.846    2.154    4.308 
#    2.769    0.000    0.000    0.923    0.000    4.308 
#    0.000    0.000    0.000    0.000    0.000    0.000 
#
# Total GULP energy -144864.938139 kJ/mol
# GULP energy per Si atom -5571.728390 kJ/mol
# Density = 2.435762 g / cm^3
# Si number density = 24.413186 Si / 1000 Ang^3
#
#
#
# Elastic Constant Matrix: (Units=GPa)
#
#
# Indices 1 2 3 4 5 6 
#
# 1 258.7510 97.9260 -0.6106 0.0000 0.0000 0.0000
# 2 97.9260 200.4631 7.6178 0.0000 0.0000 0.0000
# 3 -0.6106 7.6178 77.9457 0.0000 0.0000 0.0000
# 4 0.0000 0.0000 0.0000 28.5023 0.0000 0.0000
# 5 0.0000 0.0000 0.0000 0.0000 -48.8479 0.0000
# 6 0.0000 0.0000 0.0000 0.0000 0.0000 40.9584
#
#
#
# Elastic Compliance Matrix: (Units=1/GPa)
#
#
# Indices 1 2 3 4 5 6 
#
# 1 0.004747 -0.002329 0.000265 0.000000 0.000000 0.000000
# 2 -0.002329 0.006150 -0.000619 0.000000 0.000000 0.000000
# 3 0.000265 -0.000619 0.012892 0.000000 0.000000 0.000000
# 4 0.000000 0.000000 0.000000 0.035085 0.000000 0.000000
# 5 0.000000 0.000000 0.000000 0.000000 -0.020472 0.000000
# 6 0.000000 0.000000 0.000000 0.000000 0.000000 0.024415
#
#
# Mechanical properties :
#
#
# Convention : Reuss Voigt Hill
#
# Bulk Modulus (GPa) = 54.28364 83.00291 68.64327
# Shear Modulus (GPa) = 67.27330 32.93767 50.10548
#
# Velocity S-wave (km/s) = 5.25509 3.67710 4.53525
# Velocity P-wave (km/s) = 7.68797 7.21811 7.45674
#
# Compressibility (1/GPa) = 0.01842176
#
# Stress axis : x y z
#
# Youngs Moduli (GPa) = 210.67257 162.61193 77.56729
#
# Poissons Ratio (x) = 0.37869 -0.02054
# Poissons Ratio (y) = 0.49062 0.04803
# Poissons Ratio (z) = -0.05578 0.10070
#
# Static dielectric constant tensor:
#      x y z
#    x 1.894210 0.000000 0.000000 
#    y 0.000000 1.784700 0.000000 
#    z 0.000000 0.000000 2.143020 
# 
# From -- ./inp_files/14657.got.cif
#   From: 2010.05.17/outbox.cif.g08.bks.cpg/sg39_8_cif.got.tgz:14657.got - 2010.06.03 18:22:40.
