data_PCOD9360874
_publ_section_title
;
Structure prediction by ZEFSAII (Michael W. Deem and Ramdas Pophale) SiO2 
 PCOD9360874
Probable space group: A B M 2
;
_chemical_formula_sum "Si O2"
_cell_formula_units_Z 64
_cell_length_a 25.027689
_cell_length_b 9.104586
_cell_length_c 14.834862
_cell_angle_alpha 90.000000
_cell_angle_beta 90.000000
_cell_angle_gamma 90.000000
_cell_volume 3380.371744
_symmetry_space_group_name_H-M "A B M 2"
_symmetry_group_IT_number 39
_symmetry_cell_setting 'orthorhombic'
loop_
_space_group_symop_operation_xyz
x,y,z
-x,-y,z
-x,1/2+y,z
x,1/2-y,z
x,1/2+y,1/2+z
-x,1/2-y,1/2+z
-x,y,1/2+z
x,-y,1/2+z
loop_
_atom_site_type_symbol
_atom_site_label
_atom_site_fract_x
_atom_site_fract_y
_atom_site_fract_z
Si Si1 0.553983 0.418770 0.472390
Si Si2 0.664361 0.425318 0.975258
Si Si3 0.553323 0.916963 0.192652
Si Si4 0.141112 0.576210 0.834691
Si Si5 0.338231 0.575901 0.187350
Si Si6 0.054837 0.426054 0.487966
Si Si7 0.054911 0.573841 0.681618
Si Si8 0.254950 0.925396 0.340060
O O1 0.500000 0.500000 0.443055
O O2 0.555592 0.250000 0.441873
O O3 0.607692 0.504508 0.446820
O O4 0.552836 0.417558 0.582505
O O5 0.663218 0.250000 0.962887
O O6 0.711914 0.497761 0.919573
O O7 0.671104 0.456678 0.081975
O O8 0.552330 0.750000 0.223737
O O9 0.500000 0.000000 0.222068
O O10 0.608365 0.994176 0.218932
O O11 0.154152 0.750000 0.834592
O O12 0.103814 0.545824 0.748490
O O13 0.195077 0.484612 0.835544
O O14 0.103732 0.546770 0.920989
O O15 0.348111 0.750000 0.194498
O O16 0.287731 0.538844 0.248848
O O17 0.047541 0.250000 0.496485
O O18 0.064856 0.500161 0.584718
O O19 0.000000 0.500000 0.453466
O O20 0.047741 0.750000 0.673570
O O21 0.000000 0.500000 0.715946
O O22 0.255491 0.750000 0.351928
#
# Coordination Sequence:
#
# PCOD9360874 Si02
#       8
#     8   8   8   8   8   8   8   8
#     4   9  16  28  49  79 110 140 178 222 274 334
#     4  10  20  37  59  80 108 145 182 226 280 333
#     4   9  16  27  49  79 108 139 175 219 272 330
#     4  10  23  40  57  80 113 151 188 228 274 324
#     4   9  20  38  57  78 107 143 181 224 276 331
#     4  10  20  36  59  87 118 150 184 224 272 325
#     4  10  20  36  59  88 119 150 185 226 273 325
#     4  11  24  40  58  81 109 144 189 235 275 324
#
# _framework density 18.932827
#
# number of rings (size 3 to 8) (size 9 to 14) (size 15 to 20)
#    0.000    2.250    0.000    3.375    0.000    7.500 
#    0.000    4.375    0.000    3.000    0.000    0.000 
#    0.000    0.000    0.000    0.000    0.000    0.000 
#
# Total GULP energy -178778.230732 kJ/mol
# GULP energy per Si atom -5586.819710 kJ/mol
# Density = 1.888974 g / cm^3
# Si number density = 18.932827 Si / 1000 Ang^3
#
#
#
# Elastic Constant Matrix: (Units=GPa)
#
#
# Indices 1 2 3 4 5 6 
#
# 1 190.0582 107.8613 75.4674 0.0000 0.0000 0.0000
# 2 107.8613 112.5751 65.7397 0.0000 0.0000 0.0000
# 3 75.4674 65.7397 79.3970 0.0000 0.0000 0.0000
# 4 0.0000 0.0000 0.0000 15.9519 0.0000 0.0000
# 5 0.0000 0.0000 0.0000 0.0000 -376.7871 0.0000
# 6 0.0000 0.0000 0.0000 0.0000 0.0000 43.4781
#
#
#
# Elastic Compliance Matrix: (Units=1/GPa)
#
#
# Indices 1 2 3 4 5 6 
#
# 1 0.012061 -0.009412 -0.003671 0.000000 0.000000 0.000000
# 2 -0.009412 0.024544 -0.011376 0.000000 0.000000 0.000000
# 3 -0.003671 -0.011376 0.025503 0.000000 0.000000 0.000000
# 4 0.000000 0.000000 0.000000 0.062688 0.000000 0.000000
# 5 0.000000 0.000000 0.000000 0.000000 -0.002654 0.000000
# 6 0.000000 0.000000 0.000000 0.000000 0.000000 0.023000
#
#
# Mechanical properties :
#
#
# Convention : Reuss Voigt Hill
#
# Bulk Modulus (GPa) = 75.81248 97.79633 86.80441
# Shear Modulus (GPa) = 25.19451 -54.60728 -14.70638
#
# Velocity S-wave (km/s) = 3.65188 -5.37636 -2.79008
# Velocity P-wave (km/s) = 7.60995 3.63678 5.96396
#
# Compressibility (1/GPa) = 0.01319044
#
# Stress axis : x y z
#
# Youngs Moduli (GPa) = 82.91498 40.74307 39.21115
#
# Poissons Ratio (x) = 0.38348 0.14393
# Poissons Ratio (y) = 0.78040 0.44606
# Poissons Ratio (z) = 0.30434 0.46349
#
# Static dielectric constant tensor:
#      x y z
#    x 1.612490 0.000000 0.000000 
#    y 0.000000 1.634760 0.000000 
#    z 0.000000 0.000000 1.683990 
# 
# From -- ./inp_files/10662.got.cif
#   From: 2010.05.17/outbox.cif.g08.bks.cpg/sg39_6_cif.got.tgz:10662.got - 2010.06.03 18:22:40.
