data_PCOD9360820
_publ_section_title
;
Structure prediction by ZEFSAII (Michael W. Deem and Ramdas Pophale) SiO2 
 PCOD9360820
Probable space group: A B M 2
;
_chemical_formula_sum "Si O2"
_cell_formula_units_Z 44
_cell_length_a 15.190187
_cell_length_b 14.899860
_cell_length_c 9.219816
_cell_angle_alpha 90.000000
_cell_angle_beta 90.000000
_cell_angle_gamma 90.000000
_cell_volume 2086.736257
_symmetry_space_group_name_H-M "A B M 2"
_symmetry_group_IT_number 39
_symmetry_cell_setting 'orthorhombic'
loop_
_space_group_symop_operation_xyz
x,y,z
-x,-y,z
-x,1/2+y,z
x,1/2-y,z
x,1/2+y,1/2+z
-x,1/2-y,1/2+z
-x,y,1/2+z
x,-y,1/2+z
loop_
_atom_site_type_symbol
_atom_site_label
_atom_site_fract_x
_atom_site_fract_y
_atom_site_fract_z
Si Si1 0.620011 0.542574 0.824420
Si Si2 0.044583 0.583885 0.578834
Si Si3 0.500000 0.000000 0.573912
Si Si4 0.894849 0.349931 0.873191
Si Si5 0.223333 0.355480 0.956709
Si Si6 0.296099 0.145591 0.284463
O O1 0.563570 0.557502 0.679139
O O2 0.710047 0.597956 0.843237
O O3 0.638436 0.435022 0.819937
O O4 0.560292 0.558176 0.965991
O O5 0.069590 0.649909 0.708900
O O6 0.133401 0.588255 0.481752
O O7 0.000000 0.500000 0.661500
O O8 0.964135 0.602503 0.473139
O O9 0.890305 0.250000 0.930634
O O10 0.794608 0.381546 0.865592
O O11 0.204444 0.250000 0.922519
O O12 0.271548 0.356765 0.113704
O O13 0.318953 0.250000 0.318843
#
# Coordination Sequence:
#
# PCOD9360820 Si02
#       6
#     8   8   4   8   8   8
#     4  11  20  43  62  89 120 156 189 256 310 377
#     4  11  21  35  56  86 119 159 202 243 289 343
#     4  10  24  38  66  92 120 146 196 254 318 376
#     4  10  20  36  55  82 120 158 199 243 286 342
#     4  10  21  39  62  87 122 166 207 248 301 363
#     4   9  19  37  62  87 120 164 202 241 300 367
#
# _framework density 21.085557999999999
#
# number of rings (size 3 to 8) (size 9 to 14) (size 15 to 20)
#    0.000    1.818    1.818    4.364    0.000    1.455 
#    3.273    6.364    0.000    0.000    0.000    0.000 
#    0.000    0.000    0.000    0.000    0.000    0.000 
#
# Total GULP energy -122530.906035 kJ/mol
# GULP energy per Si atom -5569.586638 kJ/mol
# Density = 2.103757 g / cm^3
# Si number density = 21.085558 Si / 1000 Ang^3
#
#
#
# Elastic Constant Matrix: (Units=GPa)
#
#
# Indices 1 2 3 4 5 6 
#
# 1 71.8376 43.1807 5.4464 0.0000 0.0000 0.0000
# 2 43.1807 76.3569 -0.9283 0.0000 0.0000 0.0000
# 3 5.4464 -0.9283 47.6998 0.0000 0.0000 0.0000
# 4 0.0000 0.0000 0.0000 12.8003 0.0000 0.0000
# 5 0.0000 0.0000 0.0000 0.0000 4.5369 0.0000
# 6 0.0000 0.0000 0.0000 0.0000 0.0000 12.2698
#
#
#
# Elastic Compliance Matrix: (Units=1/GPa)
#
#
# Indices 1 2 3 4 5 6 
#
# 1 0.021427 -0.012150 -0.002683 0.000000 0.000000 0.000000
# 2 -0.012150 0.019989 0.001776 0.000000 0.000000 0.000000
# 3 -0.002683 0.001776 0.021305 0.000000 0.000000 0.000000
# 4 0.000000 0.000000 0.000000 0.078123 0.000000 0.000000
# 5 0.000000 0.000000 0.000000 0.000000 0.220413 0.000000
# 6 0.000000 0.000000 0.000000 0.000000 0.000000 0.081501
#
#
# Mechanical properties :
#
#
# Convention : Reuss Voigt Hill
#
# Bulk Modulus (GPa) = 27.31637 32.36578 29.84108
# Shear Modulus (GPa) = 10.39343 15.80112 13.09728
#
# Velocity S-wave (km/s) = 2.22258 2.74045 2.49499
# Velocity P-wave (km/s) = 4.42376 5.03949 4.74163
#
# Compressibility (1/GPa) = 0.03660808
#
# Stress axis : x y z
#
# Youngs Moduli (GPa) = 46.67070 50.02804 46.93656
#
# Poissons Ratio (x) = 0.60783 0.12593
# Poissons Ratio (y) = 0.56703 -0.08337
# Poissons Ratio (z) = 0.12522 -0.08886
#
# Static dielectric constant tensor:
#      x y z
#    x 1.852380 0.000000 0.000000 
#    y 0.000000 1.762380 0.000000 
#    z 0.000000 0.000000 1.801940 
# 
# From -- ./inp_files/6365.got.cif
#   From: 2010.05.17/outbox.cif.g08.bks.cpg/sg39_4_cif.got.tgz:6365.got - 2010.06.03 18:22:40.
