data_PCOD9360859
_publ_section_title
;
Structure prediction by ZEFSAII (Michael W. Deem and Ramdas Pophale) SiO2 
 PCOD9360859
Probable space group: A B M 2
;
_chemical_formula_sum "Si O2"
_cell_formula_units_Z 64
_cell_length_a 14.340185
_cell_length_b 8.651194
_cell_length_c 26.560557
_cell_angle_alpha 90.000000
_cell_angle_beta 90.000000
_cell_angle_gamma 90.000000
_cell_volume 3295.095329
_symmetry_space_group_name_H-M "A B M 2"
_symmetry_group_IT_number 39
_symmetry_cell_setting 'orthorhombic'
loop_
_space_group_symop_operation_xyz
x,y,z
-x,-y,z
-x,1/2+y,z
x,1/2-y,z
x,1/2+y,1/2+z
-x,1/2-y,1/2+z
-x,y,1/2+z
x,-y,1/2+z
loop_
_atom_site_type_symbol
_atom_site_label
_atom_site_fract_x
_atom_site_fract_y
_atom_site_fract_z
Si Si1 0.395539 0.564512 0.643120
Si Si2 0.895424 0.564291 0.502895
Si Si3 0.105364 0.936000 0.811826
Si Si4 0.784763 0.565935 0.907467
Si Si5 0.395210 0.064016 0.365948
Si Si6 0.215526 0.934790 0.103454
Si Si7 0.604904 0.063900 0.754449
Si Si8 0.894944 0.435498 0.698750
O O1 0.500000 0.500000 0.636531
O O2 0.398637 0.750000 0.641282
O O3 0.320119 0.500618 0.604440
O O4 0.359353 0.516500 0.699436
O O5 0.898586 0.750000 0.500455
O O6 0.839751 0.500857 0.455034
O O7 0.841966 0.518238 0.554017
O O8 0.000000 0.500000 0.503128
O O9 0.105190 0.750000 0.816625
O O10 0.141012 0.973444 0.755237
O O11 0.163474 0.007517 0.857088
O O12 0.000000 0.000000 0.814848
O O13 0.785251 0.750000 0.908915
O O14 0.679219 0.503367 0.904567
O O15 0.397118 0.250000 0.368529
O O16 0.359284 0.017403 0.309492
O O17 0.500000 0.000000 0.372131
O O18 0.218996 0.750000 0.105204
O O19 0.163176 0.996511 0.152929
O O20 0.605412 0.250000 0.754398
O O21 0.500000 0.000000 0.754439
O O22 0.896040 0.250000 0.694742
O O23 0.000000 0.500000 0.695639
#
# Coordination Sequence:
#
# PCOD9360859 Si02
#       8
#     8   8   8   8   8   8   8   8
#     4  10  20  36  58  87 124 165 208 252 303 359
#     4  11  25  46  69  92 120 156 202 257 312 368
#     4  10  21  38  59  86 122 160 198 245 303 367
#     4  12  25  40  62  91 121 159 206 252 307 365
#     4  10  20  37  59  87 125 164 207 252 302 360
#     4  11  24  40  62  91 122 159 205 252 306 365
#     4   8  16  30  51  79 114 157 199 240 288 344
#     4  10  21  37  59  87 122 160 198 244 303 366
#
# _framework density 19.422806000000001
#
# number of rings (size 3 to 8) (size 9 to 14) (size 15 to 20)
#    0.000    1.750    0.000    4.125    1.750    5.500 
#    0.000    0.625    0.000    3.000    0.000    0.000 
#    0.000    0.000    0.000    0.000    0.000    0.000 
#
# Total GULP energy -178743.326595 kJ/mol
# GULP energy per Si atom -5585.728956 kJ/mol
# Density = 1.937860 g / cm^3
# Si number density = 19.422806 Si / 1000 Ang^3
#
#
#
# Elastic Constant Matrix: (Units=GPa)
#
#
# Indices 1 2 3 4 5 6 
#
# 1 143.2391 50.2711 98.9377 0.0000 0.0000 0.0000
# 2 50.2711 73.3569 59.6482 0.0000 0.0000 0.0000
# 3 98.9377 59.6482 141.4953 0.0000 0.0000 0.0000
# 4 0.0000 0.0000 0.0000 23.4923 0.0000 0.0000
# 5 0.0000 0.0000 0.0000 0.0000 39.4263 0.0000
# 6 0.0000 0.0000 0.0000 0.0000 0.0000 33.2130
#
#
#
# Elastic Compliance Matrix: (Units=1/GPa)
#
#
# Indices 1 2 3 4 5 6 
#
# 1 0.013786 -0.002449 -0.008607 0.000000 0.000000 0.000000
# 2 -0.002449 0.021177 -0.007215 0.000000 0.000000 0.000000
# 3 -0.008607 -0.007215 0.016127 0.000000 0.000000 0.000000
# 4 0.000000 0.000000 0.000000 0.042567 0.000000 0.000000
# 5 0.000000 0.000000 0.000000 0.000000 0.025364 0.000000
# 6 0.000000 0.000000 0.000000 0.000000 0.000000 0.030109
#
#
# Mechanical properties :
#
#
# Convention : Reuss Voigt Hill
#
# Bulk Modulus (GPa) = 68.73733 86.20060 77.46897
# Shear Modulus (GPa) = 26.24384 29.17525 27.70955
#
# Velocity S-wave (km/s) = 3.67984 3.87992 3.78120
# Velocity P-wave (km/s) = 7.31586 8.03425 7.68345
#
# Compressibility (1/GPa) = 0.01454813
#
# Stress axis : x y z
#
# Youngs Moduli (GPa) = 72.53796 47.22167 62.00642
#
# Poissons Ratio (x) = 0.11563 0.53371
# Poissons Ratio (y) = 0.17762 0.44738
# Poissons Ratio (z) = 0.62435 0.34071
#
# Static dielectric constant tensor:
#      x y z
#    x 1.665260 0.000000 0.000000 
#    y 0.000000 1.653430 0.000000 
#    z 0.000000 0.000000 1.687870 
# 
# From -- ./inp_files/16259.got.cif
#   From: 2010.05.17/outbox.cif.g08.bks.cpg/sg39_9_cif.got.tgz:16259.got - 2010.06.03 18:22:40.
