data_PCOD9360833
_publ_section_title
;
Structure prediction by ZEFSAII (Michael W. Deem and Ramdas Pophale) SiO2 
 PCOD9360833
Probable space group: A B M 2
;
_chemical_formula_sum "Si O2"
_cell_formula_units_Z 56
_cell_length_a 17.767696
_cell_length_b 14.806963
_cell_length_c 10.440240
_cell_angle_alpha 90.000000
_cell_angle_beta 90.000000
_cell_angle_gamma 90.000000
_cell_volume 2746.676985
_symmetry_space_group_name_H-M "A B M 2"
_symmetry_group_IT_number 39
_symmetry_cell_setting 'orthorhombic'
loop_
_space_group_symop_operation_xyz
x,y,z
-x,-y,z
-x,1/2+y,z
x,1/2-y,z
x,1/2+y,1/2+z
-x,1/2-y,1/2+z
-x,y,1/2+z
x,-y,1/2+z
loop_
_atom_site_type_symbol
_atom_site_label
_atom_site_fract_x
_atom_site_fract_y
_atom_site_fract_z
Si Si1 0.672985 0.998716 0.106090
Si Si2 0.206860 0.647279 0.182506
Si Si3 0.446352 0.349951 0.528512
Si Si4 0.779847 0.854484 0.987266
Si Si5 0.044234 0.851434 0.239182
Si Si6 0.948824 0.414256 0.523686
Si Si7 0.450116 0.088311 0.251779
O O1 0.737729 0.071901 0.130546
O O2 0.606980 0.062733 0.049993
O O3 0.634010 0.948282 0.226665
O O4 0.710340 0.917260 0.027694
O O5 0.216034 0.750000 0.130247
O O6 0.220613 0.651077 0.334193
O O7 0.120389 0.615730 0.169690
O O8 0.414699 0.250000 0.562115
O O9 0.461131 0.351745 0.377075
O O10 0.517637 0.366443 0.621819
O O11 0.777573 0.750000 0.035676
O O12 0.858451 0.904051 0.024973
O O13 0.064621 0.750000 0.278962
O O14 0.028897 0.897206 0.375133
O O15 0.978294 0.849426 0.136303
O O16 0.000000 0.500000 0.560331
O O17 0.500000 0.000000 0.275702
#
# Coordination Sequence:
#
# PCOD9360833 Si02
#       7
#     8   8   8   8   8   8   8
#     4  11  21  37  61  87 117 152 195 243 287 340
#     4   9  19  36  57  83 117 157 196 236 291 354
#     4  11  23  40  63  91 121 152 191 240 292 347
#     4  10  22  39  57  81 117 159 198 237 291 357
#     4  10  20  36  57  82 114 151 194 241 289 345
#     4  11  21  36  58  84 113 149 196 245 292 343
#     4  10  22  40  61  88 121 156 194 236 286 346
#
# _framework density 20.388273000000002
#
# number of rings (size 3 to 8) (size 9 to 14) (size 15 to 20)
#    0.000    1.714    0.000    6.429    0.000    3.429 
#    0.000    4.286    0.000    3.429    0.000    0.000 
#    0.000    0.000    0.000    0.000    0.000    0.000 
#
# Total GULP energy -155919.559799 kJ/mol
# GULP energy per Si atom -5568.555707 kJ/mol
# Density = 2.034187 g / cm^3
# Si number density = 20.388273 Si / 1000 Ang^3
#
#
#
# Elastic Constant Matrix: (Units=GPa)
#
#
# Indices 1 2 3 4 5 6 
#
# 1 42.0916 18.2230 12.4570 0.0000 0.0000 0.0000
# 2 18.2230 119.7173 14.2206 0.0000 0.0000 0.0000
# 3 12.4570 14.2206 49.1650 0.0000 0.0000 0.0000
# 4 0.0000 0.0000 0.0000 25.4416 0.0000 0.0000
# 5 0.0000 0.0000 0.0000 0.0000 19.2767 0.0000
# 6 0.0000 0.0000 0.0000 0.0000 0.0000 11.4381
#
#
#
# Elastic Compliance Matrix: (Units=1/GPa)
#
#
# Indices 1 2 3 4 5 6 
#
# 1 0.026964 -0.003410 -0.005846 0.000000 0.000000 0.000000
# 2 -0.003410 0.009081 -0.001763 0.000000 0.000000 0.000000
# 3 -0.005846 -0.001763 0.022331 0.000000 0.000000 0.000000
# 4 0.000000 0.000000 0.000000 0.039306 0.000000 0.000000
# 5 0.000000 0.000000 0.000000 0.000000 0.051876 0.000000
# 6 0.000000 0.000000 0.000000 0.000000 0.000000 0.087427
#
#
# Mechanical properties :
#
#
# Convention : Reuss Voigt Hill
#
# Bulk Modulus (GPa) = 27.51830 33.41944 30.46887
# Shear Modulus (GPa) = 18.44102 22.30284 20.37193
#
# Velocity S-wave (km/s) = 3.01074 3.31101 3.16444
# Velocity P-wave (km/s) = 5.06088 5.57173 5.32244
#
# Compressibility (1/GPa) = 0.03633946
#
# Stress axis : x y z
#
# Youngs Moduli (GPa) = 37.08644 110.11446 44.78153
#
# Poissons Ratio (x) = 0.37549 0.26177
# Poissons Ratio (y) = 0.12647 0.07894
# Poissons Ratio (z) = 0.21679 0.19410
#
# Static dielectric constant tensor:
#      x y z
#    x 1.783400 0.000000 0.000000 
#    y 0.000000 1.735040 0.000000 
#    z 0.000000 0.000000 1.712680 
# 
# From -- ./inp_files/6485.got.cif
#   From: 2010.05.17/outbox.cif.g08.bks.cpg/sg39_4_cif.got.tgz:6485.got - 2010.06.03 18:22:40.
