data_PCOD9360267
_publ_section_title
;
Structure prediction by ZEFSAII (Michael W. Deem and Ramdas Pophale) SiO2 
 PCOD9360267
Probable space group: A B M 2
;
_chemical_formula_sum "Si O2"
_cell_formula_units_Z 64
_cell_length_a 8.776058
_cell_length_b 17.090125
_cell_length_c 23.730168
_cell_angle_alpha 90.000000
_cell_angle_beta 90.000000
_cell_angle_gamma 90.000000
_cell_volume 3559.143814
_symmetry_space_group_name_H-M "A B M 2"
_symmetry_group_IT_number 39
_symmetry_cell_setting 'orthorhombic'
loop_
_space_group_symop_operation_xyz
x,y,z
-x,-y,z
-x,1/2+y,z
x,1/2-y,z
x,1/2+y,1/2+z
-x,1/2-y,1/2+z
-x,y,1/2+z
x,-y,1/2+z
loop_
_atom_site_type_symbol
_atom_site_label
_atom_site_fract_x
_atom_site_fract_y
_atom_site_fract_z
Si Si1 0.795753 0.340206 0.018210
Si Si2 0.900343 0.423976 0.740878
Si Si3 0.900343 0.576024 0.034030
Si Si4 0.673635 0.485905 0.320866
Si Si5 0.692615 0.584600 0.137454
Si Si6 0.204247 0.659794 0.256697
Si Si7 0.673635 0.514095 0.454041
Si Si8 0.658549 0.895599 0.637454
O O1 0.766147 0.250000 0.006511
O O2 0.734124 0.361919 0.080773
O O3 0.975098 0.360541 0.016934
O O4 0.718360 0.399146 0.974006
O O5 0.792612 0.456707 0.790155
O O6 0.790719 0.394422 0.691927
O O7 0.000000 0.500000 0.721199
O O8 0.024902 0.360541 0.757973
O O9 0.790719 0.605578 0.082980
O O10 0.000000 0.500000 0.053708
O O11 0.792612 0.543293 0.984752
O O12 0.500000 0.500000 0.301547
O O13 0.718360 0.399146 0.300901
O O14 0.681550 0.500000 0.387454
O O15 0.679029 0.489670 0.137454
O O16 0.522964 0.618608 0.137454
O O17 0.233853 0.750000 0.268396
O O18 0.265876 0.638081 0.194134
O O19 0.500000 0.500000 0.473360
#
# Coordination Sequence:
#
# PCOD9360267 Si02
#       8
#     8   8   8   8   8   8   8   8
#     4  11  23  38  57  88 124 154 185 240 299 341
#     4  10  19  33  57  83 113 152 193 233 277 345
#     4  10  19  33  57  83 113 152 193 233 277 345
#     4  10  21  40  63  85 108 149 202 244 280 343
#     4  11  18  32  58  89 112 155 203 236 266 345
#     4  11  23  38  57  88 124 154 185 240 299 341
#     4  10  21  40  63  85 108 149 202 244 280 343
#     4  11  20  33  59  88 123 151 193 234 289 341
#
# _framework density 17.981853999999998
#
# number of rings (size 3 to 8) (size 9 to 14) (size 15 to 20)
#    0.000    1.500    5.000    3.000    0.000    4.500 
#    0.000   11.250    0.000    0.000    0.000    0.000 
#    0.000    0.000    0.000    0.000    0.000    0.000 
#
# Total GULP energy -178675.206523 kJ/mol
# GULP energy per Si atom -5583.600204 kJ/mol
# Density = 1.794093 g / cm^3
# Si number density = 17.981854 Si / 1000 Ang^3
#
#
#
# Elastic Constant Matrix: (Units=GPa)
#
#
# Indices 1 2 3 4 5 6 
#
# 1 155.3779 45.2345 51.5823 0.0000 0.0000 0.0000
# 2 45.2345 100.4842 51.4491 0.0000 0.0000 0.0000
# 3 51.5823 51.4491 80.7369 0.0000 0.0000 0.0000
# 4 0.0000 0.0000 0.0000 5.1782 0.0000 0.0000
# 5 0.0000 0.0000 0.0000 0.0000 47.0178 0.0000
# 6 0.0000 0.0000 0.0000 0.0000 0.0000 10.2936
#
#
#
# Elastic Compliance Matrix: (Units=1/GPa)
#
#
# Indices 1 2 3 4 5 6 
#
# 1 0.008322 -0.001520 -0.004348 0.000000 0.000000 0.000000
# 2 -0.001520 0.015049 -0.008619 0.000000 0.000000 0.000000
# 3 -0.004348 -0.008619 0.020656 0.000000 0.000000 0.000000
# 4 0.000000 0.000000 0.000000 0.193117 0.000000 0.000000
# 5 0.000000 0.000000 0.000000 0.000000 0.021269 0.000000
# 6 0.000000 0.000000 0.000000 0.000000 0.000000 0.097148
#
#
# Mechanical properties :
#
#
# Convention : Reuss Voigt Hill
#
# Bulk Modulus (GPa) = 66.43104 70.34787 68.38945
# Shear Modulus (GPa) = 12.83524 25.05347 18.94435
#
# Velocity S-wave (km/s) = 2.67458 3.73669 3.24933
# Velocity P-wave (km/s) = 6.82359 7.60419 7.22444
#
# Compressibility (1/GPa) = 0.01505320
#
# Stress axis : x y z
#
# Youngs Moduli (GPa) = 120.16416 66.44986 48.41132
#
# Poissons Ratio (x) = 0.10099 0.21051
# Poissons Ratio (y) = 0.18263 0.41725
# Poissons Ratio (z) = 0.52251 0.57272
#
# Static dielectric constant tensor:
#      x y z
#    x 1.630270 0.000000 0.000000 
#    y 0.000000 1.598010 0.000000 
#    z 0.000000 0.000000 1.604070 
# 
# From -- ./inp_files/15745.got.cif
#   From: 2010.05.17/outbox.cif.g08.bks.cpg/sg39_8_cif.got.tgz:15745.got - 2010.06.03 18:22:40.
