data_PCOD9360478
_publ_section_title
;
Structure prediction by ZEFSAII (Michael W. Deem and Ramdas Pophale) SiO2 
 PCOD9360478
Probable space group: A B M 2
;
_chemical_formula_sum "Si O2"
_cell_formula_units_Z 40
_cell_length_a 5.227135
_cell_length_b 29.511846
_cell_length_c 13.504694
_cell_angle_alpha 90.000000
_cell_angle_beta 90.000000
_cell_angle_gamma 90.000000
_cell_volume 2083.266550
_symmetry_space_group_name_H-M "A B M 2"
_symmetry_group_IT_number 39
_symmetry_cell_setting 'orthorhombic'
loop_
_space_group_symop_operation_xyz
x,y,z
-x,-y,z
-x,1/2+y,z
x,1/2-y,z
x,1/2+y,1/2+z
-x,1/2-y,1/2+z
-x,y,1/2+z
x,-y,1/2+z
loop_
_atom_site_type_symbol
_atom_site_label
_atom_site_fract_x
_atom_site_fract_y
_atom_site_fract_z
Si Si1 0.570040 0.447607 0.652810
Si Si2 0.780366 0.609624 0.975633
Si Si3 0.058593 0.667942 0.123412
Si Si4 0.432198 0.700533 0.529208
Si Si5 0.932090 0.590177 0.759553
O O1 0.500000 0.500000 0.641878
O O2 0.627040 0.424051 0.547412
O O3 0.326647 0.425016 0.705036
O O4 0.822885 0.437675 0.719748
O O5 0.015566 0.627593 0.042670
O O6 0.880295 0.587798 0.875828
O O7 0.615988 0.656189 0.960510
O O8 0.321968 0.691424 0.097031
O O9 0.032580 0.642724 0.227423
O O10 0.816651 0.699022 0.099568
O O11 0.452067 0.750000 0.480797
#
# Coordination Sequence:
#
# PCOD9360478 Si02
#       5
#     8   8   8   8   8
#     4  11  24  42  62  95 125 158 210 261 305 378
#     4   9  23  38  67  84 128 166 201 256 318 362
#     4   9  19  37  57  86 120 161 197 256 296 366
#     4  10  19  37  61  87 122 163 201 253 309 363
#     4  11  21  40  66  88 123 168 207 250 318 368
#
# _framework density 19.200614999999999
#
# number of rings (size 3 to 8) (size 9 to 14) (size 15 to 20)
#    1.200    0.800    2.000    1.200    2.800    0.800 
#    0.000    6.000    0.000    0.000    0.000    0.000 
#    0.000    0.000    0.000    0.000    0.000    0.000 
#
# Total GULP energy -111336.392635 kJ/mol
# GULP energy per Si atom -5566.819632 kJ/mol
# Density = 1.915691 g / cm^3
# Si number density = 19.200615 Si / 1000 Ang^3
#
#
#
# Elastic Constant Matrix: (Units=GPa)
#
#
# Indices 1 2 3 4 5 6 
#
# 1 144.3466 37.9159 33.8993 0.0000 0.0000 0.0000
# 2 37.9159 111.5500 37.5931 0.0000 0.0000 0.0000
# 3 33.8993 37.5931 83.6064 0.0000 0.0000 0.0000
# 4 0.0000 0.0000 0.0000 -37.7632 0.0000 0.0000
# 5 0.0000 0.0000 0.0000 0.0000 14.1195 0.0000
# 6 0.0000 0.0000 0.0000 0.0000 0.0000 61.3104
#
#
#
# Elastic Compliance Matrix: (Units=1/GPa)
#
#
# Indices 1 2 3 4 5 6 
#
# 1 0.007989 -0.001914 -0.002379 0.000000 0.000000 0.000000
# 2 -0.001914 0.011024 -0.004181 0.000000 0.000000 0.000000
# 3 -0.002379 -0.004181 0.014805 0.000000 0.000000 0.000000
# 4 0.000000 0.000000 0.000000 -0.026481 0.000000 0.000000
# 5 0.000000 0.000000 0.000000 0.000000 0.070824 0.000000
# 6 0.000000 0.000000 0.000000 0.000000 0.000000 0.016310
#
#
# Mechanical properties :
#
#
# Convention : Reuss Voigt Hill
#
# Bulk Modulus (GPa) = 59.27185 62.03552 60.65368
# Shear Modulus (GPa) = 42.71933 22.87299 32.79616
#
# Velocity S-wave (km/s) = 4.72200 3.45521 4.13737
# Velocity P-wave (km/s) = 7.78887 6.94962 7.38118
#
# Compressibility (1/GPa) = 0.01687142
#
# Stress axis : x y z
#
# Youngs Moduli (GPa) = 125.17012 90.71034 67.54377
#
# Poissons Ratio (x) = 0.17361 0.16067
# Poissons Ratio (y) = 0.23956 0.28239
# Poissons Ratio (z) = 0.29775 0.37925
#
# Static dielectric constant tensor:
#      x y z
#    x 1.674680 0.000000 0.000000 
#    y 0.000000 1.725690 0.000000 
#    z 0.000000 0.000000 1.649850 
# 
# From -- ./inp_files/4606.got.cif
#   From: 2010.05.17/outbox.cif.g08.bks.cpg/sg39_3_cif.got.tgz:4606.got - 2010.06.03 18:22:40.
