data_PCOD9360889
_publ_section_title
;
Structure prediction by ZEFSAII (Michael W. Deem and Ramdas Pophale) SiO2 
 PCOD9360889
Probable space group: A B M 2
;
_chemical_formula_sum "Si O2"
_cell_formula_units_Z 64
_cell_length_a 24.166328
_cell_length_b 7.647723
_cell_length_c 15.888146
_cell_angle_alpha 90.000000
_cell_angle_beta 90.000000
_cell_angle_gamma 90.000000
_cell_volume 2936.405556
_symmetry_space_group_name_H-M "A B M 2"
_symmetry_group_IT_number 39
_symmetry_cell_setting 'orthorhombic'
loop_
_space_group_symop_operation_xyz
x,y,z
-x,-y,z
-x,1/2+y,z
x,1/2-y,z
x,1/2+y,1/2+z
-x,1/2-y,1/2+z
-x,y,1/2+z
x,-y,1/2+z
loop_
_atom_site_type_symbol
_atom_site_label
_atom_site_fract_x
_atom_site_fract_y
_atom_site_fract_z
Si Si1 0.751532 0.538563 0.985980
Si Si2 0.769027 0.539176 0.182502
Si Si3 0.563531 0.957172 0.849771
Si Si4 0.889410 0.049582 0.238937
Si Si5 0.063378 0.458485 0.567006
Si Si6 0.353681 0.957983 0.698885
Si Si7 0.628215 0.035929 0.509015
Si Si8 0.138605 0.043460 0.910926
O O1 0.751056 0.750000 0.979189
O O2 0.688565 0.481446 0.973928
O O3 0.799920 0.469428 0.926356
O O4 0.767257 0.500120 0.082677
O O5 0.773927 0.750000 0.192454
O O6 0.823612 0.455233 0.220621
O O7 0.709058 0.478067 0.216351
O O8 0.568343 0.750000 0.854336
O O9 0.583410 0.026294 0.941156
O O10 0.500000 0.000000 0.832358
O O11 0.604039 0.012004 0.774292
O O12 0.909565 0.250000 0.243032
O O13 0.919499 0.968605 0.158564
O O14 0.893827 0.967375 0.331163
O O15 0.071095 0.250000 0.568052
O O16 0.103947 0.527767 0.495640
O O17 0.000000 0.500000 0.548536
O O18 0.347384 0.750000 0.688511
O O19 0.374466 0.022740 0.606740
O O20 0.626614 0.250000 0.511067
O O21 0.145473 0.250000 0.893513
#
# Coordination Sequence:
#
# PCOD9360889 Si02
#       8
#     8   8   8   8   8   8   8   8
#     4   8  14  29  55  83 111 146 186 223 272 338
#     4   9  17  32  57  85 116 153 188 227 280 340
#     4  11  23  38  58  82 112 150 194 238 284 338
#     4  10  22  36  56  88 120 149 187 235 283 335
#     4  11  24  42  60  82 115 153 194 240 284 332
#     4   9  19  37  58  83 115 149 189 234 282 337
#     4   8  17  34  56  82 111 149 189 229 278 336
#     4  10  20  36  60  87 115 151 190 231 281 339
#
# _framework density 21.795352999999999
#
# number of rings (size 3 to 8) (size 9 to 14) (size 15 to 20)
#    0.000    2.500    1.250    2.250    1.750    2.500 
#    0.000    3.750    0.000    1.500    0.000    0.000 
#    0.000    0.000    0.000    0.000    0.000    0.000 
#
# Total GULP energy -178590.865424 kJ/mol
# GULP energy per Si atom -5580.964545 kJ/mol
# Density = 2.174575 g / cm^3
# Si number density = 21.795353 Si / 1000 Ang^3
#
#
#
# Elastic Constant Matrix: (Units=GPa)
#
#
# Indices 1 2 3 4 5 6 
#
# 1 48.3922 -15.1033 -7.1998 0.0000 0.0000 0.0000
# 2 -15.1033 41.9220 -2.1423 0.0000 0.0000 0.0000
# 3 -7.1998 -2.1423 35.7132 0.0000 0.0000 0.0000
# 4 0.0000 0.0000 0.0000 7.1982 0.0000 0.0000
# 5 0.0000 0.0000 0.0000 0.0000 21.3523 0.0000
# 6 0.0000 0.0000 0.0000 0.0000 0.0000 15.8396
#
#
#
# Elastic Compliance Matrix: (Units=1/GPa)
#
#
# Indices 1 2 3 4 5 6 
#
# 1 0.024292 0.009030 0.005439 0.000000 0.000000 0.000000
# 2 0.009030 0.027284 0.003457 0.000000 0.000000 0.000000
# 3 0.005439 0.003457 0.029305 0.000000 0.000000 0.000000
# 4 0.000000 0.000000 0.000000 0.138924 0.000000 0.000000
# 5 0.000000 0.000000 0.000000 0.000000 0.046833 0.000000
# 6 0.000000 0.000000 0.000000 0.000000 0.000000 0.063133
#
#
# Mechanical properties :
#
#
# Convention : Reuss Voigt Hill
#
# Bulk Modulus (GPa) = 8.56669 8.57073 8.56871
# Shear Modulus (GPa) = 15.02270 18.90954 16.96612
#
# Velocity S-wave (km/s) = 2.62823 2.94869 2.79306
# Velocity P-wave (km/s) = 3.62618 3.94131 3.78702
#
# Compressibility (1/GPa) = 0.11673118
#
# Stress axis : x y z
#
# Youngs Moduli (GPa) = 41.16608 36.65204 34.12425
#
# Poissons Ratio (x) = -0.33095 -0.18560
# Poissons Ratio (y) = -0.37171 -0.11797
# Poissons Ratio (z) = -0.22390 -0.12671
#
# Static dielectric constant tensor:
#      x y z
#    x 1.732670 0.000000 0.000000 
#    y 0.000000 1.817710 0.000000 
#    z 0.000000 0.000000 1.832140 
# 
# From -- ./inp_files/10638.got.cif
#   From: 2010.05.17/outbox.cif.g08.bks.cpg/sg39_6_cif.got.tgz:10638.got - 2010.06.03 18:22:40.
