data_PCOD9360912
_publ_section_title
;
Structure prediction by ZEFSAII (Michael W. Deem and Ramdas Pophale) SiO2 
 PCOD9360912
Probable space group: A B M 2
;
_chemical_formula_sum "Si O2"
_cell_formula_units_Z 60
_cell_length_a 18.114169
_cell_length_b 16.255908
_cell_length_c 9.561998
_cell_angle_alpha 90.000000
_cell_angle_beta 90.000000
_cell_angle_gamma 90.000000
_cell_volume 2815.647587
_symmetry_space_group_name_H-M "A B M 2"
_symmetry_group_IT_number 39
_symmetry_cell_setting 'orthorhombic'
loop_
_space_group_symop_operation_xyz
x,y,z
-x,-y,z
-x,1/2+y,z
x,1/2-y,z
x,1/2+y,1/2+z
-x,1/2-y,1/2+z
-x,y,1/2+z
x,-y,1/2+z
loop_
_atom_site_type_symbol
_atom_site_label
_atom_site_fract_x
_atom_site_fract_y
_atom_site_fract_z
Si Si1 0.206200 0.594457 0.372790
Si Si2 0.767663 0.430146 0.695647
Si Si3 0.961752 0.916326 0.525531
Si Si4 0.806714 0.844340 0.463073
Si Si5 0.400279 0.521672 0.677020
Si Si6 0.672694 0.345953 0.178508
Si Si7 0.500000 0.000000 0.927825
Si Si8 0.950499 0.838885 0.798954
O O1 0.204290 0.577179 0.537816
O O2 0.206217 0.510910 0.281188
O O3 0.279901 0.640894 0.320555
O O4 0.134599 0.645831 0.332717
O O5 0.790173 0.357269 0.799648
O O6 0.679566 0.438392 0.683410
O O7 0.874733 0.902977 0.503941
O O8 0.977501 0.904785 0.687797
O O9 0.001923 0.847027 0.436635
O O10 0.000000 0.000000 0.478014
O O11 0.826832 0.750000 0.492913
O O12 0.732990 0.861736 0.554214
O O13 0.385578 0.421633 0.672898
O O14 0.445681 0.543929 0.816897
O O15 0.445646 0.544983 0.537769
O O16 0.647949 0.250000 0.168294
O O17 0.959579 0.750000 0.733939
#
# Coordination Sequence:
#
# PCOD9360912 Si02
#       8
#     8   8   8   8   8   8   4   8
#     4  11  23  38  65  91 125 163 219 277 326 390
#     4  11  23  40  65  96 125 164 218 271 321 391
#     4  12  27  45  65  90 124 172 223 267 329 402
#     4  11  23  42  65  91 129 168 214 278 341 388
#     4  10  20  37  61  93 124 165 212 256 311 383
#     4  10  20  39  64  90 127 169 210 267 330 382
#     4  10  20  36  62  90 128 166 204 258 310 374
#     4  12  26  44  64  90 126 168 215 272 335 394
#
# _framework density 21.309484999999999
#
# number of rings (size 3 to 8) (size 9 to 14) (size 15 to 20)
#    0.000    1.067    1.333    6.800    3.733    1.067 
#    0.000    0.667    0.000    3.200    0.000    0.000 
#    0.000    0.000    0.000    0.000    0.000    0.000 
#
# Total GULP energy -167572.432045 kJ/mol
# GULP energy per Si atom -5585.747735 kJ/mol
# Density = 2.126098 g / cm^3
# Si number density = 21.309485 Si / 1000 Ang^3
#
#
#
# Elastic Constant Matrix: (Units=GPa)
#
#
# Indices 1 2 3 4 5 6 
#
# 1 57.4017 26.9714 22.3953 0.0000 0.0000 0.0000
# 2 26.9714 73.3884 30.3874 0.0000 0.0000 0.0000
# 3 22.3953 30.3874 157.0450 0.0000 0.0000 0.0000
# 4 0.0000 0.0000 0.0000 12.8133 0.0000 0.0000
# 5 0.0000 0.0000 0.0000 0.0000 35.8296 0.0000
# 6 0.0000 0.0000 0.0000 0.0000 0.0000 7.9007
#
#
#
# Elastic Compliance Matrix: (Units=1/GPa)
#
#
# Indices 1 2 3 4 5 6 
#
# 1 0.021452 -0.007193 -0.001667 0.000000 0.000000 0.000000
# 2 -0.007193 0.017225 -0.002307 0.000000 0.000000 0.000000
# 3 -0.001667 -0.002307 0.007052 0.000000 0.000000 0.000000
# 4 0.000000 0.000000 0.000000 0.078044 0.000000 0.000000
# 5 0.000000 0.000000 0.000000 0.000000 0.027910 0.000000
# 6 0.000000 0.000000 0.000000 0.000000 0.000000 0.126572
#
#
# Mechanical properties :
#
#
# Convention : Reuss Voigt Hill
#
# Bulk Modulus (GPa) = 42.74809 49.70481 46.22645
# Shear Modulus (GPa) = 16.21336 25.18077 20.69707
#
# Velocity S-wave (km/s) = 2.76135 3.44127 3.11989
# Velocity P-wave (km/s) = 5.50190 6.25825 5.89222
#
# Compressibility (1/GPa) = 0.02339286
#
# Stress axis : x y z
#
# Youngs Moduli (GPa) = 46.61664 58.05461 141.80838
#
# Poissons Ratio (x) = 0.41761 0.23642
# Poissons Ratio (y) = 0.33534 0.32717
# Poissons Ratio (z) = 0.07772 0.13394
#
# Static dielectric constant tensor:
#      x y z
#    x 1.763940 0.000000 0.000000 
#    y 0.000000 1.816650 0.000000 
#    z 0.000000 0.000000 1.764090 
# 
# From -- ./inp_files/3805.got.cif
#   From: 2010.05.17/outbox.cif.g08.bks.cpg/sg39_2_cif.got.tgz:3805.got - 2010.06.03 18:22:40.
