data_PCOD9360831
_publ_section_title
;
Structure prediction by ZEFSAII (Michael W. Deem and Ramdas Pophale) SiO2 
 PCOD9360831
Probable space group: A B M 2
;
_chemical_formula_sum "Si O2"
_cell_formula_units_Z 60
_cell_length_a 19.207524
_cell_length_b 18.989304
_cell_length_c 9.277828
_cell_angle_alpha 90.000000
_cell_angle_beta 90.000000
_cell_angle_gamma 90.000000
_cell_volume 3383.971904
_symmetry_space_group_name_H-M "A B M 2"
_symmetry_group_IT_number 39
_symmetry_cell_setting 'orthorhombic'
loop_
_space_group_symop_operation_xyz
x,y,z
-x,-y,z
-x,1/2+y,z
x,1/2-y,z
x,1/2+y,1/2+z
-x,1/2-y,1/2+z
-x,y,1/2+z
x,-y,1/2+z
loop_
_atom_site_type_symbol
_atom_site_label
_atom_site_fract_x
_atom_site_fract_y
_atom_site_fract_z
Si Si1 0.231541 0.456106 0.867940
Si Si2 0.279239 0.333389 0.680660
Si Si3 0.000000 0.000000 0.679787
Si Si4 0.568510 0.834564 0.784077
Si Si5 0.427687 0.664465 0.624600
Si Si6 0.903753 0.549991 0.425042
Si Si7 0.797436 0.168874 0.886880
Si Si8 0.288551 0.917813 0.679558
O O1 0.230586 0.384955 0.773719
O O2 0.155898 0.490330 0.899160
O O3 0.275839 0.514284 0.779954
O O4 0.268780 0.439394 0.018161
O O5 0.271962 0.250000 0.718187
O O6 0.358292 0.356802 0.714491
O O7 0.259845 0.340746 0.513294
O O8 0.044096 0.951876 0.789381
O O9 0.945697 0.963514 0.571425
O O10 0.567997 0.750000 0.770682
O O11 0.499050 0.857825 0.702423
O O12 0.567154 0.850010 0.953766
O O13 0.417348 0.750000 0.643192
O O14 0.363142 0.619805 0.684293
O O15 0.862887 0.622581 0.430623
O O16 0.814392 0.250000 0.876093
O O17 0.766373 0.138894 0.739734
#
# Coordination Sequence:
#
# PCOD9360831 Si02
#       8
#     8   8   4   8   8   8   8   8
#     4  11  21  38  60  84 115 148 189 238 292 334
#     4  10  20  36  59  85 114 149 193 243 291 341
#     4  10  20  36  62  84 112 146 192 222 268 342
#     4   9  19  34  55  81 111 147 190 238 286 342
#     4  10  20  36  57  82 110 149 197 240 289 346
#     4  10  20  37  59  87 112 150 186 228 274 338
#     4  10  21  36  58  88 119 150 190 236 286 334
#     4  11  22  36  58  81 113 154 193 247 287 340
#
# _framework density 17.730644999999999
#
# number of rings (size 3 to 8) (size 9 to 14) (size 15 to 20)
#    0.000    1.867    1.333    4.400    1.867    0.533 
#    0.000    1.333    0.000    3.200    0.000    0.000 
#    0.000    0.000    0.000    0.000    0.000    0.000 
#
# Total GULP energy -167368.236445 kJ/mol
# GULP energy per Si atom -5578.941215 kJ/mol
# Density = 1.769029 g / cm^3
# Si number density = 17.730645 Si / 1000 Ang^3
#
#
#
# Elastic Constant Matrix: (Units=GPa)
#
#
# Indices 1 2 3 4 5 6 
#
# 1 77.5997 36.7696 27.5479 0.0000 0.0000 0.0000
# 2 36.7696 73.7898 32.5241 0.0000 0.0000 0.0000
# 3 27.5479 32.5241 79.0300 0.0000 0.0000 0.0000
# 4 0.0000 0.0000 0.0000 15.5332 0.0000 0.0000
# 5 0.0000 0.0000 0.0000 0.0000 31.2853 0.0000
# 6 0.0000 0.0000 0.0000 0.0000 0.0000 21.2803
#
#
#
# Elastic Compliance Matrix: (Units=1/GPa)
#
#
# Indices 1 2 3 4 5 6 
#
# 1 0.017455 -0.007349 -0.003060 0.000000 0.000000 0.000000
# 2 -0.007349 0.019649 -0.005525 0.000000 0.000000 0.000000
# 3 -0.003060 -0.005525 0.015994 0.000000 0.000000 0.000000
# 4 0.000000 0.000000 0.000000 0.064378 0.000000 0.000000
# 5 0.000000 0.000000 0.000000 0.000000 0.031964 0.000000
# 6 0.000000 0.000000 0.000000 0.000000 0.000000 0.046992
#
#
# Mechanical properties :
#
#
# Convention : Reuss Voigt Hill
#
# Bulk Modulus (GPa) = 47.10231 47.12252 47.11241
# Shear Modulus (GPa) = 21.24254 22.52496 21.88375
#
# Velocity S-wave (km/s) = 3.46507 3.56813 3.51698
# Velocity P-wave (km/s) = 6.52933 6.60379 6.56666
#
# Compressibility (1/GPa) = 0.02123038
#
# Stress axis : x y z
#
# Youngs Moduli (GPa) = 57.28928 50.89248 62.52460
#
# Poissons Ratio (x) = 0.37402 0.19132
# Poissons Ratio (y) = 0.42103 0.34543
# Poissons Ratio (z) = 0.17530 0.28117
#
# Static dielectric constant tensor:
#      x y z
#    x 1.605850 0.000000 0.000000 
#    y 0.000000 1.600440 0.000000 
#    z 0.000000 0.000000 1.600880 
# 
# From -- ./inp_files/3814.got.cif
#   From: 2010.05.17/outbox.cif.g08.bks.cpg/sg39_2_cif.got.tgz:3814.got - 2010.06.03 18:22:40.
