data_PCOD9360151
_publ_section_title
;
Structure prediction by ZEFSAII (Michael W. Deem and Ramdas Pophale) SiO2 
 PCOD9360151
Probable space group: A B M 2
;
_chemical_formula_sum "Si O2"
_cell_formula_units_Z 44
_cell_length_a 8.935185
_cell_length_b 23.741680
_cell_length_c 8.651093
_cell_angle_alpha 90.000000
_cell_angle_beta 90.000000
_cell_angle_gamma 90.000000
_cell_volume 1835.210886
_symmetry_space_group_name_H-M "A B M 2"
_symmetry_group_IT_number 39
_symmetry_cell_setting 'orthorhombic'
loop_
_space_group_symop_operation_xyz
x,y,z
-x,-y,z
-x,1/2+y,z
x,1/2-y,z
x,1/2+y,1/2+z
-x,1/2-y,1/2+z
-x,y,1/2+z
x,-y,1/2+z
loop_
_atom_site_type_symbol
_atom_site_label
_atom_site_fract_x
_atom_site_fract_y
_atom_site_fract_z
Si Si1 0.751773 0.926437 0.223460
Si Si2 0.286884 0.750000 0.726850
Si Si3 0.663472 0.750000 0.867741
Si Si4 0.345792 0.027345 0.940779
Si Si5 0.211619 0.843546 0.953061
Si Si6 0.567986 0.870044 0.720947
Si Si7 0.061424 0.250000 0.655196
O O1 0.856148 0.886654 0.327496
O O2 0.601674 0.889511 0.184522
O O3 0.708470 0.978223 0.330520
O O4 0.783199 0.954684 0.060464
O O5 0.357910 0.750000 0.554534
O O6 0.304365 0.801035 0.845588
O O7 0.110622 0.750000 0.691563
O O8 0.599803 0.807245 0.789242
O O9 0.836464 0.750000 0.809773
O O10 0.381309 0.082696 0.841865
O O11 0.500000 0.000000 0.013083
O O12 0.328765 0.873230 0.067845
O O13 0.103811 0.805210 0.055547
#
# Coordination Sequence:
#
# PCOD9360151 Si02
#       7
#     8   4   4   8   8   8   4
#     4  11  20  34  55  84 120 154 191 231 272 340
#     4  11  21  38  58  79 106 142 195 251 296 351
#     4  10  20  34  54  78 106 148 190 234 300 342
#     4  10  19  32  53  79 117 166 199 220 264 330
#     4  10  21  35  57  87 111 148 197 233 291 343
#     4  10  20  34  51  81 123 157 188 230 275 344
#     4   9  21  40  58  79 108 142 191 249 294 349
#
# _framework density 23.975448
#
# number of rings (size 3 to 8) (size 9 to 14) (size 15 to 20)
#    0.000    1.818    0.000    7.636    0.000    1.455 
#    0.000    4.545    0.000    0.000    0.000   43.273 
#    0.000    0.000    0.000    0.000    0.000    0.000 
#
# Total GULP energy -122831.614413 kJ/mol
# GULP energy per Si atom -5583.255201 kJ/mol
# Density = 2.392088 g / cm^3
# Si number density = 23.975448 Si / 1000 Ang^3
#
#
#
# Elastic Constant Matrix: (Units=GPa)
#
#
# Indices 1 2 3 4 5 6 
#
# 1 51.8233 -6.2822 6.8530 0.0000 0.0000 0.0000
# 2 -6.2822 122.4067 25.9323 0.0000 0.0000 0.0000
# 3 6.8530 25.9323 134.8641 0.0000 0.0000 0.0000
# 4 0.0000 0.0000 0.0000 45.1320 0.0000 0.0000
# 5 0.0000 0.0000 0.0000 0.0000 17.6627 0.0000
# 6 0.0000 0.0000 0.0000 0.0000 0.0000 -20.7083
#
#
#
# Elastic Compliance Matrix: (Units=1/GPa)
#
#
# Indices 1 2 3 4 5 6 
#
# 1 0.019614 0.001270 -0.001241 0.000000 0.000000 0.000000
# 2 0.001270 0.008599 -0.001718 0.000000 0.000000 0.000000
# 3 -0.001241 -0.001718 0.007808 0.000000 0.000000 0.000000
# 4 0.000000 0.000000 0.000000 0.022157 0.000000 0.000000
# 5 0.000000 0.000000 0.000000 0.000000 0.056616 0.000000
# 6 0.000000 0.000000 0.000000 0.000000 0.000000 -0.048290
#
#
# Mechanical properties :
#
#
# Convention : Reuss Voigt Hill
#
# Bulk Modulus (GPa) = 30.63460 40.23337 35.43399
# Shear Modulus (GPa) = 61.90860 27.25668 44.58264
#
# Velocity S-wave (km/s) = 5.08702 3.37539 4.31688
# Velocity P-wave (km/s) = 6.87814 5.65761 6.29751
#
# Compressibility (1/GPa) = 0.03264283
#
# Stress axis : x y z
#
# Youngs Moduli (GPa) = 50.98313 116.29822 128.06980
#
# Poissons Ratio (x) = -0.14764 0.15891
# Poissons Ratio (y) = -0.06472 0.22001
# Poissons Ratio (z) = 0.06326 0.19979
#
# Static dielectric constant tensor:
#      x y z
#    x 1.922100 0.000000 0.000000 
#    y 0.000000 2.026460 0.000000 
#    z 0.000000 0.000000 1.936970 
# 
# From -- ./inp_files/2677.got.cif
#   From: 2010.05.17/outbox.cif.g08.bks.cpg/sg39_2_cif.got.tgz:2677.got - 2010.06.03 18:22:40.
