data_PCOD9360883
_publ_section_title
;
Structure prediction by ZEFSAII (Michael W. Deem and Ramdas Pophale) SiO2 
 PCOD9360883
Probable space group: A B M 2
;
_chemical_formula_sum "Si O2"
_cell_formula_units_Z 64
_cell_length_a 9.676587
_cell_length_b 17.076390
_cell_length_c 21.047361
_cell_angle_alpha 90.000000
_cell_angle_beta 90.000000
_cell_angle_gamma 90.000000
_cell_volume 3477.890630
_symmetry_space_group_name_H-M "A B M 2"
_symmetry_group_IT_number 39
_symmetry_cell_setting 'orthorhombic'
loop_
_space_group_symop_operation_xyz
x,y,z
-x,-y,z
-x,1/2+y,z
x,1/2-y,z
x,1/2+y,1/2+z
-x,1/2-y,1/2+z
-x,y,1/2+z
x,-y,1/2+z
loop_
_atom_site_type_symbol
_atom_site_label
_atom_site_fract_x
_atom_site_fract_y
_atom_site_fract_z
Si Si1 0.828740 0.655254 0.422730
Si Si2 0.138058 0.098539 0.795982
Si Si3 0.665797 0.344533 0.550862
Si Si4 0.855071 0.843390 0.932617
Si Si5 0.342764 0.343803 0.540983
Si Si6 0.319347 0.341501 0.681522
Si Si7 0.402389 0.920782 0.680479
Si Si8 0.822877 0.083538 0.792137
O O1 0.828572 0.750000 0.422344
O O2 0.740453 0.625035 0.481596
O O3 0.771955 0.626407 0.355490
O O4 0.986535 0.627784 0.432732
O O5 0.191439 0.138679 0.860628
O O6 0.230223 0.118355 0.735420
O O7 0.977313 0.118643 0.780410
O O8 0.150318 0.006676 0.808225
O O9 0.686829 0.250000 0.563686
O O10 0.763611 0.370139 0.492497
O O11 0.505585 0.354401 0.531660
O O12 0.673135 0.397079 0.614526
O O13 0.858395 0.750000 0.939250
O O14 0.320129 0.250000 0.543499
O O15 0.296790 0.374062 0.610086
O O16 0.286620 0.250000 0.682314
O O17 0.481978 0.354499 0.692744
O O18 0.287145 0.917732 0.735249
O O19 0.500000 0.000000 0.678225
#
# Coordination Sequence:
#
# PCOD9360883 Si02
#       8
#     8   8   8   8   8   8   8   8
#     4   9  18  34  56  81 110 143 180 228 280 333
#     4  10  20  38  55  80 113 152 187 234 285 339
#     4   9  19  36  56  79 109 144 184 233 279 331
#     4   9  18  34  56  81 110 142 183 231 278 332
#     4   8  16  32  52  77 106 137 177 226 275 322
#     4  10  20  36  60  84 111 149 190 232 281 340
#     4  11  21  38  56  81 117 152 186 237 287 342
#     4  10  22  37  55  78 116 149 188 235 286 337
#
# _framework density 18.401959000000002
#
# number of rings (size 3 to 8) (size 9 to 14) (size 15 to 20)
#    0.000    2.500    1.250    1.500    0.000    3.500 
#    4.500    2.500    0.000    0.000    0.000    0.000 
#    0.000    0.000    0.000    0.000    0.000    0.000 
#
# Total GULP energy -178166.974203 kJ/mol
# GULP energy per Si atom -5567.717944 kJ/mol
# Density = 1.836007 g / cm^3
# Si number density = 18.401959 Si / 1000 Ang^3
#
#
#
# Elastic Constant Matrix: (Units=GPa)
#
#
# Indices 1 2 3 4 5 6 
#
# 1 57.4423 14.6204 88.4257 0.0000 0.0000 0.0000
# 2 14.6204 21.9189 31.1852 0.0000 0.0000 0.0000
# 3 88.4257 31.1852 172.6996 0.0000 0.0000 0.0000
# 4 0.0000 0.0000 0.0000 4.9540 0.0000 0.0000
# 5 0.0000 0.0000 0.0000 0.0000 37.8524 0.0000
# 6 0.0000 0.0000 0.0000 0.0000 0.0000 15.4348
#
#
#
# Elastic Compliance Matrix: (Units=1/GPa)
#
#
# Indices 1 2 3 4 5 6 
#
# 1 0.082952 0.006861 -0.043712 0.000000 0.000000 0.000000
# 2 0.006861 0.061964 -0.014702 0.000000 0.000000 0.000000
# 3 -0.043712 -0.014702 0.030827 0.000000 0.000000 0.000000
# 4 0.000000 0.000000 0.000000 0.201858 0.000000 0.000000
# 5 0.000000 0.000000 0.000000 0.000000 0.026418 0.000000
# 6 0.000000 0.000000 0.000000 0.000000 0.000000 0.064789
#
#
# Mechanical properties :
#
#
# Convention : Reuss Voigt Hill
#
# Bulk Modulus (GPa) = 13.76730 57.83593 35.80162
# Shear Modulus (GPa) = 8.38749 19.50352 13.94551
#
# Velocity S-wave (km/s) = 2.13725 3.25908 2.75585
# Velocity P-wave (km/s) = 3.68621 6.75719 5.44278
#
# Compressibility (1/GPa) = 0.07263587
#
# Stress axis : x y z
#
# Youngs Moduli (GPa) = 12.05519 16.13847 32.43956
#
# Poissons Ratio (x) = -0.11072 1.41799
# Poissons Ratio (y) = -0.08271 0.47692
# Poissons Ratio (z) = 0.52695 0.23727
#
# Static dielectric constant tensor:
#      x y z
#    x 1.633130 0.000000 0.000000 
#    y 0.000000 1.651720 0.000000 
#    z 0.000000 0.000000 1.641830 
# 
# From -- ./inp_files/14194.got.cif
#   From: 2010.05.17/outbox.cif.g08.bks.cpg/sg39_8_cif.got.tgz:14194.got - 2010.06.03 18:22:40.
