data_PCOD9360796
_publ_section_title
;
Structure prediction by ZEFSAII (Michael W. Deem and Ramdas Pophale) SiO2 
 PCOD9360796
Probable space group: A B M 2
;
_chemical_formula_sum "Si O2"
_cell_formula_units_Z 48
_cell_length_a 14.358464
_cell_length_b 8.738265
_cell_length_c 20.776596
_cell_angle_alpha 90.000000
_cell_angle_beta 90.000000
_cell_angle_gamma 90.000000
_cell_volume 2606.799265
_symmetry_space_group_name_H-M "A B M 2"
_symmetry_group_IT_number 39
_symmetry_cell_setting 'orthorhombic'
loop_
_space_group_symop_operation_xyz
x,y,z
-x,-y,z
-x,1/2+y,z
x,1/2-y,z
x,1/2+y,1/2+z
-x,1/2-y,1/2+z
-x,y,1/2+z
x,-y,1/2+z
loop_
_atom_site_type_symbol
_atom_site_label
_atom_site_fract_x
_atom_site_fract_y
_atom_site_fract_z
Si Si1 0.396568 0.932870 0.307190
Si Si2 0.711581 0.567213 0.429826
Si Si3 0.289604 0.932480 0.685322
Si Si4 0.395877 0.933066 0.552034
Si Si5 0.101283 0.567032 0.228117
Si Si6 0.898729 0.067018 0.380352
O O1 0.398488 0.750000 0.311781
O O2 0.500000 0.000000 0.304944
O O3 0.344141 0.001353 0.368717
O O4 0.342763 0.983826 0.243187
O O5 0.709829 0.750000 0.428643
O O6 0.661605 0.505417 0.493502
O O7 0.816788 0.507131 0.421692
O O8 0.291476 0.750000 0.696281
O O9 0.342066 0.964940 0.618644
O O10 0.183762 0.991369 0.687633
O O11 0.401041 0.750000 0.543504
O O12 0.500000 0.000000 0.553931
O O13 0.101813 0.750000 0.220652
O O14 0.118393 0.533038 0.304256
O O15 0.000000 0.500000 0.212085
O O16 0.898170 0.250000 0.387667
O O17 0.000000 0.000000 0.396314
#
# Coordination Sequence:
#
# PCOD9360796 Si02
#       6
#     8   8   8   8   8   8
#     4  12  24  39  60  88 121 156 200 255 306 360
#     4  12  24  40  63  90 122 161 204 253 305 364
#     4  11  23  40  63  91 123 160 203 252 305 364
#     4  11  25  44  64  88 122 164 207 253 307 368
#     4  10  20  35  60  91 126 163 200 250 304 362
#     4  10  20  36  60  92 126 162 200 249 305 362
#
# _framework density 18.413384000000001
#
# number of rings (size 3 to 8) (size 9 to 14) (size 15 to 20)
#    0.000    1.000    1.667    6.000    0.000    5.333 
#    0.000    0.833    0.000    4.000    0.000    0.000 
#    0.000    0.000    0.000    0.000    0.000    0.000 
#
# Total GULP energy -134268.909699 kJ/mol
# GULP energy per Si atom -5594.537904 kJ/mol
# Density = 1.837147 g / cm^3
# Si number density = 18.413384 Si / 1000 Ang^3
#
#
#
# Elastic Constant Matrix: (Units=GPa)
#
#
# Indices 1 2 3 4 5 6 
#
# 1 191.0263 87.8641 82.0404 0.0000 0.0000 0.0000
# 2 87.8641 136.6900 83.8499 0.0000 0.0000 0.0000
# 3 82.0404 83.8499 112.3533 0.0000 0.0000 0.0000
# 4 0.0000 0.0000 0.0000 26.7040 0.0000 0.0000
# 5 0.0000 0.0000 0.0000 0.0000 26.0175 0.0000
# 6 0.0000 0.0000 0.0000 0.0000 0.0000 39.8911
#
#
#
# Elastic Compliance Matrix: (Units=1/GPa)
#
#
# Indices 1 2 3 4 5 6 
#
# 1 0.008227 -0.002957 -0.003801 0.000000 0.000000 0.000000
# 2 -0.002957 0.014556 -0.008704 0.000000 0.000000 0.000000
# 3 -0.003801 -0.008704 0.018172 0.000000 0.000000 0.000000
# 4 0.000000 0.000000 0.000000 0.037448 0.000000 0.000000
# 5 0.000000 0.000000 0.000000 0.000000 0.038436 0.000000
# 6 0.000000 0.000000 0.000000 0.000000 0.000000 0.025068
#
#
# Mechanical properties :
#
#
# Convention : Reuss Voigt Hill
#
# Bulk Modulus (GPa) = 99.68692 105.28651 102.48672
# Shear Modulus (GPa) = 28.38117 30.94355 29.66236
#
# Velocity S-wave (km/s) = 3.93024 4.10383 4.01797
# Velocity P-wave (km/s) = 8.65168 8.93077 8.79233
#
# Compressibility (1/GPa) = 0.01003141
#
# Stress axis : x y z
#
# Youngs Moduli (GPa) = 121.54669 68.70108 55.03098
#
# Poissons Ratio (x) = 0.20315 0.20916
# Poissons Ratio (y) = 0.35941 0.47898
# Poissons Ratio (z) = 0.46197 0.59797
#
# Static dielectric constant tensor:
#      x y z
#    x 1.621900 0.000000 0.000000 
#    y 0.000000 1.611200 0.000000 
#    z 0.000000 0.000000 1.606500 
# 
# From -- ./inp_files/12635.got.cif
#   From: 2010.05.17/outbox.cif.g08.bks.cpg/sg39_7_cif.got.tgz:12635.got - 2010.06.03 18:22:40.
