data_PCOD9360067
_publ_section_title
;
Structure prediction by ZEFSAII (Michael W. Deem and Ramdas Pophale) SiO2 
 PCOD9360067
Probable space group: A B M 2
;
_chemical_formula_sum "Si O2"
_cell_formula_units_Z 64
_cell_length_a 14.642256
_cell_length_b 8.671625
_cell_length_c 32.182288
_cell_angle_alpha 90.000000
_cell_angle_beta 90.000000
_cell_angle_gamma 90.000000
_cell_volume 4086.254402
_symmetry_space_group_name_H-M "A B M 2"
_symmetry_group_IT_number 39
_symmetry_cell_setting 'orthorhombic'
loop_
_space_group_symop_operation_xyz
x,y,z
-x,-y,z
-x,1/2+y,z
x,1/2-y,z
x,1/2+y,1/2+z
-x,1/2-y,1/2+z
-x,y,1/2+z
x,-y,1/2+z
loop_
_atom_site_type_symbol
_atom_site_label
_atom_site_fract_x
_atom_site_fract_y
_atom_site_fract_z
Si Si1 0.602501 0.564619 0.643210
Si Si2 0.710530 0.063910 0.474084
Si Si3 0.098606 0.435137 0.841675
Si Si4 0.602181 0.935469 0.890084
Si Si5 0.902297 0.935422 0.939065
Si Si6 0.714585 0.934021 0.311999
Si Si7 0.396866 0.564894 0.052138
Si Si8 0.603492 0.564077 0.734569
O O1 0.500000 0.500000 0.643189
O O2 0.599284 0.750000 0.643201
O O3 0.640422 0.517916 0.598061
O O4 0.640445 0.519533 0.688424
O O5 0.709869 0.250000 0.477035
O O6 0.650846 0.022499 0.433482
O O7 0.814475 0.013064 0.465177
O O8 0.665535 0.995561 0.515092
O O9 0.099711 0.250000 0.838985
O O10 0.111532 0.478425 0.890501
O O11 0.182337 0.504905 0.816312
O O12 0.000000 0.500000 0.828978
O O13 0.601130 0.750000 0.886872
O O14 0.500000 0.000000 0.889137
O O15 0.659328 0.002251 0.851760
O O16 0.905643 0.750000 0.940437
O O17 0.000000 0.000000 0.952676
O O18 0.712945 0.750000 0.312367
O O19 0.665196 0.996720 0.270934
O O20 0.500000 0.500000 0.047713
O O21 0.401858 0.750000 0.050370
O O22 0.500000 0.500000 0.738490
O O23 0.600379 0.750000 0.737617
#
# Coordination Sequence:
#
# PCOD9360067 Si02
#       8
#     8   8   8   8   8   8   8   8
#     4   8  16  30  48  69  94 124 160 200 244 288
#     4  10  20  34  49  69  97 129 163 199 240 287
#     4  10  19  35  54  74  97 126 161 205 248 289
#     4  11  22  36  48  64  95 133 170 203 237 284
#     4   9  18  33  51  71  94 122 158 201 243 284
#     4  12  23  34  49  72  98 130 167 202 243 293
#     4  10  19  31  48  72  99 129 164 201 241 289
#     4  10  19  33  51  71  98 131 164 203 246 292
#
# _framework density 15.662266000000001
#
# number of rings (size 3 to 8) (size 9 to 14) (size 15 to 20)
#    0.000    2.000    1.250    3.375    0.000    4.000 
#    0.000    0.000    0.000    0.000    0.000    0.875 
#    0.000    2.000    0.000    0.000    0.000    0.000 
#
# Total GULP energy -178478.971001 kJ/mol
# GULP energy per Si atom -5577.467844 kJ/mol
# Density = 1.562662 g / cm^3
# Si number density = 15.662266 Si / 1000 Ang^3
#
#
#
# Elastic Constant Matrix: (Units=GPa)
#
#
# Indices 1 2 3 4 5 6 
#
# 1 124.6132 39.1216 78.3690 0.0000 0.0000 0.0000
# 2 39.1216 52.2531 46.1418 0.0000 0.0000 0.0000
# 3 78.3690 46.1418 153.8139 0.0000 0.0000 0.0000
# 4 0.0000 0.0000 0.0000 20.3079 0.0000 0.0000
# 5 0.0000 0.0000 0.0000 0.0000 3.7468 0.0000
# 6 0.0000 0.0000 0.0000 0.0000 0.0000 26.2266
#
#
#
# Elastic Compliance Matrix: (Units=1/GPa)
#
#
# Indices 1 2 3 4 5 6 
#
# 1 0.012765 -0.005188 -0.004947 0.000000 0.000000 0.000000
# 2 -0.005188 0.028143 -0.005799 0.000000 0.000000 0.000000
# 3 -0.004947 -0.005799 0.010762 0.000000 0.000000 0.000000
# 4 0.000000 0.000000 0.000000 0.049242 0.000000 0.000000
# 5 0.000000 0.000000 0.000000 0.000000 0.266895 0.000000
# 6 0.000000 0.000000 0.000000 0.000000 0.000000 0.038129
#
#
# Mechanical properties :
#
#
# Convention : Reuss Voigt Hill
#
# Bulk Modulus (GPa) = 50.50462 73.10501 61.80481
# Shear Modulus (GPa) = 11.25100 21.19280 16.22190
#
# Velocity S-wave (km/s) = 2.68311 3.68246 3.22177
# Velocity P-wave (km/s) = 6.47417 8.05344 7.30660
#
# Compressibility (1/GPa) = 0.01980017
#
# Stress axis : x y z
#
# Youngs Moduli (GPa) = 78.33835 35.53309 92.92191
#
# Poissons Ratio (x) = 0.18436 0.45973
# Poissons Ratio (y) = 0.40644 0.53885
# Poissons Ratio (z) = 0.38758 0.20605
#
# Static dielectric constant tensor:
#      x y z
#    x 1.497280 0.000000 0.000000 
#    y 0.000000 1.529040 0.000000 
#    z 0.000000 0.000000 1.537470 
# 
# From -- ./inp_files/17982.got.cif
#   From: 2010.05.17/outbox.cif.g08.bks.cpg/sg39_9_cif.got.tgz:17982.got - 2010.06.03 18:22:40.
