data_PCOD9360229
_publ_section_title
;
Structure prediction by ZEFSAII (Michael W. Deem and Ramdas Pophale) SiO2 
 PCOD9360229
Probable space group: A B M 2
;
_chemical_formula_sum "Si O2"
_cell_formula_units_Z 64
_cell_length_a 24.572921
_cell_length_b 8.516436
_cell_length_c 15.915236
_cell_angle_alpha 90.000000
_cell_angle_beta 90.000000
_cell_angle_gamma 90.000000
_cell_volume 3330.640468
_symmetry_space_group_name_H-M "A B M 2"
_symmetry_group_IT_number 39
_symmetry_cell_setting 'orthorhombic'
loop_
_space_group_symop_operation_xyz
x,y,z
-x,-y,z
-x,1/2+y,z
x,1/2-y,z
x,1/2+y,1/2+z
-x,1/2-y,1/2+z
-x,y,1/2+z
x,-y,1/2+z
loop_
_atom_site_type_symbol
_atom_site_label
_atom_site_fract_x
_atom_site_fract_y
_atom_site_fract_z
Si Si1 0.330261 0.062364 0.528180
Si Si2 0.557349 0.436554 0.465375
Si Si3 0.674030 0.939820 0.206118
Si Si4 0.938883 0.438689 0.714809
Si Si5 0.938864 0.061302 0.031343
Si Si6 0.258152 0.558440 0.869665
Si Si7 0.133352 0.558422 0.873122
Si Si8 0.557649 0.061914 0.774534
O O1 0.334433 0.250000 0.524052
O O2 0.292450 0.008306 0.451024
O O3 0.390172 0.990937 0.516238
O O4 0.307780 0.010178 0.617973
O O5 0.500000 0.500000 0.499521
O O6 0.554998 0.250000 0.461702
O O7 0.562994 0.503119 0.370580
O O8 0.675256 0.750000 0.201359
O O9 0.711014 0.989381 0.284704
O O10 0.611621 0.987917 0.225194
O O11 0.940302 0.250000 0.712702
O O12 0.921844 0.500074 0.623097
O O13 0.899200 0.490300 0.789681
O O14 0.000000 0.500000 0.730532
O O15 0.940316 0.250000 0.033326
O O16 0.899096 0.009474 0.956595
O O17 0.000000 0.000000 0.015604
O O18 0.258031 0.750000 0.870179
O O19 0.195786 0.505518 0.872546
O O20 0.133725 0.750000 0.873191
O O21 0.556091 0.250000 0.775954
O O22 0.500000 0.000000 0.741155
#
# Coordination Sequence:
#
# PCOD9360229 Si02
#       8
#     8   8   8   8   8   8   8   8
#     4  11  22  38  60  84 111 147 188 229 281 335
#     4  11  21  35  58  85 115 146 182 227 279 336
#     4  10  21  38  59  81 110 147 188 229 279 335
#     4  10  19  33  54  82 113 146 183 224 275 331
#     4  10  19  33  54  82 114 147 184 226 276 330
#     4   9  19  39  59  77 110 150 187 231 280 331
#     4   9  19  34  56  81 107 147 191 228 275 330
#     4  10  19  34  56  84 113 146 181 222 280 335
#
# _framework density 19.215523000000001
#
# number of rings (size 3 to 8) (size 9 to 14) (size 15 to 20)
#    0.000    2.000    1.250    4.500    0.000    2.500 
#    0.000    3.125    0.000    7.500    0.000    0.000 
#    0.000    0.000    0.000    0.000    0.000    0.000 
#
# Total GULP energy -178742.612256 kJ/mol
# GULP energy per Si atom -5585.706633 kJ/mol
# Density = 1.917179 g / cm^3
# Si number density = 19.215523 Si / 1000 Ang^3
#
#
#
# Elastic Constant Matrix: (Units=GPa)
#
#
# Indices 1 2 3 4 5 6 
#
# 1 139.8809 25.7871 104.0955 0.0000 0.0000 0.0000
# 2 25.7871 45.9503 26.2199 0.0000 0.0000 0.0000
# 3 104.0955 26.2199 159.5464 0.0000 0.0000 0.0000
# 4 0.0000 0.0000 0.0000 22.6265 0.0000 0.0000
# 5 0.0000 0.0000 0.0000 0.0000 17.6828 0.0000
# 6 0.0000 0.0000 0.0000 0.0000 0.0000 16.7164
#
#
#
# Elastic Compliance Matrix: (Units=1/GPa)
#
#
# Indices 1 2 3 4 5 6 
#
# 1 0.014254 -0.002971 -0.008812 0.000000 0.000000 0.000000
# 2 -0.002971 0.024634 -0.002110 0.000000 0.000000 0.000000
# 3 -0.008812 -0.002110 0.012364 0.000000 0.000000 0.000000
# 4 0.000000 0.000000 0.000000 0.044196 0.000000 0.000000
# 5 0.000000 0.000000 0.000000 0.000000 0.056552 0.000000
# 6 0.000000 0.000000 0.000000 0.000000 0.000000 0.059822
#
#
# Mechanical properties :
#
#
# Convention : Reuss Voigt Hill
#
# Bulk Modulus (GPa) = 42.61441 73.06473 57.83957
# Shear Modulus (GPa) = 20.20781 24.02349 22.11565
#
# Velocity S-wave (km/s) = 3.24642 3.53967 3.39621
# Velocity P-wave (km/s) = 6.02308 7.40352 6.74869
#
# Compressibility (1/GPa) = 0.02346624
#
# Stress axis : x y z
#
# Youngs Moduli (GPa) = 70.15487 40.59434 80.88183
#
# Poissons Ratio (x) = 0.12062 0.71271
# Poissons Ratio (y) = 0.20845 0.17064
# Poissons Ratio (z) = 0.61819 0.08565
#
# Static dielectric constant tensor:
#      x y z
#    x 1.654700 0.000000 0.000000 
#    y 0.000000 1.655520 0.000000 
#    z 0.000000 0.000000 1.667720 
# 
# From -- ./inp_files/10640.got.cif
#   From: 2010.05.17/outbox.cif.g08.bks.cpg/sg39_6_cif.got.tgz:10640.got - 2010.06.03 18:22:40.
