data_PCOD9360735
_publ_section_title
;
Structure prediction by ZEFSAII (Michael W. Deem and Ramdas Pophale) SiO2 
 PCOD9360735
Probable space group: A B M 2
;
_chemical_formula_sum "Si O2"
_cell_formula_units_Z 64
_cell_length_a 25.413399
_cell_length_b 9.135678
_cell_length_c 15.041490
_cell_angle_alpha 90.000000
_cell_angle_beta 90.000000
_cell_angle_gamma 90.000000
_cell_volume 3492.162129
_symmetry_space_group_name_H-M "A B M 2"
_symmetry_group_IT_number 39
_symmetry_cell_setting 'orthorhombic'
loop_
_space_group_symop_operation_xyz
x,y,z
-x,-y,z
-x,1/2+y,z
x,1/2-y,z
x,1/2+y,1/2+z
-x,1/2-y,1/2+z
-x,y,1/2+z
x,-y,1/2+z
loop_
_atom_site_type_symbol
_atom_site_label
_atom_site_fract_x
_atom_site_fract_y
_atom_site_fract_z
Si Si1 0.444518 0.574583 0.980360
Si Si2 0.052289 0.582137 0.699604
Si Si3 0.367221 0.426313 0.843580
Si Si4 0.833136 0.427909 0.489795
Si Si5 0.052120 0.082054 0.982310
Si Si6 0.755255 0.926567 0.834835
Si Si7 0.554304 0.575788 0.688051
Si Si8 0.168875 0.427682 0.195334
O O1 0.500000 0.500000 0.954784
O O2 0.447921 0.750000 0.969854
O O3 0.398283 0.507496 0.921590
O O4 0.435686 0.540142 0.084746
O O5 0.048857 0.750000 0.728161
O O6 0.052334 0.581092 0.590936
O O7 0.110003 0.523645 0.724932
O O8 0.000000 0.500000 0.729426
O O9 0.370662 0.250000 0.856369
O O10 0.305994 0.466317 0.838949
O O11 0.397934 0.463655 0.752611
O O12 0.836677 0.250000 0.490055
O O13 0.890692 0.481160 0.457671
O O14 0.786461 0.469548 0.424347
O O15 0.824462 0.470708 0.591977
O O16 0.048972 0.250000 0.953199
O O17 0.000000 0.000000 0.952269
O O18 0.758532 0.750000 0.825673
O O19 0.786336 0.002279 0.754964
O O20 0.500000 0.500000 0.716040
O O21 0.546738 0.750000 0.693710
O O22 0.169986 0.250000 0.200066
#
# Coordination Sequence:
#
# PCOD9360735 Si02
#       8
#     8   8   8   8   8   8   8   8
#     4  10  20  35  56  81 108 137 168 204 250 301
#     4   8  14  25  44  69  94 121 156 201 252 306
#     4  10  21  36  53  76 107 140 175 215 254 295
#     4   8  16  33  53  70  96 135 169 203 257 316
#     4   8  13  24  44  68  92 120 157 200 249 306
#     4  10  21  36  53  74 101 136 178 217 252 297
#     4   9  19  35  54  78 108 137 165 203 251 300
#     4   9  18  34  53  72  98 132 169 211 258 307
#
# _framework density 18.326756
#
# number of rings (size 3 to 8) (size 9 to 14) (size 15 to 20)
#    0.000    3.000    0.000    2.250    0.000    4.000 
#    0.000    3.750    0.000    3.000    0.000    0.000 
#    0.000    0.000    0.000    0.000    0.000    0.000 
#
# Total GULP energy -178428.960825 kJ/mol
# GULP energy per Si atom -5575.905026 kJ/mol
# Density = 1.828504 g / cm^3
# Si number density = 18.326756 Si / 1000 Ang^3
#
#
#
# Elastic Constant Matrix: (Units=GPa)
#
#
# Indices 1 2 3 4 5 6 
#
# 1 220.5039 58.0315 91.7545 0.0000 0.0000 0.0000
# 2 58.0315 25.1517 30.8057 0.0000 0.0000 0.0000
# 3 91.7545 30.8057 89.7600 0.0000 0.0000 0.0000
# 4 0.0000 0.0000 0.0000 28.2717 0.0000 0.0000
# 5 0.0000 0.0000 0.0000 0.0000 -2.5484 0.0000
# 6 0.0000 0.0000 0.0000 0.0000 0.0000 30.2755
#
#
#
# Elastic Compliance Matrix: (Units=1/GPa)
#
#
# Indices 1 2 3 4 5 6 
#
# 1 0.012756 -0.023223 -0.005070 0.000000 0.000000 0.000000
# 2 -0.023223 0.110868 -0.014311 0.000000 0.000000 0.000000
# 3 -0.005070 -0.014311 0.021235 0.000000 0.000000 0.000000
# 4 0.000000 0.000000 0.000000 0.035371 0.000000 0.000000
# 5 0.000000 0.000000 0.000000 0.000000 -0.392396 0.000000
# 6 0.000000 0.000000 0.000000 0.000000 0.000000 0.033030
#
#
# Mechanical properties :
#
#
# Convention : Reuss Voigt Hill
#
# Bulk Modulus (GPa) = 16.76390 77.39988 47.08189
# Shear Modulus (GPa) = -67.52763 21.52136 -23.00314
#
# Velocity S-wave (km/s) = -6.07671 3.43054 -3.54668
# Velocity P-wave (km/s) = 6.32994 7.61685 2.99569
#
# Compressibility (1/GPa) = 0.05965199
#
# Stress axis : x y z
#
# Youngs Moduli (GPa) = 78.39223 9.01971 47.09263
#
# Poissons Ratio (x) = 0.20946 0.23875
# Poissons Ratio (y) = 1.82050 0.67395
# Poissons Ratio (z) = 0.39742 0.12908
#
# Static dielectric constant tensor:
#      x y z
#    x 1.618790 0.000000 0.000000 
#    y 0.000000 1.616960 0.000000 
#    z 0.000000 0.000000 1.651360 
# 
# From -- ./inp_files/10646.got.cif
#   From: 2010.05.17/outbox.cif.g08.bks.cpg/sg39_6_cif.got.tgz:10646.got - 2010.06.03 18:22:40.
