data_PCOD9360564
_publ_section_title
;
Structure prediction by ZEFSAII (Michael W. Deem and Ramdas Pophale) SiO2 
 PCOD9360564
Probable space group: A B M 2
;
_chemical_formula_sum "Si O2"
_cell_formula_units_Z 48
_cell_length_a 9.184317
_cell_length_b 8.763119
_cell_length_c 32.876098
_cell_angle_alpha 90.000000
_cell_angle_beta 90.000000
_cell_angle_gamma 90.000000
_cell_volume 2645.975635
_symmetry_space_group_name_H-M "A B M 2"
_symmetry_group_IT_number 39
_symmetry_cell_setting 'orthorhombic'
loop_
_space_group_symop_operation_xyz
x,y,z
-x,-y,z
-x,1/2+y,z
x,1/2-y,z
x,1/2+y,1/2+z
-x,1/2-y,1/2+z
-x,y,1/2+z
x,-y,1/2+z
loop_
_atom_site_type_symbol
_atom_site_label
_atom_site_fract_x
_atom_site_fract_y
_atom_site_fract_z
Si Si1 0.664442 0.432618 0.282620
Si Si2 0.160657 0.432894 0.535542
Si Si3 0.663814 0.432300 0.700869
Si Si4 0.664219 0.432928 0.371483
Si Si5 0.663037 0.433004 0.610858
Si Si6 0.337396 0.567318 0.954422
O O1 0.500000 0.500000 0.283570
O O2 0.655603 0.250000 0.279298
O O3 0.734753 0.499194 0.241604
O O4 0.730040 0.470654 0.327050
O O5 0.156224 0.250000 0.538193
O O6 0.242910 0.498456 0.574726
O O7 0.246759 0.474327 0.494340
O O8 0.000000 0.500000 0.533832
O O9 0.500000 0.500000 0.699709
O O10 0.655898 0.250000 0.704938
O O11 0.724935 0.469274 0.656105
O O12 0.500000 0.500000 0.370715
O O13 0.342914 0.750000 0.374986
O O14 0.730088 0.502400 0.412512
O O15 0.500000 0.500000 0.608222
O O16 0.655400 0.250000 0.607356
O O17 0.500000 0.500000 0.958530
O O18 0.346987 0.750000 0.951413
#
# Coordination Sequence:
#
# PCOD9360564 Si02
#       6
#     8   8   8   8   8   8
#     4   9  15  22  35  59  92 127 160 194 236 284
#     4  11  24  39  55  75  99 130 167 208 256 306
#     4   9  16  25  40  64  94 128 162 197 239 285
#     4   9  16  25  40  64  94 128 162 197 239 285
#     4  10  20  34  53  77 104 134 170 209 250 298
#     4  10  20  33  51  75 100 129 165 203 246 294
#
# _framework density 18.140757000000001
#
# number of rings (size 3 to 8) (size 9 to 14) (size 15 to 20)
#    0.000    2.333    0.000    5.500    0.000    8.000 
#    0.000    0.000    0.000    0.000    0.000    1.167 
#    0.000    5.333    0.000    0.000    0.000    0.000 
#
# Total GULP energy -133738.067441 kJ/mol
# GULP energy per Si atom -5572.419477 kJ/mol
# Density = 1.809947 g / cm^3
# Si number density = 18.140757 Si / 1000 Ang^3
#
#
#
# Elastic Constant Matrix: (Units=GPa)
#
#
# Indices 1 2 3 4 5 6 
#
# 1 39.9151 21.0145 56.0101 0.0000 0.0000 0.0000
# 2 21.0145 72.5779 78.7418 0.0000 0.0000 0.0000
# 3 56.0101 78.7418 244.3912 0.0000 0.0000 0.0000
# 4 0.0000 0.0000 0.0000 39.3188 0.0000 0.0000
# 5 0.0000 0.0000 0.0000 0.0000 -4.9729 0.0000
# 6 0.0000 0.0000 0.0000 0.0000 0.0000 16.0058
#
#
#
# Elastic Compliance Matrix: (Units=1/GPa)
#
#
# Indices 1 2 3 4 5 6 
#
# 1 0.037186 -0.002338 -0.007769 0.000000 0.000000 0.000000
# 2 -0.002338 0.021330 -0.006337 0.000000 0.000000 0.000000
# 3 -0.007769 -0.006337 0.007914 0.000000 0.000000 0.000000
# 4 0.000000 0.000000 0.000000 0.025433 0.000000 0.000000
# 5 0.000000 0.000000 0.000000 0.000000 -0.201090 0.000000
# 6 0.000000 0.000000 0.000000 0.000000 0.000000 0.062477
#
#
# Mechanical properties :
#
#
# Convention : Reuss Voigt Hill
#
# Bulk Modulus (GPa) = 29.81303 74.26857 52.04080
# Shear Modulus (GPa) = -1864.90746 23.47818 -920.71464
#
# Velocity S-wave (km/s) = -32.09755 3.60143 -22.55307
# Velocity P-wave (km/s) = 36.84020 7.63694 25.48409
#
# Compressibility (1/GPa) = 0.03354238
#
# Stress axis : x y z
#
# Youngs Moduli (GPa) = 26.89195 46.88226 126.35931
#
# Poissons Ratio (x) = 0.10962 0.98169
# Poissons Ratio (y) = 0.06288 0.80069
# Poissons Ratio (z) = 0.20892 0.29707
#
# Static dielectric constant tensor:
#      x y z
#    x 1.566180 0.000000 0.000000 
#    y 0.000000 1.604950 0.000000 
#    z 0.000000 0.000000 1.708520 
# 
# From -- ./inp_files/17618.got.cif
#   From: 2010.05.17/outbox.cif.g08.bks.cpg/sg39_9_cif.got.tgz:17618.got - 2010.06.03 18:22:40.
