data_PCOD9360387
_publ_section_title
;
Structure prediction by ZEFSAII (Michael W. Deem and Ramdas Pophale) SiO2 
 PCOD9360387
Probable space group: A B M 2
;
_chemical_formula_sum "Si O2"
_cell_formula_units_Z 64
_cell_length_a 19.895282
_cell_length_b 8.828086
_cell_length_c 20.812630
_cell_angle_alpha 90.000000
_cell_angle_beta 90.000000
_cell_angle_gamma 90.000000
_cell_volume 3655.473317
_symmetry_space_group_name_H-M "A B M 2"
_symmetry_group_IT_number 39
_symmetry_cell_setting 'orthorhombic'
loop_
_space_group_symop_operation_xyz
x,y,z
-x,-y,z
-x,1/2+y,z
x,1/2-y,z
x,1/2+y,1/2+z
-x,1/2-y,1/2+z
-x,y,1/2+z
x,-y,1/2+z
loop_
_atom_site_type_symbol
_atom_site_label
_atom_site_fract_x
_atom_site_fract_y
_atom_site_fract_z
Si Si1 0.428272 0.931842 0.934310
Si Si2 0.214025 0.067847 0.514284
Si Si3 0.713547 0.932341 0.380017
Si Si4 0.929881 0.568630 0.561968
Si Si5 0.706410 0.930507 0.133755
Si Si6 0.427806 0.931719 0.085388
Si Si7 0.783504 0.568080 0.755501
Si Si8 0.929105 0.432110 0.212001
O O1 0.432448 0.750000 0.930979
O O2 0.363615 0.980287 0.893263
O O3 0.500000 0.000000 0.914964
O O4 0.416348 0.970230 0.009669
O O5 0.220353 0.250000 0.525197
O O6 0.245067 0.034932 0.445030
O O7 0.135829 0.026181 0.521776
O O8 0.254512 0.984307 0.570043
O O9 0.713931 0.750000 0.370862
O O10 0.748128 0.010725 0.319826
O O11 0.935270 0.750000 0.561130
O O12 0.919811 0.522703 0.636827
O O13 0.000000 0.500000 0.539218
O O14 0.704747 0.750000 0.137814
O O15 0.631661 0.997050 0.126660
O O16 0.744629 0.999254 0.194725
O O17 0.427768 0.750000 0.090883
O O18 0.500000 0.000000 0.102917
O O19 0.781044 0.750000 0.751546
O O20 0.862113 0.521909 0.750001
O O21 0.933836 0.250000 0.213797
O O22 0.000000 0.500000 0.234321
#
# Coordination Sequence:
#
# PCOD9360387 Si02
#       8
#     8   8   8   8   8   8   8   8
#     4   9  18  33  56  82 112 147 184 227 276 333
#     4  10  19  37  59  80 113 151 184 229 288 337
#     4  10  21  38  58  83 114 152 191 231 283 341
#     4   9  17  31  53  80 110 144 183 229 283 338
#     4  12  23  35  57  87 114 146 191 237 280 336
#     4  10  19  35  57  85 118 151 186 233 287 337
#     4  11  23  40  58  81 115 153 190 238 290 337
#     4   9  18  33  55  80 108 142 185 230 282 341
#
# _framework density 17.507992999999999
#
# number of rings (size 3 to 8) (size 9 to 14) (size 15 to 20)
#    0.000    2.000    2.500    1.875    0.000    3.000 
#    0.000    1.250    0.000    4.500    0.000    0.000 
#    0.000    0.000    0.000    0.000    0.000    0.000 
#
# Total GULP energy -178609.012091 kJ/mol
# GULP energy per Si atom -5581.531628 kJ/mol
# Density = 1.746814 g / cm^3
# Si number density = 17.507993 Si / 1000 Ang^3
#
#
#
# Elastic Constant Matrix: (Units=GPa)
#
#
# Indices 1 2 3 4 5 6 
#
# 1 197.2957 58.3951 76.5054 0.0000 0.0000 0.0000
# 2 58.3951 49.8737 48.1846 0.0000 0.0000 0.0000
# 3 76.5054 48.1846 88.1627 0.0000 0.0000 0.0000
# 4 0.0000 0.0000 0.0000 23.4247 0.0000 0.0000
# 5 0.0000 0.0000 0.0000 0.0000 26.8117 0.0000
# 6 0.0000 0.0000 0.0000 0.0000 0.0000 33.6638
#
#
#
# Elastic Compliance Matrix: (Units=1/GPa)
#
#
# Indices 1 2 3 4 5 6 
#
# 1 0.008387 -0.005908 -0.004049 0.000000 0.000000 0.000000
# 2 -0.005908 0.046645 -0.020366 0.000000 0.000000 0.000000
# 3 -0.004049 -0.020366 0.025988 0.000000 0.000000 0.000000
# 4 0.000000 0.000000 0.000000 0.042690 0.000000 0.000000
# 5 0.000000 0.000000 0.000000 0.000000 0.037297 0.000000
# 6 0.000000 0.000000 0.000000 0.000000 0.000000 0.029705
#
#
# Mechanical properties :
#
#
# Convention : Reuss Voigt Hill
#
# Bulk Modulus (GPa) = 49.08654 77.94469 63.51561
# Shear Modulus (GPa) = 19.36845 26.92986 23.14915
#
# Velocity S-wave (km/s) = 3.32966 3.92618 3.64016
# Velocity P-wave (km/s) = 6.54826 8.07275 7.35014
#
# Compressibility (1/GPa) = 0.02037218
#
# Stress axis : x y z
#
# Youngs Moduli (GPa) = 119.22552 21.43837 38.47992
#
# Poissons Ratio (x) = 0.12667 0.15581
# Poissons Ratio (y) = 0.70444 0.78370
# Poissons Ratio (z) = 0.48277 0.43662
#
# Static dielectric constant tensor:
#      x y z
#    x 1.604720 0.000000 0.000000 
#    y 0.000000 1.587370 0.000000 
#    z 0.000000 0.000000 1.567260 
# 
# From -- ./inp_files/13106.got.cif
#   From: 2010.05.17/outbox.cif.g08.bks.cpg/sg39_7_cif.got.tgz:13106.got - 2010.06.03 18:22:40.
