data_PCOD9360164
_publ_section_title
;
Structure prediction by ZEFSAII (Michael W. Deem and Ramdas Pophale) SiO2 
 PCOD9360164
Probable space group: A B M 2
;
_chemical_formula_sum "Si O2"
_cell_formula_units_Z 64
_cell_length_a 10.400607
_cell_length_b 17.489683
_cell_length_c 18.603906
_cell_angle_alpha 90.000000
_cell_angle_beta 90.000000
_cell_angle_gamma 90.000000
_cell_volume 3384.112256
_symmetry_space_group_name_H-M "A B M 2"
_symmetry_group_IT_number 39
_symmetry_cell_setting 'orthorhombic'
loop_
_space_group_symop_operation_xyz
x,y,z
-x,-y,z
-x,1/2+y,z
x,1/2-y,z
x,1/2+y,1/2+z
-x,1/2-y,1/2+z
-x,y,1/2+z
x,-y,1/2+z
loop_
_atom_site_type_symbol
_atom_site_label
_atom_site_fract_x
_atom_site_fract_y
_atom_site_fract_z
Si Si1 0.692873 0.060237 0.180830
Si Si2 0.087446 0.660865 0.115185
Si Si3 0.238379 0.659604 0.817823
Si Si4 0.366671 0.518815 0.534690
Si Si5 0.517437 0.588890 0.818714
Si Si6 0.237254 0.385757 0.477905
Si Si7 0.461760 0.839533 0.473175
Si Si8 0.096191 0.065150 0.207468
O O1 0.791491 0.127934 0.160820
O O2 0.606405 0.086307 0.247533
O O3 0.623633 0.030224 0.108425
O O4 0.776492 0.984371 0.195518
O O5 0.061482 0.750000 0.128914
O O6 0.970383 0.605274 0.138698
O O7 0.137483 0.649341 0.034025
O O8 0.249611 0.750000 0.818675
O O9 0.378720 0.624793 0.800695
O O10 0.201925 0.630334 0.896692
O O11 0.132604 0.630805 0.762423
O O12 0.500000 0.500000 0.494597
O O13 0.251596 0.476227 0.494370
O O14 0.374421 0.609965 0.528156
O O15 0.500000 0.500000 0.836982
O O16 0.564214 0.632702 0.890743
O O17 0.383669 0.352109 0.486842
O O18 0.435889 0.750000 0.480023
O O19 0.000000 0.000000 0.235950
#
# Coordination Sequence:
#
# PCOD9360164 Si02
#       8
#     8   8   8   8   8   8   8   8
#     4  10  21  36  58  83 119 155 201 240 298 374
#     4  10  20  37  60  81 111 153 204 260 300 348
#     4  11  21  35  59  90 121 149 195 257 311 364
#     4   9  18  32  54  80 111 155 190 230 282 361
#     4  11  19  33  58  86 120 159 193 235 302 382
#     4   9  18  35  58  84 110 153 202 242 301 365
#     4  10  19  32  53  87 125 153 191 242 300 365
#     4  10  22  39  56  81 112 158 204 248 298 355
#
# _framework density 18.911902000000001
#
# number of rings (size 3 to 8) (size 9 to 14) (size 15 to 20)
#    0.000    2.000    1.250    4.875    0.000    1.000 
#    0.000    4.375    0.000    0.000    0.000    0.000 
#    0.000    0.000    0.000    0.000    0.000    0.000 
#
# Total GULP energy -178167.275323 kJ/mol
# GULP energy per Si atom -5567.727354 kJ/mol
# Density = 1.886886 g / cm^3
# Si number density = 18.911902 Si / 1000 Ang^3
#
#
#
# Elastic Constant Matrix: (Units=GPa)
#
#
# Indices 1 2 3 4 5 6 
#
# 1 33.4724 5.4773 43.2797 0.0000 0.0000 0.0000
# 2 5.4773 59.5173 9.8422 0.0000 0.0000 0.0000
# 3 43.2797 9.8422 97.4333 0.0000 0.0000 0.0000
# 4 0.0000 0.0000 0.0000 9.1019 0.0000 0.0000
# 5 0.0000 0.0000 0.0000 0.0000 37.0755 0.0000
# 6 0.0000 0.0000 0.0000 0.0000 0.0000 18.2082
#
#
#
# Elastic Compliance Matrix: (Units=1/GPa)
#
#
# Indices 1 2 3 4 5 6 
#
# 1 0.070290 -0.001328 -0.031089 0.000000 0.000000 0.000000
# 2 -0.001328 0.017112 -0.001139 0.000000 0.000000 0.000000
# 3 -0.031089 -0.001139 0.024188 0.000000 0.000000 0.000000
# 4 0.000000 0.000000 0.000000 0.109867 0.000000 0.000000
# 5 0.000000 0.000000 0.000000 0.000000 0.026972 0.000000
# 6 0.000000 0.000000 0.000000 0.000000 0.000000 0.054920
#
#
# Mechanical properties :
#
#
# Convention : Reuss Voigt Hill
#
# Bulk Modulus (GPa) = 22.48191 34.18015 28.33103
# Shear Modulus (GPa) = 12.97735 21.66537 17.32136
#
# Velocity S-wave (km/s) = 2.62238 3.38833 3.02966
# Velocity P-wave (km/s) = 4.59159 5.78103 5.22030
#
# Compressibility (1/GPa) = 0.04448021
#
# Stress axis : x y z
#
# Youngs Moduli (GPa) = 14.22675 58.43732 41.34288
#
# Poissons Ratio (x) = 0.07758 1.28529
# Poissons Ratio (y) = 0.01889 0.04708
# Poissons Ratio (z) = 0.44229 0.06655
#
# Static dielectric constant tensor:
#      x y z
#    x 1.690970 0.000000 0.000000 
#    y 0.000000 1.703130 0.000000 
#    z 0.000000 0.000000 1.711830 
# 
# From -- ./inp_files/12428.got.cif
#   From: 2010.05.17/outbox.cif.g08.bks.cpg/sg39_7_cif.got.tgz:12428.got - 2010.06.03 18:22:40.
