data_PCOD9360998
_publ_section_title
;
Structure prediction by ZEFSAII (Michael W. Deem and Ramdas Pophale) SiO2 
 PCOD9360998
Probable space group: A B M 2
;
_chemical_formula_sum "Si O2"
_cell_formula_units_Z 64
_cell_length_a 17.017609
_cell_length_b 14.081050
_cell_length_c 11.818813
_cell_angle_alpha 90.000000
_cell_angle_beta 90.000000
_cell_angle_gamma 90.000000
_cell_volume 2832.092558
_symmetry_space_group_name_H-M "A B M 2"
_symmetry_group_IT_number 39
_symmetry_cell_setting 'orthorhombic'
loop_
_space_group_symop_operation_xyz
x,y,z
-x,-y,z
-x,1/2+y,z
x,1/2-y,z
x,1/2+y,1/2+z
-x,1/2-y,1/2+z
-x,y,1/2+z
x,-y,1/2+z
loop_
_atom_site_type_symbol
_atom_site_label
_atom_site_fract_x
_atom_site_fract_y
_atom_site_fract_z
Si Si1 0.476367 0.891015 0.708880
Si Si2 0.313342 0.646855 0.626862
Si Si3 0.530310 0.647588 0.451738
Si Si4 0.083620 0.037754 0.002756
Si Si5 0.809470 0.359405 0.074817
Si Si6 0.677986 0.027138 0.956081
Si Si7 0.866320 0.356901 0.712927
Si Si8 0.810702 0.452571 0.311501
O O1 0.383399 0.866677 0.716925
O O2 0.494706 0.856744 0.579303
O O3 0.514016 0.855652 0.828834
O O4 0.500000 0.000000 0.704529
O O5 0.325613 0.750000 0.571410
O O6 0.319720 0.559078 0.543751
O O7 0.224992 0.647133 0.673744
O O8 0.571489 0.750000 0.449592
O O9 0.589837 0.560402 0.443535
O O10 0.130045 0.942060 0.038724
O O11 0.078894 0.108899 0.109532
O O12 0.000000 0.000000 0.962835
O O13 0.139990 0.090953 0.914112
O O14 0.830799 0.250000 0.053906
O O15 0.729947 0.387652 0.008917
O O16 0.801431 0.382523 0.207416
O O17 0.725229 0.988478 0.848798
O O18 0.886463 0.250000 0.754031
O O19 0.861768 0.451105 0.789436
#
# Coordination Sequence:
#
# PCOD9360998 Si02
#       8
#     8   8   8   8   8   8   8   8
#     4  12  26  46  68  97 137 180 227 286 344 411
#     4  11  21  41  68  96 124 164 221 277 332 396
#     4  12  26  45  69  99 138 181 228 280 345 417
#     4  10  22  40  60  88 129 170 210 261 322 393
#     4  10  22  41  63  95 129 163 211 269 328 389
#     4  11  22  41  67  97 127 170 213 272 335 397
#     4  10  21  40  65  91 120 162 215 266 322 387
#     4  10  20  37  62  94 124 162 213 265 322 387
#
# _framework density 22.598132
#
# number of rings (size 3 to 8) (size 9 to 14) (size 15 to 20)
#    0.000    1.250    5.000    2.625    0.000    7.000 
#    0.000    0.000    0.000    0.000    0.000    0.000 
#    0.000    0.000    0.000    0.000    0.000    0.000 
#
# Total GULP energy -178399.261836 kJ/mol
# GULP energy per Si atom -5574.976932 kJ/mol
# Density = 2.254670 g / cm^3
# Si number density = 22.598132 Si / 1000 Ang^3
#
#
#
# Elastic Constant Matrix: (Units=GPa)
#
#
# Indices 1 2 3 4 5 6 
#
# 1 65.6016 -13.1586 8.5723 0.0000 0.0000 0.0000
# 2 -13.1586 90.1272 -0.4998 0.0000 0.0000 0.0000
# 3 8.5723 -0.4998 103.6997 0.0000 0.0000 0.0000
# 4 0.0000 0.0000 0.0000 -2.7555 0.0000 0.0000
# 5 0.0000 0.0000 0.0000 0.0000 19.0000 0.0000
# 6 0.0000 0.0000 0.0000 0.0000 0.0000 10.4148
#
#
#
# Elastic Compliance Matrix: (Units=1/GPa)
#
#
# Indices 1 2 3 4 5 6 
#
# 1 0.015877 0.002311 -0.001301 0.000000 0.000000 0.000000
# 2 0.002311 0.011432 -0.000136 0.000000 0.000000 0.000000
# 3 -0.001301 -0.000136 0.009750 0.000000 0.000000 0.000000
# 4 0.000000 0.000000 0.000000 -0.362911 0.000000 0.000000
# 5 0.000000 0.000000 0.000000 0.000000 0.052632 0.000000
# 6 0.000000 0.000000 0.000000 0.000000 0.000000 0.096017
#
#
# Mechanical properties :
#
#
# Convention : Reuss Voigt Hill
#
# Bulk Modulus (GPa) = 25.76891 27.69515 26.73203
# Shear Modulus (GPa) = -30.11779 22.96617 -3.57581
#
# Velocity S-wave (km/s) = -3.65465 3.19138 -1.25928
# Velocity P-wave (km/s) = 2.52602 5.08547 3.12100
#
# Compressibility (1/GPa) = 0.03880645
#
# Stress axis : x y z
#
# Youngs Moduli (GPa) = 62.98384 87.47329 102.56250
#
# Poissons Ratio (x) = -0.20214 0.13347
# Poissons Ratio (y) = -0.14555 0.01394
# Poissons Ratio (z) = 0.08196 0.01189
#
# Static dielectric constant tensor:
#      x y z
#    x 1.856480 0.000000 0.000000 
#    y 0.000000 1.820710 0.000000 
#    z 0.000000 0.000000 1.940650 
# 
# From -- ./inp_files/6900.got.cif
#   From: 2010.05.17/outbox.cif.g08.bks.cpg/sg39_4_cif.got.tgz:6900.got - 2010.06.03 18:22:40.
