data_PCOD9360801
_publ_section_title
;
Structure prediction by ZEFSAII (Michael W. Deem and Ramdas Pophale) SiO2 
 PCOD9360801
Probable space group: A B M 2
;
_chemical_formula_sum "Si O2"
_cell_formula_units_Z 64
_cell_length_a 9.045615
_cell_length_b 14.306802
_cell_length_c 22.737440
_cell_angle_alpha 90.000000
_cell_angle_beta 90.000000
_cell_angle_gamma 90.000000
_cell_volume 2942.539030
_symmetry_space_group_name_H-M "A B M 2"
_symmetry_group_IT_number 39
_symmetry_cell_setting 'orthorhombic'
loop_
_space_group_symop_operation_xyz
x,y,z
-x,-y,z
-x,1/2+y,z
x,1/2-y,z
x,1/2+y,1/2+z
-x,1/2-y,1/2+z
-x,y,1/2+z
x,-y,1/2+z
loop_
_atom_site_type_symbol
_atom_site_label
_atom_site_fract_x
_atom_site_fract_y
_atom_site_fract_z
Si Si1 0.830745 0.482440 0.486770
Si Si2 0.147565 0.859278 0.155695
Si Si3 0.355803 0.959759 0.801534
Si Si4 0.813035 0.361090 0.698373
Si Si5 0.237847 0.351307 0.787800
Si Si6 0.951297 0.351317 0.387116
Si Si7 0.295982 0.143263 0.416021
Si Si8 0.671591 0.526014 0.098094
O O1 0.868463 0.425733 0.427526
O O2 0.724672 0.570257 0.469408
O O3 0.740241 0.433056 0.538108
O O4 0.000000 0.500000 0.509147
O O5 0.151850 0.750000 0.135669
O O6 0.231096 0.864221 0.218588
O O7 0.977589 0.882526 0.173266
O O8 0.228385 0.933792 0.114089
O O9 0.240020 0.911746 0.758014
O O10 0.382026 0.897293 0.859281
O O11 0.500000 0.000000 0.767826
O O12 0.299678 0.060617 0.821406
O O13 0.804063 0.250000 0.706507
O O14 0.700625 0.400104 0.649668
O O15 0.307550 0.250000 0.799805
O O16 0.076699 0.351361 0.817378
O O17 0.898536 0.250000 0.408532
O O18 0.124836 0.356208 0.395722
O O19 0.339581 0.250000 0.430380
O O20 0.500000 0.500000 0.093487
#
# Coordination Sequence:
#
# PCOD9360801 Si02
#       8
#     8   8   8   8   8   8   8   8
#     4  10  21  39  64  90 121 166 220 272 313 367
#     4  10  22  41  68  96 125 164 214 266 315 376
#     4  12  24  38  60  93 134 175 206 255 319 394
#     4  11  24  42  66  96 126 167 217 265 315 375
#     4  10  20  35  60  93 125 158 196 250 314 373
#     4   9  18  36  63  95 123 156 206 264 317 367
#     4  10  21  38  63  93 125 162 209 262 314 371
#     4  12  26  43  63  92 129 169 210 264 331 393
#
# _framework density 21.749922999999999
#
# number of rings (size 3 to 8) (size 9 to 14) (size 15 to 20)
#    0.000    1.500    2.500    2.625    0.000    6.000 
#    0.000    2.500    0.000    0.000    0.000    0.000 
#    0.000    0.000    0.000    0.000    0.000    0.000 
#
# Total GULP energy -178243.256313 kJ/mol
# GULP energy per Si atom -5570.101760 kJ/mol
# Density = 2.170042 g / cm^3
# Si number density = 21.749923 Si / 1000 Ang^3
#
#
#
# Elastic Constant Matrix: (Units=GPa)
#
#
# Indices 1 2 3 4 5 6 
#
# 1 92.3726 25.6760 20.4071 0.0000 0.0000 0.0000
# 2 25.6760 101.2651 14.0517 0.0000 0.0000 0.0000
# 3 20.4071 14.0517 63.0462 0.0000 0.0000 0.0000
# 4 0.0000 0.0000 0.0000 -20.5223 0.0000 0.0000
# 5 0.0000 0.0000 0.0000 0.0000 18.7117 0.0000
# 6 0.0000 0.0000 0.0000 0.0000 0.0000 15.9094
#
#
#
# Elastic Compliance Matrix: (Units=1/GPa)
#
#
# Indices 1 2 3 4 5 6 
#
# 1 0.012312 -0.002651 -0.003395 0.000000 0.000000 0.000000
# 2 -0.002651 0.010761 -0.001540 0.000000 0.000000 0.000000
# 3 -0.003395 -0.001540 0.017303 0.000000 0.000000 0.000000
# 4 0.000000 0.000000 0.000000 -0.048727 0.000000 0.000000
# 5 0.000000 0.000000 0.000000 0.000000 0.053442 0.000000
# 6 0.000000 0.000000 0.000000 0.000000 0.000000 0.062856
#
#
# Mechanical properties :
#
#
# Convention : Reuss Voigt Hill
#
# Bulk Modulus (GPa) = 39.67401 41.88372 40.77886
# Shear Modulus (GPa) = 38.01665 15.92302 26.96983
#
# Velocity S-wave (km/s) = 4.18532 2.70866 3.52518
# Velocity P-wave (km/s) = 6.45263 5.39270 5.94633
#
# Compressibility (1/GPa) = 0.02520542
#
# Stress axis : x y z
#
# Youngs Moduli (GPa) = 81.21846 92.92876 57.79186
#
# Poissons Ratio (x) = 0.24634 0.19618
# Poissons Ratio (y) = 0.21530 0.08902
# Poissons Ratio (z) = 0.27570 0.14314
#
# Static dielectric constant tensor:
#      x y z
#    x 1.952040 0.000000 0.000000 
#    y 0.000000 1.986160 0.000000 
#    z 0.000000 0.000000 1.755620 
# 
# From -- ./inp_files/15698.got.cif
#   From: 2010.05.17/outbox.cif.g08.bks.cpg/sg39_8_cif.got.tgz:15698.got - 2010.06.03 18:22:40.
