data_PCOD9360223
_publ_section_title
;
Structure prediction by ZEFSAII (Michael W. Deem and Ramdas Pophale) SiO2 
 PCOD9360223
Probable space group: A B M 2
;
_chemical_formula_sum "Si O2"
_cell_formula_units_Z 56
_cell_length_a 14.767980
_cell_length_b 8.688362
_cell_length_c 26.118075
_cell_angle_alpha 90.000000
_cell_angle_beta 90.000000
_cell_angle_gamma 90.000000
_cell_volume 3351.198613
_symmetry_space_group_name_H-M "A B M 2"
_symmetry_group_IT_number 39
_symmetry_cell_setting 'orthorhombic'
loop_
_space_group_symop_operation_xyz
x,y,z
-x,-y,z
-x,1/2+y,z
x,1/2-y,z
x,1/2+y,1/2+z
-x,1/2-y,1/2+z
-x,y,1/2+z
x,-y,1/2+z
loop_
_atom_site_type_symbol
_atom_site_label
_atom_site_fract_x
_atom_site_fract_y
_atom_site_fract_z
Si Si1 0.782756 0.434696 0.830830
Si Si2 0.403901 0.065261 0.672529
Si Si3 0.899780 0.566045 0.922661
Si Si4 0.597212 0.934687 0.792580
Si Si5 0.898981 0.434412 0.730270
Si Si6 0.099677 0.935194 0.034155
Si Si7 0.210932 0.436002 0.634013
O O1 0.782826 0.250000 0.834731
O O2 0.830879 0.506646 0.880040
O O3 0.681401 0.495699 0.822867
O O4 0.840793 0.478626 0.780334
O O5 0.408496 0.250000 0.670518
O O6 0.391749 0.021483 0.732398
O O7 0.314833 0.014019 0.642091
O O8 0.500000 0.000000 0.654702
O O9 0.903909 0.750000 0.923119
O O10 0.000000 0.500000 0.911107
O O11 0.875016 0.504114 0.979059
O O12 0.597712 0.750000 0.795928
O O13 0.500000 0.000000 0.809237
O O14 0.903043 0.250000 0.727954
O O15 0.849197 0.496933 0.679865
O O16 0.000000 0.500000 0.733786
O O17 0.094853 0.750000 0.030317
O O18 0.168221 0.977780 0.079454
O O19 0.000000 0.000000 0.046905
O O20 0.208443 0.250000 0.638147
#
# Coordination Sequence:
#
# PCOD9360223 Si02
#       7
#     8   8   8   8   8   8   8
#     4  11  22  36  54  79 108 141 180 220 268 321
#     4   9  18  32  51  76 106 140 176 216 259 311
#     4  11  22  37  57  79 105 139 181 225 270 318
#     4  10  19  33  54  78 109 143 179 221 265 318
#     4  11  23  34  49  74 107 142 174 211 260 317
#     4  10  20  35  55  77 104 138 179 222 265 314
#     4  10  20  35  54  77 107 141 176 217 265 315
#
# _framework density 16.710439000000001
#
# number of rings (size 3 to 8) (size 9 to 14) (size 15 to 20)
#    0.000    1.714    1.429    4.714    0.000    6.286 
#    0.000    0.000    0.000    0.857    0.000    4.000 
#    0.000    0.000    0.000    0.000    0.000    0.000 
#
# Total GULP energy -156387.458073 kJ/mol
# GULP energy per Si atom -5585.266360 kJ/mol
# Density = 1.667241 g / cm^3
# Si number density = 16.710439 Si / 1000 Ang^3
#
#
#
# Elastic Constant Matrix: (Units=GPa)
#
#
# Indices 1 2 3 4 5 6 
#
# 1 173.1233 53.6705 103.7163 0.0000 0.0000 0.0000
# 2 53.6705 61.3561 50.2206 0.0000 0.0000 0.0000
# 3 103.7163 50.2206 116.6043 0.0000 0.0000 0.0000
# 4 0.0000 0.0000 0.0000 23.1461 0.0000 0.0000
# 5 0.0000 0.0000 0.0000 0.0000 19.3519 0.0000
# 6 0.0000 0.0000 0.0000 0.0000 0.0000 30.9902
#
#
#
# Elastic Compliance Matrix: (Units=1/GPa)
#
#
# Indices 1 2 3 4 5 6 
#
# 1 0.012685 -0.002874 -0.010045 0.000000 0.000000 0.000000
# 2 -0.002874 0.025823 -0.008566 0.000000 0.000000 0.000000
# 3 -0.010045 -0.008566 0.021200 0.000000 0.000000 0.000000
# 4 0.000000 0.000000 0.000000 0.043204 0.000000 0.000000
# 5 0.000000 0.000000 0.000000 0.000000 0.051675 0.000000
# 6 0.000000 0.000000 0.000000 0.000000 0.000000 0.032268
#
#
# Mechanical properties :
#
#
# Convention : Reuss Voigt Hill
#
# Bulk Modulus (GPa) = 59.74111 85.14429 72.44270
# Shear Modulus (GPa) = 21.23997 24.26271 22.75134
#
# Velocity S-wave (km/s) = 3.56906 3.81458 3.69386
# Velocity P-wave (km/s) = 7.26723 8.39433 7.85103
#
# Compressibility (1/GPa) = 0.01673889
#
# Stress axis : x y z
#
# Youngs Moduli (GPa) = 78.83128 38.72475 47.16930
#
# Poissons Ratio (x) = 0.11130 0.47384
# Poissons Ratio (y) = 0.22656 0.40403
# Poissons Ratio (z) = 0.79189 0.33170
#
# Static dielectric constant tensor:
#      x y z
#    x 1.549990 0.000000 0.000000 
#    y 0.000000 1.561930 0.000000 
#    z 0.000000 0.000000 1.543800 
# 
# From -- ./inp_files/14799.got.cif
#   From: 2010.05.17/outbox.cif.g08.bks.cpg/sg39_8_cif.got.tgz:14799.got - 2010.06.03 18:22:40.
