data_PCOD9360923
_publ_section_title
;
Structure prediction by ZEFSAII (Michael W. Deem and Ramdas Pophale) SiO2 
 PCOD9360923
Probable space group: A B M 2
;
_chemical_formula_sum "Si O2"
_cell_formula_units_Z 64
_cell_length_a 7.676244
_cell_length_b 30.333327
_cell_length_c 11.810947
_cell_angle_alpha 90.000000
_cell_angle_beta 90.000000
_cell_angle_gamma 90.000000
_cell_volume 2750.131994
_symmetry_space_group_name_H-M "A B M 2"
_symmetry_group_IT_number 39
_symmetry_cell_setting 'orthorhombic'
loop_
_space_group_symop_operation_xyz
x,y,z
-x,-y,z
-x,1/2+y,z
x,1/2-y,z
x,1/2+y,1/2+z
-x,1/2-y,1/2+z
-x,y,1/2+z
x,-y,1/2+z
loop_
_atom_site_type_symbol
_atom_site_label
_atom_site_fract_x
_atom_site_fract_y
_atom_site_fract_z
Si Si1 0.185730 0.198508 0.718940
Si Si2 0.389456 0.888817 0.637531
Si Si3 0.792506 0.638902 0.908646
Si Si4 0.234411 0.200077 0.239768
Si Si5 0.168154 0.168028 0.471647
Si Si6 0.270994 0.576105 0.026717
Si Si7 0.740642 0.034124 0.804888
Si Si8 0.867456 0.944156 0.750891
O O1 0.213792 0.250000 0.726659
O O2 0.284074 0.175217 0.822713
O O3 0.231726 0.181640 0.594785
O O4 0.974371 0.190669 0.724052
O O5 0.306118 0.883185 0.512516
O O6 0.344680 0.840762 0.690518
O O7 0.582724 0.905064 0.609556
O O8 0.324236 0.928258 0.718735
O O9 0.829278 0.600044 0.819395
O O10 0.958878 0.664709 0.961613
O O11 0.271581 0.250000 0.197768
O O12 0.248419 0.198142 0.375417
O O13 0.219695 0.117651 0.450421
O O14 0.120109 0.562933 0.115061
O O15 0.322716 0.540178 0.934095
O O16 0.948047 0.041966 0.801665
O O17 0.725773 0.983182 0.767148
#
# Coordination Sequence:
#
# PCOD9360923 Si02
#       8
#     8   8   8   8   8   8   8   8
#     4  10  20  36  66 104 131 168 235 292 337 401
#     4  12  26  44  66  98 145 183 220 279 354 417
#     4  11  22  39  66  96 133 179 223 283 344 405
#     4  10  21  39  66  98 133 177 224 283 346 409
#     4  11  19  40  68  96 132 174 233 282 336 402
#     4  12  26  44  71  98 138 184 225 278 352 418
#     4  11  26  47  70 104 137 176 236 294 341 412
#     4  11  25  44  74 100 131 177 237 288 346 404
#
# _framework density 23.271611
#
# number of rings (size 3 to 8) (size 9 to 14) (size 15 to 20)
#    0.000    1.000    5.000    1.875    3.500    2.500 
#    0.000    1.250    0.000    0.000    0.000    0.000 
#    0.000    0.000    0.000    0.000    0.000    0.000 
#
# Total GULP energy -178599.318485 kJ/mol
# GULP energy per Si atom -5581.228703 kJ/mol
# Density = 2.321864 g / cm^3
# Si number density = 23.271611 Si / 1000 Ang^3
#
#
#
# Elastic Constant Matrix: (Units=GPa)
#
#
# Indices 1 2 3 4 5 6 
#
# 1 29.3337 8.2791 4.0934 0.0000 0.0000 0.0000
# 2 8.2791 121.5291 34.7673 0.0000 0.0000 0.0000
# 3 4.0934 34.7673 122.2079 0.0000 0.0000 0.0000
# 4 0.0000 0.0000 0.0000 29.1152 0.0000 0.0000
# 5 0.0000 0.0000 0.0000 0.0000 8.1467 0.0000
# 6 0.0000 0.0000 0.0000 0.0000 0.0000 12.2335
#
#
#
# Elastic Compliance Matrix: (Units=1/GPa)
#
#
# Indices 1 2 3 4 5 6 
#
# 1 0.034791 -0.002217 -0.000535 0.000000 0.000000 0.000000
# 2 -0.002217 0.009099 -0.002514 0.000000 0.000000 0.000000
# 3 -0.000535 -0.002514 0.008916 0.000000 0.000000 0.000000
# 4 0.000000 0.000000 0.000000 0.034346 0.000000 0.000000
# 5 0.000000 0.000000 0.000000 0.000000 0.122749 0.000000
# 6 0.000000 0.000000 0.000000 0.000000 0.000000 0.081743
#
#
# Mechanical properties :
#
#
# Convention : Reuss Voigt Hill
#
# Bulk Modulus (GPa) = 23.65541 40.81670 32.23605
# Shear Modulus (GPa) = 15.80943 24.96114 20.38529
#
# Velocity S-wave (km/s) = 2.60925 3.27861 2.96289
# Velocity P-wave (km/s) = 4.38914 5.64887 5.05837
#
# Compressibility (1/GPa) = 0.04227363
#
# Stress axis : x y z
#
# Youngs Moduli (GPa) = 28.74314 109.90436 112.15817
#
# Poissons Ratio (x) = 0.24368 0.05996
# Poissons Ratio (y) = 0.06373 0.28200
# Poissons Ratio (z) = 0.01537 0.27633
#
# Static dielectric constant tensor:
#      x y z
#    x 1.941600 0.000000 0.000000 
#    y 0.000000 1.872930 0.000000 
#    z 0.000000 0.000000 1.856910 
# 
# From -- ./inp_files/5409.got.cif
#   From: 2010.05.17/outbox.cif.g08.bks.cpg/sg39_3_cif.got.tgz:5409.got - 2010.06.03 18:22:40.
