data_PCOD9360397
_publ_section_title
;
Structure prediction by ZEFSAII (Michael W. Deem and Ramdas Pophale) SiO2 
 PCOD9360397
Probable space group: A B M 2
;
_chemical_formula_sum "Si O2"
_cell_formula_units_Z 64
_cell_length_a 20.277293
_cell_length_b 8.685122
_cell_length_c 20.689939
_cell_angle_alpha 90.000000
_cell_angle_beta 90.000000
_cell_angle_gamma 90.000000
_cell_volume 3643.720955
_symmetry_space_group_name_H-M "A B M 2"
_symmetry_group_IT_number 39
_symmetry_cell_setting 'orthorhombic'
loop_
_space_group_symop_operation_xyz
x,y,z
-x,-y,z
-x,1/2+y,z
x,1/2-y,z
x,1/2+y,1/2+z
-x,1/2-y,1/2+z
-x,y,1/2+z
x,-y,1/2+z
loop_
_atom_site_type_symbol
_atom_site_label
_atom_site_fract_x
_atom_site_fract_y
_atom_site_fract_z
Si Si1 0.821722 0.937212 0.283360
Si Si2 0.201520 0.436232 0.426919
Si Si3 0.676212 0.435948 0.735822
Si Si4 0.161358 0.934571 0.066699
Si Si5 0.686461 0.566022 0.597120
Si Si6 0.655169 0.566623 0.961631
Si Si7 0.427753 0.934759 0.846909
Si Si8 0.926990 0.934130 0.177664
O O1 0.822105 0.750000 0.281962
O O2 0.828272 0.983313 0.358191
O O3 0.749618 0.985533 0.257931
O O4 0.879253 0.990452 0.235697
O O5 0.209364 0.250000 0.427162
O O6 0.160197 0.476800 0.490856
O O7 0.274133 0.506639 0.435416
O O8 0.676494 0.250000 0.731233
O O9 0.661875 0.505449 0.665754
O O10 0.623404 0.480323 0.790273
O O11 0.153857 0.750000 0.072160
O O12 0.235476 0.974511 0.090643
O O13 0.108039 0.015222 0.111326
O O14 0.681506 0.750000 0.593174
O O15 0.651012 0.492809 0.535163
O O16 0.653568 0.750000 0.960305
O O17 0.600186 0.498503 0.914380
O O18 0.429324 0.750000 0.849524
O O19 0.500000 0.000000 0.833992
O O20 0.929795 0.750000 0.180268
O O21 0.000000 0.000000 0.182924
#
# Coordination Sequence:
#
# PCOD9360397 Si02
#       8
#     8   8   8   8   8   8   8   8
#     4   9  17  33  57  82 109 146 184 227 281 334
#     4   9  17  34  57  82 111 143 182 229 284 332
#     4  10  19  35  59  85 114 149 189 233 282 340
#     4   9  18  32  53  80 109 141 179 226 277 333
#     4  10  20  34  56  85 116 145 183 238 288 331
#     4  11  21  34  55  84 115 148 190 233 279 335
#     4  11  23  40  60  83 117 154 190 233 286 345
#     4  11  22  36  55  77 109 148 187 229 281 342
#
# _framework density 17.564461999999999
#
# number of rings (size 3 to 8) (size 9 to 14) (size 15 to 20)
#    0.000    2.000    2.500    3.000    0.000    3.000 
#    0.000    2.500    0.000    3.000    0.000    0.000 
#    0.000    0.000    0.000    0.000    0.000    0.000 
#
# Total GULP energy -178613.321724 kJ/mol
# GULP energy per Si atom -5581.666304 kJ/mol
# Density = 1.752448 g / cm^3
# Si number density = 17.564462 Si / 1000 Ang^3
#
#
#
# Elastic Constant Matrix: (Units=GPa)
#
#
# Indices 1 2 3 4 5 6 
#
# 1 112.1506 38.7291 76.0216 0.0000 0.0000 0.0000
# 2 38.7291 41.0820 42.7771 0.0000 0.0000 0.0000
# 3 76.0216 42.7771 163.5421 0.0000 0.0000 0.0000
# 4 0.0000 0.0000 0.0000 25.3971 0.0000 0.0000
# 5 0.0000 0.0000 0.0000 0.0000 23.5407 0.0000
# 6 0.0000 0.0000 0.0000 0.0000 0.0000 23.1421
#
#
#
# Elastic Compliance Matrix: (Units=1/GPa)
#
#
# Indices 1 2 3 4 5 6 
#
# 1 0.015401 -0.009708 -0.004619 0.000000 0.000000 0.000000
# 2 -0.009708 0.039573 -0.005838 0.000000 0.000000 0.000000
# 3 -0.004619 -0.005838 0.009789 0.000000 0.000000 0.000000
# 4 0.000000 0.000000 0.000000 0.039375 0.000000 0.000000
# 5 0.000000 0.000000 0.000000 0.000000 0.042480 0.000000
# 6 0.000000 0.000000 0.000000 0.000000 0.000000 0.043211
#
#
# Mechanical properties :
#
#
# Convention : Reuss Voigt Hill
#
# Bulk Modulus (GPa) = 40.93228 70.20337 55.56782
# Shear Modulus (GPa) = 20.98167 25.03243 23.00705
#
# Velocity S-wave (km/s) = 3.45998 3.77924 3.62313
# Velocity P-wave (km/s) = 6.27029 7.68761 7.01484
#
# Compressibility (1/GPa) = 0.02443060
#
# Stress axis : x y z
#
# Youngs Moduli (GPa) = 64.93294 25.26980 102.15565
#
# Poissons Ratio (x) = 0.24533 0.47190
# Poissons Ratio (y) = 0.63040 0.59639
# Poissons Ratio (z) = 0.29995 0.14753
#
# Static dielectric constant tensor:
#      x y z
#    x 1.572190 0.000000 0.000000 
#    y 0.000000 1.587370 0.000000 
#    z 0.000000 0.000000 1.604910 
# 
# From -- ./inp_files/15036.got.cif
#   From: 2010.05.17/outbox.cif.g08.bks.cpg/sg39_8_cif.got.tgz:15036.got - 2010.06.03 18:22:40.
