data_PCOD9360334
_publ_section_title
;
Structure prediction by ZEFSAII (Michael W. Deem and Ramdas Pophale) SiO2 
 PCOD9360334
Probable space group: A B M 2
;
_chemical_formula_sum "Si O2"
_cell_formula_units_Z 64
_cell_length_a 24.654436
_cell_length_b 8.558332
_cell_length_c 15.836657
_cell_angle_alpha 90.000000
_cell_angle_beta 90.000000
_cell_angle_gamma 90.000000
_cell_volume 3341.548065
_symmetry_space_group_name_H-M "A B M 2"
_symmetry_group_IT_number 39
_symmetry_cell_setting 'orthorhombic'
loop_
_space_group_symop_operation_xyz
x,y,z
-x,-y,z
-x,1/2+y,z
x,1/2-y,z
x,1/2+y,1/2+z
-x,1/2-y,1/2+z
-x,y,1/2+z
x,-y,1/2+z
loop_
_atom_site_type_symbol
_atom_site_label
_atom_site_fract_x
_atom_site_fract_y
_atom_site_fract_z
Si Si1 0.939472 0.562413 0.028440
Si Si2 0.668863 0.563336 0.834374
Si Si3 0.556922 0.564292 0.272374
Si Si4 0.060262 0.938501 0.335547
Si Si5 0.442830 0.437246 0.580992
Si Si6 0.866098 0.560742 0.679264
Si Si7 0.326396 0.438809 0.512265
Si Si8 0.741523 0.559596 0.676167
O O1 0.940124 0.750000 0.032057
O O2 0.898071 0.497904 0.097297
O O3 0.000000 0.500000 0.046532
O O4 0.925829 0.514004 0.931797
O O5 0.664036 0.750000 0.829720
O O6 0.609452 0.490090 0.822831
O O7 0.691569 0.512161 0.924476
O O8 0.707005 0.509508 0.757493
O O9 0.500000 0.500000 0.307022
O O10 0.554372 0.750000 0.268988
O O11 0.562373 0.497884 0.177123
O O12 0.058697 0.750000 0.334250
O O13 0.102214 0.990710 0.263870
O O14 0.000000 0.000000 0.316473
O O15 0.500000 0.500000 0.546758
O O16 0.444830 0.250000 0.583296
O O17 0.388716 0.484919 0.531733
O O18 0.866410 0.750000 0.678370
O O19 0.803718 0.507805 0.679058
O O20 0.324837 0.250000 0.506511
O O21 0.289374 0.488009 0.591000
O O22 0.741554 0.750000 0.676958
#
# Coordination Sequence:
#
# PCOD9360334 Si02
#       8
#     8   8   8   8   8   8   8   8
#     4  10  20  35  55  83 118 150 183 232 282 335
#     4  11  22  39  61  85 112 150 193 236 287 343
#     4  11  21  35  58  86 116 148 185 231 286 346
#     4   9  19  34  54  81 114 148 184 225 276 331
#     4  10  19  34  57  83 115 148 184 230 287 344
#     4  10  20  36  59  83 109 151 195 232 280 335
#     4  10  21  39  59  81 112 151 191 237 287 342
#     4   9  20  40  60  78 112 154 191 233 285 338
#
# _framework density 19.152798000000001
#
# number of rings (size 3 to 8) (size 9 to 14) (size 15 to 20)
#    0.000    2.000    1.250    3.375    0.000    4.500 
#    0.000    4.375    0.000    0.000    0.000    0.000 
#    0.000    0.000    0.000    0.000    0.000    0.000 
#
# Total GULP energy -178742.402756 kJ/mol
# GULP energy per Si atom -5585.700086 kJ/mol
# Density = 1.910921 g / cm^3
# Si number density = 19.152798 Si / 1000 Ang^3
#
#
#
# Elastic Constant Matrix: (Units=GPa)
#
#
# Indices 1 2 3 4 5 6 
#
# 1 153.7259 26.7817 98.9363 0.0000 0.0000 0.0000
# 2 26.7817 34.0508 24.1780 0.0000 0.0000 0.0000
# 3 98.9363 24.1780 142.6381 0.0000 0.0000 0.0000
# 4 0.0000 0.0000 0.0000 25.8164 0.0000 0.0000
# 5 0.0000 0.0000 0.0000 0.0000 -0.0899 0.0000
# 6 0.0000 0.0000 0.0000 0.0000 0.0000 20.8136
#
#
#
# Elastic Compliance Matrix: (Units=1/GPa)
#
#
# Indices 1 2 3 4 5 6 
#
# 1 0.012232 -0.004088 -0.007791 0.000000 0.000000 0.000000
# 2 -0.004088 0.034753 -0.003055 0.000000 0.000000 0.000000
# 3 -0.007791 -0.003055 0.012933 0.000000 0.000000 0.000000
# 4 0.000000 0.000000 0.000000 0.038735 0.000000 0.000000
# 5 0.000000 0.000000 0.000000 0.000000-11.119035 0.000000
# 6 0.000000 0.000000 0.000000 0.000000 0.000000 0.048045
#
#
# Mechanical properties :
#
#
# Convention : Reuss Voigt Hill
#
# Bulk Modulus (GPa) = 33.28002 70.02298 51.65150
# Shear Modulus (GPa) = -0.45735 21.34260 10.44263
#
# Velocity S-wave (km/s) = -0.48919 3.34178 2.33754
# Velocity P-wave (km/s) = 4.13457 7.17841 5.85766
#
# Compressibility (1/GPa) = 0.03004806
#
# Stress axis : x y z
#
# Youngs Moduli (GPa) = 81.75560 28.77473 77.32390
#
# Poissons Ratio (x) = 0.11764 0.60243
# Poissons Ratio (y) = 0.33424 0.23623
# Poissons Ratio (z) = 0.63696 0.08791
#
# Static dielectric constant tensor:
#      x y z
#    x 1.647180 0.000000 0.000000 
#    y 0.000000 1.650910 0.000000 
#    z 0.000000 0.000000 1.670670 
# 
# From -- ./inp_files/10667.got.cif
#   From: 2010.05.17/outbox.cif.g08.bks.cpg/sg39_6_cif.got.tgz:10667.got - 2010.06.03 18:22:40.
