data_PCOD9360080
_publ_section_title
;
Structure prediction by ZEFSAII (Michael W. Deem and Ramdas Pophale) SiO2 
 PCOD9360080
Probable space group: A B M 2
;
_chemical_formula_sum "Si O2"
_cell_formula_units_Z 48
_cell_length_a 15.998089
_cell_length_b 9.365408
_cell_length_c 14.380352
_cell_angle_alpha 90.000000
_cell_angle_beta 90.000000
_cell_angle_gamma 90.000000
_cell_volume 2154.588449
_symmetry_space_group_name_H-M "A B M 2"
_symmetry_group_IT_number 39
_symmetry_cell_setting 'orthorhombic'
loop_
_space_group_symop_operation_xyz
x,y,z
-x,-y,z
-x,1/2+y,z
x,1/2-y,z
x,1/2+y,1/2+z
-x,1/2-y,1/2+z
-x,y,1/2+z
x,-y,1/2+z
loop_
_atom_site_type_symbol
_atom_site_label
_atom_site_fract_x
_atom_site_fract_y
_atom_site_fract_z
Si Si1 0.583677 0.585721 0.821250
Si Si2 0.747623 0.412360 0.828961
Si Si3 0.260001 0.588617 0.050550
Si Si4 0.077447 0.909902 0.085858
Si Si5 0.919331 0.412189 0.307774
Si Si6 0.581302 0.088311 0.548594
O O1 0.500000 0.500000 0.794540
O O2 0.583089 0.750000 0.788657
O O3 0.667946 0.501947 0.793668
O O4 0.583174 0.591169 0.935038
O O5 0.753148 0.250000 0.791252
O O6 0.732987 0.399181 0.939549
O O7 0.833877 0.499215 0.819183
O O8 0.263257 0.750000 0.090470
O O9 0.335779 0.491248 0.081505
O O10 0.168673 0.525175 0.069411
O O11 0.078135 0.750000 0.044974
O O12 0.068487 0.898366 0.196714
O O13 0.000000 0.000000 0.050576
O O14 0.913499 0.250000 0.345706
O O15 0.000000 0.500000 0.342402
O O16 0.577170 0.250000 0.581831
O O17 0.500000 0.000000 0.575461
#
# Coordination Sequence:
#
# PCOD9360080 Si02
#       6
#     8   8   8   8   8   8
#     4   9  16  27  44  68  98 130 163 197 236 283
#     4  10  19  31  49  74 102 129 159 198 242 286
#     4   9  18  32  49  72 100 127 158 198 241 282
#     4   9  19  35  53  71  93 125 162 199 239 285
#     4  10  20  35  53  71  94 126 163 200 240 289
#     4   9  16  26  43  68  97 129 161 194 234 281
#
# _framework density 22.278036
#
# number of rings (size 3 to 8) (size 9 to 14) (size 15 to 20)
#    0.000    2.667    0.000    2.000    0.000    6.667 
#    0.000    1.667    0.000    1.000    0.000    4.667 
#    0.000    0.000    0.000    0.000    0.000    0.000 
#
# Total GULP energy -134080.655168 kJ/mol
# GULP energy per Si atom -5586.693965 kJ/mol
# Density = 2.222733 g / cm^3
# Si number density = 22.278036 Si / 1000 Ang^3
#
#
#
# Elastic Constant Matrix: (Units=GPa)
#
#
# Indices 1 2 3 4 5 6 
#
# 1 268.8381 156.8891 -4.8823 0.0000 0.0000 0.0000
# 2 156.8891 209.5237 4.6593 0.0000 0.0000 0.0000
# 3 -4.8823 4.6593 53.6546 0.0000 0.0000 0.0000
# 4 0.0000 0.0000 0.0000 10.2994 0.0000 0.0000
# 5 0.0000 0.0000 0.0000 0.0000 30.9082 0.0000
# 6 0.0000 0.0000 0.0000 0.0000 0.0000 35.4721
#
#
#
# Elastic Compliance Matrix: (Units=1/GPa)
#
#
# Indices 1 2 3 4 5 6 
#
# 1 0.006664 -0.005013 0.001042 0.000000 0.000000 0.000000
# 2 -0.005013 0.008553 -0.001199 0.000000 0.000000 0.000000
# 3 0.001042 -0.001199 0.018837 0.000000 0.000000 0.000000
# 4 0.000000 0.000000 0.000000 0.097093 0.000000 0.000000
# 5 0.000000 0.000000 0.000000 0.000000 0.032354 0.000000
# 6 0.000000 0.000000 0.000000 0.000000 0.000000 0.028191
#
#
# Mechanical properties :
#
#
# Convention : Reuss Voigt Hill
#
# Bulk Modulus (GPa) = 42.17051 93.92760 68.04905
# Shear Modulus (GPa) = 23.81655 40.35929 32.08792
#
# Velocity S-wave (km/s) = 3.27320 4.26093 3.79930
# Velocity P-wave (km/s) = 5.76675 8.15232 7.06101
#
# Compressibility (1/GPa) = 0.02371326
#
# Stress axis : x y z
#
# Youngs Moduli (GPa) = 150.05265 116.91356 53.08805
#
# Poissons Ratio (x) = 0.58613 -0.05531
# Poissons Ratio (y) = 0.75227 0.06365
# Poissons Ratio (z) = -0.15632 0.14017
#
# Static dielectric constant tensor:
#      x y z
#    x 1.775440 0.000000 0.000000 
#    y 0.000000 1.805900 0.000000 
#    z 0.000000 0.000000 1.866090 
# 
# From -- ./inp_files/12642.got.cif
#   From: 2010.05.17/outbox.cif.g08.bks.cpg/sg39_7_cif.got.tgz:12642.got - 2010.06.03 18:22:40.
