data_PCOD9360754
_publ_section_title
;
Structure prediction by ZEFSAII (Michael W. Deem and Ramdas Pophale) SiO2 
 PCOD9360754
Probable space group: A B M 2
;
_chemical_formula_sum "Si O2"
_cell_formula_units_Z 64
_cell_length_a 15.046620
_cell_length_b 8.743178
_cell_length_c 25.020144
_cell_angle_alpha 90.000000
_cell_angle_beta 90.000000
_cell_angle_gamma 90.000000
_cell_volume 3291.531973
_symmetry_space_group_name_H-M "A B M 2"
_symmetry_group_IT_number 39
_symmetry_cell_setting 'orthorhombic'
loop_
_space_group_symop_operation_xyz
x,y,z
-x,-y,z
-x,1/2+y,z
x,1/2-y,z
x,1/2+y,1/2+z
-x,1/2-y,1/2+z
-x,y,1/2+z
x,-y,1/2+z
loop_
_atom_site_type_symbol
_atom_site_label
_atom_site_fract_x
_atom_site_fract_y
_atom_site_fract_z
Si Si1 0.666452 0.573652 0.379990
Si Si2 0.867389 0.074259 0.840259
Si Si3 0.409313 0.932905 0.772038
Si Si4 0.280752 0.934348 0.186549
Si Si5 0.093134 0.067977 0.725713
Si Si6 0.399934 0.934280 0.084809
Si Si7 0.092707 0.065386 0.460722
Si Si8 0.282320 0.931079 0.489500
O O1 0.648020 0.750000 0.396087
O O2 0.761793 0.575374 0.350231
O O3 0.600109 0.521287 0.334019
O O4 0.675444 0.470516 0.431796
O O5 0.897220 0.250000 0.832305
O O6 0.902685 0.018288 0.897768
O O7 0.891774 0.981777 0.787517
O O8 0.408518 0.750000 0.769532
O O9 0.500000 0.000000 0.749170
O O10 0.329053 0.000020 0.738359
O O11 0.282145 0.750000 0.188423
O O12 0.178005 0.983516 0.190660
O O13 0.339360 0.981413 0.135664
O O14 0.088832 0.250000 0.723803
O O15 0.000000 0.000000 0.707230
O O16 0.405238 0.750000 0.083621
O O17 0.500000 0.000000 0.087438
O O18 0.345806 0.994132 0.033613
O O19 0.094378 0.250000 0.462544
O O20 0.182700 0.002592 0.487867
O O21 0.000000 0.000000 0.482723
O O22 0.276366 0.750000 0.497268
#
# Coordination Sequence:
#
# PCOD9360754 Si02
#       8
#     8   8   8   8   8   8   8   8
#     4   9  19  36  56  82 120 163 199 243 300 354
#     4   9  17  32  53  80 116 160 204 243 288 343
#     4  11  22  36  58  87 121 158 196 241 298 363
#     4  10  23  42  63  88 119 156 200 251 303 356
#     4  11  22  35  55  85 120 158 200 244 293 352
#     4  11  24  45  69  91 117 151 199 255 309 366
#     4  10  20  35  56  86 125 165 208 251 298 358
#     4  11  23  39  62  91 121 158 203 251 307 362
#
# _framework density 19.443833999999999
#
# number of rings (size 3 to 8) (size 9 to 14) (size 15 to 20)
#    0.000    1.750    1.250    4.125    0.000    7.500 
#    0.000    1.875    0.000    1.500    0.000    0.000 
#    0.000    0.000    0.000    0.000    0.000    0.000 
#
# Total GULP energy -178666.265821 kJ/mol
# GULP energy per Si atom -5583.320807 kJ/mol
# Density = 1.939958 g / cm^3
# Si number density = 19.443834 Si / 1000 Ang^3
#
#
#
# Elastic Constant Matrix: (Units=GPa)
#
#
# Indices 1 2 3 4 5 6 
#
# 1 168.9027 44.7657 69.2873 0.0000 0.0000 0.0000
# 2 44.7657 44.4267 34.0454 0.0000 0.0000 0.0000
# 3 69.2873 34.0454 82.4766 0.0000 0.0000 0.0000
# 4 0.0000 0.0000 0.0000 17.9741 0.0000 0.0000
# 5 0.0000 0.0000 0.0000 0.0000 17.7827 0.0000
# 6 0.0000 0.0000 0.0000 0.0000 0.0000 31.5616
#
#
#
# Elastic Compliance Matrix: (Units=1/GPa)
#
#
# Indices 1 2 3 4 5 6 
#
# 1 0.009795 -0.005213 -0.006077 0.000000 0.000000 0.000000
# 2 -0.005213 0.035698 -0.010356 0.000000 0.000000 0.000000
# 3 -0.006077 -0.010356 0.021505 0.000000 0.000000 0.000000
# 4 0.000000 0.000000 0.000000 0.055636 0.000000 0.000000
# 5 0.000000 0.000000 0.000000 0.000000 0.056234 0.000000
# 6 0.000000 0.000000 0.000000 0.000000 0.000000 0.031684
#
#
# Mechanical properties :
#
#
# Convention : Reuss Voigt Hill
#
# Bulk Modulus (GPa) = 42.18441 65.77809 53.98125
# Shear Modulus (GPa) = 19.10247 23.31085 21.20666
#
# Velocity S-wave (km/s) = 3.13780 3.46624 3.30610
# Velocity P-wave (km/s) = 5.90511 7.06562 6.51127
#
# Compressibility (1/GPa) = 0.02370544
#
# Stress axis : x y z
#
# Youngs Moduli (GPa) = 102.09257 28.01268 46.50145
#
# Poissons Ratio (x) = 0.14603 0.28258
# Poissons Ratio (y) = 0.53220 0.48159
# Poissons Ratio (z) = 0.62040 0.29011
#
# Static dielectric constant tensor:
#      x y z
#    x 1.656390 0.000000 0.000000 
#    y 0.000000 1.655390 0.000000 
#    z 0.000000 0.000000 1.671230 
# 
# From -- ./inp_files/16233.got.cif
#   From: 2010.05.17/outbox.cif.g08.bks.cpg/sg39_9_cif.got.tgz:16233.got - 2010.06.03 18:22:40.
