data_PCOD9360522
_publ_section_title
;
Structure prediction by ZEFSAII (Michael W. Deem and Ramdas Pophale) SiO2 
 PCOD9360522
Probable space group: A B M 2
;
_chemical_formula_sum "Si O2"
_cell_formula_units_Z 44
_cell_length_a 9.292504
_cell_length_b 14.668599
_cell_length_c 15.048055
_cell_angle_alpha 90.000000
_cell_angle_beta 90.000000
_cell_angle_gamma 90.000000
_cell_volume 2051.170505
_symmetry_space_group_name_H-M "A B M 2"
_symmetry_group_IT_number 39
_symmetry_cell_setting 'orthorhombic'
loop_
_space_group_symop_operation_xyz
x,y,z
-x,-y,z
-x,1/2+y,z
x,1/2-y,z
x,1/2+y,1/2+z
-x,1/2-y,1/2+z
-x,y,1/2+z
x,-y,1/2+z
loop_
_atom_site_type_symbol
_atom_site_label
_atom_site_fract_x
_atom_site_fract_y
_atom_site_fract_z
Si Si1 0.469127 0.145474 0.101100
Si Si2 0.179350 0.907515 0.508813
Si Si3 0.217991 0.925554 0.128088
Si Si4 0.428946 0.643729 0.809072
Si Si5 0.032941 0.250000 0.580963
Si Si6 0.728857 0.964208 0.828085
O O1 0.510587 0.250000 0.083800
O O2 0.613192 0.086307 0.102750
O O3 0.407490 0.141409 0.201970
O O4 0.345047 0.118353 0.033181
O O5 0.169384 0.926414 0.404410
O O6 0.076977 0.828958 0.542830
O O7 0.156063 0.999944 0.562358
O O8 0.208264 0.959212 0.229476
O O9 0.140964 0.829859 0.118065
O O10 0.416213 0.750000 0.837548
O O11 0.320654 0.568298 0.848652
O O12 0.586959 0.601018 0.825173
#
# Coordination Sequence:
#
# PCOD9360522 Si02
#       6
#     8   8   8   8   4   8
#     4  10  19  40  73 107 134 179 234 295 365 421
#     4  12  25  44  73 105 142 181 246 306 354 439
#     4  11  24  49  72  97 145 191 238 299 368 439
#     4   9  19  37  66 108 148 176 229 299 372 438
#     4  12  28  48  68  94 142 196 240 284 362 442
#     4  10  23  41  69 105 144 187 237 299 370 423
#
# _framework density 21.451167000000002
#
# number of rings (size 3 to 8) (size 9 to 14) (size 15 to 20)
#    0.000    1.455    3.636    1.091    7.636    0.000 
#    1.636    5.455    0.000    0.000    0.000    0.000 
#    0.000    0.000    0.000    0.000    0.000    0.000 
#
# Total GULP energy -122488.113502 kJ/mol
# GULP energy per Si atom -5567.641523 kJ/mol
# Density = 2.140234 g / cm^3
# Si number density = 21.451167 Si / 1000 Ang^3
#
#
#
# Elastic Constant Matrix: (Units=GPa)
#
#
# Indices 1 2 3 4 5 6 
#
# 1 50.0327 17.8729 24.6643 0.0000 0.0000 0.0000
# 2 17.8729 178.9321 16.4075 0.0000 0.0000 0.0000
# 3 24.6643 16.4075 60.8834 0.0000 0.0000 0.0000
# 4 0.0000 0.0000 0.0000 7.2321 0.0000 0.0000
# 5 0.0000 0.0000 0.0000 0.0000 0.0422 0.0000
# 6 0.0000 0.0000 0.0000 0.0000 0.0000 -52.6402
#
#
#
# Elastic Compliance Matrix: (Units=1/GPa)
#
#
# Indices 1 2 3 4 5 6 
#
# 1 0.025433 -0.001636 -0.009862 0.000000 0.000000 0.000000
# 2 -0.001636 0.005836 -0.000910 0.000000 0.000000 0.000000
# 3 -0.009862 -0.000910 0.020665 0.000000 0.000000 0.000000
# 4 0.000000 0.000000 0.000000 0.138272 0.000000 0.000000
# 5 0.000000 0.000000 0.000000 0.000000 23.690457 0.000000
# 6 0.000000 0.000000 0.000000 0.000000 0.000000 -0.018997
#
#
# Mechanical properties :
#
#
# Convention : Reuss Voigt Hill
#
# Bulk Modulus (GPa) = 36.87634 45.30417 41.09026
# Shear Modulus (GPa) = 0.20924 6.32039 3.26482
#
# Velocity S-wave (km/s) = 0.31266 1.71837 1.23502
# Velocity P-wave (km/s) = 4.16635 5.01025 4.60766
#
# Compressibility (1/GPa) = 0.02711766
#
# Stress axis : x y z
#
# Youngs Moduli (GPa) = 39.31882 171.36301 48.39027
#
# Poissons Ratio (x) = 0.28037 0.47724
# Poissons Ratio (y) = 0.06433 0.04403
# Poissons Ratio (z) = 0.38777 0.15591
#
# Static dielectric constant tensor:
#      x y z
#    x 1.786050 0.000000 0.000000 
#    y 0.000000 1.763020 0.000000 
#    z 0.000000 0.000000 1.789180 
# 
# From -- ./inp_files/11541.got.cif
#   From: 2010.05.17/outbox.cif.g08.bks.cpg/sg39_6_cif.got.tgz:11541.got - 2010.06.03 18:22:40.
