data_PCOD9360901
_publ_section_title
;
Structure prediction by ZEFSAII (Michael W. Deem and Ramdas Pophale) SiO2 
 PCOD9360901
Probable space group: A B M 2
;
_chemical_formula_sum "Si O2"
_cell_formula_units_Z 64
_cell_length_a 24.292247
_cell_length_b 8.795049
_cell_length_c 15.538851
_cell_angle_alpha 90.000000
_cell_angle_beta 90.000000
_cell_angle_gamma 90.000000
_cell_volume 3319.898866
_symmetry_space_group_name_H-M "A B M 2"
_symmetry_group_IT_number 39
_symmetry_cell_setting 'orthorhombic'
loop_
_space_group_symop_operation_xyz
x,y,z
-x,-y,z
-x,1/2+y,z
x,1/2-y,z
x,1/2+y,1/2+z
-x,1/2-y,1/2+z
-x,y,1/2+z
x,-y,1/2+z
loop_
_atom_site_type_symbol
_atom_site_label
_atom_site_fract_x
_atom_site_fract_y
_atom_site_fract_z
Si Si1 0.621740 0.430057 0.788390
Si Si2 0.263612 0.430473 0.732792
Si Si3 0.871696 0.431027 0.550373
Si Si4 0.939780 0.068525 0.898295
Si Si5 0.853857 0.066418 0.749699
Si Si6 0.640979 0.068213 0.977419
Si Si7 0.440351 0.068452 0.630396
Si Si8 0.253571 0.430390 0.044640
O O1 0.618499 0.250000 0.772658
O O2 0.683961 0.486183 0.772629
O O3 0.609790 0.460550 0.888291
O O4 0.582199 0.514056 0.722177
O O5 0.268584 0.250000 0.743077
O O6 0.205043 0.489811 0.767156
O O7 0.263718 0.476255 0.632070
O O8 0.881501 0.250000 0.545472
O O9 0.914038 0.514619 0.488665
O O10 0.872073 0.473730 0.651755
O O11 0.809268 0.460978 0.517863
O O12 0.943294 0.250000 0.897419
O O13 0.898648 0.022405 0.820841
O O14 0.000000 0.000000 0.886016
O O15 0.846728 0.250000 0.751039
O O16 0.651356 0.250000 0.982977
O O17 0.604029 0.020565 0.058319
O O18 0.699039 0.981823 0.980222
O O19 0.443496 0.250000 0.628429
O O20 0.500000 0.000000 0.613052
O O21 0.257482 0.250000 0.062829
#
# Coordination Sequence:
#
# PCOD9360901 Si02
#       8
#     8   8   8   8   8   8   8   8
#     4  11  23  40  62  92 126 164 204 254 308 361
#     4  11  21  35  59  91 126 162 203 251 304 366
#     4   9  20  39  60  87 121 156 199 247 300 361
#     4  11  24  41  62  87 119 159 205 251 303 362
#     4   9  21  41  61  86 119 160 201 248 306 364
#     4  10  23  40  61  91 126 161 204 252 305 365
#     4  11  24  44  66  90 122 165 209 258 307 362
#     4  10  20  36  61  90 125 163 200 247 308 366
#
# _framework density 19.277695000000001
#
# number of rings (size 3 to 8) (size 9 to 14) (size 15 to 20)
#    0.000    1.750    1.250    3.375    1.750    6.000 
#    0.000    2.500    0.000    0.000    0.000    0.000 
#    0.000    0.000    0.000    0.000    0.000    0.000 
#
# Total GULP energy -178809.639627 kJ/mol
# GULP energy per Si atom -5587.801238 kJ/mol
# Density = 1.923382 g / cm^3
# Si number density = 19.277695 Si / 1000 Ang^3
#
#
#
# Elastic Constant Matrix: (Units=GPa)
#
#
# Indices 1 2 3 4 5 6 
#
# 1 57.6312 9.9858 -1.7920 0.0000 0.0000 0.0000
# 2 9.9858 29.8809 6.4808 0.0000 0.0000 0.0000
# 3 -1.7920 6.4808 28.3701 0.0000 0.0000 0.0000
# 4 0.0000 0.0000 0.0000 24.8815 0.0000 0.0000
# 5 0.0000 0.0000 0.0000 0.0000 12.6351 0.0000
# 6 0.0000 0.0000 0.0000 0.0000 0.0000 34.1807
#
#
#
# Elastic Compliance Matrix: (Units=1/GPa)
#
#
# Indices 1 2 3 4 5 6 
#
# 1 0.018617 -0.006814 0.002733 0.000000 0.000000 0.000000
# 2 -0.006814 0.037705 -0.009044 0.000000 0.000000 0.000000
# 3 0.002733 -0.009044 0.037487 0.000000 0.000000 0.000000
# 4 0.000000 0.000000 0.000000 0.040191 0.000000 0.000000
# 5 0.000000 0.000000 0.000000 0.000000 0.079145 0.000000
# 6 0.000000 0.000000 0.000000 0.000000 0.000000 0.029256
#
#
# Mechanical properties :
#
#
# Convention : Reuss Voigt Hill
#
# Bulk Modulus (GPa) = 14.80201 16.13683 15.46942
# Shear Modulus (GPa) = 17.17203 21.08662 19.12932
#
# Velocity S-wave (km/s) = 2.98782 3.31091 3.15350
# Velocity P-wave (km/s) = 4.42693 4.79636 4.61534
#
# Compressibility (1/GPa) = 0.06755841
#
# Stress axis : x y z
#
# Youngs Moduli (GPa) = 53.71321 26.52173 26.67596
#
# Poissons Ratio (x) = 0.18073 -0.07289
# Poissons Ratio (y) = 0.36602 0.24125
# Poissons Ratio (z) = -0.14678 0.23985
#
# Static dielectric constant tensor:
#      x y z
#    x 1.646080 0.000000 0.000000 
#    y 0.000000 1.645310 0.000000 
#    z 0.000000 0.000000 1.687040 
# 
# From -- ./inp_files/10599.got.cif
#   From: 2010.05.17/outbox.cif.g08.bks.cpg/sg39_6_cif.got.tgz:10599.got - 2010.06.03 18:22:40.
