data_PCOD9360897
_publ_section_title
;
Structure prediction by ZEFSAII (Michael W. Deem and Ramdas Pophale) SiO2 
 PCOD9360897
Probable space group: A B M 2
;
_chemical_formula_sum "Si O2"
_cell_formula_units_Z 56
_cell_length_a 12.207792
_cell_length_b 14.479748
_cell_length_c 14.839969
_cell_angle_alpha 90.000000
_cell_angle_beta 90.000000
_cell_angle_gamma 90.000000
_cell_volume 2623.198277
_symmetry_space_group_name_H-M "A B M 2"
_symmetry_group_IT_number 39
_symmetry_cell_setting 'orthorhombic'
loop_
_space_group_symop_operation_xyz
x,y,z
-x,-y,z
-x,1/2+y,z
x,1/2-y,z
x,1/2+y,1/2+z
-x,1/2-y,1/2+z
-x,y,1/2+z
x,-y,1/2+z
loop_
_atom_site_type_symbol
_atom_site_label
_atom_site_fract_x
_atom_site_fract_y
_atom_site_fract_z
Si Si1 0.173589 0.351245 0.158230
Si Si2 0.148900 0.942310 0.157006
Si Si3 0.980746 0.652666 0.797538
Si Si4 0.683449 0.862276 0.431374
Si Si5 0.589085 0.142348 0.744751
Si Si6 0.617018 0.861063 0.629937
Si Si7 0.929606 0.907591 0.476162
O O1 0.157602 0.250000 0.112637
O O2 0.146481 0.452656 0.119988
O O3 0.097587 0.348548 0.247028
O O4 0.300158 0.358186 0.186415
O O5 0.272639 0.909040 0.163894
O O6 0.090496 0.927734 0.252462
O O7 0.085171 0.881656 0.081442
O O8 0.924935 0.750000 0.773757
O O9 0.005160 0.650772 0.902694
O O10 0.702046 0.750000 0.424490
O O11 0.621445 0.896884 0.342309
O O12 0.614900 0.879359 0.522538
O O13 0.802849 0.908510 0.443351
O O14 0.562523 0.250000 0.762816
O O15 0.487448 0.106762 0.686833
O O16 0.627556 0.750000 0.638744
O O17 0.000000 0.000000 0.471881
#
# Coordination Sequence:
#
# PCOD9360897 Si02
#       7
#     8   8   8   8   8   8   8
#     4  10  20  36  61  89 119 162 209 255 314 376
#     4  11  23  39  61  90 128 164 208 265 316 379
#     4  11  22  37  61  91 124 162 206 256 312 382
#     4   9  17  33  59  90 121 161 210 256 312 386
#     4   9  17  33  60  89 120 160 206 256 310 373
#     4   9  19  35  60  91 123 161 206 257 315 378
#     4  11  21  35  59  89 122 163 209 259 308 380
#
# _framework density 21.347985999999999
#
# number of rings (size 3 to 8) (size 9 to 14) (size 15 to 20)
#    0.000    2.000    1.429    3.000    0.000    2.286 
#    0.000    1.429    9.429    2.571    0.000    0.000 
#    0.000    0.000    0.000    0.000    0.000    0.000 
#
# Total GULP energy -156057.779959 kJ/mol
# GULP energy per Si atom -5573.492141 kJ/mol
# Density = 2.129940 g / cm^3
# Si number density = 21.347986 Si / 1000 Ang^3
#
#
#
# Elastic Constant Matrix: (Units=GPa)
#
#
# Indices 1 2 3 4 5 6 
#
# 1 113.5774 39.8824 52.3000 0.0000 0.0000 0.0000
# 2 39.8824 86.5326 33.9223 0.0000 0.0000 0.0000
# 3 52.3000 33.9223 99.9601 0.0000 0.0000 0.0000
# 4 0.0000 0.0000 0.0000 11.6849 0.0000 0.0000
# 5 0.0000 0.0000 0.0000 0.0000 33.4369 0.0000
# 6 0.0000 0.0000 0.0000 0.0000 0.0000 27.9935
#
#
#
# Elastic Compliance Matrix: (Units=1/GPa)
#
#
# Indices 1 2 3 4 5 6 
#
# 1 0.012550 -0.003703 -0.005310 0.000000 0.000000 0.000000
# 2 -0.003703 0.014422 -0.002957 0.000000 0.000000 0.000000
# 3 -0.005310 -0.002957 0.013785 0.000000 0.000000 0.000000
# 4 0.000000 0.000000 0.000000 0.085581 0.000000 0.000000
# 5 0.000000 0.000000 0.000000 0.000000 0.029907 0.000000
# 6 0.000000 0.000000 0.000000 0.000000 0.000000 0.035723
#
#
# Mechanical properties :
#
#
# Convention : Reuss Voigt Hill
#
# Bulk Modulus (GPa) = 59.45726 61.36441 60.41083
# Shear Modulus (GPa) = 22.57208 26.22073 24.39641
#
# Velocity S-wave (km/s) = 3.25520 3.50845 3.38420
# Velocity P-wave (km/s) = 6.48386 6.72454 6.60530
#
# Compressibility (1/GPa) = 0.01681880
#
# Stress axis : x y z
#
# Youngs Moduli (GPa) = 79.68325 69.33818 72.54001
#
# Poissons Ratio (x) = 0.25673 0.38516
# Poissons Ratio (y) = 0.29504 0.21450
# Poissons Ratio (z) = 0.42308 0.20503
#
# Static dielectric constant tensor:
#      x y z
#    x 1.739320 0.000000 0.000000 
#    y 0.000000 1.868830 0.000000 
#    z 0.000000 0.000000 1.788830 
# 
# From -- ./inp_files/9260.got.cif
#   From: 2010.05.17/outbox.cif.g08.bks.cpg/sg39_5_cif.got.tgz:9260.got - 2010.06.03 18:22:40.
