data_PCOD9360757
_publ_section_title
;
Structure prediction by ZEFSAII (Michael W. Deem and Ramdas Pophale) SiO2 
 PCOD9360757
Probable space group: A B M 2
;
_chemical_formula_sum "Si O2"
_cell_formula_units_Z 48
_cell_length_a 19.570873
_cell_length_b 8.578543
_cell_length_c 15.398257
_cell_angle_alpha 90.000000
_cell_angle_beta 90.000000
_cell_angle_gamma 90.000000
_cell_volume 2585.206832
_symmetry_space_group_name_H-M "A B M 2"
_symmetry_group_IT_number 39
_symmetry_cell_setting 'orthorhombic'
loop_
_space_group_symop_operation_xyz
x,y,z
-x,-y,z
-x,1/2+y,z
x,1/2-y,z
x,1/2+y,1/2+z
-x,1/2-y,1/2+z
-x,y,1/2+z
x,-y,1/2+z
loop_
_atom_site_type_symbol
_atom_site_label
_atom_site_fract_x
_atom_site_fract_y
_atom_site_fract_z
Si Si1 0.074799 0.063156 0.300140
Si Si2 0.074479 0.062058 0.100295
Si Si3 0.424627 0.436620 0.602040
Si Si4 0.575460 0.936684 0.294907
Si Si5 0.668495 0.937756 0.948511
Si Si6 0.173287 0.561709 0.446977
O O1 0.073417 0.250000 0.303172
O O2 0.087072 0.013256 0.200035
O O3 0.132290 0.000655 0.364260
O O4 0.000000 0.000000 0.325784
O O5 0.072245 0.250000 0.099135
O O6 0.132268 0.010122 0.033069
O O7 0.000000 0.000000 0.073980
O O8 0.500000 0.500000 0.578215
O O9 0.426538 0.250000 0.603867
O O10 0.409287 0.501043 0.698246
O O11 0.370416 0.496587 0.532440
O O12 0.573977 0.750000 0.294433
O O13 0.500000 0.000000 0.318233
O O14 0.629582 0.998623 0.364087
O O15 0.664947 0.750000 0.949428
O O16 0.747783 0.986166 0.948075
O O17 0.171595 0.750000 0.444841
#
# Coordination Sequence:
#
# PCOD9360757 Si02
#       6
#     8   8   8   8   8   8
#     4  10  20  35  57  82 110 143 185 231 278 331
#     4   9  19  36  56  80 107 141 181 225 273 324
#     4  11  22  39  62  88 115 148 191 237 285 340
#     4  11  22  39  62  87 114 148 191 239 287 339
#     4  11  23  39  57  83 119 156 190 233 287 344
#     4  10  22  38  56  80 113 148 184 227 279 332
#
# _framework density 18.56718
#
# number of rings (size 3 to 8) (size 9 to 14) (size 15 to 20)
#    0.000    1.667    0.000    6.000    0.000    5.333 
#    0.000    1.667    0.000    0.000    0.000    0.000 
#    0.000    0.000    0.000    0.000    0.000    0.000 
#
# Total GULP energy -134146.785500 kJ/mol
# GULP energy per Si atom -5589.449396 kJ/mol
# Density = 1.852492 g / cm^3
# Si number density = 18.567180 Si / 1000 Ang^3
#
#
#
# Elastic Constant Matrix: (Units=GPa)
#
#
# Indices 1 2 3 4 5 6 
#
# 1 199.8648 61.0017 133.9768 0.0000 0.0000 0.0000
# 2 61.0017 89.6580 45.5938 0.0000 0.0000 0.0000
# 3 133.9768 45.5938 127.3598 0.0000 0.0000 0.0000
# 4 0.0000 0.0000 0.0000 228.9939 0.0000 0.0000
# 5 0.0000 0.0000 0.0000 0.0000 401.4045 0.0000
# 6 0.0000 0.0000 0.0000 0.0000 0.0000 27.5814
#
#
#
# Elastic Compliance Matrix: (Units=1/GPa)
#
#
# Indices 1 2 3 4 5 6 
#
# 1 0.017665 -0.003141 -0.017458 0.000000 0.000000 0.000000
# 2 -0.003141 0.014194 -0.001777 0.000000 0.000000 0.000000
# 3 -0.017458 -0.001777 0.026854 0.000000 0.000000 0.000000
# 4 0.000000 0.000000 0.000000 0.004367 0.000000 0.000000
# 5 0.000000 0.000000 0.000000 0.000000 0.002491 0.000000
# 6 0.000000 0.000000 0.000000 0.000000 0.000000 0.036256
#
#
# Mechanical properties :
#
#
# Convention : Reuss Voigt Hill
#
# Bulk Modulus (GPa) = 71.63565 99.78080 85.70823
# Shear Modulus (GPa) = 33.06133 143.34998 88.20565
#
# Velocity S-wave (km/s) = 4.22433 8.79623 6.89995
# Velocity P-wave (km/s) = 7.90310 12.53084 10.47571
#
# Compressibility (1/GPa) = 0.01395953
#
# Stress axis : x y z
#
# Youngs Moduli (GPa) = 56.60895 70.45059 37.23902
#
# Poissons Ratio (x) = 0.22128 0.65013
# Poissons Ratio (y) = 0.17780 0.06619
# Poissons Ratio (z) = 0.98830 0.12522
#
# Static dielectric constant tensor:
#      x y z
#    x 1.606770 0.000000 0.000000 
#    y 0.000000 1.617090 0.000000 
#    z 0.000000 0.000000 1.633520 
# 
# From -- ./inp_files/10042.got.cif
#   From: 2010.05.17/outbox.cif.g08.bks.cpg/sg39_6_cif.got.tgz:10042.got - 2010.06.03 18:22:40.
