data_PCOD9360758
_publ_section_title
;
Structure prediction by ZEFSAII (Michael W. Deem and Ramdas Pophale) SiO2 
 PCOD9360758
Probable space group: A B M 2
;
_chemical_formula_sum "Si O2"
_cell_formula_units_Z 64
_cell_length_a 11.896961
_cell_length_b 16.848916
_cell_length_c 17.245851
_cell_angle_alpha 90.000000
_cell_angle_beta 90.000000
_cell_angle_gamma 90.000000
_cell_volume 3456.946295
_symmetry_space_group_name_H-M "A B M 2"
_symmetry_group_IT_number 39
_symmetry_cell_setting 'orthorhombic'
loop_
_space_group_symop_operation_xyz
x,y,z
-x,-y,z
-x,1/2+y,z
x,1/2-y,z
x,1/2+y,1/2+z
-x,1/2-y,1/2+z
-x,y,1/2+z
x,-y,1/2+z
loop_
_atom_site_type_symbol
_atom_site_label
_atom_site_fract_x
_atom_site_fract_y
_atom_site_fract_z
Si Si1 0.170370 0.546738 0.563500
Si Si2 0.612500 0.655096 0.514803
Si Si3 0.249147 0.402580 0.655978
Si Si4 0.644537 0.842324 0.986281
Si Si5 0.992505 0.404302 0.812081
Si Si6 0.203580 0.062421 0.419089
Si Si7 0.997551 0.840404 0.641597
Si Si8 0.752364 0.596797 0.835657
O O1 0.212021 0.492179 0.634566
O O2 0.269860 0.604763 0.535947
O O3 0.151913 0.487356 0.491196
O O4 0.063154 0.597801 0.587664
O O5 0.620655 0.750000 0.511677
O O6 0.653441 0.624302 0.598396
O O7 0.483986 0.632029 0.498742
O O8 0.698430 0.616142 0.453844
O O9 0.136571 0.352370 0.637308
O O10 0.277830 0.393790 0.745934
O O11 0.654721 0.750000 0.007167
O O12 0.679487 0.854887 0.896811
O O13 0.894336 0.391942 0.873925
O O14 0.000000 0.500000 0.798433
O O15 0.971428 0.362062 0.730421
O O16 0.115626 0.379862 0.842222
O O17 0.252614 0.995243 0.361700
O O18 0.027321 0.750000 0.623226
#
# Coordination Sequence:
#
# PCOD9360758 Si02
#       8
#     8   8   8   8   8   8   8   8
#     4  10  20  35  57  82 110 144 182 225 269 317
#     4  10  22  39  56  77 110 146 182 228 276 322
#     4  10  21  38  59  80 107 145 186 223 264 321
#     4  10  22  39  56  78 110 144 182 229 276 322
#     4   9  18  35  54  80 113 143 177 219 269 322
#     4   9  19  34  56  82 109 143 181 222 270 319
#     4  11  21  33  54  84 116 145 175 218 273 330
#     4   9  19  35  58  81 105 142 180 220 268 324
#
# _framework density 18.513449000000001
#
# number of rings (size 3 to 8) (size 9 to 14) (size 15 to 20)
#    0.000    2.250    0.000    3.375    0.000   16.500 
#    0.000    5.000    0.000    3.000    0.000    0.000 
#    0.000    0.000    0.000    0.000    0.000    0.000 
#
# Total GULP energy -178692.152110 kJ/mol
# GULP energy per Si atom -5584.129753 kJ/mol
# Density = 1.847131 g / cm^3
# Si number density = 18.513449 Si / 1000 Ang^3
#
#
#
# Elastic Constant Matrix: (Units=GPa)
#
#
# Indices 1 2 3 4 5 6 
#
# 1 97.5042 26.9931 53.6247 0.0000 0.0000 0.0000
# 2 26.9931 46.7231 7.9813 0.0000 0.0000 0.0000
# 3 53.6247 7.9813 44.7161 0.0000 0.0000 0.0000
# 4 0.0000 0.0000 0.0000 15.0763 0.0000 0.0000
# 5 0.0000 0.0000 0.0000 0.0000 20.7180 0.0000
# 6 0.0000 0.0000 0.0000 0.0000 0.0000 28.1714
#
#
#
# Elastic Compliance Matrix: (Units=1/GPa)
#
#
# Indices 1 2 3 4 5 6 
#
# 1 0.037742 -0.014515 -0.042670 0.000000 0.000000 0.000000
# 2 -0.014515 0.027658 0.012471 0.000000 0.000000 0.000000
# 3 -0.042670 0.012471 0.071309 0.000000 0.000000 0.000000
# 4 0.000000 0.000000 0.000000 0.066329 0.000000 0.000000
# 5 0.000000 0.000000 0.000000 0.000000 0.048267 0.000000
# 6 0.000000 0.000000 0.000000 0.000000 0.000000 0.035497
#
#
# Mechanical properties :
#
#
# Convention : Reuss Voigt Hill
#
# Bulk Modulus (GPa) = 21.15109 40.68238 30.91674
# Shear Modulus (GPa) = 12.75535 19.48276 16.11905
#
# Velocity S-wave (km/s) = 2.62769 3.24752 2.95391
# Velocity P-wave (km/s) = 4.54487 6.00700 5.32635
#
# Compressibility (1/GPa) = 0.04727888
#
# Stress axis : x y z
#
# Youngs Moduli (GPa) = 26.49573 36.15534 14.02355
#
# Poissons Ratio (x) = 0.52481 0.59839
# Poissons Ratio (y) = 0.38460 -0.17488
# Poissons Ratio (z) = 1.13058 -0.45088
#
# Static dielectric constant tensor:
#      x y z
#    x 1.627630 0.000000 0.000000 
#    y 0.000000 1.645650 0.000000 
#    z 0.000000 0.000000 1.638860 
# 
# From -- ./inp_files/12359.got.cif
#   From: 2010.05.17/outbox.cif.g08.bks.cpg/sg39_7_cif.got.tgz:12359.got - 2010.06.03 18:22:40.
