data_PCOD9360940
_publ_section_title
;
Structure prediction by ZEFSAII (Michael W. Deem and Ramdas Pophale) SiO2 
 PCOD9360940
Probable space group: A B M 2
;
_chemical_formula_sum "Si O2"
_cell_formula_units_Z 48
_cell_length_a 9.514550
_cell_length_b 8.700162
_cell_length_c 31.468506
_cell_angle_alpha 90.000000
_cell_angle_beta 90.000000
_cell_angle_gamma 90.000000
_cell_volume 2604.903966
_symmetry_space_group_name_H-M "A B M 2"
_symmetry_group_IT_number 39
_symmetry_cell_setting 'orthorhombic'
loop_
_space_group_symop_operation_xyz
x,y,z
-x,-y,z
-x,1/2+y,z
x,1/2-y,z
x,1/2+y,1/2+z
-x,1/2-y,1/2+z
-x,y,1/2+z
x,-y,1/2+z
loop_
_atom_site_type_symbol
_atom_site_label
_atom_site_fract_x
_atom_site_fract_y
_atom_site_fract_z
Si Si1 0.343206 0.433966 0.857720
Si Si2 0.843174 0.565352 0.282641
Si Si3 0.656870 0.564811 0.201441
Si Si4 0.655925 0.066004 0.455423
Si Si5 0.156433 0.433460 0.530211
Si Si6 0.842565 0.435007 0.620303
O O1 0.500000 0.500000 0.850486
O O2 0.347745 0.250000 0.852774
O O3 0.234918 0.505527 0.824642
O O4 0.302439 0.468906 0.906610
O O5 0.849487 0.750000 0.283287
O O6 0.748830 0.516799 0.242206
O O7 0.000000 0.500000 0.279392
O O8 0.500000 0.500000 0.202913
O O9 0.648627 0.750000 0.201985
O O10 0.740544 0.519879 0.158790
O O11 0.655699 0.250000 0.460487
O O12 0.500000 0.000000 0.460945
O O13 0.753842 0.990121 0.490495
O O14 0.152463 0.250000 0.532237
O O15 0.209865 0.499852 0.575219
O O16 0.000000 0.500000 0.525535
O O17 0.850658 0.250000 0.618161
O O18 0.000000 0.500000 0.627295
#
# Coordination Sequence:
#
# PCOD9360940 Si02
#       6
#     8   8   8   8   8   8
#     4  10  21  38  60  85 114 149 188 232 281 334
#     4  11  23  39  59  85 115 149 189 232 281 334
#     4  10  23  39  58  84 113 147 186 229 277 333
#     4  10  21  38  59  84 114 149 189 232 281 335
#     4  11  22  37  58  84 114 150 190 233 283 335
#     4  10  20  37  58  82 112 146 187 232 280 333
#
# _framework density 18.426783
#
# number of rings (size 3 to 8) (size 9 to 14) (size 15 to 20)
#    0.000    1.667    0.000    5.500    0.000    7.333 
#    0.000    1.667    0.000    0.000    0.000    0.000 
#    0.000    0.000    0.000    0.000    0.000    0.000 
#
# Total GULP energy -134127.210776 kJ/mol
# GULP energy per Si atom -5588.633782 kJ/mol
# Density = 1.838484 g / cm^3
# Si number density = 18.426783 Si / 1000 Ang^3
#
#
#
# Elastic Constant Matrix: (Units=GPa)
#
#
# Indices 1 2 3 4 5 6 
#
# 1 130.1059 54.8165 118.8911 0.0000 0.0000 0.0000
# 2 54.8165 90.8453 75.4114 0.0000 0.0000 0.0000
# 3 118.8911 75.4114 183.9154 0.0000 0.0000 0.0000
# 4 0.0000 0.0000 0.0000 28.0412 0.0000 0.0000
# 5 0.0000 0.0000 0.0000 0.0000 44.0481 0.0000
# 6 0.0000 0.0000 0.0000 0.0000 0.0000 38.6002
#
#
#
# Elastic Compliance Matrix: (Units=1/GPa)
#
#
# Indices 1 2 3 4 5 6 
#
# 1 0.018999 -0.001924 -0.011493 0.000000 0.000000 0.000000
# 2 -0.001924 0.016883 -0.005679 0.000000 0.000000 0.000000
# 3 -0.011493 -0.005679 0.015195 0.000000 0.000000 0.000000
# 4 0.000000 0.000000 0.000000 0.035662 0.000000 0.000000
# 5 0.000000 0.000000 0.000000 0.000000 0.022702 0.000000
# 6 0.000000 0.000000 0.000000 0.000000 0.000000 0.025907
#
#
# Mechanical properties :
#
#
# Convention : Reuss Voigt Hill
#
# Bulk Modulus (GPa) = 77.60462 100.34495 88.97478
# Shear Modulus (GPa) = 28.11621 32.52109 30.31865
#
# Velocity S-wave (km/s) = 3.91043 4.20561 4.06070
# Velocity P-wave (km/s) = 7.91171 8.84065 8.38905
#
# Compressibility (1/GPa) = 0.01288583
#
# Stress axis : x y z
#
# Youngs Moduli (GPa) = 52.63513 59.23286 65.80976
#
# Poissons Ratio (x) = 0.11394 0.75634
# Poissons Ratio (y) = 0.10125 0.37373
# Poissons Ratio (z) = 0.60493 0.33638
#
# Static dielectric constant tensor:
#      x y z
#    x 1.585690 0.000000 0.000000 
#    y 0.000000 1.618230 0.000000 
#    z 0.000000 0.000000 1.635290 
# 
# From -- ./inp_files/17603.got.cif
#   From: 2010.05.17/outbox.cif.g08.bks.cpg/sg39_9_cif.got.tgz:17603.got - 2010.06.03 18:22:40.
