data_PCOD9360036
_publ_section_title
;
Structure prediction by ZEFSAII (Michael W. Deem and Ramdas Pophale) SiO2 
 PCOD9360036
Probable space group: A B M 2
;
_chemical_formula_sum "Si O2"
_cell_formula_units_Z 64
_cell_length_a 21.157774
_cell_length_b 9.688245
_cell_length_c 14.305574
_cell_angle_alpha 90.000000
_cell_angle_beta 90.000000
_cell_angle_gamma 90.000000
_cell_volume 2932.380852
_symmetry_space_group_name_H-M "A B M 2"
_symmetry_group_IT_number 39
_symmetry_cell_setting 'orthorhombic'
loop_
_space_group_symop_operation_xyz
x,y,z
-x,-y,z
-x,1/2+y,z
x,1/2-y,z
x,1/2+y,1/2+z
-x,1/2-y,1/2+z
-x,y,1/2+z
x,-y,1/2+z
loop_
_atom_site_type_symbol
_atom_site_label
_atom_site_fract_x
_atom_site_fract_y
_atom_site_fract_z
Si Si1 0.443263 0.095983 0.258880
Si Si2 0.439026 0.089362 0.487955
Si Si3 0.690480 0.912093 0.294903
Si Si4 0.833598 0.400434 0.737860
Si Si5 0.941639 0.404477 0.237751
Si Si6 0.940022 0.593256 0.509431
Si Si7 0.681681 0.914390 0.978980
Si Si8 0.173131 0.903848 0.518411
O O1 0.458656 0.250000 0.229401
O O2 0.440354 0.091158 0.373225
O O3 0.371014 0.066090 0.230632
O O4 0.500000 0.000000 0.228888
O O5 0.440310 0.250000 0.517421
O O6 0.500000 0.000000 0.515884
O O7 0.375755 0.007484 0.517191
O O8 0.684753 0.750000 0.328939
O O9 0.759264 0.922033 0.251021
O O10 0.686945 0.028720 0.373404
O O11 0.850281 0.250000 0.778687
O O12 0.877235 0.524141 0.770691
O O13 0.844840 0.391819 0.627124
O O14 0.948615 0.250000 0.272758
O O15 0.940990 0.399155 0.123692
O O16 0.000000 0.500000 0.264236
O O17 0.944764 0.750000 0.475331
O O18 0.874618 0.518883 0.480878
O O19 0.000000 0.500000 0.482893
O O20 0.668151 0.750000 0.985243
O O21 0.752476 0.939180 0.016665
O O22 0.165657 0.750000 0.476033
#
# Coordination Sequence:
#
# PCOD9360036 Si02
#       8
#     8   8   8   8   8   8   8   8
#     4   8  14  24  39  61  85 109 141 180 219 257
#     4   9  16  27  44  66  91 118 152 192 230 269
#     4   9  18  31  47  67  91 121 154 188 229 273
#     4   9  17  31  49  67  90 121 155 190 228 270
#     4   9  16  26  42  66  92 117 148 186 227 269
#     4   9  16  26  43  66  91 118 149 188 229 269
#     4  10  19  30  46  69  96 124 153 187 228 273
#     4   9  18  31  47  68  93 122 155 189 227 272
#
# _framework density 21.82527
#
# number of rings (size 3 to 8) (size 9 to 14) (size 15 to 20)
#    0.000    3.000    0.000    2.250    0.000    7.500 
#    0.000    0.000    0.000    1.500    0.000    7.000 
#    0.000    0.000    0.000    0.000    0.000    0.000 
#
# Total GULP energy -178508.951791 kJ/mol
# GULP energy per Si atom -5578.404743 kJ/mol
# Density = 2.177559 g / cm^3
# Si number density = 21.825270 Si / 1000 Ang^3
#
#
#
# Elastic Constant Matrix: (Units=GPa)
#
#
# Indices 1 2 3 4 5 6 
#
# 1 182.5406 140.9496 -3.3839 0.0000 0.0000 0.0000
# 2 140.9496 197.6464 15.1817 0.0000 0.0000 0.0000
# 3 -3.3839 15.1817 48.4713 0.0000 0.0000 0.0000
# 4 0.0000 0.0000 0.0000 7.0811 0.0000 0.0000
# 5 0.0000 0.0000 0.0000 0.0000 15.1400 0.0000
# 6 0.0000 0.0000 0.0000 0.0000 0.0000 44.4830
#
#
#
# Elastic Compliance Matrix: (Units=1/GPa)
#
#
# Indices 1 2 3 4 5 6 
#
# 1 0.012861 -0.009468 0.003863 0.000000 0.000000 0.000000
# 2 -0.009468 0.012155 -0.004468 0.000000 0.000000 0.000000
# 3 0.003863 -0.004468 0.022300 0.000000 0.000000 0.000000
# 4 0.000000 0.000000 0.000000 0.141220 0.000000 0.000000
# 5 0.000000 0.000000 0.000000 0.000000 0.066050 0.000000
# 6 0.000000 0.000000 0.000000 0.000000 0.000000 0.022480
#
#
# Mechanical properties :
#
#
# Convention : Reuss Voigt Hill
#
# Bulk Modulus (GPa) = 36.80554 81.57258 59.18906
# Shear Modulus (GPa) = 16.32549 31.73489 24.03019
#
# Velocity S-wave (km/s) = 2.73794 3.81733 3.32177
# Velocity P-wave (km/s) = 5.18608 7.54227 6.47229
#
# Compressibility (1/GPa) = 0.02716982
#
# Stress axis : x y z
#
# Youngs Moduli (GPa) = 77.75481 82.27027 44.84316
#
# Poissons Ratio (x) = 0.77897 -0.17325
# Poissons Ratio (y) = 0.73622 0.20036
# Poissons Ratio (z) = -0.30040 0.36759
#
# Static dielectric constant tensor:
#      x y z
#    x 1.795010 0.000000 0.000000 
#    y 0.000000 1.767140 0.000000 
#    z 0.000000 0.000000 1.864050 
# 
# From -- ./inp_files/15026.got.cif
#   From: 2010.05.17/outbox.cif.g08.bks.cpg/sg39_8_cif.got.tgz:15026.got - 2010.06.03 18:22:40.
