data_PCOD9360962
_publ_section_title
;
Structure prediction by ZEFSAII (Michael W. Deem and Ramdas Pophale) SiO2 
 PCOD9360962
Probable space group: A B M 2
;
_chemical_formula_sum "Si O2"
_cell_formula_units_Z 40
_cell_length_a 15.154030
_cell_length_b 9.286000
_cell_length_c 14.307178
_cell_angle_alpha 90.000000
_cell_angle_beta 90.000000
_cell_angle_gamma 90.000000
_cell_volume 2013.310703
_symmetry_space_group_name_H-M "A B M 2"
_symmetry_group_IT_number 39
_symmetry_cell_setting 'orthorhombic'
loop_
_space_group_symop_operation_xyz
x,y,z
-x,-y,z
-x,1/2+y,z
x,1/2-y,z
x,1/2+y,1/2+z
-x,1/2-y,1/2+z
-x,y,1/2+z
x,-y,1/2+z
loop_
_atom_site_type_symbol
_atom_site_label
_atom_site_fract_x
_atom_site_fract_y
_atom_site_fract_z
Si Si1 0.593592 0.422013 0.598530
Si Si2 0.086246 0.412332 0.451033
Si Si3 0.267199 0.080596 0.725178
Si Si4 0.087898 0.584595 0.723013
Si Si5 0.259522 0.584533 0.448436
O O1 0.500000 0.500000 0.592653
O O2 0.583948 0.250000 0.612928
O O3 0.652540 0.495302 0.678817
O O4 0.651757 0.445373 0.505187
O O5 0.081321 0.250000 0.485434
O O6 0.085930 0.410376 0.337001
O O7 0.178149 0.485349 0.477665
O O8 0.000000 0.500000 0.479598
O O9 0.267157 0.250000 0.699898
O O10 0.273670 0.070541 0.837611
O O11 0.175626 0.003305 0.697753
O O12 0.090226 0.750000 0.689923
O O13 0.000000 0.500000 0.694248
O O14 0.233869 0.750000 0.467322
#
# Coordination Sequence:
#
# PCOD9360962 Si02
#       5
#     8   8   8   8   8
#     4  11  24  42  61  83 111 144 184 234 286 338
#     4   9  16  27  49  80 114 150 187 225 270 324
#     4  10  20  37  60  86 115 149 187 230 279 333
#     4   9  16  28  49  80 115 152 189 227 272 326
#     4   9  20  38  59  83 114 149 186 228 277 331
#
# _framework density 19.867771999999999
#
# number of rings (size 3 to 8) (size 9 to 14) (size 15 to 20)
#    0.000    2.400    0.000    2.400    0.000    8.000 
#    0.000    3.000    0.000    4.800    0.000    0.000 
#    0.000    0.000    0.000    0.000    0.000    0.000 
#
# Total GULP energy -111785.989625 kJ/mol
# GULP energy per Si atom -5589.299481 kJ/mol
# Density = 1.982255 g / cm^3
# Si number density = 19.867772 Si / 1000 Ang^3
#
#
#
# Elastic Constant Matrix: (Units=GPa)
#
#
# Indices 1 2 3 4 5 6 
#
# 1 213.8585 147.7905 41.7261 0.0000 0.0000 0.0000
# 2 147.7905 195.3694 50.2509 0.0000 0.0000 0.0000
# 3 41.7261 50.2509 58.2428 0.0000 0.0000 0.0000
# 4 0.0000 0.0000 0.0000 11.8166 0.0000 0.0000
# 5 0.0000 0.0000 0.0000 0.0000 28.4553 0.0000
# 6 0.0000 0.0000 0.0000 0.0000 0.0000 44.9943
#
#
#
# Elastic Compliance Matrix: (Units=1/GPa)
#
#
# Indices 1 2 3 4 5 6 
#
# 1 0.009827 -0.007227 -0.000805 0.000000 0.000000 0.000000
# 2 -0.007227 0.011893 -0.005084 0.000000 0.000000 0.000000
# 3 -0.000805 -0.005084 0.022132 0.000000 0.000000 0.000000
# 4 0.000000 0.000000 0.000000 0.084627 0.000000 0.000000
# 5 0.000000 0.000000 0.000000 0.000000 0.035143 0.000000
# 6 0.000000 0.000000 0.000000 0.000000 0.000000 0.022225
#
#
# Mechanical properties :
#
#
# Convention : Reuss Voigt Hill
#
# Bulk Modulus (GPa) = 56.74951 105.22287 80.98619
# Shear Modulus (GPa) = 22.94075 32.23346 27.58711
#
# Velocity S-wave (km/s) = 3.40173 4.03227 3.73035
# Velocity P-wave (km/s) = 6.63737 8.64613 7.70747
#
# Compressibility (1/GPa) = 0.01762130
#
# Stress axis : x y z
#
# Youngs Moduli (GPa) = 101.75566 84.08257 45.18277
#
# Poissons Ratio (x) = 0.60767 0.03638
# Poissons Ratio (y) = 0.73539 0.22969
# Poissons Ratio (z) = 0.08193 0.42744
#
# Static dielectric constant tensor:
#      x y z
#    x 1.640570 0.000000 0.000000 
#    y 0.000000 1.677110 0.000000 
#    z 0.000000 0.000000 1.746470 
# 
# From -- ./inp_files/9628.got.cif
#   From: 2010.05.17/outbox.cif.g08.bks.cpg/sg39_5_cif.got.tgz:9628.got - 2010.06.03 18:22:40.
