data_PCOD9360357
_publ_section_title
;
Structure prediction by ZEFSAII (Michael W. Deem and Ramdas Pophale) SiO2 
 PCOD9360357
Probable space group: A B M 2
;
_chemical_formula_sum "Si O2"
_cell_formula_units_Z 64
_cell_length_a 24.356289
_cell_length_b 8.792304
_cell_length_c 15.341687
_cell_angle_alpha 90.000000
_cell_angle_beta 90.000000
_cell_angle_gamma 90.000000
_cell_volume 3285.390011
_symmetry_space_group_name_H-M "A B M 2"
_symmetry_group_IT_number 39
_symmetry_cell_setting 'orthorhombic'
loop_
_space_group_symop_operation_xyz
x,y,z
-x,-y,z
-x,1/2+y,z
x,1/2-y,z
x,1/2+y,1/2+z
-x,1/2-y,1/2+z
-x,y,1/2+z
x,-y,1/2+z
loop_
_atom_site_type_symbol
_atom_site_label
_atom_site_fract_x
_atom_site_fract_y
_atom_site_fract_z
Si Si1 0.240985 0.926257 0.694780
Si Si2 0.263586 0.574732 0.487177
Si Si3 0.358184 0.065134 0.247834
Si Si4 0.852428 0.066698 0.963978
Si Si5 0.873516 0.430583 0.164581
Si Si6 0.940519 0.931847 0.316923
Si Si7 0.559255 0.931947 0.097804
Si Si8 0.621155 0.069195 0.939604
O O1 0.230095 0.750000 0.720216
O O2 0.256768 0.927148 0.592255
O O3 0.294963 0.986781 0.743351
O O4 0.185709 0.021247 0.703086
O O5 0.271773 0.750000 0.460858
O O6 0.206996 0.508129 0.449713
O O7 0.316609 0.477078 0.463416
O O8 0.354650 0.250000 0.242937
O O9 0.394815 0.014185 0.166924
O O10 0.385903 0.025503 0.338854
O O11 0.845989 0.250000 0.962154
O O12 0.896388 0.021940 0.890944
O O13 0.872326 0.025215 0.062107
O O14 0.880576 0.250000 0.169486
O O15 0.918832 0.511227 0.223472
O O16 0.943468 0.750000 0.317005
O O17 0.000000 0.000000 0.335722
O O18 0.556753 0.750000 0.101470
O O19 0.500000 0.000000 0.117778
O O20 0.580016 0.984740 0.003691
O O21 0.614362 0.250000 0.948782
#
# Coordination Sequence:
#
# PCOD9360357 Si02
#       8
#     8   8   8   8   8   8   8   8
#     4   9  17  35  59  84 118 160 195 236 295 355
#     4  10  19  34  59  89 122 157 196 244 296 351
#     4   9  20  38  60  85 119 158 198 240 294 354
#     4   9  21  40  60  85 119 158 198 243 296 354
#     4  10  21  38  59  89 121 153 196 247 294 351
#     4  11  24  42  62  85 117 159 202 246 296 355
#     4  11  23  44  65  86 118 159 202 248 296 352
#     4  11  22  37  60  91 121 157 198 243 296 353
#
# _framework density 19.480183
#
# number of rings (size 3 to 8) (size 9 to 14) (size 15 to 20)
#    0.000    2.000    1.250    1.875    1.750    3.000 
#    0.000    5.625    0.000    0.000    0.000    0.000 
#    0.000    0.000    0.000    0.000    0.000    0.000 
#
# Total GULP energy -178773.981264 kJ/mol
# GULP energy per Si atom -5586.686915 kJ/mol
# Density = 1.943585 g / cm^3
# Si number density = 19.480183 Si / 1000 Ang^3
#
#
#
# Elastic Constant Matrix: (Units=GPa)
#
#
# Indices 1 2 3 4 5 6 
#
# 1 55.6978 9.8921 1.3063 0.0000 0.0000 0.0000
# 2 9.8921 38.8152 11.3220 0.0000 0.0000 0.0000
# 3 1.3063 11.3220 40.1786 0.0000 0.0000 0.0000
# 4 0.0000 0.0000 0.0000 21.3909 0.0000 0.0000
# 5 0.0000 0.0000 0.0000 0.0000 18.6050 0.0000
# 6 0.0000 0.0000 0.0000 0.0000 0.0000 37.1655
#
#
#
# Elastic Compliance Matrix: (Units=1/GPa)
#
#
# Indices 1 2 3 4 5 6 
#
# 1 0.018829 -0.005034 0.000806 0.000000 0.000000 0.000000
# 2 -0.005034 0.029416 -0.008126 0.000000 0.000000 0.000000
# 3 0.000806 -0.008126 0.027152 0.000000 0.000000 0.000000
# 4 0.000000 0.000000 0.000000 0.046749 0.000000 0.000000
# 5 0.000000 0.000000 0.000000 0.000000 0.053749 0.000000
# 6 0.000000 0.000000 0.000000 0.000000 0.000000 0.026907
#
#
# Mechanical properties :
#
#
# Convention : Reuss Voigt Hill
#
# Bulk Modulus (GPa) = 19.72717 19.97026 19.84871
# Shear Modulus (GPa) = 20.45781 22.91035 21.68408
#
# Velocity S-wave (km/s) = 3.24417 3.43313 3.33999
# Velocity P-wave (km/s) = 4.91748 5.09794 5.00853
#
# Compressibility (1/GPa) = 0.05069152
#
# Stress axis : x y z
#
# Youngs Moduli (GPa) = 53.10914 33.99500 36.82923
#
# Poissons Ratio (x) = 0.17112 -0.02969
# Poissons Ratio (y) = 0.26734 0.29926
# Poissons Ratio (z) = -0.04282 0.27623
#
# Static dielectric constant tensor:
#      x y z
#    x 1.652310 0.000000 0.000000 
#    y 0.000000 1.657810 0.000000 
#    z 0.000000 0.000000 1.697810 
# 
# From -- ./inp_files/10614.got.cif
#   From: 2010.05.17/outbox.cif.g08.bks.cpg/sg39_6_cif.got.tgz:10614.got - 2010.06.03 18:22:40.
