data_PCOD9360290
_publ_section_title
;
Structure prediction by ZEFSAII (Michael W. Deem and Ramdas Pophale) SiO2 
 PCOD9360290
Probable space group: A B M 2
;
_chemical_formula_sum "Si O2"
_cell_formula_units_Z 64
_cell_length_a 14.665027
_cell_length_b 8.595657
_cell_length_c 32.130632
_cell_angle_alpha 90.000000
_cell_angle_beta 90.000000
_cell_angle_gamma 90.000000
_cell_volume 4050.244231
_symmetry_space_group_name_H-M "A B M 2"
_symmetry_group_IT_number 39
_symmetry_cell_setting 'orthorhombic'
loop_
_space_group_symop_operation_xyz
x,y,z
-x,-y,z
-x,1/2+y,z
x,1/2-y,z
x,1/2+y,1/2+z
-x,1/2-y,1/2+z
-x,y,1/2+z
x,-y,1/2+z
loop_
_atom_site_type_symbol
_atom_site_label
_atom_site_fract_x
_atom_site_fract_y
_atom_site_fract_z
Si Si1 0.603371 0.063348 0.155180
Si Si2 0.713699 0.564497 0.490006
Si Si3 0.098923 0.063283 0.960330
Si Si4 0.397585 0.437233 0.911063
Si Si5 0.711415 0.439605 0.327936
Si Si6 0.396875 0.437946 0.747015
Si Si7 0.902004 0.437215 0.362864
Si Si8 0.396462 0.435415 0.068318
O O1 0.602771 0.250000 0.151258
O O2 0.640442 0.020714 0.200942
O O3 0.500000 0.000000 0.156342
O O4 0.642444 0.991128 0.113000
O O5 0.710338 0.750000 0.490537
O O6 0.817412 0.506586 0.485821
O O7 0.660037 0.501837 0.449598
O O8 0.663905 0.498420 0.530670
O O9 0.100682 0.250000 0.962762
O O10 0.111589 0.018628 0.911472
O O11 0.000000 0.000000 0.973123
O O12 0.500000 0.500000 0.912818
O O13 0.397782 0.250000 0.913315
O O14 0.349961 0.483910 0.867652
O O15 0.712760 0.250000 0.327064
O O16 0.665653 0.492838 0.285074
O O17 0.814807 0.491519 0.336634
O O18 0.500000 0.500000 0.751565
O O19 0.401751 0.250000 0.748473
O O20 0.904474 0.250000 0.361591
O O21 0.000000 0.500000 0.349195
O O22 0.500000 0.500000 0.064266
O O23 0.400815 0.250000 0.067298
#
# Coordination Sequence:
#
# PCOD9360290 Si02
#       8
#     8   8   8   8   8   8   8   8
#     4   9  16  28  46  69  94 122 158 199 241 287
#     4  12  23  35  50  71  97 129 166 203 243 292
#     4  10  19  34  53  74  97 127 162 205 248 289
#     4  11  21  34  47  65  96 133 169 201 237 284
#     4   9  17  31  48  67  95 130 162 196 239 285
#     4   9  17  29  47  69  96 128 161 196 237 284
#     4   9  17  31  49  68  92 123 159 201 243 282
#     4  11  21  34  51  71  97 129 163 202 246 294
#
# _framework density 15.801515999999999
#
# number of rings (size 3 to 8) (size 9 to 14) (size 15 to 20)
#    0.000    2.000    1.250    4.875    0.000    1.000 
#    0.000    1.250    0.000    0.000    0.000    0.875 
#    0.000    4.000    0.000    0.000    0.000    0.000 
#
# Total GULP energy -178506.534943 kJ/mol
# GULP energy per Si atom -5578.329217 kJ/mol
# Density = 1.576555 g / cm^3
# Si number density = 15.801516 Si / 1000 Ang^3
#
#
#
# Elastic Constant Matrix: (Units=GPa)
#
#
# Indices 1 2 3 4 5 6 
#
# 1 120.1903 36.3732 74.6670 0.0000 0.0000 0.0000
# 2 36.3732 70.7179 45.0151 0.0000 0.0000 0.0000
# 3 74.6670 45.0151 148.1676 0.0000 0.0000 0.0000
# 4 0.0000 0.0000 0.0000 18.4155 0.0000 0.0000
# 5 0.0000 0.0000 0.0000 0.0000 3.0310 0.0000
# 6 0.0000 0.0000 0.0000 0.0000 0.0000 24.8307
#
#
#
# Elastic Compliance Matrix: (Units=1/GPa)
#
#
# Indices 1 2 3 4 5 6 
#
# 1 0.012614 -0.003027 -0.005437 0.000000 0.000000 0.000000
# 2 -0.003027 0.018257 -0.004021 0.000000 0.000000 0.000000
# 3 -0.005437 -0.004021 0.010711 0.000000 0.000000 0.000000
# 4 0.000000 0.000000 0.000000 0.054302 0.000000 0.000000
# 5 0.000000 0.000000 0.000000 0.000000 0.329919 0.000000
# 6 0.000000 0.000000 0.000000 0.000000 0.000000 0.040273
#
#
# Mechanical properties :
#
#
# Convention : Reuss Voigt Hill
#
# Bulk Modulus (GPa) = 60.19991 72.35404 66.27697
# Shear Modulus (GPa) = 10.06880 21.45681 15.76281
#
# Velocity S-wave (km/s) = 2.52703 3.68896 3.16183
# Velocity P-wave (km/s) = 6.83336 8.00208 7.44070
#
# Compressibility (1/GPa) = 0.01661132
#
# Stress axis : x y z
#
# Youngs Moduli (GPa) = 79.27810 54.77232 93.36426
#
# Poissons Ratio (x) = 0.16579 0.50762
# Poissons Ratio (y) = 0.23997 0.37546
# Poissons Ratio (z) = 0.43103 0.22026
#
# Static dielectric constant tensor:
#      x y z
#    x 1.561600 0.000000 0.000000 
#    y 0.000000 1.536900 0.000000 
#    z 0.000000 0.000000 1.544250 
# 
# From -- ./inp_files/18007.got.cif
#   From: 2010.05.17/outbox.cif.g08.bks.cpg/sg39_10_cif.got.tgz:18007.got - 2010.06.03 18:22:40.
