data_PCOD9360865
_publ_section_title
;
Structure prediction by ZEFSAII (Michael W. Deem and Ramdas Pophale) SiO2 
 PCOD9360865
Probable space group: A B M 2
;
_chemical_formula_sum "Si O2"
_cell_formula_units_Z 64
_cell_length_a 21.129326
_cell_length_b 8.694968
_cell_length_c 18.758093
_cell_angle_alpha 90.000000
_cell_angle_beta 90.000000
_cell_angle_gamma 90.000000
_cell_volume 3446.214588
_symmetry_space_group_name_H-M "A B M 2"
_symmetry_group_IT_number 39
_symmetry_cell_setting 'orthorhombic'
loop_
_space_group_symop_operation_xyz
x,y,z
-x,-y,z
-x,1/2+y,z
x,1/2-y,z
x,1/2+y,1/2+z
-x,1/2-y,1/2+z
-x,y,1/2+z
x,-y,1/2+z
loop_
_atom_site_type_symbol
_atom_site_label
_atom_site_fract_x
_atom_site_fract_y
_atom_site_fract_z
Si Si1 0.190460 0.565228 0.742000
Si Si2 0.431401 0.434650 0.578380
Si Si3 0.067956 0.435277 0.496067
Si Si4 0.567912 0.934782 0.744467
Si Si5 0.067836 0.064761 0.331007
Si Si6 0.692058 0.935959 0.830315
Si Si7 0.688984 0.934524 0.996693
Si Si8 0.191983 0.934980 0.083075
O O1 0.190966 0.750000 0.737913
O O2 0.125794 0.515660 0.781512
O O3 0.249570 0.508951 0.788508
O O4 0.194134 0.495915 0.663324
O O5 0.500000 0.500000 0.557369
O O6 0.431826 0.250000 0.573949
O O7 0.421038 0.478723 0.661659
O O8 0.375207 0.501827 0.531287
O O9 0.065030 0.250000 0.497434
O O10 0.078419 0.483231 0.413519
O O11 0.126709 0.484075 0.544617
O O12 0.000000 0.500000 0.519189
O O13 0.564619 0.750000 0.746986
O O14 0.626328 0.984666 0.793224
O O15 0.500000 0.000000 0.766859
O O16 0.065133 0.250000 0.330001
O O17 0.000000 0.000000 0.307981
O O18 0.696320 0.750000 0.824725
O O19 0.693038 0.977493 0.913459
O O20 0.689349 0.750000 0.001874
O O21 0.748623 0.001686 0.039059
O O22 0.194585 0.750000 0.083170
#
# Coordination Sequence:
#
# PCOD9360865 Si02
#       8
#     8   8   8   8   8   8   8   8
#     4  11  23  38  58  84 113 146 189 236 280 335
#     4  10  20  36  59  84 114 152 191 234 284 337
#     4   9  19  36  58  82 110 146 186 229 279 336
#     4   9  19  36  57  81 109 143 182 224 272 327
#     4   9  19  36  57  82 111 144 184 228 276 333
#     4  10  22  39  58  83 115 148 185 231 283 339
#     4  11  23  38  58  85 115 148 190 238 286 339
#     4  11  23  39  58  81 113 151 190 234 286 340
#
# _framework density 18.571100999999999
#
# number of rings (size 3 to 8) (size 9 to 14) (size 15 to 20)
#    0.000    2.000    0.000    3.000    0.000    7.000 
#    0.000    6.250    0.000    0.000    0.000    0.000 
#    0.000    0.000    0.000    0.000    0.000    0.000 
#
# Total GULP energy -178782.531281 kJ/mol
# GULP energy per Si atom -5586.954103 kJ/mol
# Density = 1.852883 g / cm^3
# Si number density = 18.571101 Si / 1000 Ang^3
#
#
#
# Elastic Constant Matrix: (Units=GPa)
#
#
# Indices 1 2 3 4 5 6 
#
# 1 214.8631 54.0308 135.5975 0.0000 0.0000 0.0000
# 2 54.0308 34.8582 49.5238 0.0000 0.0000 0.0000
# 3 135.5975 49.5238 148.7566 0.0000 0.0000 0.0000
# 4 0.0000 0.0000 0.0000 12.6509 0.0000 0.0000
# 5 0.0000 0.0000 0.0000 0.0000 43.0800 0.0000
# 6 0.0000 0.0000 0.0000 0.0000 0.0000 37.0697
#
#
#
# Elastic Compliance Matrix: (Units=1/GPa)
#
#
# Indices 1 2 3 4 5 6 
#
# 1 0.011499 -0.005563 -0.008630 0.000000 0.000000 0.000000
# 2 -0.005563 0.057126 -0.013947 0.000000 0.000000 0.000000
# 3 -0.008630 -0.013947 0.019232 0.000000 0.000000 0.000000
# 4 0.000000 0.000000 0.000000 0.079046 0.000000 0.000000
# 5 0.000000 0.000000 0.000000 0.000000 0.023213 0.000000
# 6 0.000000 0.000000 0.000000 0.000000 0.000000 0.026976
#
#
# Mechanical properties :
#
#
# Convention : Reuss Voigt Hill
#
# Bulk Modulus (GPa) = 31.66896 97.42023 64.54460
# Shear Modulus (GPa) = 17.61194 29.18184 23.39689
#
# Velocity S-wave (km/s) = 3.08287 3.96834 3.55329
# Velocity P-wave (km/s) = 5.45545 8.57722 7.18786
#
# Compressibility (1/GPa) = 0.03157666
#
# Stress axis : x y z
#
# Youngs Moduli (GPa) = 86.96066 17.50520 51.99618
#
# Poissons Ratio (x) = 0.09739 0.44873
# Poissons Ratio (y) = 0.48380 0.72519
# Poissons Ratio (z) = 0.75047 0.24414
#
# Static dielectric constant tensor:
#      x y z
#    x 1.608970 0.000000 0.000000 
#    y 0.000000 1.622200 0.000000 
#    z 0.000000 0.000000 1.622760 
# 
# From -- ./inp_files/13093.got.cif
#   From: 2010.05.17/outbox.cif.g08.bks.cpg/sg39_7_cif.got.tgz:13093.got - 2010.06.03 18:22:40.
