data_PCOD9360895
_publ_section_title
;
Structure prediction by ZEFSAII (Michael W. Deem and Ramdas Pophale) SiO2 
 PCOD9360895
Probable space group: A B M 2
;
_chemical_formula_sum "Si O2"
_cell_formula_units_Z 64
_cell_length_a 13.784239
_cell_length_b 17.754645
_cell_length_c 13.522139
_cell_angle_alpha 90.000000
_cell_angle_beta 90.000000
_cell_angle_gamma 90.000000
_cell_volume 3309.330818
_symmetry_space_group_name_H-M "A B M 2"
_symmetry_group_IT_number 39
_symmetry_cell_setting 'orthorhombic'
loop_
_space_group_symop_operation_xyz
x,y,z
-x,-y,z
-x,1/2+y,z
x,1/2-y,z
x,1/2+y,1/2+z
-x,1/2-y,1/2+z
-x,y,1/2+z
x,-y,1/2+z
loop_
_atom_site_type_symbol
_atom_site_label
_atom_site_fract_x
_atom_site_fract_y
_atom_site_fract_z
Si Si1 0.863434 0.923845 0.441070
Si Si2 0.949816 0.662824 0.929308
Si Si3 0.328207 0.659916 0.883238
Si Si4 0.570439 0.437234 0.054932
Si Si5 0.579761 0.663704 0.167764
Si Si6 0.914328 0.043425 0.272923
Si Si7 0.231939 0.000472 0.628697
Si Si8 0.214097 0.834767 0.593397
O O1 0.782380 0.868897 0.394618
O O2 0.957898 0.878762 0.477812
O O3 0.895747 0.984342 0.360616
O O4 0.815842 0.971761 0.527627
O O5 0.027772 0.750000 0.417359
O O6 0.939660 0.621869 0.823913
O O7 0.852217 0.657702 0.995654
O O8 0.332484 0.750000 0.896705
O O9 0.373212 0.643188 0.774546
O O10 0.385601 0.616127 0.969926
O O11 0.500000 0.500000 0.008848
O O12 0.506190 0.388701 0.130730
O O13 0.655258 0.481940 0.113169
O O14 0.545695 0.750000 0.176117
O O15 0.668500 0.663707 0.087901
O O16 0.816328 0.050373 0.212591
O O17 0.000000 0.000000 0.213456
O O18 0.200184 0.914167 0.649259
O O19 0.191982 0.750000 0.635390
#
# Coordination Sequence:
#
# PCOD9360895 Si02
#       8
#     8   8   8   8   8   8   8   8
#     4  10  21  38  63  88 123 162 203 248 303 368
#     4  10  21  40  61  90 126 163 201 249 307 362
#     4  10  22  41  64  90 121 160 202 253 308 368
#     4  11  23  40  61  89 122 162 201 259 307 366
#     4  10  21  41  63  90 121 158 210 257 306 367
#     4  10  22  37  61  90 122 162 198 253 302 369
#     4  11  22  39  61  90 123 159 208 251 311 365
#     4  10  20  36  61  87 119 157 201 254 301 356
#
# _framework density 19.339257
#
# number of rings (size 3 to 8) (size 9 to 14) (size 15 to 20)
#    0.000    1.750    2.500    1.500    1.750    0.500 
#    4.500    6.250    0.000    0.000    0.000    0.000 
#    0.000    0.000    0.000    0.000    0.000    0.000 
#
# Total GULP energy -178307.209363 kJ/mol
# GULP energy per Si atom -5572.100293 kJ/mol
# Density = 1.929524 g / cm^3
# Si number density = 19.339257 Si / 1000 Ang^3
#
#
#
# Elastic Constant Matrix: (Units=GPa)
#
#
# Indices 1 2 3 4 5 6 
#
# 1 102.6476 33.4781 33.0980 0.0000 0.0000 0.0000
# 2 33.4781 78.5275 13.9727 0.0000 0.0000 0.0000
# 3 33.0980 13.9727 39.5809 0.0000 0.0000 0.0000
# 4 0.0000 0.0000 0.0000 18.7282 0.0000 0.0000
# 5 0.0000 0.0000 0.0000 0.0000 26.5220 0.0000
# 6 0.0000 0.0000 0.0000 0.0000 0.0000 27.2263
#
#
#
# Elastic Compliance Matrix: (Units=1/GPa)
#
#
# Indices 1 2 3 4 5 6 
#
# 1 0.014595 -0.004322 -0.010679 0.000000 0.000000 0.000000
# 2 -0.004322 0.014868 -0.001634 0.000000 0.000000 0.000000
# 3 -0.010679 -0.001634 0.034771 0.000000 0.000000 0.000000
# 4 0.000000 0.000000 0.000000 0.053395 0.000000 0.000000
# 5 0.000000 0.000000 0.000000 0.000000 0.037705 0.000000
# 6 0.000000 0.000000 0.000000 0.000000 0.000000 0.036729
#
#
# Mechanical properties :
#
#
# Convention : Reuss Voigt Hill
#
# Bulk Modulus (GPa) = 32.29585 42.42817 37.36201
# Shear Modulus (GPa) = 21.21748 23.84246 22.52997
#
# Velocity S-wave (km/s) = 3.31587 3.51501 3.41689
# Velocity P-wave (km/s) = 5.60320 6.20163 5.91000
#
# Compressibility (1/GPa) = 0.03096373
#
# Stress axis : x y z
#
# Youngs Moduli (GPa) = 68.51678 67.25944 28.75934
#
# Poissons Ratio (x) = 0.29070 0.30711
# Poissons Ratio (y) = 0.29613 0.04700
# Poissons Ratio (z) = 0.73167 0.10993
#
# Static dielectric constant tensor:
#      x y z
#    x 1.669600 0.000000 0.000000 
#    y 0.000000 1.688790 0.000000 
#    z 0.000000 0.000000 1.659930 
# 
# From -- ./inp_files/6641.got.cif
#   From: 2010.05.17/outbox.cif.g08.bks.cpg/sg39_4_cif.got.tgz:6641.got - 2010.06.03 18:22:40.
