data_PCOD9360829
_publ_section_title
;
Structure prediction by ZEFSAII (Michael W. Deem and Ramdas Pophale) SiO2 
 PCOD9360829
Probable space group: A B M 2
;
_chemical_formula_sum "Si O2"
_cell_formula_units_Z 64
_cell_length_a 9.153325
_cell_length_b 17.138941
_cell_length_c 20.672298
_cell_angle_alpha 90.000000
_cell_angle_beta 90.000000
_cell_angle_gamma 90.000000
_cell_volume 3243.034908
_symmetry_space_group_name_H-M "A B M 2"
_symmetry_group_IT_number 39
_symmetry_cell_setting 'orthorhombic'
loop_
_space_group_symop_operation_xyz
x,y,z
-x,-y,z
-x,1/2+y,z
x,1/2-y,z
x,1/2+y,1/2+z
-x,1/2-y,1/2+z
-x,y,1/2+z
x,-y,1/2+z
loop_
_atom_site_type_symbol
_atom_site_label
_atom_site_fract_x
_atom_site_fract_y
_atom_site_fract_z
Si Si1 0.311075 0.658034 0.622840
Si Si2 0.880332 0.931308 0.875676
Si Si3 0.380333 0.568692 0.272308
Si Si4 0.342919 0.841791 0.766079
Si Si5 0.601543 0.076004 0.122865
Si Si6 0.101544 0.076004 0.025119
Si Si7 0.157080 0.658209 0.881906
Si Si8 0.188925 0.158034 0.525144
O O1 0.273875 0.750000 0.614842
O O2 0.286994 0.629485 0.696679
O O3 0.484956 0.646566 0.617229
O O4 0.227077 0.600718 0.574489
O O5 0.750000 0.932270 0.823992
O O6 0.986564 0.856689 0.870385
O O7 0.838018 0.933305 0.951829
O O8 0.000000 0.000000 0.865754
O O9 0.500000 0.500000 0.282231
O O10 0.486565 0.643311 0.277600
O O11 0.338019 0.566697 0.196156
O O12 0.317714 0.750000 0.763796
O O13 0.249998 0.877209 0.823992
O O14 0.727078 0.100718 0.073496
O O15 0.500000 0.000000 0.109478
O O16 0.984956 0.146566 0.030754
O O17 0.000000 0.000000 0.038507
O O18 0.182284 0.750000 0.884189
O O19 0.213008 0.629485 0.951306
O O20 0.226124 0.250000 0.533142
#
# Coordination Sequence:
#
# PCOD9360829 Si02
#       8
#     8   8   8   8   8   8   8   8
#     4  10  20  36  57  80 112 150 189 234 283 338
#     4  10  21  37  57  82 112 146 186 234 284 337
#     4  10  21  37  57  82 112 146 186 234 284 337
#     4   9  19  36  56  80 111 146 186 234 286 336
#     4  10  21  37  56  83 114 147 188 235 283 336
#     4  10  21  37  56  83 114 147 188 235 283 336
#     4   9  19  36  56  80 111 146 186 234 286 336
#     4  10  20  36  57  80 112 150 189 234 283 338
#
# _framework density 19.734601000000001
#
# number of rings (size 3 to 8) (size 9 to 14) (size 15 to 20)
#    0.000    2.250    0.000    2.250    0.000    3.500 
#    0.000    5.000    0.000    0.000    0.000    0.000 
#    0.000    0.000    0.000    0.000    0.000    0.000 
#
# Total GULP energy -178230.815971 kJ/mol
# GULP energy per Si atom -5569.712999 kJ/mol
# Density = 1.968968 g / cm^3
# Si number density = 19.734601 Si / 1000 Ang^3
#
#
#
# Elastic Constant Matrix: (Units=GPa)
#
#
# Indices 1 2 3 4 5 6 
#
# 1 94.4384 23.0547 114.9768 0.0000 0.0000 0.0000
# 2 23.0547 52.1624 44.2332 0.0000 0.0000 0.0000
# 3 114.9768 44.2332 187.3102 0.0000 0.0000 0.0000
# 4 0.0000 0.0000 0.0000 20.2138 0.0000 0.0000
# 5 0.0000 0.0000 0.0000 0.0000 48.9953 0.0000
# 6 0.0000 0.0000 0.0000 0.0000 0.0000 31.0417
#
#
#
# Elastic Compliance Matrix: (Units=1/GPa)
#
#
# Indices 1 2 3 4 5 6 
#
# 1 0.042626 0.004186 -0.027154 0.000000 0.000000 0.000000
# 2 0.004186 0.024382 -0.008328 0.000000 0.000000 0.000000
# 3 -0.027154 -0.008328 0.023973 0.000000 0.000000 0.000000
# 4 0.000000 0.000000 0.000000 0.049471 0.000000 0.000000
# 5 0.000000 0.000000 0.000000 0.000000 0.020410 0.000000
# 6 0.000000 0.000000 0.000000 0.000000 0.000000 0.032215
#
#
# Mechanical properties :
#
#
# Convention : Reuss Voigt Hill
#
# Bulk Modulus (GPa) = 35.22188 77.60449 56.41318
# Shear Modulus (GPa) = 18.85857 30.15993 24.50925
#
# Velocity S-wave (km/s) = 3.09465 3.91356 3.52794
# Velocity P-wave (km/s) = 5.53675 7.73503 6.72630
#
# Compressibility (1/GPa) = 0.02839145
#
# Stress axis : x y z
#
# Youngs Moduli (GPa) = 23.45978 41.01330 41.71336
#
# Poissons Ratio (x) = -0.17169 1.13268
# Poissons Ratio (y) = -0.09821 0.34737
# Poissons Ratio (z) = 0.63702 0.34154
#
# Static dielectric constant tensor:
#      x y z
#    x 1.675260 0.000000 0.000000 
#    y 0.000000 1.784690 0.000000 
#    z 0.000000 0.000000 1.744770 
# 
# From -- ./inp_files/11929.got.cif
#   From: 2010.05.17/outbox.cif.g08.bks.cpg/sg39_6_cif.got.tgz:11929.got - 2010.06.03 18:22:40.
