data_PCOD9360210
_publ_section_title
;
Structure prediction by ZEFSAII (Michael W. Deem and Ramdas Pophale) SiO2 
 PCOD9360210
Probable space group: A B M 2
;
_chemical_formula_sum "Si O2"
_cell_formula_units_Z 64
_cell_length_a 16.791181
_cell_length_b 8.907262
_cell_length_c 22.738079
_cell_angle_alpha 90.000000
_cell_angle_beta 90.000000
_cell_angle_gamma 90.000000
_cell_volume 3400.785507
_symmetry_space_group_name_H-M "A B M 2"
_symmetry_group_IT_number 39
_symmetry_cell_setting 'orthorhombic'
loop_
_space_group_symop_operation_xyz
x,y,z
-x,-y,z
-x,1/2+y,z
x,1/2-y,z
x,1/2+y,1/2+z
-x,1/2-y,1/2+z
-x,y,1/2+z
x,-y,1/2+z
loop_
_atom_site_type_symbol
_atom_site_label
_atom_site_fract_x
_atom_site_fract_y
_atom_site_fract_z
Si Si1 0.792624 0.082054 0.447760
Si Si2 0.412230 0.068732 0.263303
Si Si3 0.923953 0.576700 0.381150
Si Si4 0.430577 0.919481 0.007615
Si Si5 0.742401 0.079518 0.061640
Si Si6 0.085323 0.932562 0.745605
Si Si7 0.253254 0.930774 0.200394
Si Si8 0.620053 0.422148 0.388949
O O1 0.826126 0.250000 0.443444
O O2 0.712312 0.079276 0.408903
O O3 0.848357 0.959785 0.419173
O O4 0.779046 0.036936 0.515405
O O5 0.414119 0.250000 0.257858
O O6 0.500000 0.000000 0.246492
O O7 0.334094 0.002645 0.228688
O O8 0.397624 0.019468 0.331373
O O9 0.939816 0.750000 0.376675
O O10 0.912610 0.521640 0.314500
O O11 0.000000 0.500000 0.408977
O O12 0.452489 0.750000 0.993608
O O13 0.500000 0.000000 0.042929
O O14 0.418529 0.009761 0.947398
O O15 0.349849 0.919293 0.043475
O O16 0.773492 0.250000 0.051676
O O17 0.747416 0.045105 0.130129
O O18 0.084386 0.750000 0.739933
O O19 0.168946 0.997975 0.721423
O O20 0.000000 0.000000 0.722700
O O21 0.254259 0.750000 0.212057
O O22 0.595084 0.250000 0.377827
#
# Coordination Sequence:
#
# PCOD9360210 Si02
#       8
#     8   8   8   8   8   8   8   8
#     4  10  20  34  56  83 111 143 181 225 277 333
#     4  12  25  40  58  83 116 155 196 240 290 346
#     4  10  20  34  55  83 116 146 177 218 271 333
#     4  10  19  33  53  78 107 140 180 228 280 335
#     4   9  21  39  57  77 106 145 188 231 277 329
#     4  10  21  38  62  92 121 154 192 236 288 344
#     4  11  23  41  62  85 115 153 196 244 291 340
#     4  10  20  35  55  81 111 144 182 228 282 340
#
# _framework density 18.819181
#
# number of rings (size 3 to 8) (size 9 to 14) (size 15 to 20)
#    0.000    1.750    0.000    4.500    0.000    7.000 
#    0.000    1.875    0.000    3.000    0.000    0.000 
#    0.000    0.000    0.000    0.000    0.000    0.000 
#
# Total GULP energy -178386.434856 kJ/mol
# GULP energy per Si atom -5574.576089 kJ/mol
# Density = 1.877635 g / cm^3
# Si number density = 18.819181 Si / 1000 Ang^3
#
#
#
# Elastic Constant Matrix: (Units=GPa)
#
#
# Indices 1 2 3 4 5 6 
#
# 1 109.4874 48.2880 37.4362 0.0000 0.0000 0.0000
# 2 48.2880 90.7108 23.1219 0.0000 0.0000 0.0000
# 3 37.4362 23.1219 58.9784 0.0000 0.0000 0.0000
# 4 0.0000 0.0000 0.0000 53.7176 0.0000 0.0000
# 5 0.0000 0.0000 0.0000 0.0000 20.3319 0.0000
# 6 0.0000 0.0000 0.0000 0.0000 0.0000 36.6915
#
#
#
# Elastic Compliance Matrix: (Units=1/GPa)
#
#
# Indices 1 2 3 4 5 6 
#
# 1 0.013911 -0.005727 -0.006585 0.000000 0.000000 0.000000
# 2 -0.005727 0.014605 -0.002091 0.000000 0.000000 0.000000
# 3 -0.006585 -0.002091 0.021955 0.000000 0.000000 0.000000
# 4 0.000000 0.000000 0.000000 0.018616 0.000000 0.000000
# 5 0.000000 0.000000 0.000000 0.000000 0.049184 0.000000
# 6 0.000000 0.000000 0.000000 0.000000 0.000000 0.027254
#
#
# Mechanical properties :
#
#
# Convention : Reuss Voigt Hill
#
# Bulk Modulus (GPa) = 46.15464 52.98542 49.57003
# Shear Modulus (GPa) = 27.54046 32.17023 29.85534
#
# Velocity S-wave (km/s) = 3.82962 4.13902 3.98732
# Velocity P-wave (km/s) = 6.64329 7.14550 6.89896
#
# Compressibility (1/GPa) = 0.02166629
#
# Stress axis : x y z
#
# Youngs Moduli (GPa) = 71.88798 68.46744 45.54844
#
# Poissons Ratio (x) = 0.39209 0.29992
# Poissons Ratio (y) = 0.41167 0.09524
# Poissons Ratio (z) = 0.47335 0.14317
#
# Static dielectric constant tensor:
#      x y z
#    x 1.622530 0.000000 0.000000 
#    y 0.000000 1.658240 0.000000 
#    z 0.000000 0.000000 1.617440 
# 
# From -- ./inp_files/16283.got.cif
#   From: 2010.05.17/outbox.cif.g08.bks.cpg/sg39_9_cif.got.tgz:16283.got - 2010.06.03 18:22:40.
