data_PCOD9360265
_publ_section_title
;
Structure prediction by ZEFSAII (Michael W. Deem and Ramdas Pophale) SiO2 
 PCOD9360265
Probable space group: A B M 2
;
_chemical_formula_sum "Si O2"
_cell_formula_units_Z 40
_cell_length_a 14.755395
_cell_length_b 9.333855
_cell_length_c 15.471060
_cell_angle_alpha 90.000000
_cell_angle_beta 90.000000
_cell_angle_gamma 90.000000
_cell_volume 2130.747366
_symmetry_space_group_name_H-M "A B M 2"
_symmetry_group_IT_number 39
_symmetry_cell_setting 'orthorhombic'
loop_
_space_group_symop_operation_xyz
x,y,z
-x,-y,z
-x,1/2+y,z
x,1/2-y,z
x,1/2+y,1/2+z
-x,1/2-y,1/2+z
-x,y,1/2+z
x,-y,1/2+z
loop_
_atom_site_type_symbol
_atom_site_label
_atom_site_fract_x
_atom_site_fract_y
_atom_site_fract_z
Si Si1 0.410904 0.916071 0.141110
Si Si2 0.770609 0.581827 0.885441
Si Si3 0.791032 0.579048 0.690734
Si Si4 0.590145 0.083386 0.931753
Si Si5 0.095408 0.421218 0.045217
O O1 0.421766 0.750000 0.164484
O O2 0.314134 0.964914 0.177296
O O3 0.500000 0.000000 0.170034
O O4 0.405329 0.926641 0.036665
O O5 0.744718 0.750000 0.890522
O O6 0.813359 0.558490 0.791244
O O7 0.680702 0.488547 0.896228
O O8 0.840608 0.552209 0.962252
O O9 0.797229 0.750000 0.670294
O O10 0.853754 0.488810 0.627511
O O11 0.584563 0.250000 0.908569
O O12 0.500000 0.000000 0.903725
O O13 0.083727 0.250000 0.054644
O O14 0.000000 0.500000 0.034297
#
# Coordination Sequence:
#
# PCOD9360265 Si02
#       5
#     8   8   8   8   8
#     4   9  18  32  54  82 115 156 195 236 281 335
#     4  10  22  39  61  89 121 155 194 241 293 350
#     4  10  21  40  62  88 121 155 195 242 291 346
#     4  10  19  33  56  85 119 161 201 241 288 343
#     4  11  24  42  64  88 115 151 192 242 299 354
#
# _framework density 18.772756000000001
#
# number of rings (size 3 to 8) (size 9 to 14) (size 15 to 20)
#    0.000    2.000    2.000    1.200    0.000    4.800 
#    0.000    4.000    0.000    0.000    0.000    0.000 
#    0.000    0.000    0.000    0.000    0.000    0.000 
#
# Total GULP energy -111723.923805 kJ/mol
# GULP energy per Si atom -5586.196190 kJ/mol
# Density = 1.873003 g / cm^3
# Si number density = 18.772756 Si / 1000 Ang^3
#
#
#
# Elastic Constant Matrix: (Units=GPa)
#
#
# Indices 1 2 3 4 5 6 
#
# 1 131.1156 90.1447 64.9631 0.0000 0.0000 0.0000
# 2 90.1447 101.9485 74.6832 0.0000 0.0000 0.0000
# 3 64.9631 74.6832 89.8266 0.0000 0.0000 0.0000
# 4 0.0000 0.0000 0.0000 21.2028 0.0000 0.0000
# 5 0.0000 0.0000 0.0000 0.0000 -7.1342 0.0000
# 6 0.0000 0.0000 0.0000 0.0000 0.0000 40.3244
#
#
#
# Elastic Compliance Matrix: (Units=1/GPa)
#
#
# Indices 1 2 3 4 5 6 
#
# 1 0.019465 -0.017647 0.000595 0.000000 0.000000 0.000000
# 2 -0.017647 0.041089 -0.021400 0.000000 0.000000 0.000000
# 3 0.000595 -0.021400 0.028495 0.000000 0.000000 0.000000
# 4 0.000000 0.000000 0.000000 0.047164 0.000000 0.000000
# 5 0.000000 0.000000 0.000000 0.000000 -0.140170 0.000000
# 6 0.000000 0.000000 0.000000 0.000000 0.000000 0.024799
#
#
# Mechanical properties :
#
#
# Convention : Reuss Voigt Hill
#
# Bulk Modulus (GPa) = 82.34031 86.94142 84.64087
# Shear Modulus (GPa) = 49.11965 17.08526 33.10245
#
# Velocity S-wave (km/s) = 5.12076 3.02007 4.20375
# Velocity P-wave (km/s) = 8.88368 7.65338 8.29138
#
# Compressibility (1/GPa) = 0.01214472
#
# Stress axis : x y z
#
# Youngs Moduli (GPa) = 51.37530 24.33743 35.09449
#
# Poissons Ratio (x) = 0.42947 -0.02087
# Poissons Ratio (y) = 0.90660 0.75102
# Poissons Ratio (z) = -0.03056 0.52082
#
# Static dielectric constant tensor:
#      x y z
#    x 1.613200 0.000000 0.000000 
#    y 0.000000 1.631360 0.000000 
#    z 0.000000 0.000000 1.665400 
# 
# From -- ./inp_files/9624.got.cif
#   From: 2010.05.17/outbox.cif.g08.bks.cpg/sg39_5_cif.got.tgz:9624.got - 2010.06.03 18:22:40.
