data_PCOD9360952
_publ_section_title
;
Structure prediction by ZEFSAII (Michael W. Deem and Ramdas Pophale) SiO2 
 PCOD9360952
Probable space group: A B M 2
;
_chemical_formula_sum "Si O2"
_cell_formula_units_Z 64
_cell_length_a 25.335777
_cell_length_b 8.433740
_cell_length_c 14.765045
_cell_angle_alpha 90.000000
_cell_angle_beta 90.000000
_cell_angle_gamma 90.000000
_cell_volume 3154.926245
_symmetry_space_group_name_H-M "A B M 2"
_symmetry_group_IT_number 39
_symmetry_cell_setting 'orthorhombic'
loop_
_space_group_symop_operation_xyz
x,y,z
-x,-y,z
-x,1/2+y,z
x,1/2-y,z
x,1/2+y,1/2+z
-x,1/2-y,1/2+z
-x,y,1/2+z
x,-y,1/2+z
loop_
_atom_site_type_symbol
_atom_site_label
_atom_site_fract_x
_atom_site_fract_y
_atom_site_fract_z
Si Si1 0.755633 0.939487 0.550630
Si Si2 0.854470 0.560701 0.777414
Si Si3 0.628931 0.558666 0.217782
Si Si4 0.558337 0.939064 0.868898
Si Si5 0.871164 0.058147 0.070688
Si Si6 0.352215 0.441634 0.008927
Si Si7 0.257596 0.936849 0.753790
Si Si8 0.058024 0.438962 0.414956
O O1 0.753529 0.750000 0.567279
O O2 0.815309 0.978508 0.521677
O O3 0.705913 0.988022 0.490303
O O4 0.748572 0.031043 0.645793
O O5 0.858599 0.750000 0.779760
O O6 0.867003 0.504503 0.674402
O O7 0.793712 0.515342 0.797499
O O8 0.897682 0.488008 0.843126
O O9 0.628867 0.750000 0.220355
O O10 0.578940 0.494637 0.271082
O O11 0.632523 0.512144 0.112302
O O12 0.682719 0.503026 0.268756
O O13 0.557806 0.750000 0.871985
O O14 0.500000 0.000000 0.888531
O O15 0.602123 0.995944 0.941205
O O16 0.874395 0.250000 0.074059
O O17 0.919951 0.999235 0.011710
O O18 0.348470 0.250000 0.005800
O O19 0.255650 0.750000 0.772917
O O20 0.055759 0.250000 0.418494
O O21 0.000000 0.500000 0.393444
#
# Coordination Sequence:
#
# PCOD9360952 Si02
#       8
#     8   8   8   8   8   8   8   8
#     4   9  16  30  55  85 112 142 180 223 271 329
#     4  10  20  37  59  85 114 146 183 226 274 328
#     4   9  19  37  59  82 112 146 181 221 272 327
#     4  11  24  40  57  79 109 144 189 235 276 325
#     4   8  18  36  57  80 111 145 179 221 272 326
#     4   9  20  38  57  81 113 146 177 220 275 331
#     4   9  17  32  55  84 116 148 179 219 272 331
#     4  11  23  40  57  78 108 145 189 233 275 325
#
# _framework density 20.285734999999999
#
# number of rings (size 3 to 8) (size 9 to 14) (size 15 to 20)
#    0.000    2.500    0.000    3.375    0.000    5.500 
#    0.000   13.750    0.000    0.000    0.000    0.000 
#    0.000    0.000    0.000    0.000    0.000    0.000 
#
# Total GULP energy -178557.144985 kJ/mol
# GULP energy per Si atom -5579.910781 kJ/mol
# Density = 2.023956 g / cm^3
# Si number density = 20.285735 Si / 1000 Ang^3
#
#
#
# Elastic Constant Matrix: (Units=GPa)
#
#
# Indices 1 2 3 4 5 6 
#
# 1 103.6774 12.6337 16.7844 0.0000 0.0000 0.0000
# 2 12.6337 23.5583 4.2469 0.0000 0.0000 0.0000
# 3 16.7844 4.2469 48.5164 0.0000 0.0000 0.0000
# 4 0.0000 0.0000 0.0000 14.6751 0.0000 0.0000
# 5 0.0000 0.0000 0.0000 0.0000 28.0124 0.0000
# 6 0.0000 0.0000 0.0000 0.0000 0.0000 33.9133
#
#
#
# Elastic Compliance Matrix: (Units=1/GPa)
#
#
# Indices 1 2 3 4 5 6 
#
# 1 0.010811 -0.005206 -0.003285 0.000000 0.000000 0.000000
# 2 -0.005206 0.045635 -0.002194 0.000000 0.000000 0.000000
# 3 -0.003285 -0.002194 0.021940 0.000000 0.000000 0.000000
# 4 0.000000 0.000000 0.000000 0.068143 0.000000 0.000000
# 5 0.000000 0.000000 0.000000 0.000000 0.035699 0.000000
# 6 0.000000 0.000000 0.000000 0.000000 0.000000 0.029487
#
#
# Mechanical properties :
#
#
# Convention : Reuss Voigt Hill
#
# Bulk Modulus (GPa) = 17.53824 27.00913 22.27368
# Shear Modulus (GPa) = 19.83429 24.79262 22.31346
#
# Velocity S-wave (km/s) = 3.13029 3.49975 3.32016
# Velocity P-wave (km/s) = 4.66147 5.44741 5.06969
#
# Compressibility (1/GPa) = 0.05701827
#
# Stress axis : x y z
#
# Youngs Moduli (GPa) = 92.49501 21.91299 45.57897
#
# Poissons Ratio (x) = 0.11407 0.14971
# Poissons Ratio (y) = 0.48151 0.09999
# Poissons Ratio (z) = 0.30381 0.04807
#
# Static dielectric constant tensor:
#      x y z
#    x 1.724480 0.000000 0.000000 
#    y 0.000000 1.690750 0.000000 
#    z 0.000000 0.000000 1.746960 
# 
# From -- ./inp_files/10576.got.cif
#   From: 2010.05.17/outbox.cif.g08.bks.cpg/sg39_6_cif.got.tgz:10576.got - 2010.06.03 18:22:40.
