data_PCOD9360880
_publ_section_title
;
Structure prediction by ZEFSAII (Michael W. Deem and Ramdas Pophale) SiO2 
 PCOD9360880
Probable space group: A B M 2
;
_chemical_formula_sum "Si O2"
_cell_formula_units_Z 60
_cell_length_a 19.817613
_cell_length_b 11.719469
_cell_length_c 13.485535
_cell_angle_alpha 90.000000
_cell_angle_beta 90.000000
_cell_angle_gamma 90.000000
_cell_volume 3132.041143
_symmetry_space_group_name_H-M "A B M 2"
_symmetry_group_IT_number 39
_symmetry_cell_setting 'orthorhombic'
loop_
_space_group_symop_operation_xyz
x,y,z
-x,-y,z
-x,1/2+y,z
x,1/2-y,z
x,1/2+y,1/2+z
-x,1/2-y,1/2+z
-x,y,1/2+z
x,-y,1/2+z
loop_
_atom_site_type_symbol
_atom_site_label
_atom_site_fract_x
_atom_site_fract_y
_atom_site_fract_z
Si Si1 0.668995 0.617347 0.863990
Si Si2 0.110857 0.615317 0.623942
Si Si3 0.114116 0.886676 0.853573
Si Si4 0.511490 0.377419 0.328020
Si Si5 0.000000 0.000000 0.484159
Si Si6 0.458520 0.116510 0.539553
Si Si7 0.776630 0.001842 0.998255
Si Si8 0.683391 0.883235 0.646081
O O1 0.689837 0.750000 0.869785
O O2 0.587765 0.617463 0.870980
O O3 0.684809 0.563676 0.755698
O O4 0.711963 0.553977 0.946271
O O5 0.103280 0.750000 0.629249
O O6 0.112129 0.573401 0.738471
O O7 0.050327 0.566179 0.557592
O O8 0.178230 0.583527 0.563547
O O9 0.121324 0.750000 0.854871
O O10 0.046462 0.922478 0.912715
O O11 0.175635 0.942691 0.914832
O O12 0.500000 0.500000 0.274810
O O13 0.506109 0.250000 0.280709
O O14 0.459964 0.379031 0.419911
O O15 0.479700 0.250000 0.565486
O O16 0.386420 0.094963 0.589244
O O17 0.500000 0.000000 0.561369
O O18 0.746249 0.089178 0.077539
O O19 0.681980 0.750000 0.666201
#
# Coordination Sequence:
#
# PCOD9360880 Si02
#       8
#     8   8   8   8   4   8   8   8
#     4  10  21  36  54  77 106 141 182 225 270 327
#     4  10  21  36  55  82 112 139 174 219 261 305
#     4  10  21  36  55  82 112 139 174 219 261 305
#     4   9  17  31  51  74 102 137 177 225 279 332
#     4  10  20  36  60  80 106 148 178 204 254 316
#     4   9  17  31  51  74 102 137 177 225 279 332
#     4  11  20  35  57  78 105 144 180 216 267 318
#     4  10  21  36  54  77 106 141 182 225 270 327
#
# _framework density 19.156836999999999
#
# number of rings (size 3 to 8) (size 9 to 14) (size 15 to 20)
#    0.000    2.133    0.000    4.000    0.000    0.533 
#    0.000    1.333    0.000   16.000    0.000    0.000 
#    0.000    0.000    0.000    0.000    0.000    0.000 
#
# Total GULP energy -167062.238216 kJ/mol
# GULP energy per Si atom -5568.741274 kJ/mol
# Density = 1.911323 g / cm^3
# Si number density = 19.156837 Si / 1000 Ang^3
#
#
#
# Elastic Constant Matrix: (Units=GPa)
#
#
# Indices 1 2 3 4 5 6 
#
# 1 27.6292 14.3634 -1.0200 0.0000 0.0000 0.0000
# 2 14.3634 92.4970 20.2530 0.0000 0.0000 0.0000
# 3 -1.0200 20.2530 106.6774 0.0000 0.0000 0.0000
# 4 0.0000 0.0000 0.0000 36.8686 0.0000 0.0000
# 5 0.0000 0.0000 0.0000 0.0000 29.6076 0.0000
# 6 0.0000 0.0000 0.0000 0.0000 0.0000 17.5005
#
#
#
# Elastic Compliance Matrix: (Units=1/GPa)
#
#
# Indices 1 2 3 4 5 6 
#
# 1 0.039637 -0.006509 0.001615 0.000000 0.000000 0.000000
# 2 -0.006509 0.012349 -0.002407 0.000000 0.000000 0.000000
# 3 0.001615 -0.002407 0.009846 0.000000 0.000000 0.000000
# 4 0.000000 0.000000 0.000000 0.027123 0.000000 0.000000
# 5 0.000000 0.000000 0.000000 0.000000 0.033775 0.000000
# 6 0.000000 0.000000 0.000000 0.000000 0.000000 0.057141
#
#
# Mechanical properties :
#
#
# Convention : Reuss Voigt Hill
#
# Bulk Modulus (GPa) = 21.17264 32.66627 26.91946
# Shear Modulus (GPa) = 23.78502 29.67581 26.73041
#
# Velocity S-wave (km/s) = 3.52745 3.94013 3.73949
# Velocity P-wave (km/s) = 5.25992 6.14724 5.72081
#
# Compressibility (1/GPa) = 0.04723076
#
# Stress axis : x y z
#
# Youngs Moduli (GPa) = 25.22917 80.97952 101.55988
#
# Poissons Ratio (x) = 0.52706 -0.16398
# Poissons Ratio (y) = 0.16420 0.24442
# Poissons Ratio (z) = -0.04074 0.19489
#
# Static dielectric constant tensor:
#      x y z
#    x 1.640150 0.000000 0.000000 
#    y 0.000000 1.612490 0.000000 
#    z 0.000000 0.000000 1.695720 
# 
# From -- ./inp_files/10167.got.cif
#   From: 2010.05.17/outbox.cif.g08.bks.cpg/sg39_6_cif.got.tgz:10167.got - 2010.06.03 18:22:40.
