data_PCOD9360511
_publ_section_title
;
Structure prediction by ZEFSAII (Michael W. Deem and Ramdas Pophale) SiO2 
 PCOD9360511
Probable space group: A B M 2
;
_chemical_formula_sum "Si O2"
_cell_formula_units_Z 40
_cell_length_a 8.409507
_cell_length_b 19.017489
_cell_length_c 12.101063
_cell_angle_alpha 90.000000
_cell_angle_beta 90.000000
_cell_angle_gamma 90.000000
_cell_volume 1935.295256
_symmetry_space_group_name_H-M "A B M 2"
_symmetry_group_IT_number 39
_symmetry_cell_setting 'orthorhombic'
loop_
_space_group_symop_operation_xyz
x,y,z
-x,-y,z
-x,1/2+y,z
x,1/2-y,z
x,1/2+y,1/2+z
-x,1/2-y,1/2+z
-x,y,1/2+z
x,-y,1/2+z
loop_
_atom_site_type_symbol
_atom_site_label
_atom_site_fract_x
_atom_site_fract_y
_atom_site_fract_z
Si Si1 0.711437 0.385002 0.149070
Si Si2 0.076114 0.421715 0.437531
Si Si3 0.224566 0.829635 0.372807
Si Si4 0.587194 0.076440 0.530447
Si Si5 0.818190 0.471840 0.713653
O O1 0.764578 0.330081 0.239922
O O2 0.537916 0.377703 0.099360
O O3 0.714735 0.457918 0.217915
O O4 0.828828 0.397661 0.045537
O O5 0.185819 0.429897 0.328181
O O6 0.000000 0.500000 0.451540
O O7 0.939910 0.366539 0.407349
O O8 0.235935 0.750000 0.414162
O O9 0.359918 0.879594 0.424810
O O10 0.743744 0.066142 0.607438
O O11 0.500000 0.000000 0.510555
O O12 0.000000 0.500000 0.701953
#
# Coordination Sequence:
#
# PCOD9360511 Si02
#       5
#     8   8   8   8   8
#     4  11  23  40  68  97 135 177 225 285 343 403
#     4  11  22  41  70  98 133 176 234 289 334 405
#     4  12  27  44  66 101 142 180 226 284 351 421
#     4  10  24  41  71  99 133 178 234 287 340 406
#     4  10  19  38  68 101 131 169 232 289 333 395
#
# _framework density 20.668683000000001
#
# number of rings (size 3 to 8) (size 9 to 14) (size 15 to 20)
#    0.000    1.200    4.000    4.200    2.800    2.400 
#    0.000    0.000    0.000    0.000    0.000    0.000 
#    0.000    0.000    0.000    0.000    0.000    0.000 
#
# Total GULP energy -111642.512180 kJ/mol
# GULP energy per Si atom -5582.125609 kJ/mol
# Density = 2.062164 g / cm^3
# Si number density = 20.668683 Si / 1000 Ang^3
#
#
#
# Elastic Constant Matrix: (Units=GPa)
#
#
# Indices 1 2 3 4 5 6 
#
# 1 96.0614 26.6447 69.0851 0.0000 0.0000 0.0000
# 2 26.6447 89.7907 62.3919 0.0000 0.0000 0.0000
# 3 69.0851 62.3919 146.9978 0.0000 0.0000 0.0000
# 4 0.0000 0.0000 0.0000 9.3497 0.0000 0.0000
# 5 0.0000 0.0000 0.0000 0.0000 28.4152 0.0000
# 6 0.0000 0.0000 0.0000 0.0000 0.0000 11.4015
#
#
#
# Elastic Compliance Matrix: (Units=1/GPa)
#
#
# Indices 1 2 3 4 5 6 
#
# 1 0.015753 0.000666 -0.007686 0.000000 0.000000 0.000000
# 2 0.000666 0.015824 -0.007029 0.000000 0.000000 0.000000
# 3 -0.007686 -0.007029 0.013399 0.000000 0.000000 0.000000
# 4 0.000000 0.000000 0.000000 0.106955 0.000000 0.000000
# 5 0.000000 0.000000 0.000000 0.000000 0.035192 0.000000
# 6 0.000000 0.000000 0.000000 0.000000 0.000000 0.087708
#
#
# Mechanical properties :
#
#
# Convention : Reuss Voigt Hill
#
# Bulk Modulus (GPa) = 59.25325 72.12147 65.68736
# Shear Modulus (GPa) = 16.20456 21.48182 18.84319
#
# Velocity S-wave (km/s) = 2.80306 3.22738 3.02268
# Velocity P-wave (km/s) = 6.26152 6.98984 6.63568
#
# Compressibility (1/GPa) = 0.01687671
#
# Stress axis : x y z
#
# Youngs Moduli (GPa) = 63.47991 63.19632 74.63383
#
# Poissons Ratio (x) = -0.04211 0.57366
# Poissons Ratio (y) = -0.04230 0.52463
# Poissons Ratio (z) = 0.48793 0.44423
#
# Static dielectric constant tensor:
#      x y z
#    x 1.783960 0.000000 0.000000 
#    y 0.000000 1.751040 0.000000 
#    z 0.000000 0.000000 1.809410 
# 
# From -- ./inp_files/5055.got.cif
#   From: 2010.05.17/outbox.cif.g08.bks.cpg/sg39_3_cif.got.tgz:5055.got - 2010.06.03 18:22:40.
