data_PCOD9360409
_publ_section_title
;
Structure prediction by ZEFSAII (Michael W. Deem and Ramdas Pophale) SiO2 
 PCOD9360409
Probable space group: A B M 2
;
_chemical_formula_sum "Si O2"
_cell_formula_units_Z 64
_cell_length_a 9.724543
_cell_length_b 18.833213
_cell_length_c 18.945116
_cell_angle_alpha 90.000000
_cell_angle_beta 90.000000
_cell_angle_gamma 90.000000
_cell_volume 3469.691707
_symmetry_space_group_name_H-M "A B M 2"
_symmetry_group_IT_number 39
_symmetry_cell_setting 'orthorhombic'
loop_
_space_group_symop_operation_xyz
x,y,z
-x,-y,z
-x,1/2+y,z
x,1/2-y,z
x,1/2+y,1/2+z
-x,1/2-y,1/2+z
-x,y,1/2+z
x,-y,1/2+z
loop_
_atom_site_type_symbol
_atom_site_label
_atom_site_fract_x
_atom_site_fract_y
_atom_site_fract_z
Si Si1 0.639634 0.044141 0.322880
Si Si2 0.071103 0.389354 0.459364
Si Si3 0.220955 0.042654 0.967132
Si Si4 0.756119 0.670383 0.748223
Si Si5 0.849349 0.465953 0.728568
Si Si6 0.059999 0.167899 0.302362
Si Si7 0.750256 0.169384 0.083535
Si Si8 0.348873 0.014803 0.603600
O O1 0.682052 0.063158 0.402172
O O2 0.645048 0.112810 0.272340
O O3 0.500000 0.000000 0.320069
O O4 0.764696 0.996756 0.294068
O O5 0.150793 0.464834 0.457247
O O6 0.091066 0.353676 0.382990
O O7 0.134270 0.344852 0.524315
O O8 0.909959 0.405384 0.472392
O O9 0.313606 0.033330 0.036168
O O10 0.706512 0.750000 0.761900
O O11 0.796259 0.666421 0.665651
O O12 0.896079 0.657663 0.791253
O O13 0.867239 0.383175 0.745677
O O14 0.765365 0.492329 0.660743
O O15 0.000000 0.500000 0.725946
O O16 0.092119 0.250000 0.290452
O O17 0.694256 0.250000 0.073062
O O18 0.658508 0.097783 0.080993
O O19 0.500000 0.000000 0.632369
#
# Coordination Sequence:
#
# PCOD9360409 Si02
#       8
#     8   8   8   8   8   8   8   8
#     4  12  22  38  63  89 121 163 206 256 310 376
#     4  10  19  35  60  92 116 159 206 262 309 370
#     4  10  21  35  60  88 121 154 210 257 305 364
#     4  10  21  37  58  89 123 158 201 253 315 373
#     4  12  22  38  62  90 120 156 208 261 302 367
#     4  11  21  36  60  90 125 158 199 262 318 361
#     4  10  21  37  60  88 124 165 209 256 319 385
#     4  11  24  40  62  90 124 165 209 261 317 381
#
# _framework density 18.445442
#
# number of rings (size 3 to 8) (size 9 to 14) (size 15 to 20)
#    0.000    1.250    5.000    1.125    5.250    0.000 
#    0.000    1.250    0.000    4.500    0.000    0.000 
#    0.000    0.000    0.000    0.000    0.000    0.000 
#
# Total GULP energy -178448.425732 kJ/mol
# GULP energy per Si atom -5576.513304 kJ/mol
# Density = 1.840346 g / cm^3
# Si number density = 18.445442 Si / 1000 Ang^3
#
#
#
# Elastic Constant Matrix: (Units=GPa)
#
#
# Indices 1 2 3 4 5 6 
#
# 1 95.3849 36.0591 28.0202 0.0000 0.0000 0.0000
# 2 36.0591 124.1820 19.8046 0.0000 0.0000 0.0000
# 3 28.0202 19.8046 86.4620 0.0000 0.0000 0.0000
# 4 0.0000 0.0000 0.0000 27.4561 0.0000 0.0000
# 5 0.0000 0.0000 0.0000 0.0000 1.7192 0.0000
# 6 0.0000 0.0000 0.0000 0.0000 0.0000 18.3313
#
#
#
# Elastic Compliance Matrix: (Units=1/GPa)
#
#
# Indices 1 2 3 4 5 6 
#
# 1 0.012664 -0.003137 -0.003386 0.000000 0.000000 0.000000
# 2 -0.003137 0.009135 -0.001076 0.000000 0.000000 0.000000
# 3 -0.003386 -0.001076 0.012909 0.000000 0.000000 0.000000
# 4 0.000000 0.000000 0.000000 0.036422 0.000000 0.000000
# 5 0.000000 0.000000 0.000000 0.000000 0.581658 0.000000
# 6 0.000000 0.000000 0.000000 0.000000 0.000000 0.054551
#
#
# Mechanical properties :
#
#
# Convention : Reuss Voigt Hill
#
# Bulk Modulus (GPa) = 51.25165 52.64407 51.94786
# Shear Modulus (GPa) = 6.85832 24.31101 15.58466
#
# Velocity S-wave (km/s) = 1.93035 3.63436 2.90988
# Velocity P-wave (km/s) = 5.72837 6.79807 6.28602
#
# Compressibility (1/GPa) = 0.01951157
#
# Stress axis : x y z
#
# Youngs Moduli (GPa) = 78.96101 109.46557 77.46325
#
# Poissons Ratio (x) = 0.34345 0.26226
# Poissons Ratio (y) = 0.24774 0.08333
# Poissons Ratio (z) = 0.26733 0.11775
#
# Static dielectric constant tensor:
#      x y z
#    x 1.614060 0.000000 0.000000 
#    y 0.000000 1.657640 0.000000 
#    z 0.000000 0.000000 1.657380 
# 
# From -- ./inp_files/14178.got.cif
#   From: 2010.05.17/outbox.cif.g08.bks.cpg/sg39_8_cif.got.tgz:14178.got - 2010.06.03 18:22:40.
