data_PCOD9360268
_publ_section_title
;
Structure prediction by ZEFSAII (Michael W. Deem and Ramdas Pophale) SiO2 
 PCOD9360268
Probable space group: A B M 2
;
_chemical_formula_sum "Si O2"
_cell_formula_units_Z 64
_cell_length_a 20.095082
_cell_length_b 8.871595
_cell_length_c 20.530360
_cell_angle_alpha 90.000000
_cell_angle_beta 90.000000
_cell_angle_gamma 90.000000
_cell_volume 3660.058736
_symmetry_space_group_name_H-M "A B M 2"
_symmetry_group_IT_number 39
_symmetry_cell_setting 'orthorhombic'
loop_
_space_group_symop_operation_xyz
x,y,z
-x,-y,z
-x,1/2+y,z
x,1/2-y,z
x,1/2+y,1/2+z
-x,1/2-y,1/2+z
-x,y,1/2+z
x,-y,1/2+z
loop_
_atom_site_type_symbol
_atom_site_label
_atom_site_fract_x
_atom_site_fract_y
_atom_site_fract_z
Si Si1 0.840203 0.069951 0.246900
Si Si2 0.191368 0.070653 0.113165
Si Si3 0.344679 0.070143 0.150381
Si Si4 0.687837 0.070486 0.284637
Si Si5 0.322334 0.068900 0.423418
Si Si6 0.926998 0.568828 0.870867
Si Si7 0.572304 0.930807 0.535288
Si Si8 0.174673 0.569290 0.974316
O O1 0.843193 0.250000 0.235916
O O2 0.766743 0.036107 0.275842
O O3 0.894075 0.028062 0.301168
O O4 0.845349 0.986219 0.178171
O O5 0.184765 0.250000 0.106426
O O6 0.269804 0.035146 0.124663
O O7 0.167847 0.989066 0.047928
O O8 0.352722 0.250000 0.150335
O O9 0.348030 0.006589 0.223452
O O10 0.396540 0.993758 0.101956
O O11 0.679735 0.250000 0.281413
O O12 0.665770 0.007933 0.354126
O O13 0.323536 0.250000 0.415502
O O14 0.377077 0.027128 0.477128
O O15 0.248850 0.027319 0.449472
O O16 0.929097 0.750000 0.875100
O O17 0.879071 0.504888 0.926879
O O18 0.000000 0.500000 0.876641
O O19 0.568671 0.750000 0.538258
O O20 0.500000 0.000000 0.524221
O O21 0.168955 0.750000 0.972304
#
# Coordination Sequence:
#
# PCOD9360268 Si02
#       8
#     8   8   8   8   8   8   8   8
#     4   9  19  35  55  81 114 148 186 234 287 343
#     4  10  20  33  56  87 116 145 188 241 288 338
#     4  10  20  35  56  84 116 150 189 237 287 343
#     4  10  19  33  57  86 115 146 187 240 289 337
#     4  10  21  36  57  85 117 151 192 241 293 347
#     4  11  23  40  59  85 118 156 196 239 291 352
#     4  11  23  40  59  84 117 156 196 239 292 352
#     4  11  21  36  59  86 117 154 194 243 293 344
#
# _framework density 17.486058
#
# number of rings (size 3 to 8) (size 9 to 14) (size 15 to 20)
#    0.000    1.750    2.500    2.250    0.000    4.000 
#    0.000    1.250    0.000    3.000    0.000    0.000 
#    0.000    0.000    0.000    0.000    0.000    0.000 
#
# Total GULP energy -178745.101948 kJ/mol
# GULP energy per Si atom -5585.784436 kJ/mol
# Density = 1.744626 g / cm^3
# Si number density = 17.486058 Si / 1000 Ang^3
#
#
#
# Elastic Constant Matrix: (Units=GPa)
#
#
# Indices 1 2 3 4 5 6 
#
# 1 120.0074 54.4474 81.5680 0.0000 0.0000 0.0000
# 2 54.4474 53.3745 64.3557 0.0000 0.0000 0.0000
# 3 81.5680 64.3557 169.0383 0.0000 0.0000 0.0000
# 4 0.0000 0.0000 0.0000 34.8668 0.0000 0.0000
# 5 0.0000 0.0000 0.0000 0.0000 25.1952 0.0000
# 6 0.0000 0.0000 0.0000 0.0000 0.0000 25.8625
#
#
#
# Elastic Compliance Matrix: (Units=1/GPa)
#
#
# Indices 1 2 3 4 5 6 
#
# 1 0.016209 -0.013133 -0.002822 0.000000 0.000000 0.000000
# 2 -0.013133 0.045274 -0.010900 0.000000 0.000000 0.000000
# 3 -0.002822 -0.010900 0.011427 0.000000 0.000000 0.000000
# 4 0.000000 0.000000 0.000000 0.028681 0.000000 0.000000
# 5 0.000000 0.000000 0.000000 0.000000 0.039690 0.000000
# 6 0.000000 0.000000 0.000000 0.000000 0.000000 0.038666
#
#
# Mechanical properties :
#
#
# Convention : Reuss Voigt Hill
#
# Bulk Modulus (GPa) = 52.07670 82.57359 67.32514
# Shear Modulus (GPa) = 20.82851 26.65485 23.74168
#
# Velocity S-wave (km/s) = 3.45505 3.90853 3.68876
# Velocity P-wave (km/s) = 6.76483 8.22763 7.53183
#
# Compressibility (1/GPa) = 0.01920245
#
# Stress axis : x y z
#
# Youngs Moduli (GPa) = 61.69425 22.08763 87.51137
#
# Poissons Ratio (x) = 0.29007 0.24693
# Poissons Ratio (y) = 0.81020 0.95384
# Poissons Ratio (z) = 0.17408 0.24075
#
# Static dielectric constant tensor:
#      x y z
#    x 1.576230 0.000000 0.000000 
#    y 0.000000 1.575960 0.000000 
#    z 0.000000 0.000000 1.571960 
# 
# From -- ./inp_files/13096.got.cif
#   From: 2010.05.17/outbox.cif.g08.bks.cpg/sg39_7_cif.got.tgz:13096.got - 2010.06.03 18:22:40.
