data_PCOD9360140
_publ_section_title
;
Structure prediction by ZEFSAII (Michael W. Deem and Ramdas Pophale) SiO2 
 PCOD9360140
Probable space group: A B M 2
;
_chemical_formula_sum "Si O2"
_cell_formula_units_Z 64
_cell_length_a 14.311750
_cell_length_b 7.926330
_cell_length_c 27.316579
_cell_angle_alpha 90.000000
_cell_angle_beta 90.000000
_cell_angle_gamma 90.000000
_cell_volume 3098.783253
_symmetry_space_group_name_H-M "A B M 2"
_symmetry_group_IT_number 39
_symmetry_cell_setting 'orthorhombic'
loop_
_space_group_symop_operation_xyz
x,y,z
-x,-y,z
-x,1/2+y,z
x,1/2-y,z
x,1/2+y,1/2+z
-x,1/2-y,1/2+z
-x,y,1/2+z
x,-y,1/2+z
loop_
_atom_site_type_symbol
_atom_site_label
_atom_site_fract_x
_atom_site_fract_y
_atom_site_fract_z
Si Si1 0.608739 0.049863 0.216120
Si Si2 0.709270 0.456888 0.117563
Si Si3 0.107997 0.451514 0.878080
Si Si4 0.391525 0.453812 0.519067
Si Si5 0.892486 0.453016 0.163712
Si Si6 0.109706 0.953030 0.271074
Si Si7 0.292308 0.048487 0.420816
Si Si8 0.609190 0.450676 0.823018
O O1 0.615402 0.250000 0.213745
O O2 0.657412 0.983774 0.167036
O O3 0.500000 0.000000 0.215403
O O4 0.647600 0.002601 0.269703
O O5 0.706075 0.250000 0.117145
O O6 0.658919 0.515606 0.068438
O O7 0.817296 0.508131 0.123721
O O8 0.111977 0.250000 0.876862
O O9 0.141022 0.518169 0.824194
O O10 0.182121 0.515093 0.917308
O O11 0.000000 0.500000 0.885817
O O12 0.500000 0.500000 0.519036
O O13 0.384822 0.250000 0.519177
O O14 0.341085 0.517386 0.469832
O O15 0.889766 0.250000 0.165711
O O16 0.858541 0.514405 0.217702
O O17 0.000000 0.500000 0.155562
O O18 0.121217 0.750000 0.271544
O O19 0.000000 0.000000 0.270782
O O20 0.306372 0.250000 0.420477
O O21 0.339309 0.978613 0.370985
O O22 0.500000 0.500000 0.825122
O O23 0.614315 0.250000 0.824463
#
# Coordination Sequence:
#
# PCOD9360140 Si02
#       8
#     8   8   8   8   8   8   8   8
#     4  10  19  32  52  77 107 140 174 217 271 334
#     4   9  19  34  56  80 106 142 181 220 272 330
#     4  10  20  34  55  81 112 148 187 228 273 323
#     4  10  21  40  62  83 107 141 182 232 282 327
#     4   9  17  32  51  75 107 140 178 217 262 316
#     4   8  15  27  46  71 101 137 174 213 256 306
#     4  10  22  37  55  79 110 144 185 229 276 327
#     4  10  20  34  51  76 108 142 177 222 276 333
#
# _framework density 20.653268000000001
#
# number of rings (size 3 to 8) (size 9 to 14) (size 15 to 20)
#    0.000    2.500    0.000    2.625    1.750    2.000 
#    0.000    3.125    0.000    1.500    0.000    0.000 
#    0.000    0.000    0.000    0.000    0.000    0.000 
#
# Total GULP energy -178528.458818 kJ/mol
# GULP energy per Si atom -5579.014338 kJ/mol
# Density = 2.060626 g / cm^3
# Si number density = 20.653268 Si / 1000 Ang^3
#
#
#
# Elastic Constant Matrix: (Units=GPa)
#
#
# Indices 1 2 3 4 5 6 
#
# 1 130.7422 -3.8616 106.9238 0.0000 0.0000 0.0000
# 2 -3.8616 25.1686 16.3913 0.0000 0.0000 0.0000
# 3 106.9238 16.3913 184.1035 0.0000 0.0000 0.0000
# 4 0.0000 0.0000 0.0000 15.4739 0.0000 0.0000
# 5 0.0000 0.0000 0.0000 0.0000 41.2682 0.0000
# 6 0.0000 0.0000 0.0000 0.0000 0.0000 21.1023
#
#
#
# Elastic Compliance Matrix: (Units=1/GPa)
#
#
# Indices 1 2 3 4 5 6 
#
# 1 0.016369 0.009239 -0.010329 0.000000 0.000000 0.000000
# 2 0.009239 0.047392 -0.009585 0.000000 0.000000 0.000000
# 3 -0.010329 -0.009585 0.012284 0.000000 0.000000 0.000000
# 4 0.000000 0.000000 0.000000 0.064625 0.000000 0.000000
# 5 0.000000 0.000000 0.000000 0.000000 0.024232 0.000000
# 6 0.000000 0.000000 0.000000 0.000000 0.000000 0.047388
#
#
# Mechanical properties :
#
#
# Convention : Reuss Voigt Hill
#
# Bulk Modulus (GPa) = 18.28365 64.32459 41.30412
# Shear Modulus (GPa) = 19.85128 30.27295 25.06211
#
# Velocity S-wave (km/s) = 3.10364 3.83269 3.48727
# Velocity P-wave (km/s) = 4.65997 7.12732 6.02138
#
# Compressibility (1/GPa) = 0.05469366
#
# Stress axis : x y z
#
# Youngs Moduli (GPa) = 61.09046 21.10062 81.40496
#
# Poissons Ratio (x) = -0.19494 0.84087
# Poissons Ratio (y) = -0.56440 0.78028
# Poissons Ratio (z) = 0.63103 0.20225
#
# Static dielectric constant tensor:
#      x y z
#    x 1.743430 0.000000 0.000000 
#    y 0.000000 1.716620 0.000000 
#    z 0.000000 0.000000 1.769560 
# 
# From -- ./inp_files/16250.got.cif
#   From: 2010.05.17/outbox.cif.g08.bks.cpg/sg39_9_cif.got.tgz:16250.got - 2010.06.03 18:22:40.
