data_PCOD9360329
_publ_section_title
;
Structure prediction by ZEFSAII (Michael W. Deem and Ramdas Pophale) SiO2 
 PCOD9360329
Probable space group: A B M 2
;
_chemical_formula_sum "Si O2"
_cell_formula_units_Z 48
_cell_length_a 8.737004
_cell_length_b 14.600644
_cell_length_c 15.099974
_cell_angle_alpha 90.000000
_cell_angle_beta 90.000000
_cell_angle_gamma 90.000000
_cell_volume 1926.241547
_symmetry_space_group_name_H-M "A B M 2"
_symmetry_group_IT_number 39
_symmetry_cell_setting 'orthorhombic'
loop_
_space_group_symop_operation_xyz
x,y,z
-x,-y,z
-x,1/2+y,z
x,1/2-y,z
x,1/2+y,1/2+z
-x,1/2-y,1/2+z
-x,y,1/2+z
x,-y,1/2+z
loop_
_atom_site_type_symbol
_atom_site_label
_atom_site_fract_x
_atom_site_fract_y
_atom_site_fract_z
Si Si1 0.414782 0.138532 0.286990
Si Si2 0.427038 0.861737 0.111602
Si Si3 0.098599 0.857892 0.050920
Si Si4 0.942301 0.899125 0.870267
Si Si5 0.387283 0.861391 0.447932
Si Si6 0.895983 0.853689 0.203204
O O1 0.406300 0.250000 0.291837
O O2 0.537767 0.112887 0.212093
O O3 0.474726 0.110200 0.382571
O O4 0.251426 0.104381 0.251750
O O5 0.425609 0.750000 0.108476
O O6 0.264985 0.895646 0.074888
O O7 0.564805 0.889918 0.046394
O O8 0.106195 0.750000 0.072867
O O9 0.965765 0.896398 0.114734
O O10 0.051296 0.863777 0.949183
O O11 0.771833 0.895113 0.908129
O O12 0.970904 0.849575 0.777259
O O13 0.000000 0.000000 0.852657
O O14 0.375865 0.750000 0.447176
O O15 0.846965 0.750000 0.179221
#
# Coordination Sequence:
#
# PCOD9360329 Si02
#       6
#     8   8   8   8   8   8
#     4   9  17  31  55  86 111 135 178 237 291 336
#     4   9  17  31  55  86 111 135 178 237 291 336
#     4  10  20  37  62  87 112 146 191 240 288 341
#     4  12  25  38  54  80 118 158 191 232 284 344
#     4  10  19  34  57  82 111 146 189 238 284 336
#     4  10  20  37  62  87 112 146 191 240 288 341
#
# _framework density 24.918994000000001
#
# number of rings (size 3 to 8) (size 9 to 14) (size 15 to 20)
#    0.000    2.000    0.000    4.500    0.000    8.667 
#    0.000    3.333    0.000    2.000    0.000    0.000 
#    0.000    0.000    0.000    0.000    0.000    0.000 
#
# Total GULP energy -134282.130059 kJ/mol
# GULP energy per Si atom -5595.088752 kJ/mol
# Density = 2.486228 g / cm^3
# Si number density = 24.918994 Si / 1000 Ang^3
#
#
#
# Elastic Constant Matrix: (Units=GPa)
#
#
# Indices 1 2 3 4 5 6 
#
# 1 68.1426 5.9445 -22.0154 0.0000 0.0000 0.0000
# 2 5.9445 67.8012 -8.2445 0.0000 0.0000 0.0000
# 3 -22.0154 -8.2445 83.2397 0.0000 0.0000 0.0000
# 4 0.0000 0.0000 0.0000 103.9531 0.0000 0.0000
# 5 0.0000 0.0000 0.0000 0.0000 39.1589 0.0000
# 6 0.0000 0.0000 0.0000 0.0000 0.0000 85.6278
#
#
#
# Elastic Compliance Matrix: (Units=1/GPa)
#
#
# Indices 1 2 3 4 5 6 
#
# 1 0.016101 -0.000905 0.004169 0.000000 0.000000 0.000000
# 2 -0.000905 0.014980 0.001244 0.000000 0.000000 0.000000
# 3 0.004169 0.001244 0.013239 0.000000 0.000000 0.000000
# 4 0.000000 0.000000 0.000000 0.009620 0.000000 0.000000
# 5 0.000000 0.000000 0.000000 0.000000 0.025537 0.000000
# 6 0.000000 0.000000 0.000000 0.000000 0.000000 0.011678
#
#
# Mechanical properties :
#
#
# Convention : Reuss Voigt Hill
#
# Bulk Modulus (GPa) = 18.74881 18.95029 18.84955
# Shear Modulus (GPa) = 50.04151 61.98122 56.01136
#
# Velocity S-wave (km/s) = 4.48612 4.99270 4.74617
# Velocity P-wave (km/s) = 5.86293 6.39198 6.13316
#
# Compressibility (1/GPa) = 0.05333671
#
# Stress axis : x y z
#
# Youngs Moduli (GPa) = 62.10841 66.75726 75.53257
#
# Poissons Ratio (x) = 0.06040 -0.31488
# Poissons Ratio (y) = 0.05619 -0.09399
# Poissons Ratio (z) = -0.25892 -0.08307
#
# Static dielectric constant tensor:
#      x y z
#    x 1.968190 0.000000 0.000000 
#    y 0.000000 1.944810 0.000000 
#    z 0.000000 0.000000 1.930930 
# 
# From -- ./inp_files/8344.got.cif
#   From: 2010.05.17/outbox.cif.g08.bks.cpg/sg39_5_cif.got.tgz:8344.got - 2010.06.03 18:22:40.
