data_PCOD9360958
_publ_section_title
;
Structure prediction by ZEFSAII (Michael W. Deem and Ramdas Pophale) SiO2 
 PCOD9360958
Probable space group: A B M 2
;
_chemical_formula_sum "Si O2"
_cell_formula_units_Z 48
_cell_length_a 15.686887
_cell_length_b 8.636352
_cell_length_c 19.270178
_cell_angle_alpha 90.000000
_cell_angle_beta 90.000000
_cell_angle_gamma 90.000000
_cell_volume 2610.675114
_symmetry_space_group_name_H-M "A B M 2"
_symmetry_group_IT_number 39
_symmetry_cell_setting 'orthorhombic'
loop_
_space_group_symop_operation_xyz
x,y,z
-x,-y,z
-x,1/2+y,z
x,1/2-y,z
x,1/2+y,1/2+z
-x,1/2-y,1/2+z
-x,y,1/2+z
x,-y,1/2+z
loop_
_atom_site_type_symbol
_atom_site_label
_atom_site_fract_x
_atom_site_fract_y
_atom_site_fract_z
Si Si1 0.093243 0.064081 0.172210
Si Si2 0.754908 0.064136 0.426680
Si Si3 0.592406 0.063286 0.676926
Si Si4 0.093801 0.565236 0.019410
Si Si5 0.249108 0.437304 0.271821
Si Si6 0.407551 0.063387 0.016916
O O1 0.089504 0.250000 0.167035
O O2 0.164923 0.021548 0.227911
O O3 0.115417 0.997859 0.096306
O O4 0.000000 0.000000 0.190876
O O5 0.760210 0.250000 0.430690
O O6 0.669277 0.013724 0.467392
O O7 0.836070 0.992756 0.465539
O O8 0.751540 0.010627 0.347462
O O9 0.589840 0.250000 0.677537
O O10 0.668124 0.013830 0.727553
O O11 0.608495 0.014600 0.596944
O O12 0.500000 0.000000 0.697687
O O13 0.090438 0.750000 0.021050
O O14 0.000000 0.500000 0.002257
O O15 0.250857 0.250000 0.278089
O O16 0.410915 0.250000 0.015928
O O17 0.500000 0.000000 0.995995
#
# Coordination Sequence:
#
# PCOD9360958 Si02
#       6
#     8   8   8   8   8   8
#     4  10  20  37  60  84 111 143 182 228 276 327
#     4  11  23  38  56  81 115 151 188 230 278 331
#     4   9  18  35  57  79 105 139 182 229 277 328
#     4  11  22  38  61  86 112 144 185 230 277 330
#     4  10  22  38  55  78 113 152 185 224 277 333
#     4   9  19  36  58  82 108 143 185 231 279 327
#
# _framework density 18.386047999999999
#
# number of rings (size 3 to 8) (size 9 to 14) (size 15 to 20)
#    0.000    2.000    0.000    4.500    0.000    7.333 
#    0.000    8.333    0.000    0.000    0.000    0.000 
#    0.000    0.000    0.000    0.000    0.000    0.000 
#
# Total GULP energy -134070.339858 kJ/mol
# GULP energy per Si atom -5586.264161 kJ/mol
# Density = 1.834420 g / cm^3
# Si number density = 18.386048 Si / 1000 Ang^3
#
#
#
# Elastic Constant Matrix: (Units=GPa)
#
#
# Indices 1 2 3 4 5 6 
#
# 1 161.9639 54.3166 134.4982 0.0000 0.0000 0.0000
# 2 54.3166 56.3194 52.3029 0.0000 0.0000 0.0000
# 3 134.4982 52.3029 145.6012 0.0000 0.0000 0.0000
# 4 0.0000 0.0000 0.0000 29.6726 0.0000 0.0000
# 5 0.0000 0.0000 0.0000 0.0000 -16.0269 0.0000
# 6 0.0000 0.0000 0.0000 0.0000 0.0000 31.6377
#
#
#
# Elastic Compliance Matrix: (Units=1/GPa)
#
#
# Indices 1 2 3 4 5 6 
#
# 1 0.027202 -0.004350 -0.023565 0.000000 0.000000 0.000000
# 2 -0.004350 0.027340 -0.005803 0.000000 0.000000 0.000000
# 3 -0.023565 -0.005803 0.030720 0.000000 0.000000 0.000000
# 4 0.000000 0.000000 0.000000 0.033701 0.000000 0.000000
# 5 0.000000 0.000000 0.000000 0.000000 -0.062395 0.000000
# 6 0.000000 0.000000 0.000000 0.000000 0.000000 0.031608
#
#
# Mechanical properties :
#
#
# Convention : Reuss Voigt Hill
#
# Bulk Modulus (GPa) = 56.09474 94.01332 75.05403
# Shear Modulus (GPa) = 30.94929 17.24112 24.09521
#
# Velocity S-wave (km/s) = 4.10726 3.06556 3.62403
# Velocity P-wave (km/s) = 7.28481 7.98587 7.64338
#
# Compressibility (1/GPa) = 0.01782698
#
# Stress axis : x y z
#
# Youngs Moduli (GPa) = 36.76215 36.57611 32.55160
#
# Poissons Ratio (x) = 0.15911 0.76708
# Poissons Ratio (y) = 0.15992 0.18889
# Poissons Ratio (z) = 0.86630 0.21224
#
# Static dielectric constant tensor:
#      x y z
#    x 1.613940 0.000000 0.000000 
#    y 0.000000 1.624750 0.000000 
#    z 0.000000 0.000000 1.604260 
# 
# From -- ./inp_files/12646.got.cif
#   From: 2010.05.17/outbox.cif.g08.bks.cpg/sg39_7_cif.got.tgz:12646.got - 2010.06.03 18:22:40.
