data_PCOD9360190
_publ_section_title
;
Structure prediction by ZEFSAII (Michael W. Deem and Ramdas Pophale) SiO2 
 PCOD9360190
Probable space group: A B M 2
;
_chemical_formula_sum "Si O2"
_cell_formula_units_Z 48
_cell_length_a 13.609201
_cell_length_b 8.481823
_cell_length_c 23.870159
_cell_angle_alpha 90.000000
_cell_angle_beta 90.000000
_cell_angle_gamma 90.000000
_cell_volume 2755.352362
_symmetry_space_group_name_H-M "A B M 2"
_symmetry_group_IT_number 39
_symmetry_cell_setting 'orthorhombic'
loop_
_space_group_symop_operation_xyz
x,y,z
-x,-y,z
-x,1/2+y,z
x,1/2-y,z
x,1/2+y,1/2+z
-x,1/2-y,1/2+z
-x,y,1/2+z
x,-y,1/2+z
loop_
_atom_site_type_symbol
_atom_site_label
_atom_site_fract_x
_atom_site_fract_y
_atom_site_fract_z
Si Si1 0.393327 0.438837 0.572650
Si Si2 0.109156 0.438223 0.257279
Si Si3 0.601033 0.068609 0.760933
Si Si4 0.254247 0.938761 0.172239
Si Si5 0.736412 0.932962 0.848270
Si Si6 0.607861 0.060965 0.943750
O O1 0.500000 0.500000 0.593626
O O2 0.401296 0.250000 0.571989
O O3 0.297903 0.475219 0.610793
O O4 0.381552 0.493238 0.508429
O O5 0.111315 0.250000 0.251781
O O6 0.149288 0.516961 0.199285
O O7 0.179337 0.486001 0.310052
O O8 0.000000 0.500000 0.268140
O O9 0.595675 0.250000 0.778580
O O10 0.500000 0.000000 0.740144
O O11 0.677374 0.044484 0.711649
O O12 0.639121 0.960111 0.810955
O O13 0.268434 0.750000 0.181368
O O14 0.760455 0.750000 0.853682
O O15 0.700331 0.003402 0.907082
O O16 0.605483 0.250000 0.941680
O O17 0.500000 0.000000 0.924456
#
# Coordination Sequence:
#
# PCOD9360190 Si02
#       6
#     8   8   8   8   8   8
#     4   9  19  32  50  74 106 143 178 211 248 293
#     4  11  22  38  58  80 102 130 164 209 262 313
#     4  11  20  30  44  67  98 133 166 204 250 301
#     4  10  19  33  51  75 102 132 168 209 252 302
#     4  11  21  34  51  74 100 131 168 210 254 304
#     4  10  19  33  50  74 106 143 179 213 250 297
#
# _framework density 17.420639999999999
#
# number of rings (size 3 to 8) (size 9 to 14) (size 15 to 20)
#    0.000    1.667    0.000    8.500    0.000    3.333 
#    0.000    0.000    0.000    1.000    0.000    4.667 
#    0.000    0.000    0.000    0.000    0.000    0.000 
#
# Total GULP energy -133693.442735 kJ/mol
# GULP energy per Si atom -5570.560114 kJ/mol
# Density = 1.738099 g / cm^3
# Si number density = 17.420640 Si / 1000 Ang^3
#
#
#
# Elastic Constant Matrix: (Units=GPa)
#
#
# Indices 1 2 3 4 5 6 
#
# 1 83.7221 31.6847 43.1753 0.0000 0.0000 0.0000
# 2 31.6847 68.8072 18.6757 0.0000 0.0000 0.0000
# 3 43.1753 18.6757 89.2905 0.0000 0.0000 0.0000
# 4 0.0000 0.0000 0.0000 13.2344 0.0000 0.0000
# 5 0.0000 0.0000 0.0000 0.0000 28.9489 0.0000
# 6 0.0000 0.0000 0.0000 0.0000 0.0000 27.7712
#
#
#
# Elastic Compliance Matrix: (Units=1/GPa)
#
#
# Indices 1 2 3 4 5 6 
#
# 1 0.018202 -0.006354 -0.007473 0.000000 0.000000 0.000000
# 2 -0.006354 0.017626 -0.000614 0.000000 0.000000 0.000000
# 3 -0.007473 -0.000614 0.014941 0.000000 0.000000 0.000000
# 4 0.000000 0.000000 0.000000 0.075561 0.000000 0.000000
# 5 0.000000 0.000000 0.000000 0.000000 0.034544 0.000000
# 6 0.000000 0.000000 0.000000 0.000000 0.000000 0.036009
#
#
# Mechanical properties :
#
#
# Convention : Reuss Voigt Hill
#
# Bulk Modulus (GPa) = 45.68675 47.65458 46.67067
# Shear Modulus (GPa) = 21.45371 23.87651 22.66511
#
# Velocity S-wave (km/s) = 3.51310 3.70616 3.61092
# Velocity P-wave (km/s) = 6.53746 6.76231 6.65083
#
# Compressibility (1/GPa) = 0.02188818
#
# Stress axis : x y z
#
# Youngs Moduli (GPa) = 54.93753 56.73468 66.92906
#
# Poissons Ratio (x) = 0.36048 0.50014
# Poissons Ratio (y) = 0.34906 0.04111
# Poissons Ratio (z) = 0.41053 0.03485
#
# Static dielectric constant tensor:
#      x y z
#    x 1.424910 0.000000 0.000000 
#    y 0.000000 1.586200 0.000000 
#    z 0.000000 0.000000 1.649280 
# 
# From -- ./inp_files/15835.got.cif
#   From: 2010.05.17/outbox.cif.g08.bks.cpg/sg39_8_cif.got.tgz:15835.got - 2010.06.03 18:22:40.
