data_PCOD9360578
_publ_section_title
;
Structure prediction by ZEFSAII (Michael W. Deem and Ramdas Pophale) SiO2 
 PCOD9360578
Probable space group: A B M 2
;
_chemical_formula_sum "Si O2"
_cell_formula_units_Z 40
_cell_length_a 9.666733
_cell_length_b 8.700626
_cell_length_c 26.803637
_cell_angle_alpha 90.000000
_cell_angle_beta 90.000000
_cell_angle_gamma 90.000000
_cell_volume 2254.363539
_symmetry_space_group_name_H-M "A B M 2"
_symmetry_group_IT_number 39
_symmetry_cell_setting 'orthorhombic'
loop_
_space_group_symop_operation_xyz
x,y,z
-x,-y,z
-x,1/2+y,z
x,1/2-y,z
x,1/2+y,1/2+z
-x,1/2-y,1/2+z
-x,y,1/2+z
x,-y,1/2+z
loop_
_atom_site_type_symbol
_atom_site_label
_atom_site_fract_x
_atom_site_fract_y
_atom_site_fract_z
Si Si1 0.345000 0.566219 0.045150
Si Si2 0.344222 0.434718 0.258117
Si Si3 0.154488 0.066252 0.845236
Si Si4 0.344251 0.933683 0.647445
Si Si5 0.846193 0.434758 0.951636
O O1 0.500000 0.500000 0.039836
O O2 0.353999 0.750000 0.048211
O O3 0.281703 0.503785 0.097135
O O4 0.252789 0.524013 0.997555
O O5 0.500000 0.500000 0.261421
O O6 0.348666 0.250000 0.262819
O O7 0.251452 0.506684 0.301143
O O8 0.286833 0.471525 0.202369
O O9 0.149652 0.250000 0.846039
O O10 0.203774 0.003933 0.899047
O O11 0.000000 0.000000 0.838306
O O12 0.349271 0.750000 0.642664
O O13 0.500000 0.000000 0.648363
O O14 0.852783 0.250000 0.947487
O O15 0.000000 0.500000 0.960123
#
# Coordination Sequence:
#
# PCOD9360578 Si02
#       5
#     8   8   8   8   8
#     4  10  20  33  53  79 106 136 172 213 256 305
#     4  10  20  35  55  81 109 139 176 217 261 311
#     4  11  22  37  57  78 104 140 176 217 265 315
#     4   9  17  30  51  76 105 138 170 208 256 306
#     4  10  21  37  55  76 103 137 175 215 260 313
#
# _framework density 17.743366000000002
#
# number of rings (size 3 to 8) (size 9 to 14) (size 15 to 20)
#    0.000    2.000    0.000    6.600    0.000    6.400 
#    0.000    3.000    0.000    2.400    0.000    0.000 
#    0.000    0.000    0.000    0.000    0.000    0.000 
#
# Total GULP energy -111588.226535 kJ/mol
# GULP energy per Si atom -5579.411327 kJ/mol
# Density = 1.770298 g / cm^3
# Si number density = 17.743366 Si / 1000 Ang^3
#
#
#
# Elastic Constant Matrix: (Units=GPa)
#
#
# Indices 1 2 3 4 5 6 
#
# 1 48.4596 34.6707 81.6818 0.0000 0.0000 0.0000
# 2 34.6707 97.9107 82.5704 0.0000 0.0000 0.0000
# 3 81.6818 82.5704 222.6728 0.0000 0.0000 0.0000
# 4 0.0000 0.0000 0.0000 30.0548 0.0000 0.0000
# 5 0.0000 0.0000 0.0000 0.0000 -84.8278 0.0000
# 6 0.0000 0.0000 0.0000 0.0000 0.0000 27.6035
#
#
#
# Elastic Compliance Matrix: (Units=1/GPa)
#
#
# Indices 1 2 3 4 5 6 
#
# 1 0.054911 -0.003576 -0.018817 0.000000 0.000000 0.000000
# 2 -0.003576 0.015093 -0.004285 0.000000 0.000000 0.000000
# 3 -0.018817 -0.004285 0.012982 0.000000 0.000000 0.000000
# 4 0.000000 0.000000 0.000000 0.033273 0.000000 0.000000
# 5 0.000000 0.000000 0.000000 0.000000 -0.011789 0.000000
# 6 0.000000 0.000000 0.000000 0.000000 0.000000 0.036227
#
#
# Mechanical properties :
#
#
# Convention : Reuss Voigt Hill
#
# Bulk Modulus (GPa) = 33.74802 85.20988 59.47895
# Shear Modulus (GPa) = 24.51824 5.90746 15.21285
#
# Velocity S-wave (km/s) = 3.72132 1.82664 2.93129
# Velocity P-wave (km/s) = 6.12582 7.25097 6.71202
#
# Compressibility (1/GPa) = 0.02963137
#
# Stress axis : x y z
#
# Youngs Moduli (GPa) = 18.21139 66.25435 77.02766
#
# Poissons Ratio (x) = 0.23690 1.44941
# Poissons Ratio (y) = 0.06512 0.33008
# Poissons Ratio (z) = 0.34268 0.28392
#
# Static dielectric constant tensor:
#      x y z
#    x 1.569320 0.000000 0.000000 
#    y 0.000000 1.592570 0.000000 
#    z 0.000000 0.000000 1.639700 
# 
# From -- ./inp_files/14356.got.cif
#   From: 2010.05.17/outbox.cif.g08.bks.cpg/sg39_8_cif.got.tgz:14356.got - 2010.06.03 18:22:40.
