data_PCOD9360497
_publ_section_title
;
Structure prediction by ZEFSAII (Michael W. Deem and Ramdas Pophale) SiO2 
 PCOD9360497
Probable space group: A B M 2
;
_chemical_formula_sum "Si O2"
_cell_formula_units_Z 64
_cell_length_a 7.155480
_cell_length_b 19.444731
_cell_length_c 24.827846
_cell_angle_alpha 90.000000
_cell_angle_beta 90.000000
_cell_angle_gamma 90.000000
_cell_volume 3454.456709
_symmetry_space_group_name_H-M "A B M 2"
_symmetry_group_IT_number 39
_symmetry_cell_setting 'orthorhombic'
loop_
_space_group_symop_operation_xyz
x,y,z
-x,-y,z
-x,1/2+y,z
x,1/2-y,z
x,1/2+y,1/2+z
-x,1/2-y,1/2+z
-x,y,1/2+z
x,-y,1/2+z
loop_
_atom_site_type_symbol
_atom_site_label
_atom_site_fract_x
_atom_site_fract_y
_atom_site_fract_z
Si Si1 0.891060 0.427646 0.409290
Si Si2 0.096471 0.575210 0.529079
Si Si3 0.270907 0.832086 0.026550
Si Si4 0.455603 0.921980 0.596002
Si Si5 0.544396 0.921980 0.722578
Si Si6 0.903529 0.924790 0.789501
Si Si7 0.753935 0.169029 0.909290
Si Si8 0.270908 0.332086 0.292031
O O1 0.804900 0.423276 0.469437
O O2 0.804900 0.423275 0.349143
O O3 0.000000 0.500000 0.409290
O O4 0.049589 0.369506 0.409290
O O5 0.244219 0.589095 0.576166
O O6 0.000000 0.500000 0.535155
O O7 0.930726 0.631195 0.530673
O O8 0.257697 0.750000 0.033758
O O9 0.410753 0.867683 0.067363
O O10 0.342803 0.847202 0.965623
O O11 0.499997 0.918627 0.659291
O O12 0.500000 0.000000 0.577897
O O13 0.755782 0.910905 0.742414
O O14 0.410755 0.867683 0.751218
O O15 0.500000 0.000000 0.740684
O O16 0.069275 0.868805 0.787907
O O17 0.000000 0.000000 0.783425
O O18 0.790013 0.250000 0.909291
O O19 0.657198 0.152798 0.852958
O O20 0.257697 0.250000 0.284823
#
# Coordination Sequence:
#
# PCOD9360497 Si02
#       8
#     8   8   8   8   8   8   8   8
#     4   8  16  29  55  88 112 140 189 242 287 347
#     4  10  19  38  61  85 116 153 193 239 298 352
#     4  10  21  39  62  90 120 153 192 242 298 353
#     4  11  24  40  57  84 119 160 205 247 287 337
#     4  11  24  40  57  84 119 160 205 247 287 337
#     4  10  19  38  61  85 116 153 193 239 298 352
#     4   8  16  33  57  85 121 151 179 231 301 359
#     4  10  21  39  62  90 120 153 192 242 298 353
#
# _framework density 18.526792
#
# number of rings (size 3 to 8) (size 9 to 14) (size 15 to 20)
#    0.000    2.250    2.500    0.000    0.000    3.500 
#    0.000    2.500    0.000    4.500    0.000    0.000 
#    0.000    0.000    0.000    0.000    0.000    0.000 
#
# Total GULP energy -178225.370259 kJ/mol
# GULP energy per Si atom -5569.542821 kJ/mol
# Density = 1.848462 g / cm^3
# Si number density = 18.526792 Si / 1000 Ang^3
#
#
#
# Elastic Constant Matrix: (Units=GPa)
#
#
# Indices 1 2 3 4 5 6 
#
# 1 80.2343 47.2978 54.2978 0.0000 0.0000 0.0000
# 2 47.2978 83.5519 54.3571 0.0000 0.0000 0.0000
# 3 54.2978 54.3571 110.4859 0.0000 0.0000 0.0000
# 4 0.0000 0.0000 0.0000 30.9134 0.0000 0.0000
# 5 0.0000 0.0000 0.0000 0.0000 16.1852 0.0000
# 6 0.0000 0.0000 0.0000 0.0000 0.0000 19.8833
#
#
#
# Elastic Compliance Matrix: (Units=1/GPa)
#
#
# Indices 1 2 3 4 5 6 
#
# 1 0.021696 -0.007861 -0.006795 0.000000 0.000000 0.000000
# 2 -0.007861 0.020451 -0.006198 0.000000 0.000000 0.000000
# 3 -0.006795 -0.006198 0.015440 0.000000 0.000000 0.000000
# 4 0.000000 0.000000 0.000000 0.032348 0.000000 0.000000
# 5 0.000000 0.000000 0.000000 0.000000 0.061785 0.000000
# 6 0.000000 0.000000 0.000000 0.000000 0.000000 0.050293
#
#
# Mechanical properties :
#
#
# Convention : Reuss Voigt Hill
#
# Bulk Modulus (GPa) = 62.97944 65.13083 64.05514
# Shear Modulus (GPa) = 20.07911 21.28435 20.68173
#
# Velocity S-wave (km/s) = 3.29566 3.39313 3.34475
# Velocity P-wave (km/s) = 6.96774 7.11213 7.04030
#
# Compressibility (1/GPa) = 0.01587820
#
# Stress axis : x y z
#
# Youngs Moduli (GPa) = 46.09143 48.89679 64.76849
#
# Poissons Ratio (x) = 0.38439 0.44009
# Poissons Ratio (y) = 0.36234 0.40145
# Poissons Ratio (z) = 0.31318 0.30307
#
# Static dielectric constant tensor:
#      x y z
#    x 1.626000 0.000000 0.000000 
#    y 0.000000 1.607940 0.000000 
#    z 0.000000 0.000000 1.696120 
# 
# From -- ./inp_files/16597.got.cif
#   From: 2010.05.17/outbox.cif.g08.bks.cpg/sg39_9_cif.got.tgz:16597.got - 2010.06.03 18:22:40.
