data_PCOD9360238
_publ_section_title
;
Structure prediction by ZEFSAII (Michael W. Deem and Ramdas Pophale) SiO2 
 PCOD9360238
Probable space group: A B M 2
;
_chemical_formula_sum "Si O2"
_cell_formula_units_Z 48
_cell_length_a 7.123911
_cell_length_b 10.561075
_cell_length_c 27.515643
_cell_angle_alpha 90.000000
_cell_angle_beta 90.000000
_cell_angle_gamma 90.000000
_cell_volume 2070.171274
_symmetry_space_group_name_H-M "A B M 2"
_symmetry_group_IT_number 39
_symmetry_cell_setting 'orthorhombic'
loop_
_space_group_symop_operation_xyz
x,y,z
-x,-y,z
-x,1/2+y,z
x,1/2-y,z
x,1/2+y,1/2+z
-x,1/2-y,1/2+z
-x,y,1/2+z
x,-y,1/2+z
loop_
_atom_site_type_symbol
_atom_site_label
_atom_site_fract_x
_atom_site_fract_y
_atom_site_fract_z
Si Si1 0.272386 0.005612 0.802740
Si Si2 0.707778 0.250000 0.363339
Si Si3 0.746120 0.750000 0.475243
Si Si4 0.746120 0.250000 0.860239
Si Si5 0.803155 0.608040 0.697838
Si Si6 0.272386 0.505613 0.532742
Si Si7 0.707777 0.250000 0.472142
Si Si8 0.803151 0.391960 0.637644
O O1 0.207947 0.875297 0.828356
O O2 0.500000 0.000000 0.796410
O O3 0.230743 0.122227 0.837904
O O4 0.187876 0.048676 0.751378
O O5 0.481219 0.250000 0.362763
O O6 0.773952 0.250000 0.417741
O O7 0.804843 0.750000 0.417741
O O8 0.792053 0.624703 0.507126
O O9 0.518781 0.750000 0.472718
O O10 0.722490 0.750000 0.700843
O O11 0.698311 0.500002 0.667740
O O12 0.000002 0.621696 0.667741
O O13 0.500000 0.500000 0.539071
O O14 0.230743 0.622227 0.497577
O O15 0.187876 0.548679 0.584103
O O16 0.722485 0.250000 0.634640
#
# Coordination Sequence:
#
# PCOD9360238 Si02
#       8
#     8   4   4   4   8   8   4   8
#     4  10  19  33  54  86 121 153 194 239 284 338
#     4   9  16  30  52  80 120 158 191 230 279 343
#     4   9  18  30  50  84 124 160 185 224 283 343
#     4   9  18  30  50  84 124 160 185 224 283 343
#     4  10  22  40  59  81 108 150 201 246 296 346
#     4  10  19  33  54  86 121 153 194 239 284 338
#     4   9  16  30  52  80 120 158 191 230 279 343
#     4  10  22  40  59  81 108 150 201 246 296 346
#
# _framework density 23.186485999999999
#
# number of rings (size 3 to 8) (size 9 to 14) (size 15 to 20)
#    0.000    2.333    1.667    1.000    2.333    4.667 
#    0.000    1.667    0.000    0.000    0.000   28.000 
#    0.000    0.000    0.000    0.000    0.000    2.000 
#
# Total GULP energy -133900.058643 kJ/mol
# GULP energy per Si atom -5579.169110 kJ/mol
# Density = 2.313371 g / cm^3
# Si number density = 23.186486 Si / 1000 Ang^3
#
#
#
# Elastic Constant Matrix: (Units=GPa)
#
#
# Indices 1 2 3 4 5 6 
#
# 1 118.3095 23.5454 25.4311 0.0000 0.0000 0.0000
# 2 23.5454 299.6867 146.1466 0.0000 0.0000 0.0000
# 3 25.4311 146.1466 264.5352 0.0000 0.0000 0.0000
# 4 0.0000 0.0000 0.0000 50.0438 0.0000 0.0000
# 5 0.0000 0.0000 0.0000 0.0000 26.3388 0.0000
# 6 0.0000 0.0000 0.0000 0.0000 0.0000 -19.6246
#
#
#
# Elastic Compliance Matrix: (Units=1/GPa)
#
#
# Indices 1 2 3 4 5 6 
#
# 1 0.008662 -0.000376 -0.000625 0.000000 0.000000 0.000000
# 2 -0.000376 0.004584 -0.002496 0.000000 0.000000 0.000000
# 3 -0.000625 -0.002496 0.005219 0.000000 0.000000 0.000000
# 4 0.000000 0.000000 0.000000 0.019983 0.000000 0.000000
# 5 0.000000 0.000000 0.000000 0.000000 0.037967 0.000000
# 6 0.000000 0.000000 0.000000 0.000000 0.000000 -0.050956
#
#
# Mechanical properties :
#
#
# Convention : Reuss Voigt Hill
#
# Bulk Modulus (GPa) = 87.17947 119.19750 103.18848
# Shear Modulus (GPa) = 137.83629 43.84548 90.84089
#
# Velocity S-wave (km/s) = 7.71854 4.35327 6.26605
# Velocity P-wave (km/s) = 10.82199 8.76286 9.84640
#
# Compressibility (1/GPa) = 0.01147059
#
# Stress axis : x y z
#
# Youngs Moduli (GPa) = 115.45282 218.16753 191.59397
#
# Poissons Ratio (x) = 0.08195 0.11977
# Poissons Ratio (y) = 0.04337 0.47825
# Poissons Ratio (z) = 0.07217 0.54459
#
# Static dielectric constant tensor:
#      x y z
#    x 2.004170 0.000000 0.000000 
#    y 0.000000 1.857930 0.000000 
#    z 0.000000 0.000000 1.920920 
# 
# From -- ./inp_files/15613.got.cif
#   From: 2010.05.17/outbox.cif.g08.bks.cpg/sg39_8_cif.got.tgz:15613.got - 2010.06.03 18:22:40.
