data_PCOD9360066
_publ_section_title
;
Structure prediction by ZEFSAII (Michael W. Deem and Ramdas Pophale) SiO2 
 PCOD9360066
Probable space group: A B M 2
;
_chemical_formula_sum "Si O2"
_cell_formula_units_Z 64
_cell_length_a 17.431319
_cell_length_b 7.587553
_cell_length_c 23.080750
_cell_angle_alpha 90.000000
_cell_angle_beta 90.000000
_cell_angle_gamma 90.000000
_cell_volume 3052.684386
_symmetry_space_group_name_H-M "A B M 2"
_symmetry_group_IT_number 39
_symmetry_cell_setting 'orthorhombic'
loop_
_space_group_symop_operation_xyz
x,y,z
-x,-y,z
-x,1/2+y,z
x,1/2-y,z
x,1/2+y,1/2+z
-x,1/2-y,1/2+z
-x,y,1/2+z
x,-y,1/2+z
loop_
_atom_site_type_symbol
_atom_site_label
_atom_site_fract_x
_atom_site_fract_y
_atom_site_fract_z
Si Si1 0.587279 0.446071 0.084180
Si Si2 0.112084 0.954138 0.238847
Si Si3 0.754340 0.967029 0.545003
Si Si4 0.273350 0.535503 0.788537
Si Si5 0.087026 0.962076 0.109463
Si Si6 0.918525 0.959929 0.865888
Si Si7 0.418354 0.958877 0.716013
Si Si8 0.761161 0.050096 0.914701
O O1 0.500000 0.500000 0.066003
O O2 0.594119 0.250000 0.060685
O O3 0.671391 0.528091 0.070242
O O4 0.584300 0.450335 0.153765
O O5 0.087621 0.750000 0.237500
O O6 0.091352 0.030517 0.176303
O O7 0.081403 0.031188 0.299517
O O8 0.202920 0.965388 0.250528
O O9 0.756863 0.750000 0.547278
O O10 0.835057 0.023020 0.575784
O O11 0.751825 0.027086 0.478132
O O12 0.266316 0.750000 0.789921
O O13 0.350514 0.484655 0.757102
O O14 0.270904 0.470647 0.854891
O O15 0.093330 0.750000 0.111371
O O16 0.000000 0.000000 0.087157
O O17 0.904247 0.750000 0.864028
O O18 0.851407 0.049262 0.901153
O O19 0.000000 0.000000 0.892627
O O20 0.411797 0.750000 0.705378
O O21 0.500000 0.000000 0.743444
O O22 0.731218 0.250000 0.917901
#
# Coordination Sequence:
#
# PCOD9360066 Si02
#       8
#     8   8   8   8   8   8   8   8
#     4  10  19  34  56  81 105 133 167 207 252 303
#     4   9  18  31  49  71  98 127 160 201 250 303
#     4   9  19  35  55  74  99 136 174 207 250 300
#     4   9  18  31  50  73  97 125 162 203 246 292
#     4  10  20  34  50  73 101 133 169 206 248 299
#     4  10  19  31  48  72  97 126 162 205 252 298
#     4  10  19  31  48  75 104 129 157 195 243 299
#     4   9  18  35  53  69  93 129 168 206 243 290
#
# _framework density 20.965154999999999
#
# number of rings (size 3 to 8) (size 9 to 14) (size 15 to 20)
#    0.000    2.500    0.000    3.000    0.000    3.500 
#    0.000    5.000    0.000    0.000    0.000    0.000 
#    0.000    0.000    0.000    0.000    0.000    0.000 
#
# Total GULP energy -178227.562226 kJ/mol
# GULP energy per Si atom -5569.611320 kJ/mol
# Density = 2.091744 g / cm^3
# Si number density = 20.965155 Si / 1000 Ang^3
#
#
#
# Elastic Constant Matrix: (Units=GPa)
#
#
# Indices 1 2 3 4 5 6 
#
# 1 177.2396 -5.4380 54.5160 0.0000 0.0000 0.0000
# 2 -5.4380 52.2549 1.0701 0.0000 0.0000 0.0000
# 3 54.5160 1.0701 66.4528 0.0000 0.0000 0.0000
# 4 0.0000 0.0000 0.0000 -30.1214 0.0000 0.0000
# 5 0.0000 0.0000 0.0000 0.0000 -9.6216 0.0000
# 6 0.0000 0.0000 0.0000 0.0000 0.0000 17.3783
#
#
#
# Elastic Compliance Matrix: (Units=1/GPa)
#
#
# Indices 1 2 3 4 5 6 
#
# 1 0.007590 0.000918 -0.006241 0.000000 0.000000 0.000000
# 2 0.000918 0.019254 -0.001063 0.000000 0.000000 0.000000
# 3 -0.006241 -0.001063 0.020186 0.000000 0.000000 0.000000
# 4 0.000000 0.000000 0.000000 -0.033199 0.000000 0.000000
# 5 0.000000 0.000000 0.000000 0.000000 -0.103932 0.000000
# 6 0.000000 0.000000 0.000000 0.000000 0.000000 0.057543
#
#
# Mechanical properties :
#
#
# Convention : Reuss Voigt Hill
#
# Bulk Modulus (GPa) = 29.19142 44.02707 36.60925
# Shear Modulus (GPa) = -597.63071 11.91366 -292.85853
#
# Velocity S-wave (km/s) = -16.90201 2.38641 -11.83180
# Velocity P-wave (km/s) = 19.15593 5.35154 13.00598
#
# Compressibility (1/GPa) = 0.03425665
#
# Stress axis : x y z
#
# Youngs Moduli (GPa) = 131.75257 51.93664 49.54010
#
# Poissons Ratio (x) = -0.04766 0.30920
# Poissons Ratio (y) = -0.12091 0.05266
# Poissons Ratio (z) = 0.82232 0.05520
#
# Static dielectric constant tensor:
#      x y z
#    x 1.792380 0.000000 0.000000 
#    y 0.000000 1.900640 0.000000 
#    z 0.000000 0.000000 1.738260 
# 
# From -- ./inp_files/16281.got.cif
#   From: 2010.05.17/outbox.cif.g08.bks.cpg/sg39_9_cif.got.tgz:16281.got - 2010.06.03 18:22:40.
