data_PCOD9360914
_publ_section_title
;
Structure prediction by ZEFSAII (Michael W. Deem and Ramdas Pophale) SiO2 
 PCOD9360914
Probable space group: A B M 2
;
_chemical_formula_sum "Si O2"
_cell_formula_units_Z 64
_cell_length_a 10.711076
_cell_length_b 19.622826
_cell_length_c 13.841592
_cell_angle_alpha 90.000000
_cell_angle_beta 90.000000
_cell_angle_gamma 90.000000
_cell_volume 2909.247685
_symmetry_space_group_name_H-M "A B M 2"
_symmetry_group_IT_number 39
_symmetry_cell_setting 'orthorhombic'
loop_
_space_group_symop_operation_xyz
x,y,z
-x,-y,z
-x,1/2+y,z
x,1/2-y,z
x,1/2+y,1/2+z
-x,1/2-y,1/2+z
-x,y,1/2+z
x,-y,1/2+z
loop_
_atom_site_type_symbol
_atom_site_label
_atom_site_fract_x
_atom_site_fract_y
_atom_site_fract_z
Si Si1 0.938068 0.572791 0.682320
Si Si2 0.206485 0.172054 0.947894
Si Si3 0.835982 0.171562 0.030058
Si Si4 0.681215 0.829757 0.140884
Si Si5 0.559879 0.828900 0.509444
Si Si6 0.317278 0.437817 0.804075
Si Si7 0.946473 0.673126 0.334175
Si Si8 0.595648 0.412761 0.815592
O O1 0.915603 0.616760 0.586708
O O2 0.801049 0.564258 0.732249
O O3 0.024548 0.617148 0.754468
O O4 0.000000 0.500000 0.664946
O O5 0.256732 0.250000 0.936921
O O6 0.282709 0.116171 0.887789
O O7 0.070029 0.173026 0.902014
O O8 0.211766 0.156558 0.061748
O O9 0.876274 0.250000 0.048276
O O10 0.692668 0.165031 0.062761
O O11 0.841019 0.160802 0.914502
O O12 0.681879 0.750000 0.166032
O O13 0.678065 0.872781 0.237596
O O14 0.555833 0.843568 0.078641
O O15 0.550572 0.750000 0.478405
O O16 0.567115 0.875109 0.415348
O O17 0.457015 0.420481 0.767500
O O18 0.338869 0.515352 0.838185
O O19 0.932845 0.750000 0.293705
#
# Coordination Sequence:
#
# PCOD9360914 Si02
#       8
#     8   8   8   8   8   8   8   8
#     4  11  24  41  63  92 125 166 212 258 309 378
#     4   9  18  38  63  86 114 155 208 254 304 364
#     4  10  22  42  64  91 123 161 211 259 315 371
#     4  10  20  36  62  92 119 156 203 255 308 368
#     4  10  21  39  65  95 125 162 207 258 314 376
#     4  10  23  41  56  89 123 167 205 245 311 373
#     4   9  20  40  65  88 117 158 204 259 312 364
#     4  11  22  39  59  89 131 163 202 251 316 379
#
# _framework density 21.998813999999999
#
# number of rings (size 3 to 8) (size 9 to 14) (size 15 to 20)
#    0.000    2.000    1.250    1.500    1.750    2.500 
#    9.000    0.000    0.000    0.000    0.000    0.000 
#    0.000    0.000    0.000    0.000    0.000    0.000 
#
# Total GULP energy -178817.605572 kJ/mol
# GULP energy per Si atom -5588.050174 kJ/mol
# Density = 2.194874 g / cm^3
# Si number density = 21.998814 Si / 1000 Ang^3
#
#
#
# Elastic Constant Matrix: (Units=GPa)
#
#
# Indices 1 2 3 4 5 6 
#
# 1 93.9754 34.0713 20.2286 0.0000 0.0000 0.0000
# 2 34.0713 126.8307 80.2856 0.0000 0.0000 0.0000
# 3 20.2286 80.2856 87.6325 0.0000 0.0000 0.0000
# 4 0.0000 0.0000 0.0000 15.2778 0.0000 0.0000
# 5 0.0000 0.0000 0.0000 0.0000 32.8878 0.0000
# 6 0.0000 0.0000 0.0000 0.0000 0.0000 -69.9327
#
#
#
# Elastic Compliance Matrix: (Units=1/GPa)
#
#
# Indices 1 2 3 4 5 6 
#
# 1 0.011796 -0.003440 0.000429 0.000000 0.000000 0.000000
# 2 -0.003440 0.019774 -0.017322 0.000000 0.000000 0.000000
# 3 0.000429 -0.017322 0.027182 0.000000 0.000000 0.000000
# 4 0.000000 0.000000 0.000000 0.065454 0.000000 0.000000
# 5 0.000000 0.000000 0.000000 0.000000 0.030406 0.000000
# 6 0.000000 0.000000 0.000000 0.000000 0.000000 -0.014299
#
#
# Mechanical properties :
#
#
# Convention : Reuss Voigt Hill
#
# Bulk Modulus (GPa) = 55.29351 64.17885 59.73618
# Shear Modulus (GPa) = 26.73693 7.23680 16.98686
#
# Velocity S-wave (km/s) = 3.49001 1.81570 2.78181
# Velocity P-wave (km/s) = 6.43658 5.79938 6.12627
#
# Compressibility (1/GPa) = 0.01808530
#
# Stress axis : x y z
#
# Youngs Moduli (GPa) = 84.77388 50.57241 36.78947
#
# Poissons Ratio (x) = 0.17399 -0.01579
# Poissons Ratio (y) = 0.29166 0.63725
# Poissons Ratio (z) = -0.03638 0.87600
#
# Static dielectric constant tensor:
#      x y z
#    x 1.905570 0.000000 0.000000 
#    y 0.000000 1.767170 0.000000 
#    z 0.000000 0.000000 1.766350 
# 
# From -- ./inp_files/9472.got.cif
#   From: 2010.05.17/outbox.cif.g08.bks.cpg/sg39_5_cif.got.tgz:9472.got - 2010.06.03 18:22:40.
