data_PCOD9360057
_publ_section_title
;
Structure prediction by ZEFSAII (Michael W. Deem and Ramdas Pophale) SiO2 
 PCOD9360057
Probable space group: A B M 2
;
_chemical_formula_sum "Si O2"
_cell_formula_units_Z 64
_cell_length_a 14.770742
_cell_length_b 8.499587
_cell_length_c 32.336678
_cell_angle_alpha 90.000000
_cell_angle_beta 90.000000
_cell_angle_gamma 90.000000
_cell_volume 4059.714923
_symmetry_space_group_name_H-M "A B M 2"
_symmetry_group_IT_number 39
_symmetry_cell_setting 'orthorhombic'
loop_
_space_group_symop_operation_xyz
x,y,z
-x,-y,z
-x,1/2+y,z
x,1/2-y,z
x,1/2+y,1/2+z
-x,1/2-y,1/2+z
-x,y,1/2+z
x,-y,1/2+z
loop_
_atom_site_type_symbol
_atom_site_label
_atom_site_fract_x
_atom_site_fract_y
_atom_site_fract_z
Si Si1 0.897075 0.560436 0.998100
Si Si2 0.402854 0.939445 0.701046
Si Si3 0.103155 0.559489 0.588491
Si Si4 0.210395 0.438992 0.328618
Si Si5 0.897700 0.937732 0.748914
Si Si6 0.896659 0.439162 0.407388
Si Si7 0.402798 0.439405 0.297136
Si Si8 0.210839 0.440806 0.169323
O O1 0.896731 0.750000 0.998022
O O2 0.860922 0.510778 0.953100
O O3 0.000000 0.500000 0.998278
O O4 0.860393 0.509831 0.043008
O O5 0.404735 0.750000 0.700917
O O6 0.391551 0.990634 0.749087
O O7 0.314904 0.991303 0.675616
O O8 0.500000 0.000000 0.686275
O O9 0.100425 0.750000 0.589250
O O10 0.164630 0.506331 0.626682
O O11 0.000000 0.500000 0.593242
O O12 0.208026 0.250000 0.327600
O O13 0.153932 0.501209 0.289503
O O14 0.164690 0.497618 0.370548
O O15 0.314657 0.490798 0.322484
O O16 0.898277 0.750000 0.748939
O O17 0.846371 0.999366 0.708290
O O18 0.000000 0.000000 0.749025
O O19 0.899022 0.250000 0.405630
O O20 0.000000 0.500000 0.402826
O O21 0.500000 0.500000 0.311915
O O22 0.404783 0.250000 0.297215
O O23 0.209175 0.250000 0.170201
#
# Coordination Sequence:
#
# PCOD9360057 Si02
#       8
#     8   8   8   8   8   8   8   8
#     4   8  15  28  45  66  91 119 154 192 231 271
#     4   9  17  31  48  67  90 118 151 192 236 274
#     4   9  17  29  47  68  93 125 156 190 229 272
#     4  11  21  35  50  68  94 123 156 192 232 277
#     4  12  24  35  47  64  92 129 163 191 225 268
#     4  10  19  31  47  69  96 125 158 195 232 276
#     4   9  18  32  50  68  90 117 149 191 235 275
#     4  10  19  33  49  68  95 124 157 193 232 275
#
# _framework density 15.764654
#
# number of rings (size 3 to 8) (size 9 to 14) (size 15 to 20)
#    0.000    2.250    1.250    2.625    0.000    3.500 
#    0.000    0.000    0.000    0.000    0.000    0.875 
#    0.000    4.000    0.000    0.000    0.000    0.000 
#
# Total GULP energy -178368.603362 kJ/mol
# GULP energy per Si atom -5574.018855 kJ/mol
# Density = 1.572877 g / cm^3
# Si number density = 15.764654 Si / 1000 Ang^3
#
#
#
# Elastic Constant Matrix: (Units=GPa)
#
#
# Indices 1 2 3 4 5 6 
#
# 1 133.0818 23.5652 82.7680 0.0000 0.0000 0.0000
# 2 23.5652 24.6225 25.8517 0.0000 0.0000 0.0000
# 3 82.7680 25.8517 158.1708 0.0000 0.0000 0.0000
# 4 0.0000 0.0000 0.0000 16.7207 0.0000 0.0000
# 5 0.0000 0.0000 0.0000 0.0000 4.3961 0.0000
# 6 0.0000 0.0000 0.0000 0.0000 0.0000 22.8409
#
#
#
# Elastic Compliance Matrix: (Units=1/GPa)
#
#
# Indices 1 2 3 4 5 6 
#
# 1 0.011788 -0.005801 -0.005220 0.000000 0.000000 0.000000
# 2 -0.005801 0.051881 -0.005444 0.000000 0.000000 0.000000
# 3 -0.005220 -0.005444 0.009944 0.000000 0.000000 0.000000
# 4 0.000000 0.000000 0.000000 0.059806 0.000000 0.000000
# 5 0.000000 0.000000 0.000000 0.000000 0.227473 0.000000
# 6 0.000000 0.000000 0.000000 0.000000 0.000000 0.043781
#
#
# Mechanical properties :
#
#
# Convention : Reuss Voigt Hill
#
# Bulk Modulus (GPa) = 24.58076 64.47165 44.52620
# Shear Modulus (GPa) = 11.08244 21.03755 16.06000
#
# Velocity S-wave (km/s) = 2.65428 3.65701 3.19522
# Velocity P-wave (km/s) = 5.00198 7.66921 6.47443
#
# Compressibility (1/GPa) = 0.04068223
#
# Stress axis : x y z
#
# Youngs Moduli (GPa) = 84.83133 19.27490 100.56533
#
# Poissons Ratio (x) = 0.11181 0.52499
# Poissons Ratio (y) = 0.49210 0.54747
# Poissons Ratio (z) = 0.44285 0.10493
#
# Static dielectric constant tensor:
#      x y z
#    x 1.505110 0.000000 0.000000 
#    y 0.000000 1.530630 0.000000 
#    z 0.000000 0.000000 1.545750 
# 
# From -- ./inp_files/17953.got.cif
#   From: 2010.05.17/outbox.cif.g08.bks.cpg/sg39_9_cif.got.tgz:17953.got - 2010.06.03 18:22:40.
