data_PCOD9360931
_publ_section_title
;
Structure prediction by ZEFSAII (Michael W. Deem and Ramdas Pophale) SiO2 
 PCOD9360931
Probable space group: A B M 2
;
_chemical_formula_sum "Si O2"
_cell_formula_units_Z 52
_cell_length_a 8.243001
_cell_length_b 21.213519
_cell_length_c 13.334428
_cell_angle_alpha 90.000000
_cell_angle_beta 90.000000
_cell_angle_gamma 90.000000
_cell_volume 2331.698861
_symmetry_space_group_name_H-M "A B M 2"
_symmetry_group_IT_number 39
_symmetry_cell_setting 'orthorhombic'
loop_
_space_group_symop_operation_xyz
x,y,z
-x,-y,z
-x,1/2+y,z
x,1/2-y,z
x,1/2+y,1/2+z
-x,1/2-y,1/2+z
-x,y,1/2+z
x,-y,1/2+z
loop_
_atom_site_type_symbol
_atom_site_label
_atom_site_fract_x
_atom_site_fract_y
_atom_site_fract_z
Si Si1 0.971680 0.750000 0.976560
Si Si2 0.599990 0.750000 0.022425
Si Si3 0.778881 0.894251 0.239302
Si Si4 0.455152 0.650950 0.174897
Si Si5 0.234673 0.039951 0.673386
Si Si6 0.053444 0.930899 0.376754
Si Si7 0.008734 0.126882 0.062824
Si Si8 0.722952 0.250000 0.305954
O O1 0.067868 0.810810 0.015271
O O2 0.899979 0.750000 0.861830
O O3 0.796607 0.750000 0.034431
O O4 0.519154 0.690443 0.079416
O O5 0.597472 0.750000 0.900919
O O6 0.608766 0.860307 0.247110
O O7 0.885660 0.900457 0.338320
O O8 0.759085 0.964692 0.188703
O O9 0.891755 0.857903 0.161163
O O10 0.392963 0.580744 0.150173
O O11 0.318158 0.690499 0.234762
O O12 0.169700 0.062573 0.782283
O O13 0.107088 0.069217 0.594231
O O14 0.123843 0.895150 0.471473
O O15 0.000000 0.000000 0.407206
#
# Coordination Sequence:
#
# PCOD9360931 Si02
#       8
#     4   4   8   8   8   8   8   4
#     4  10  20  38  59  81 109 157 195 229 285 347
#     4   9  21  39  55  81 113 153 189 226 282 343
#     4  10  20  37  57  83 117 152 187 230 299 355
#     4  11  20  37  61  82 118 153 185 240 289 343
#     4  10  22  34  57  90 111 144 195 241 285 346
#     4   9  19  36  56  80 112 149 188 236 289 339
#     4  11  20  38  59  79 116 151 191 244 288 336
#     4   9  21  37  56  80 110 154 190 229 283 338
#
# _framework density 22.301337
#
# number of rings (size 3 to 8) (size 9 to 14) (size 15 to 20)
#    0.462    1.538    1.538    3.692    0.000    2.462 
#    0.000    4.615    0.000    5.538    0.000    0.000 
#    0.000    0.000    0.000    0.000    0.000    0.000 
#
# Total GULP energy -144819.292716 kJ/mol
# GULP energy per Si atom -5569.972797 kJ/mol
# Density = 2.225058 g / cm^3
# Si number density = 22.301337 Si / 1000 Ang^3
#
#
#
# Elastic Constant Matrix: (Units=GPa)
#
#
# Indices 1 2 3 4 5 6 
#
# 1 37.2189 -17.3537 -9.5545 0.0000 0.0000 0.0000
# 2 -17.3537 66.1475 12.0707 0.0000 0.0000 0.0000
# 3 -9.5545 12.0707 77.6094 0.0000 0.0000 0.0000
# 4 0.0000 0.0000 0.0000 21.6108 0.0000 0.0000
# 5 0.0000 0.0000 0.0000 0.0000 0.7688 0.0000
# 6 0.0000 0.0000 0.0000 0.0000 0.0000 24.9857
#
#
#
# Elastic Compliance Matrix: (Units=1/GPa)
#
#
# Indices 1 2 3 4 5 6 
#
# 1 0.031128 0.007685 0.002637 0.000000 0.000000 0.000000
# 2 0.007685 0.017457 -0.001769 0.000000 0.000000 0.000000
# 3 0.002637 -0.001769 0.013485 0.000000 0.000000 0.000000
# 4 0.000000 0.000000 0.000000 0.046273 0.000000 0.000000
# 5 0.000000 0.000000 0.000000 0.000000 1.300784 0.000000
# 6 0.000000 0.000000 0.000000 0.000000 0.000000 0.040023
#
#
# Mechanical properties :
#
#
# Convention : Reuss Voigt Hill
#
# Bulk Modulus (GPa) = 12.63002 16.81120 14.72061
# Shear Modulus (GPa) = 3.42833 22.52728 12.97781
#
# Velocity S-wave (km/s) = 1.24121 3.18170 2.41494
# Velocity P-wave (km/s) = 2.78025 4.58827 3.79355
#
# Compressibility (1/GPa) = 0.07917645
#
# Stress axis : x y z
#
# Youngs Moduli (GPa) = 32.12505 57.28439 74.15763
#
# Poissons Ratio (x) = -0.44025 -0.19555
# Poissons Ratio (y) = -0.24689 0.13118
# Poissons Ratio (z) = -0.08471 0.10133
#
# Static dielectric constant tensor:
#      x y z
#    x 1.854570 0.000000 0.000000 
#    y 0.000000 1.931270 0.000000 
#    z 0.000000 0.000000 1.789870 
# 
# From -- ./inp_files/8584.got.cif
#   From: 2010.05.17/outbox.cif.g08.bks.cpg/sg39_5_cif.got.tgz:8584.got - 2010.06.03 18:22:40.
