data_PCOD9360339
_publ_section_title
;
Structure prediction by ZEFSAII (Michael W. Deem and Ramdas Pophale) SiO2 
 PCOD9360339
Probable space group: A B M 2
;
_chemical_formula_sum "Si O2"
_cell_formula_units_Z 48
_cell_length_a 14.546634
_cell_length_b 8.566563
_cell_length_c 21.123516
_cell_angle_alpha 90.000000
_cell_angle_beta 90.000000
_cell_angle_gamma 90.000000
_cell_volume 2632.299693
_symmetry_space_group_name_H-M "A B M 2"
_symmetry_group_IT_number 39
_symmetry_cell_setting 'orthorhombic'
loop_
_space_group_symop_operation_xyz
x,y,z
-x,-y,z
-x,1/2+y,z
x,1/2-y,z
x,1/2+y,1/2+z
-x,1/2-y,1/2+z
-x,y,1/2+z
x,-y,1/2+z
loop_
_atom_site_type_symbol
_atom_site_label
_atom_site_fract_x
_atom_site_fract_y
_atom_site_fract_z
Si Si1 0.102989 0.562560 0.142270
Si Si2 0.790962 0.940220 0.515057
Si Si3 0.599577 0.561922 0.568770
Si Si4 0.400012 0.563044 0.216490
Si Si5 0.104025 0.939063 0.888682
Si Si6 0.213190 0.562962 0.762818
O O1 0.102962 0.750000 0.144258
O O2 0.150530 0.512954 0.076591
O O3 0.160410 0.500570 0.201489
O O4 0.000000 0.500000 0.145392
O O5 0.789734 0.750000 0.513867
O O6 0.685937 0.991335 0.526884
O O7 0.840387 0.992250 0.450985
O O8 0.500000 0.500000 0.549048
O O9 0.597245 0.750000 0.567625
O O10 0.615017 0.515601 0.642515
O O11 0.500000 0.500000 0.235132
O O12 0.399331 0.750000 0.218701
O O13 0.317239 0.497292 0.258063
O O14 0.100891 0.750000 0.889459
O O15 0.158894 0.987891 0.825720
O O16 0.000000 0.000000 0.888691
O O17 0.213493 0.750000 0.761351
#
# Coordination Sequence:
#
# PCOD9360339 Si02
#       6
#     8   8   8   8   8   8
#     4  11  21  35  55  80 108 141 182 234 285 330
#     4   9  18  36  57  78 108 144 182 225 279 330
#     4   9  17  32  54  81 109 140 175 219 273 323
#     4  10  19  34  57  85 114 147 183 228 279 329
#     4  10  22  39  58  78 108 149 188 229 277 332
#     4  11  22  36  55  82 112 148 187 226 276 333
#
# _framework density 18.235005999999998
#
# number of rings (size 3 to 8) (size 9 to 14) (size 15 to 20)
#    0.000    2.000    1.667    2.500    0.000    3.333 
#    0.000    2.500    0.000    2.000    0.000    0.000 
#    0.000    0.000    0.000    0.000    0.000    0.000 
#
# Total GULP energy -134003.407402 kJ/mol
# GULP energy per Si atom -5583.475308 kJ/mol
# Density = 1.819350 g / cm^3
# Si number density = 18.235006 Si / 1000 Ang^3
#
#
#
# Elastic Constant Matrix: (Units=GPa)
#
#
# Indices 1 2 3 4 5 6 
#
# 1 199.1438 32.2002 95.7245 0.0000 0.0000 0.0000
# 2 32.2002 27.1972 28.7513 0.0000 0.0000 0.0000
# 3 95.7245 28.7513 143.4154 0.0000 0.0000 0.0000
# 4 0.0000 0.0000 0.0000 18.7966 0.0000 0.0000
# 5 0.0000 0.0000 0.0000 0.0000 34.1163 0.0000
# 6 0.0000 0.0000 0.0000 0.0000 0.0000 34.8449
#
#
#
# Elastic Compliance Matrix: (Units=1/GPa)
#
#
# Indices 1 2 3 4 5 6 
#
# 1 0.007852 -0.004766 -0.004285 0.000000 0.000000 0.000000
# 2 -0.004766 0.049550 -0.006752 0.000000 0.000000 0.000000
# 3 -0.004285 -0.006752 0.011187 0.000000 0.000000 0.000000
# 4 0.000000 0.000000 0.000000 0.053201 0.000000 0.000000
# 5 0.000000 0.000000 0.000000 0.000000 0.029312 0.000000
# 6 0.000000 0.000000 0.000000 0.000000 0.000000 0.028699
#
#
# Mechanical properties :
#
#
# Convention : Reuss Voigt Hill
#
# Bulk Modulus (GPa) = 27.04114 75.90091 51.47102
# Shear Modulus (GPa) = 22.34795 31.75693 27.05244
#
# Velocity S-wave (km/s) = 3.50459 4.17770 3.85586
# Velocity P-wave (km/s) = 5.58906 8.06133 6.93623
#
# Compressibility (1/GPa) = 0.03698069
#
# Stress axis : x y z
#
# Youngs Moduli (GPa) = 127.35439 20.18182 89.39100
#
# Poissons Ratio (x) = 0.09619 0.38308
# Poissons Ratio (y) = 0.60699 0.60359
# Poissons Ratio (z) = 0.54578 0.13627
#
# Static dielectric constant tensor:
#      x y z
#    x 1.609170 0.000000 0.000000 
#    y 0.000000 1.625040 0.000000 
#    z 0.000000 0.000000 1.614680 
# 
# From -- ./inp_files/12632.got.cif
#   From: 2010.05.17/outbox.cif.g08.bks.cpg/sg39_7_cif.got.tgz:12632.got - 2010.06.03 18:22:40.
