data_PCOD9360250
_publ_section_title
;
Structure prediction by ZEFSAII (Michael W. Deem and Ramdas Pophale) SiO2 
 PCOD9360250
Probable space group: A B M 2
;
_chemical_formula_sum "Si O2"
_cell_formula_units_Z 64
_cell_length_a 10.414488
_cell_length_b 16.471429
_cell_length_c 19.610411
_cell_angle_alpha 90.000000
_cell_angle_beta 90.000000
_cell_angle_gamma 90.000000
_cell_volume 3363.999312
_symmetry_space_group_name_H-M "A B M 2"
_symmetry_group_IT_number 39
_symmetry_cell_setting 'orthorhombic'
loop_
_space_group_symop_operation_xyz
x,y,z
-x,-y,z
-x,1/2+y,z
x,1/2-y,z
x,1/2+y,1/2+z
-x,1/2-y,1/2+z
-x,y,1/2+z
x,-y,1/2+z
loop_
_atom_site_type_symbol
_atom_site_label
_atom_site_fract_x
_atom_site_fract_y
_atom_site_fract_z
Si Si1 0.955630 0.840298 0.593050
Si Si2 0.500439 0.348374 0.527502
Si Si3 0.603282 0.939502 0.392890
Si Si4 0.281213 0.065076 0.612425
Si Si5 0.122518 0.445238 0.187087
Si Si6 0.010025 0.156725 0.940643
Si Si7 0.249246 0.556100 0.492903
Si Si8 0.818970 0.346878 0.819505
O O1 0.996031 0.750000 0.611000
O O2 0.820334 0.863630 0.626204
O O3 0.066108 0.899846 0.619998
O O4 0.932862 0.842671 0.511882
O O5 0.491760 0.250000 0.533467
O O6 0.448863 0.380952 0.453934
O O7 0.415090 0.396175 0.585414
O O8 0.646588 0.381934 0.526336
O O9 0.685265 0.885974 0.342305
O O10 0.500000 0.000000 0.359311
O O11 0.688574 0.005526 0.431970
O O12 0.249477 0.999674 0.672031
O O13 0.226427 0.013311 0.548716
O O14 0.145660 0.381001 0.246060
O O15 0.000000 0.500000 0.208033
O O16 0.050727 0.250000 0.927475
O O17 0.130308 0.102304 0.960581
O O18 0.923962 0.129278 0.877382
O O19 0.811763 0.250000 0.819998
#
# Coordination Sequence:
#
# PCOD9360250 Si02
#       8
#     8   8   8   8   8   8   8   8
#     4  10  19  34  56  81 113 146 184 242 308 361
#     4  10  19  34  57  87 120 151 191 250 307 356
#     4   9  20  35  56  83 113 153 197 244 302 359
#     4  10  19  34  54  80 111 150 197 236 294 365
#     4  10  22  37  55  82 116 159 199 249 308 369
#     4  10  20  32  54  88 116 148 191 242 304 363
#     4  10  19  33  55  85 121 150 187 248 307 358
#     4  11  23  38  58  86 119 157 206 254 305 375
#
# _framework density 19.024975000000001
#
# number of rings (size 3 to 8) (size 9 to 14) (size 15 to 20)
#    0.000    2.000    1.250    4.125    1.750    2.000 
#    0.000    1.250    0.000    0.000    0.000    0.000 
#    0.000    0.000    0.000    0.000    0.000    0.000 
#
# Total GULP energy -178182.570533 kJ/mol
# GULP energy per Si atom -5568.205329 kJ/mol
# Density = 1.898167 g / cm^3
# Si number density = 19.024975 Si / 1000 Ang^3
#
#
#
# Elastic Constant Matrix: (Units=GPa)
#
#
# Indices 1 2 3 4 5 6 
#
# 1 63.3817 53.5903 18.7233 0.0000 0.0000 0.0000
# 2 53.5903 108.1077 21.7998 0.0000 0.0000 0.0000
# 3 18.7233 21.7998 60.2751 0.0000 0.0000 0.0000
# 4 0.0000 0.0000 0.0000 32.8529 0.0000 0.0000
# 5 0.0000 0.0000 0.0000 0.0000 12.0416 0.0000
# 6 0.0000 0.0000 0.0000 0.0000 0.0000 19.0096
#
#
#
# Elastic Compliance Matrix: (Units=1/GPa)
#
#
# Indices 1 2 3 4 5 6 
#
# 1 0.028015 -0.013087 -0.003969 0.000000 0.000000 0.000000
# 2 -0.013087 0.016091 -0.001754 0.000000 0.000000 0.000000
# 3 -0.003969 -0.001754 0.018458 0.000000 0.000000 0.000000
# 4 0.000000 0.000000 0.000000 0.030439 0.000000 0.000000
# 5 0.000000 0.000000 0.000000 0.000000 0.083045 0.000000
# 6 0.000000 0.000000 0.000000 0.000000 0.000000 0.052605
#
#
# Mechanical properties :
#
#
# Convention : Reuss Voigt Hill
#
# Bulk Modulus (GPa) = 40.09127 46.66569 43.37848
# Shear Modulus (GPa) = 18.20899 21.95758 20.08329
#
# Velocity S-wave (km/s) = 3.09708 3.40096 3.25257
# Velocity P-wave (km/s) = 5.82305 6.32486 6.07914
#
# Compressibility (1/GPa) = 0.02494308
#
# Stress axis : x y z
#
# Youngs Moduli (GPa) = 35.69471 62.14535 54.17682
#
# Poissons Ratio (x) = 0.81331 0.21504
# Poissons Ratio (y) = 0.46714 0.09505
# Poissons Ratio (z) = 0.14168 0.10903
#
# Static dielectric constant tensor:
#      x y z
#    x 1.714350 0.000000 0.000000 
#    y 0.000000 1.677350 0.000000 
#    z 0.000000 0.000000 1.666010 
# 
# From -- ./inp_files/12386.got.cif
#   From: 2010.05.17/outbox.cif.g08.bks.cpg/sg39_7_cif.got.tgz:12386.got - 2010.06.03 18:22:40.
