data_PCOD9360179
_publ_section_title
;
Structure prediction by ZEFSAII (Michael W. Deem and Ramdas Pophale) SiO2 
 PCOD9360179
Probable space group: A B M 2
;
_chemical_formula_sum "Si O2"
_cell_formula_units_Z 40
_cell_length_a 12.287295
_cell_length_b 9.678528
_cell_length_c 14.446643
_cell_angle_alpha 90.000000
_cell_angle_beta 90.000000
_cell_angle_gamma 90.000000
_cell_volume 1718.037095
_symmetry_space_group_name_H-M "A B M 2"
_symmetry_group_IT_number 39
_symmetry_cell_setting 'orthorhombic'
loop_
_space_group_symop_operation_xyz
x,y,z
-x,-y,z
-x,1/2+y,z
x,1/2-y,z
x,1/2+y,1/2+z
-x,1/2-y,1/2+z
-x,y,1/2+z
x,-y,1/2+z
loop_
_atom_site_type_symbol
_atom_site_label
_atom_site_fract_x
_atom_site_fract_y
_atom_site_fract_z
Si Si1 0.285635 0.250000 0.795200
Si Si2 0.694100 0.250000 0.972274
Si Si3 0.813286 0.491610 0.171544
Si Si4 0.613785 0.970201 0.067019
Si Si5 0.531136 0.250000 0.417144
Si Si6 0.912160 0.750000 0.547065
Si Si7 0.905236 0.750000 0.916646
Si Si8 0.000000 0.000000 0.299302
O O1 0.250300 0.116405 0.738100
O O2 0.410003 0.250000 0.820057
O O3 0.222123 0.250000 0.894278
O O4 0.598217 0.250000 0.897790
O O5 0.662155 0.115126 0.030887
O O6 0.824153 0.250000 0.961380
O O7 0.719329 0.581372 0.123122
O O8 0.880694 0.387833 0.103501
O O9 0.904812 0.561404 0.234569
O O10 0.500000 0.000000 0.120297
O O11 0.572525 0.877579 0.981118
O O12 0.036607 0.750000 0.515277
O O13 0.949424 0.616427 0.863523
#
# Coordination Sequence:
#
# PCOD9360179 Si02
#       8
#     4   4   8   8   4   4   4   4
#     4   9  20  37  51  75 113 143 162 209 277 315
#     4   8  17  33  52  75 106 136 166 211 262 302
#     4   9  19  35  54  75 107 142 170 208 267 316
#     4   9  18  34  55  79 105 137 176 216 253 305
#     4  10  19  32  56  82 103 131 178 222 250 297
#     4   9  18  35  58  77  99 141 182 209 251 317
#     4  10  22  37  53  75 107 139 172 217 262 307
#     4  10  22  38  52  76 112 138 166 220 270 304
#
# _framework density 23.282384
#
# number of rings (size 3 to 8) (size 9 to 14) (size 15 to 20)
#    0.000    2.800    0.000    1.200    0.000    9.600 
#    0.000    5.000    0.000    1.200    0.000    0.000 
#    0.000    0.000    0.000    0.000    0.000    0.000 
#
# Total GULP energy -111484.774714 kJ/mol
# GULP energy per Si atom -5574.238736 kJ/mol
# Density = 2.322939 g / cm^3
# Si number density = 23.282384 Si / 1000 Ang^3
#
#
#
# Elastic Constant Matrix: (Units=GPa)
#
#
# Indices 1 2 3 4 5 6 
#
# 1 57.9246 -17.5751 13.1914 0.0000 0.0000 0.0000
# 2 -17.5751 69.2614 -13.5615 0.0000 0.0000 0.0000
# 3 13.1914 -13.5615 41.0077 0.0000 0.0000 0.0000
# 4 0.0000 0.0000 0.0000 -16.9034 0.0000 0.0000
# 5 0.0000 0.0000 0.0000 0.0000 49.6065 0.0000
# 6 0.0000 0.0000 0.0000 0.0000 0.0000 -549.6997
#
#
#
# Elastic Compliance Matrix: (Units=1/GPa)
#
#
# Indices 1 2 3 4 5 6 
#
# 1 0.019613 0.004001 -0.004986 0.000000 0.000000 0.000000
# 2 0.004001 0.016254 0.004088 0.000000 0.000000 0.000000
# 3 -0.004986 0.004088 0.027342 0.000000 0.000000 0.000000
# 4 0.000000 0.000000 0.000000 -0.059160 0.000000 0.000000
# 5 0.000000 0.000000 0.000000 0.000000 0.020159 0.000000
# 6 0.000000 0.000000 0.000000 0.000000 0.000000 -0.001819
#
#
# Mechanical properties :
#
#
# Convention : Reuss Voigt Hill
#
# Bulk Modulus (GPa) = 14.40637 14.70038 14.55337
# Shear Modulus (GPa) = 127.15896 -90.99006 18.08445
#
# Velocity S-wave (km/s) = 7.39828 -6.25827 2.79004
# Velocity P-wave (km/s) = 8.89834 6.77448 4.07964
#
# Compressibility (1/GPa) = 0.06941375
#
# Stress axis : x y z
#
# Youngs Moduli (GPa) = 50.98619 61.52455 36.57428
#
# Poissons Ratio (x) = -0.24613 0.18237
# Poissons Ratio (y) = -0.20397 -0.14953
# Poissons Ratio (z) = 0.25423 -0.25153
#
# Static dielectric constant tensor:
#      x y z
#    x 1.941330 0.000000 0.000000 
#    y 0.000000 1.868250 0.000000 
#    z 0.000000 0.000000 1.915820 
# 
# From -- ./inp_files/9110.got.cif
#   From: 2010.05.17/outbox.cif.g08.bks.cpg/sg39_5_cif.got.tgz:9110.got - 2010.06.03 18:22:40.
