data_PCOD9360814
_publ_section_title
;
Structure prediction by ZEFSAII (Michael W. Deem and Ramdas Pophale) SiO2 
 PCOD9360814
Probable space group: A B M 2
;
_chemical_formula_sum "Si O2"
_cell_formula_units_Z 40
_cell_length_a 9.698389
_cell_length_b 8.590098
_cell_length_c 26.878902
_cell_angle_alpha 90.000000
_cell_angle_beta 90.000000
_cell_angle_gamma 90.000000
_cell_volume 2239.284335
_symmetry_space_group_name_H-M "A B M 2"
_symmetry_group_IT_number 39
_symmetry_cell_setting 'orthorhombic'
loop_
_space_group_symop_operation_xyz
x,y,z
-x,-y,z
-x,1/2+y,z
x,1/2-y,z
x,1/2+y,1/2+z
-x,1/2-y,1/2+z
-x,y,1/2+z
x,-y,1/2+z
loop_
_atom_site_type_symbol
_atom_site_label
_atom_site_fract_x
_atom_site_fract_y
_atom_site_fract_z
Si Si1 0.655290 0.062432 0.013960
Si Si2 0.844778 0.563861 0.212709
Si Si3 0.343298 0.063037 0.404620
Si Si4 0.845462 0.062401 0.105478
Si Si5 0.656456 0.935733 0.800880
O O1 0.648491 0.250000 0.014826
O O2 0.749243 0.011586 0.059852
O O3 0.500000 0.000000 0.018703
O O4 0.713662 0.019340 0.959143
O O5 0.847822 0.750000 0.212547
O O6 0.796904 0.502654 0.158690
O O7 0.747047 0.501992 0.256144
O O8 0.000000 0.500000 0.219788
O O9 0.343973 0.250000 0.399913
O O10 0.500000 0.000000 0.406072
O O11 0.283414 0.990606 0.354325
O O12 0.848163 0.250000 0.107707
O O13 0.000000 0.000000 0.097907
O O14 0.652314 0.750000 0.799301
O O15 0.500000 0.000000 0.797173
#
# Coordination Sequence:
#
# PCOD9360814 Si02
#       5
#     8   8   8   8   8
#     4   9  19  33  53  78 106 136 172 214 258 306
#     4  11  22  38  57  78 104 139 176 217 265 317
#     4   9  16  30  50  75 105 138 171 211 259 309
#     4  10  20  36  54  76 104 138 175 214 258 311
#     4  11  21  35  55  81 108 139 176 218 262 311
#
# _framework density 17.862850000000002
#
# number of rings (size 3 to 8) (size 9 to 14) (size 15 to 20)
#    0.000    2.000    0.000    7.200    0.000    3.200 
#    0.000    3.000    0.000    2.400    0.000    0.000 
#    0.000    0.000    0.000    0.000    0.000    0.000 
#
# Total GULP energy -111577.578651 kJ/mol
# GULP energy per Si atom -5578.878933 kJ/mol
# Density = 1.782219 g / cm^3
# Si number density = 17.862850 Si / 1000 Ang^3
#
#
#
# Elastic Constant Matrix: (Units=GPa)
#
#
# Indices 1 2 3 4 5 6 
#
# 1 49.2300 28.8197 83.1724 0.0000 0.0000 0.0000
# 2 28.8197 116.1060 68.1816 0.0000 0.0000 0.0000
# 3 83.1724 68.1816 224.6586 0.0000 0.0000 0.0000
# 4 0.0000 0.0000 0.0000 32.0213 0.0000 0.0000
# 5 0.0000 0.0000 0.0000 0.0000 -60.6084 0.0000
# 6 0.0000 0.0000 0.0000 0.0000 0.0000 26.7098
#
#
#
# Elastic Compliance Matrix: (Units=1/GPa)
#
#
# Indices 1 2 3 4 5 6 
#
# 1 0.054633 -0.002049 -0.019604 0.000000 0.000000 0.000000
# 2 -0.002049 0.010558 -0.002446 0.000000 0.000000 0.000000
# 3 -0.019604 -0.002446 0.012451 0.000000 0.000000 0.000000
# 4 0.000000 0.000000 0.000000 0.031229 0.000000 0.000000
# 5 0.000000 0.000000 0.000000 0.000000 -0.016499 0.000000
# 6 0.000000 0.000000 0.000000 0.000000 0.000000 0.037439
#
#
# Mechanical properties :
#
#
# Convention : Reuss Voigt Hill
#
# Bulk Modulus (GPa) = 33.96216 83.37135 58.66676
# Shear Modulus (GPa) = 26.62085 13.61260 20.11673
#
# Velocity S-wave (km/s) = 3.86462 2.76354 3.35950
# Velocity P-wave (km/s) = 6.24241 7.54700 6.92549
#
# Compressibility (1/GPa) = 0.02944453
#
# Stress axis : x y z
#
# Youngs Moduli (GPa) = 18.30403 94.71932 80.31316
#
# Poissons Ratio (x) = 0.19404 1.57448
# Poissons Ratio (y) = 0.03750 0.19642
# Poissons Ratio (z) = 0.35884 0.23165
#
# Static dielectric constant tensor:
#      x y z
#    x 1.540490 0.000000 0.000000 
#    y 0.000000 1.600690 0.000000 
#    z 0.000000 0.000000 1.650130 
# 
# From -- ./inp_files/14361.got.cif
#   From: 2010.05.17/outbox.cif.g08.bks.cpg/sg39_8_cif.got.tgz:14361.got - 2010.06.03 18:22:40.
