data_PCOD9360804
_publ_section_title
;
Structure prediction by ZEFSAII (Michael W. Deem and Ramdas Pophale) SiO2 
 PCOD9360804
Probable space group: A B M 2
;
_chemical_formula_sum "Si O2"
_cell_formula_units_Z 36
_cell_length_a 6.942620
_cell_length_b 28.027060
_cell_length_c 8.070493
_cell_angle_alpha 90.000000
_cell_angle_beta 90.000000
_cell_angle_gamma 90.000000
_cell_volume 1570.366433
_symmetry_space_group_name_H-M "A B M 2"
_symmetry_group_IT_number 39
_symmetry_cell_setting 'orthorhombic'
loop_
_space_group_symop_operation_xyz
x,y,z
-x,-y,z
-x,1/2+y,z
x,1/2-y,z
x,1/2+y,1/2+z
-x,1/2-y,1/2+z
-x,y,1/2+z
x,-y,1/2+z
loop_
_atom_site_type_symbol
_atom_site_label
_atom_site_fract_x
_atom_site_fract_y
_atom_site_fract_z
Si Si1 0.375284 0.750000 0.202150
Si Si2 0.605704 0.651817 0.889601
Si Si3 0.198592 0.851173 0.751586
Si Si4 0.205826 0.250000 0.328183
Si Si5 0.143812 0.427248 0.758469
Si Si6 0.000000 0.500000 0.505976
O O1 0.337157 0.798226 0.304082
O O2 0.610049 0.750000 0.202796
O O3 0.284330 0.750000 0.018311
O O4 0.373939 0.647905 0.883646
O O5 0.682108 0.608489 0.778550
O O6 0.703162 0.648033 0.069837
O O7 0.102202 0.799527 0.786677
O O8 0.046360 0.893540 0.766058
O O9 0.127845 0.461973 0.603848
O O10 0.138558 0.465744 0.904028
#
# Coordination Sequence:
#
# PCOD9360804 Si02
#       6
#     4   8   8   4   8   4
#     4  10  20  35  60  93 133 165 201 252 302 369
#     4  11  23  40  66  96 129 167 206 252 310 378
#     4  11  23  40  66  96 129 167 206 252 310 378
#     4  10  20  35  60  93 133 165 201 252 302 369
#     4  11  24  45  68  88 126 165 210 263 318 368
#     4  10  24  46  66  88 124 164 208 274 318 356
#
# _framework density 22.924585
#
# number of rings (size 3 to 8) (size 9 to 14) (size 15 to 20)
#    0.000    1.333    2.222    6.000    6.222    0.889 
#    0.000    6.667    0.000    0.000    0.000    0.000 
#    0.000    0.000    0.000    0.000    0.000    0.000 
#
# Total GULP energy -100626.430474 kJ/mol
# GULP energy per Si atom -5590.357249 kJ/mol
# Density = 2.287241 g / cm^3
# Si number density = 22.924585 Si / 1000 Ang^3
#
#
#
# Elastic Constant Matrix: (Units=GPa)
#
#
# Indices 1 2 3 4 5 6 
#
# 1 76.0331 39.3046 -7.7290 0.0000 0.0000 0.0000
# 2 39.3046 198.8392 34.1801 0.0000 0.0000 0.0000
# 3 -7.7290 34.1801 76.6984 0.0000 0.0000 0.0000
# 4 0.0000 0.0000 0.0000 80.1726 0.0000 0.0000
# 5 0.0000 0.0000 0.0000 0.0000 75.2727 0.0000
# 6 0.0000 0.0000 0.0000 0.0000 0.0000 19.3395
#
#
#
# Elastic Compliance Matrix: (Units=1/GPa)
#
#
# Indices 1 2 3 4 5 6 
#
# 1 0.015314 -0.003565 0.003132 0.000000 0.000000 0.000000
# 2 -0.003565 0.006277 -0.003156 0.000000 0.000000 0.000000
# 3 0.003132 -0.003156 0.014760 0.000000 0.000000 0.000000
# 4 0.000000 0.000000 0.000000 0.012473 0.000000 0.000000
# 5 0.000000 0.000000 0.000000 0.000000 0.013285 0.000000
# 6 0.000000 0.000000 0.000000 0.000000 0.000000 0.051708
#
#
# Mechanical properties :
#
#
# Convention : Reuss Voigt Hill
#
# Bulk Modulus (GPa) = 34.28051 53.67578 43.97815
# Shear Modulus (GPa) = 38.24978 54.01129 46.13053
#
# Velocity S-wave (km/s) = 4.08917 4.85917 4.49070
# Velocity P-wave (km/s) = 6.10582 7.41262 6.79073
#
# Compressibility (1/GPa) = 0.02917109
#
# Stress axis : x y z
#
# Youngs Moduli (GPa) = 65.30099 159.32300 67.74910
#
# Poissons Ratio (x) = 0.56806 -0.21220
# Poissons Ratio (y) = 0.23283 0.21384
# Poissons Ratio (z) = -0.20453 0.50289
#
# Static dielectric constant tensor:
#      x y z
#    x 1.833930 0.000000 0.000000 
#    y 0.000000 1.805660 0.000000 
#    z 0.000000 0.000000 1.948410 
# 
# From -- ./inp_files/2184.got.cif
#   From: 2010.05.17/outbox.cif.g08.bks.cpg/sg39_2_cif.got.tgz:2184.got - 2010.06.03 18:22:40.
