data_PCOD9360609
_publ_section_title
;
Structure prediction by ZEFSAII (Michael W. Deem and Ramdas Pophale) SiO2 
 PCOD9360609
Probable space group: A B M 2
;
_chemical_formula_sum "Si O2"
_cell_formula_units_Z 56
_cell_length_a 24.610932
_cell_length_b 8.147330
_cell_length_c 14.821539
_cell_angle_alpha 90.000000
_cell_angle_beta 90.000000
_cell_angle_gamma 90.000000
_cell_volume 2971.916950
_symmetry_space_group_name_H-M "A B M 2"
_symmetry_group_IT_number 39
_symmetry_cell_setting 'orthorhombic'
loop_
_space_group_symop_operation_xyz
x,y,z
-x,-y,z
-x,1/2+y,z
x,1/2-y,z
x,1/2+y,1/2+z
-x,1/2-y,1/2+z
-x,y,1/2+z
x,-y,1/2+z
loop_
_atom_site_type_symbol
_atom_site_label
_atom_site_fract_x
_atom_site_fract_y
_atom_site_fract_z
Si Si1 0.059660 0.946462 0.668400
Si Si2 0.351512 0.051882 0.156213
Si Si3 0.059458 0.051955 0.961526
Si Si4 0.732764 0.948811 0.802500
Si Si5 0.143993 0.946716 0.315512
Si Si6 0.437958 0.446201 0.303916
Si Si7 0.645788 0.947592 0.950209
O O1 0.062004 0.750000 0.669933
O O2 0.064472 0.004704 0.564854
O O3 0.108020 0.015094 0.728299
O O4 0.000000 0.000000 0.701533
O O5 0.353928 0.250000 0.153290
O O6 0.401852 0.993687 0.218665
O O7 0.297767 0.003305 0.211598
O O8 0.353009 0.991161 0.053152
O O9 0.060787 0.250000 0.961526
O O10 0.108263 0.989957 0.899411
O O11 0.000000 0.000000 0.927641
O O12 0.732942 0.750000 0.803438
O O13 0.794537 0.009253 0.809188
O O14 0.695926 0.005234 0.887330
O O15 0.147728 0.750000 0.325269
O O16 0.500000 0.500000 0.298429
O O17 0.435719 0.250000 0.303868
O O18 0.408117 0.506830 0.394556
O O19 0.648961 0.750000 0.953815
#
# Coordination Sequence:
#
# PCOD9360609 Si02
#       7
#     8   8   8   8   8   8   8
#     4  10  20  34  52  74  99 130 165 206 254 305
#     4   9  19  35  55  77 103 135 171 209 250 295
#     4   9  19  34  51  71  98 129 163 202 249 302
#     4   9  19  34  52  74 102 134 169 209 252 296
#     4  10  20  34  51  74 102 132 166 206 251 301
#     4  10  20  34  52  78 109 137 168 209 250 294
#     4   9  18  35  56  76 101 137 174 209 252 299
#
# _framework density 18.843057000000002
#
# number of rings (size 3 to 8) (size 9 to 14) (size 15 to 20)
#    0.000    2.571    0.000    1.286    0.000    5.714 
#    0.000    4.286    0.000    0.000    0.000    0.000 
#    0.000    0.000    0.000    0.000    0.000    0.000 
#
# Total GULP energy -156205.242873 kJ/mol
# GULP energy per Si atom -5578.758674 kJ/mol
# Density = 1.880017 g / cm^3
# Si number density = 18.843057 Si / 1000 Ang^3
#
#
#
# Elastic Constant Matrix: (Units=GPa)
#
#
# Indices 1 2 3 4 5 6 
#
# 1 177.7326 3.0580 83.7687 0.0000 0.0000 0.0000
# 2 3.0580 3.4365 8.0808 0.0000 0.0000 0.0000
# 3 83.7687 8.0808 152.5433 0.0000 0.0000 0.0000
# 4 0.0000 0.0000 0.0000 13.6272 0.0000 0.0000
# 5 0.0000 0.0000 0.0000 0.0000 19.9130 0.0000
# 6 0.0000 0.0000 0.0000 0.0000 0.0000 24.4119
#
#
#
# Elastic Compliance Matrix: (Units=1/GPa)
#
#
# Indices 1 2 3 4 5 6 
#
# 1 0.007628 0.003498 -0.004374 0.000000 0.000000 0.000000
# 2 0.003498 0.333999 -0.019614 0.000000 0.000000 0.000000
# 3 -0.004374 -0.019614 0.009997 0.000000 0.000000 0.000000
# 4 0.000000 0.000000 0.000000 0.073383 0.000000 0.000000
# 5 0.000000 0.000000 0.000000 0.000000 0.050219 0.000000
# 6 0.000000 0.000000 0.000000 0.000000 0.000000 0.040964
#
#
# Mechanical properties :
#
#
# Convention : Reuss Voigt Hill
#
# Bulk Modulus (GPa) = 3.21913 58.16971 30.69442
# Shear Modulus (GPa) = 7.56755 27.51075 17.53915
#
# Velocity S-wave (km/s) = 2.00619 3.82513 3.05421
# Velocity P-wave (km/s) = 2.66055 7.10257 5.36307
#
# Compressibility (1/GPa) = 0.31064278
#
# Stress axis : x y z
#
# Youngs Moduli (GPa) = 131.09870 2.99402 100.03449
#
# Poissons Ratio (x) = -0.01047 0.43756
# Poissons Ratio (y) = -0.45854 1.96206
# Poissons Ratio (z) = 0.57344 0.05872
#
# Static dielectric constant tensor:
#      x y z
#    x 1.635840 0.000000 0.000000 
#    y 0.000000 1.661320 0.000000 
#    z 0.000000 0.000000 1.659520 
# 
# From -- ./inp_files/10340.got.cif
#   From: 2010.05.17/outbox.cif.g08.bks.cpg/sg39_6_cif.got.tgz:10340.got - 2010.06.03 18:22:40.
