data_PCOD9360105
_publ_section_title
;
Structure prediction by ZEFSAII (Michael W. Deem and Ramdas Pophale) SiO2 
 PCOD9360105
Probable space group: A B M 2
;
_chemical_formula_sum "Si O2"
_cell_formula_units_Z 60
_cell_length_a 13.824349
_cell_length_b 29.191113
_cell_length_c 9.234026
_cell_angle_alpha 90.000000
_cell_angle_beta 90.000000
_cell_angle_gamma 90.000000
_cell_volume 3726.373960
_symmetry_space_group_name_H-M "A B M 2"
_symmetry_group_IT_number 39
_symmetry_cell_setting 'orthorhombic'
loop_
_space_group_symop_operation_xyz
x,y,z
-x,-y,z
-x,1/2+y,z
x,1/2-y,z
x,1/2+y,1/2+z
-x,1/2-y,1/2+z
-x,y,1/2+z
x,-y,1/2+z
loop_
_atom_site_type_symbol
_atom_site_label
_atom_site_fract_x
_atom_site_fract_y
_atom_site_fract_z
Si Si1 0.579505 0.695008 0.012360
Si Si2 0.000000 0.000000 0.988185
Si Si3 0.091293 0.365708 0.325232
Si Si4 0.383662 0.305608 0.675420
Si Si5 0.812138 0.640607 0.621965
Si Si6 0.785373 0.303503 0.610250
Si Si7 0.081000 0.301583 0.835762
Si Si8 0.067070 0.937160 0.241252
O O1 0.583352 0.750000 0.024164
O O2 0.477016 0.681975 0.079483
O O3 0.675082 0.679403 0.098432
O O4 0.590910 0.684945 0.842964
O O5 0.058790 0.967098 0.096155
O O6 0.933350 0.969718 0.881323
O O7 0.160055 0.374983 0.461040
O O8 0.149712 0.335789 0.209472
O O9 0.003824 0.334605 0.385320
O O10 0.033633 0.408342 0.256348
O O11 0.363918 0.250000 0.661207
O O12 0.293143 0.337134 0.632650
O O13 0.881800 0.681039 0.681178
O O14 0.844392 0.598376 0.725629
O O15 0.788024 0.250000 0.659358
O O16 0.830892 0.303773 0.449033
O O17 0.045469 0.250000 0.827449
#
# Coordination Sequence:
#
# PCOD9360105 Si02
#       8
#     8   4   8   8   8   8   8   8
#     4   9  19  34  49  69  96 141 193 232 265 300
#     4  10  20  38  60  74 108 140 168 196 266 328
#     4  11  22  31  47  77 108 138 174 216 251 311
#     4  10  20  34  52  71 103 144 186 232 271 304
#     4  11  21  33  50  76 105 135 175 220 265 310
#     4  10  20  33  48  69 105 149 189 223 258 301
#     4  10  19  32  46  65 102 148 183 211 251 302
#     4  10  21  37  55  82 106 139 163 212 254 327
#
# _framework density 16.101444000000001
#
# number of rings (size 3 to 8) (size 9 to 14) (size 15 to 20)
#    0.000    1.867    2.667    2.400    3.733    3.200 
#    0.000    0.000    0.000    0.000    0.000    0.000 
#    0.000   18.133    0.000    0.000    0.000    0.000 
#
# Total GULP energy -167191.538134 kJ/mol
# GULP energy per Si atom -5573.051271 kJ/mol
# Density = 1.606480 g / cm^3
# Si number density = 16.101444 Si / 1000 Ang^3
#
#
#
# Elastic Constant Matrix: (Units=GPa)
#
#
# Indices 1 2 3 4 5 6 
#
# 1 113.2355 36.6952 35.6673 0.0000 0.0000 0.0000
# 2 36.6952 70.9013 31.6775 0.0000 0.0000 0.0000
# 3 35.6673 31.6775 68.0584 0.0000 0.0000 0.0000
# 4 0.0000 0.0000 0.0000 19.3068 0.0000 0.0000
# 5 0.0000 0.0000 0.0000 0.0000 21.3222 0.0000
# 6 0.0000 0.0000 0.0000 0.0000 0.0000 14.0650
#
#
#
# Elastic Compliance Matrix: (Units=1/GPa)
#
#
# Indices 1 2 3 4 5 6 
#
# 1 0.011448 -0.004096 -0.004093 0.000000 0.000000 0.000000
# 2 -0.004096 0.019273 -0.006824 0.000000 0.000000 0.000000
# 3 -0.004093 -0.006824 0.020014 0.000000 0.000000 0.000000
# 4 0.000000 0.000000 0.000000 0.051795 0.000000 0.000000
# 5 0.000000 0.000000 0.000000 0.000000 0.046900 0.000000
# 6 0.000000 0.000000 0.000000 0.000000 0.000000 0.071098
#
#
# Mechanical properties :
#
#
# Convention : Reuss Voigt Hill
#
# Bulk Modulus (GPa) = 48.28760 51.14168 49.71464
# Shear Modulus (GPa) = 19.42074 20.81581 20.11828
#
# Velocity S-wave (km/s) = 3.47673 3.59944 3.53862
# Velocity P-wave (km/s) = 6.79497 7.00755 6.90208
#
# Compressibility (1/GPa) = 0.02070925
#
# Stress axis : x y z
#
# Youngs Moduli (GPa) = 87.35342 51.88645 49.96434
#
# Poissons Ratio (x) = 0.21254 0.20450
# Poissons Ratio (y) = 0.35782 0.34094
# Poissons Ratio (z) = 0.35752 0.35406
#
# Static dielectric constant tensor:
#      x y z
#    x 1.546140 0.000000 0.000000 
#    y 0.000000 1.547750 0.000000 
#    z 0.000000 0.000000 1.562450 
# 
# From -- ./inp_files/2871.got.cif
#   From: 2010.05.17/outbox.cif.g08.bks.cpg/sg39_2_cif.got.tgz:2871.got - 2010.06.03 18:22:40.
