data_PCOD9360107
_publ_section_title
;
Structure prediction by ZEFSAII (Michael W. Deem and Ramdas Pophale) SiO2 
 PCOD9360107
Probable space group: A B M 2
;
_chemical_formula_sum "Si O2"
_cell_formula_units_Z 56
_cell_length_a 15.627066
_cell_length_b 8.776650
_cell_length_c 26.219362
_cell_angle_alpha 90.000000
_cell_angle_beta 90.000000
_cell_angle_gamma 90.000000
_cell_volume 3596.071729
_symmetry_space_group_name_H-M "A B M 2"
_symmetry_group_IT_number 39
_symmetry_cell_setting 'orthorhombic'
loop_
_space_group_symop_operation_xyz
x,y,z
-x,-y,z
-x,1/2+y,z
x,1/2-y,z
x,1/2+y,1/2+z
-x,1/2-y,1/2+z
-x,y,1/2+z
x,-y,1/2+z
loop_
_atom_site_type_symbol
_atom_site_label
_atom_site_fract_x
_atom_site_fract_y
_atom_site_fract_z
Si Si1 0.225609 0.065447 0.089650
Si Si2 0.096096 0.433781 0.507961
Si Si3 0.412860 0.575944 0.582850
Si Si4 0.903589 0.433922 0.783572
Si Si5 0.589060 0.074115 0.706903
Si Si6 0.770602 0.067989 0.203096
Si Si7 0.904823 0.067357 0.896085
O O1 0.226176 0.250000 0.092004
O O2 0.319440 0.011471 0.069967
O O3 0.153457 0.005174 0.052038
O O4 0.214598 0.001415 0.146709
O O5 0.093511 0.250000 0.512418
O O6 0.132419 0.475500 0.451354
O O7 0.000000 0.500000 0.511238
O O8 0.500000 0.500000 0.564609
O O9 0.414729 0.750000 0.566156
O O10 0.414284 0.572903 0.644849
O O11 0.906763 0.250000 0.779223
O O12 0.841664 0.502924 0.741213
O O13 0.868984 0.475528 0.840560
O O14 0.000000 0.500000 0.778805
O O15 0.595257 0.250000 0.722890
O O16 0.500000 0.000000 0.724733
O O17 0.675596 0.985054 0.720332
O O18 0.774313 0.250000 0.200664
O O19 0.910532 0.250000 0.896137
O O20 0.000000 0.000000 0.896290
#
# Coordination Sequence:
#
# PCOD9360107 Si02
#       7
#     8   8   8   8   8   8   8
#     4  10  20  33  46  66  95 126 156 189 228 275
#     4  10  19  32  49  70  93 121 154 190 230 274
#     4   8  15  26  42  62  86 114 147 183 221 261
#     4  10  19  33  50  69  93 122 154 192 233 277
#     4   9  16  28  45  66  91 121 154 191 230 272
#     4  11  21  32  46  68  96 127 159 192 230 278
#     4   8  16  30  49  69  89 113 148 191 234 273
#
# _framework density 15.572547999999999
#
# number of rings (size 3 to 8) (size 9 to 14) (size 15 to 20)
#    0.000    2.571    0.000    3.857    0.000    5.714 
#    0.000    2.857    0.000    0.000    0.000    1.000 
#    0.000    2.286    0.000    0.000    0.000    0.000 
#
# Total GULP energy -155867.970287 kJ/mol
# GULP energy per Si atom -5566.713225 kJ/mol
# Density = 1.553710 g / cm^3
# Si number density = 15.572548 Si / 1000 Ang^3
#
#
#
# Elastic Constant Matrix: (Units=GPa)
#
#
# Indices 1 2 3 4 5 6 
#
# 1 109.7299 47.2140 66.6217 0.0000 0.0000 0.0000
# 2 47.2140 81.6572 41.9310 0.0000 0.0000 0.0000
# 3 66.6217 41.9310 93.9969 0.0000 0.0000 0.0000
# 4 0.0000 0.0000 0.0000 12.3377 0.0000 0.0000
# 5 0.0000 0.0000 0.0000 0.0000 -2.0353 0.0000
# 6 0.0000 0.0000 0.0000 0.0000 0.0000 26.7101
#
#
#
# Elastic Compliance Matrix: (Units=1/GPa)
#
#
# Indices 1 2 3 4 5 6 
#
# 1 0.017346 -0.004821 -0.010144 0.000000 0.000000 0.000000
# 2 -0.004821 0.017225 -0.004267 0.000000 0.000000 0.000000
# 3 -0.010144 -0.004267 0.019732 0.000000 0.000000 0.000000
# 4 0.000000 0.000000 0.000000 0.081052 0.000000 0.000000
# 5 0.000000 0.000000 0.000000 0.000000 -0.491319 0.000000
# 6 0.000000 0.000000 0.000000 0.000000 0.000000 0.037439
#
#
# Mechanical properties :
#
#
# Convention : Reuss Voigt Hill
#
# Bulk Modulus (GPa) = 63.13348 66.32416 64.72882
# Shear Modulus (GPa) = -18.19630 16.04364 -1.07633
#
# Velocity S-wave (km/s) = -3.42202 3.21324 -0.83227
# Velocity P-wave (km/s) = 5.00159 7.51328 6.38221
#
# Compressibility (1/GPa) = 0.01583946
#
# Stress axis : x y z
#
# Youngs Moduli (GPa) = 57.64890 58.05602 50.67937
#
# Poissons Ratio (x) = 0.27987 0.51409
# Poissons Ratio (y) = 0.27791 0.21625
# Poissons Ratio (z) = 0.58479 0.24773
#
# Static dielectric constant tensor:
#      x y z
#    x 1.514010 0.000000 0.000000 
#    y 0.000000 1.529080 0.000000 
#    z 0.000000 0.000000 1.522900 
# 
# From -- ./inp_files/14774.got.cif
#   From: 2010.05.17/outbox.cif.g08.bks.cpg/sg39_8_cif.got.tgz:14774.got - 2010.06.03 18:22:40.
