data_PCOD9360005
_publ_section_title
;
Structure prediction by ZEFSAII (Michael W. Deem and Ramdas Pophale) SiO2 
 PCOD9360005
Probable space group: A B M 2
;
_chemical_formula_sum "Si O2"
_cell_formula_units_Z 64
_cell_length_a 12.182326
_cell_length_b 17.356023
_cell_length_c 14.740171
_cell_angle_alpha 90.000000
_cell_angle_beta 90.000000
_cell_angle_gamma 90.000000
_cell_volume 3116.613560
_symmetry_space_group_name_H-M "A B M 2"
_symmetry_group_IT_number 39
_symmetry_cell_setting 'orthorhombic'
loop_
_space_group_symop_operation_xyz
x,y,z
-x,-y,z
-x,1/2+y,z
x,1/2-y,z
x,1/2+y,1/2+z
-x,1/2-y,1/2+z
-x,y,1/2+z
x,-y,1/2+z
loop_
_atom_site_type_symbol
_atom_site_label
_atom_site_fract_x
_atom_site_fract_y
_atom_site_fract_z
Si Si1 0.430338 0.609809 0.848000
Si Si2 0.355959 0.162197 0.534834
Si Si3 0.671075 0.448386 0.367792
Si Si4 0.131689 0.917519 0.094823
Si Si5 0.222664 0.925858 0.559659
Si Si6 0.960100 0.662396 0.974227
Si Si7 0.455415 0.412202 0.153454
Si Si8 0.849563 0.158450 0.280829
O O1 0.355683 0.533563 0.832839
O O2 0.550821 0.586974 0.885087
O O3 0.454528 0.636518 0.746392
O O4 0.372590 0.657722 0.926334
O O5 0.343269 0.250000 0.563431
O O6 0.250672 0.115165 0.567084
O O7 0.461594 0.124888 0.582136
O O8 0.736072 0.456020 0.461625
O O9 0.741260 0.392829 0.302745
O O10 0.100280 0.875265 0.188442
O O11 0.147293 0.008751 0.104759
O O12 0.049587 0.895121 0.014371
O O13 0.149381 0.852364 0.533997
O O14 0.332303 0.913203 0.616033
O O15 0.998946 0.750000 0.984577
O O16 0.926915 0.649426 0.869451
O O17 0.500000 0.500000 0.169742
O O18 0.825508 0.250000 0.272467
#
# Coordination Sequence:
#
# PCOD9360005 Si02
#       8
#     8   8   8   8   8   8   8   8
#     4  11  21  37  61  91 130 171 203 254 318 371
#     4  12  26  40  63  97 131 170 210 259 322 379
#     4  10  18  37  61  90 127 164 208 252 308 374
#     4  12  22  43  68  94 131 164 215 267 321 382
#     4  11  22  39  68  94 126 169 216 259 317 386
#     4  10  24  45  65  92 127 165 213 271 324 373
#     4  12  21  39  67  93 129 169 207 259 312 379
#     4  10  22  40  67  95 121 167 218 262 319 379
#
# _framework density 20.535108999999999
#
# number of rings (size 3 to 8) (size 9 to 14) (size 15 to 20)
#    0.000    1.000    5.000    3.000    0.000    1.500 
#    2.250    2.500    0.000    0.000    0.000    0.000 
#    0.000    0.000    0.000    0.000    0.000    0.000 
#
# Total GULP energy -178728.106881 kJ/mol
# GULP energy per Si atom -5585.253340 kJ/mol
# Density = 2.048837 g / cm^3
# Si number density = 20.535109 Si / 1000 Ang^3
#
#
#
# Elastic Constant Matrix: (Units=GPa)
#
#
# Indices 1 2 3 4 5 6 
#
# 1 47.5289 -0.2378 11.7518 0.0000 0.0000 0.0000
# 2 -0.2378 56.3938 15.9749 0.0000 0.0000 0.0000
# 3 11.7518 15.9749 98.0935 0.0000 0.0000 0.0000
# 4 0.0000 0.0000 0.0000 20.6400 0.0000 0.0000
# 5 0.0000 0.0000 0.0000 0.0000 6.4217 0.0000
# 6 0.0000 0.0000 0.0000 0.0000 0.0000 10.4616
#
#
#
# Elastic Compliance Matrix: (Units=1/GPa)
#
#
# Indices 1 2 3 4 5 6 
#
# 1 0.021723 0.000869 -0.002744 0.000000 0.000000 0.000000
# 2 0.000869 0.018625 -0.003137 0.000000 0.000000 0.000000
# 3 -0.002744 -0.003137 0.011034 0.000000 0.000000 0.000000
# 4 0.000000 0.000000 0.000000 0.048450 0.000000 0.000000
# 5 0.000000 0.000000 0.000000 0.000000 0.155721 0.000000
# 6 0.000000 0.000000 0.000000 0.000000 0.000000 0.095588
#
#
# Mechanical properties :
#
#
# Convention : Reuss Voigt Hill
#
# Bulk Modulus (GPa) = 24.17977 28.55490 26.36734
# Shear Modulus (GPa) = 13.33509 19.13981 16.23745
#
# Velocity S-wave (km/s) = 2.55106 3.05627 2.81502
# Velocity P-wave (km/s) = 4.52522 5.13711 4.84084
#
# Compressibility (1/GPa) = 0.04135688
#
# Stress axis : x y z
#
# Youngs Moduli (GPa) = 46.03501 53.69184 90.62910
#
# Poissons Ratio (x) = -0.04665 0.24868
# Poissons Ratio (y) = -0.04000 0.28432
# Poissons Ratio (z) = 0.12632 0.16844
#
# Static dielectric constant tensor:
#      x y z
#    x 1.709790 0.000000 0.000000 
#    y 0.000000 1.731880 0.000000 
#    z 0.000000 0.000000 1.742830 
# 
# From -- ./inp_files/9469.got.cif
#   From: 2010.05.17/outbox.cif.g08.bks.cpg/sg39_5_cif.got.tgz:9469.got - 2010.06.03 18:22:40.
