data_PCOD9360320
_publ_section_title
;
Structure prediction by ZEFSAII (Michael W. Deem and Ramdas Pophale) SiO2 
 PCOD9360320
Probable space group: A B M 2
;
_chemical_formula_sum "Si O2"
_cell_formula_units_Z 64
_cell_length_a 19.842168
_cell_length_b 8.632735
_cell_length_c 21.038768
_cell_angle_alpha 90.000000
_cell_angle_beta 90.000000
_cell_angle_gamma 90.000000
_cell_volume 3603.776397
_symmetry_space_group_name_H-M "A B M 2"
_symmetry_group_IT_number 39
_symmetry_cell_setting 'orthorhombic'
loop_
_space_group_symop_operation_xyz
x,y,z
-x,-y,z
-x,1/2+y,z
x,1/2-y,z
x,1/2+y,1/2+z
-x,1/2-y,1/2+z
-x,y,1/2+z
x,-y,1/2+z
loop_
_atom_site_type_symbol
_atom_site_label
_atom_site_fract_x
_atom_site_fract_y
_atom_site_fract_z
Si Si1 0.207430 0.064142 0.972370
Si Si2 0.426850 0.435684 0.895313
Si Si3 0.572074 0.936447 0.043885
Si Si4 0.711031 0.938480 0.098589
Si Si5 0.926508 0.064656 0.173050
Si Si6 0.712462 0.564263 0.351674
Si Si7 0.073389 0.564308 0.024759
Si Si8 0.209940 0.562539 0.723842
O O1 0.209190 0.250000 0.968390
O O2 0.245839 0.995039 0.912286
O O3 0.246222 0.016069 0.036780
O O4 0.131584 0.005290 0.981073
O O5 0.500000 0.500000 0.875671
O O6 0.427587 0.250000 0.892394
O O7 0.363313 0.499298 0.856685
O O8 0.416885 0.481594 0.969830
O O9 0.570300 0.750000 0.045128
O O10 0.634574 0.990156 0.086397
O O11 0.500000 0.000000 0.064281
O O12 0.710428 0.750000 0.100092
O O13 0.746459 0.990968 0.162957
O O14 0.927956 0.250000 0.175739
O O15 0.914267 0.018343 0.098900
O O16 0.865334 0.000985 0.214907
O O17 0.000000 0.000000 0.190945
O O18 0.709204 0.750000 0.352712
O O19 0.752133 0.515651 0.288115
O O20 0.073940 0.750000 0.021414
O O21 0.000000 0.500000 0.007681
O O22 0.206645 0.750000 0.722643
#
# Coordination Sequence:
#
# PCOD9360320 Si02
#       8
#     8   8   8   8   8   8   8   8
#     4  11  20  35  59  82 109 147 186 232 281 329
#     4  10  19  34  56  82 110 145 188 232 281 336
#     4   9  17  31  51  79 107 137 177 225 275 325
#     4   9  17  33  56  79 105 140 183 224 273 329
#     4  10  20  34  56  84 113 145 183 229 277 333
#     4  11  23  37  55  83 117 152 189 232 281 336
#     4  10  20  34  54  85 117 146 183 231 282 336
#     4  10  21  38  58  80 112 152 189 229 277 333
#
# _framework density 17.759148
#
# number of rings (size 3 to 8) (size 9 to 14) (size 15 to 20)
#    0.000    2.000    2.500    1.875    0.000    2.500 
#    0.000    1.875    0.000    4.500    0.000    0.000 
#    0.000    0.000    0.000    0.000    0.000    0.000 
#
# Total GULP energy -178620.690871 kJ/mol
# GULP energy per Si atom -5581.896590 kJ/mol
# Density = 1.771873 g / cm^3
# Si number density = 17.759148 Si / 1000 Ang^3
#
#
#
# Elastic Constant Matrix: (Units=GPa)
#
#
# Indices 1 2 3 4 5 6 
#
# 1 187.4714 39.3171 81.4984 0.0000 0.0000 0.0000
# 2 39.3171 34.4801 30.7640 0.0000 0.0000 0.0000
# 3 81.4984 30.7640 108.0749 0.0000 0.0000 0.0000
# 4 0.0000 0.0000 0.0000 19.2004 0.0000 0.0000
# 5 0.0000 0.0000 0.0000 0.0000 28.9363 0.0000
# 6 0.0000 0.0000 0.0000 0.0000 0.0000 34.6672
#
#
#
# Elastic Compliance Matrix: (Units=1/GPa)
#
#
# Indices 1 2 3 4 5 6 
#
# 1 0.008627 -0.005406 -0.004967 0.000000 0.000000 0.000000
# 2 -0.005406 0.042263 -0.007954 0.000000 0.000000 0.000000
# 3 -0.004967 -0.007954 0.015262 0.000000 0.000000 0.000000
# 4 0.000000 0.000000 0.000000 0.052082 0.000000 0.000000
# 5 0.000000 0.000000 0.000000 0.000000 0.034559 0.000000
# 6 0.000000 0.000000 0.000000 0.000000 0.000000 0.028846
#
#
# Mechanical properties :
#
#
# Convention : Reuss Voigt Hill
#
# Bulk Modulus (GPa) = 33.89893 70.35396 52.12644
# Shear Modulus (GPa) = 21.91779 28.45724 25.18752
#
# Velocity S-wave (km/s) = 3.51689 4.00734 3.77010
# Velocity P-wave (km/s) = 5.96832 7.81750 6.95465
#
# Compressibility (1/GPa) = 0.02949946
#
# Stress axis : x y z
#
# Youngs Moduli (GPa) = 115.91431 23.66137 65.52055
#
# Poissons Ratio (x) = 0.12791 0.32543
# Poissons Ratio (y) = 0.62661 0.52114
# Poissons Ratio (z) = 0.57573 0.18820
#
# Static dielectric constant tensor:
#      x y z
#    x 1.601030 0.000000 0.000000 
#    y 0.000000 1.600830 0.000000 
#    z 0.000000 0.000000 1.592610 
# 
# From -- ./inp_files/13108.got.cif
#   From: 2010.05.17/outbox.cif.g08.bks.cpg/sg39_7_cif.got.tgz:13108.got - 2010.06.03 18:22:40.
