data_PCOD9360521
_publ_section_title
;
Structure prediction by ZEFSAII (Michael W. Deem and Ramdas Pophale) SiO2 
 PCOD9360521
Probable space group: A B M 2
;
_chemical_formula_sum "Si O2"
_cell_formula_units_Z 48
_cell_length_a 16.307129
_cell_length_b 9.464922
_cell_length_c 16.038898
_cell_angle_alpha 90.000000
_cell_angle_beta 90.000000
_cell_angle_gamma 90.000000
_cell_volume 2475.535004
_symmetry_space_group_name_H-M "A B M 2"
_symmetry_group_IT_number 39
_symmetry_cell_setting 'orthorhombic'
loop_
_space_group_symop_operation_xyz
x,y,z
-x,-y,z
-x,1/2+y,z
x,1/2-y,z
x,1/2+y,1/2+z
-x,1/2-y,1/2+z
-x,y,1/2+z
x,-y,1/2+z
loop_
_atom_site_type_symbol
_atom_site_label
_atom_site_fract_x
_atom_site_fract_y
_atom_site_fract_z
Si Si1 0.500000 0.500000 0.926920
Si Si2 0.540060 0.250000 0.307924
Si Si3 0.643897 0.999920 0.546993
Si Si4 0.185991 0.082513 0.976656
Si Si5 0.089125 0.575421 0.311061
Si Si6 0.911954 0.923692 0.144255
Si Si7 0.637667 0.250000 0.152687
Si Si8 0.553592 0.250000 0.644194
O O1 0.536304 0.617495 0.867161
O O2 0.573145 0.446294 0.985249
O O3 0.621204 0.250000 0.250615
O O4 0.461305 0.250000 0.244268
O O5 0.719119 0.048361 0.490719
O O6 0.600260 0.118117 0.604358
O O7 0.676550 0.886051 0.612409
O O8 0.178740 0.250000 0.973238
O O9 0.138316 0.041098 0.060936
O O10 0.144053 0.034307 0.890976
O O11 0.083007 0.750000 0.303859
O O12 0.123064 0.500685 0.227033
O O13 0.000000 0.500000 0.322548
O O14 0.917255 0.750000 0.153451
O O15 0.000000 0.000000 0.134585
O O16 0.542352 0.250000 0.120712
#
# Coordination Sequence:
#
# PCOD9360521 Si02
#       8
#     4   4   8   8   8   8   4   4
#     4  12  20  36  60  84 112 148 196 244 284 350
#     4  10  22  36  58  90 104 140 206 246 290 334
#     4  12  21  40  60  79 119 158 194 237 297 350
#     4  10  23  40  59  90 121 163 195 241 298 357
#     4  10  20  40  64  90 122 156 197 242 295 353
#     4  10  20  40  65  90 118 156 200 239 295 356
#     4  10  21  40  55  86 106 154 202 238 289 351
#     4  10  19  40  63  74 112 156 198 234 295 351
#
# _framework density 19.389748000000001
#
# number of rings (size 3 to 8) (size 9 to 14) (size 15 to 20)
#    0.500    1.000    2.500    4.500    0.000    0.000 
#   12.000    0.000    0.000    0.000    0.000    0.000 
#    0.000    0.000    0.000    0.000    0.000    0.000 
#
# Total GULP energy -133650.351740 kJ/mol
# GULP energy per Si atom -5568.764656 kJ/mol
# Density = 1.934562 g / cm^3
# Si number density = 19.389748 Si / 1000 Ang^3
#
#
#
# Elastic Constant Matrix: (Units=GPa)
#
#
# Indices 1 2 3 4 5 6 
#
# 1 44.8917 -23.0765 30.9942 0.0000 0.0000 0.0000
# 2 -23.0765 50.5267 23.9115 0.0000 0.0000 0.0000
# 3 30.9942 23.9115 124.4530 0.0000 0.0000 0.0000
# 4 0.0000 0.0000 0.0000-1726.5100 0.0000 0.0000
# 5 0.0000 0.0000 0.0000 0.0000 9.1472 0.0000
# 6 0.0000 0.0000 0.0000 0.0000 0.0000 18.0533
#
#
#
# Elastic Compliance Matrix: (Units=1/GPa)
#
#
# Indices 1 2 3 4 5 6 
#
# 1 0.053125 0.033577 -0.019682 0.000000 0.000000 0.000000
# 2 0.033577 0.042994 -0.016623 0.000000 0.000000 0.000000
# 3 -0.019682 -0.016623 0.016131 0.000000 0.000000 0.000000
# 4 0.000000 0.000000 0.000000 -0.000579 0.000000 0.000000
# 5 0.000000 0.000000 0.000000 0.000000 0.109323 0.000000
# 6 0.000000 0.000000 0.000000 0.000000 0.000000 0.055392
#
#
# Mechanical properties :
#
#
# Convention : Reuss Voigt Hill
#
# Bulk Modulus (GPa) = 9.36373 31.50332 20.43352
# Shear Modulus (GPa) = 15.75116 -327.32576 -155.78730
#
# Velocity S-wave (km/s) = 2.85326 -13.00693 -8.97327
# Velocity P-wave (km/s) = 3.96163 14.46690 9.83861
#
# Compressibility (1/GPa) = 0.10679508
#
# Stress axis : x y z
#
# Youngs Moduli (GPa) = 18.82353 23.25927 61.99413
#
# Poissons Ratio (x) = -0.78099 1.22015
# Poissons Ratio (y) = -0.63205 1.03051
# Poissons Ratio (z) = 0.37048 0.38663
#
# Static dielectric constant tensor:
#      x y z
#    x 1.660650 0.000000 0.000000 
#    y 0.000000 3.895810 0.000000 
#    z 0.000000 0.000000 1.700840 
# 
# From -- ./inp_files/12718.got.cif
#   From: 2010.05.17/outbox.cif.g08.bks.cpg/sg39_7_cif.got.tgz:12718.got - 2010.06.03 18:22:40.
