data_PCOD9360624
_publ_section_title
;
Structure prediction by ZEFSAII (Michael W. Deem and Ramdas Pophale) SiO2 
 PCOD9360624
Probable space group: A B M 2
;
_chemical_formula_sum "Si O2"
_cell_formula_units_Z 64
_cell_length_a 21.250556
_cell_length_b 17.387448
_cell_length_c 7.207982
_cell_angle_alpha 90.000000
_cell_angle_beta 90.000000
_cell_angle_gamma 90.000000
_cell_volume 2663.298442
_symmetry_space_group_name_H-M "A B M 2"
_symmetry_group_IT_number 39
_symmetry_cell_setting 'orthorhombic'
loop_
_space_group_symop_operation_xyz
x,y,z
-x,-y,z
-x,1/2+y,z
x,1/2-y,z
x,1/2+y,1/2+z
-x,1/2-y,1/2+z
-x,y,1/2+z
x,-y,1/2+z
loop_
_atom_site_type_symbol
_atom_site_label
_atom_site_fract_x
_atom_site_fract_y
_atom_site_fract_z
Si Si1 0.427033 0.161320 0.820570
Si Si2 0.056315 0.160555 0.014144
Si Si3 0.462256 0.580512 0.676629
Si Si4 0.179501 0.422833 0.955187
Si Si5 0.206621 0.099488 0.387499
Si Si6 0.705215 0.663438 0.857684
Si Si7 0.078780 0.665238 0.952711
Si Si8 0.659958 0.340511 0.793837
O O1 0.426993 0.250000 0.888957
O O2 0.485714 0.147846 0.689926
O O3 0.357680 0.148477 0.740316
O O4 0.436635 0.094029 0.970723
O O5 0.057362 0.250000 0.945838
O O6 0.109814 0.109337 0.914723
O O7 0.986267 0.124240 0.008712
O O8 0.073287 0.165298 0.230089
O O9 0.500000 0.500000 0.693246
O O10 0.402314 0.604768 0.804018
O O11 0.190604 0.512943 0.944917
O O12 0.235516 0.389651 0.830404
O O13 0.193964 0.396411 0.165445
O O14 0.150635 0.144400 0.488592
O O15 0.278256 0.128760 0.401769
O O16 0.726347 0.750000 0.826808
O O17 0.680534 0.658402 0.073152
O O18 0.069697 0.750000 0.030024
O O19 0.646692 0.250000 0.837031
#
# Coordination Sequence:
#
# PCOD9360624 Si02
#       8
#     8   8   8   8   8   8   8   8
#     4  10  20  37  57  79 110 148 185 223 275 340
#     4   9  18  33  55  78 103 136 176 221 266 317
#     4  11  22  35  56  85 113 141 181 233 283 330
#     4  10  20  34  52  77 108 136 175 219 269 320
#     4  10  21  35  54  78 106 141 179 224 266 318
#     4   8  16  32  56  76  99 138 183 218 256 320
#     4   9  18  34  55  79 103 136 182 223 263 316
#     4   9  18  36  58  77 103 145 188 222 265 327
#
# _framework density 24.030353000000002
#
# number of rings (size 3 to 8) (size 9 to 14) (size 15 to 20)
#    0.000    2.500    0.000    3.000    1.750    4.500 
#    2.250    2.500    0.000    2.250    0.000    0.000 
#    0.000    0.000    0.000    0.000    0.000    0.000 
#
# Total GULP energy -178446.190088 kJ/mol
# GULP energy per Si atom -5576.443440 kJ/mol
# Density = 2.397566 g / cm^3
# Si number density = 24.030353 Si / 1000 Ang^3
#
#
#
# Elastic Constant Matrix: (Units=GPa)
#
#
# Indices 1 2 3 4 5 6 
#
# 1 195.9030 89.4846 22.6889 0.0000 0.0000 0.0000
# 2 89.4846 101.2168 1.6930 0.0000 0.0000 0.0000
# 3 22.6889 1.6930 47.4011 0.0000 0.0000 0.0000
# 4 0.0000 0.0000 0.0000 15.9588 0.0000 0.0000
# 5 0.0000 0.0000 0.0000 0.0000 22.6641 0.0000
# 6 0.0000 0.0000 0.0000 0.0000 0.0000 34.2518
#
#
#
# Elastic Compliance Matrix: (Units=1/GPa)
#
#
# Indices 1 2 3 4 5 6 
#
# 1 0.009319 -0.008169 -0.004169 0.000000 0.000000 0.000000
# 2 -0.008169 0.017047 0.003301 0.000000 0.000000 0.000000
# 3 -0.004169 0.003301 0.022974 0.000000 0.000000 0.000000
# 4 0.000000 0.000000 0.000000 0.062662 0.000000 0.000000
# 5 0.000000 0.000000 0.000000 0.000000 0.044123 0.000000
# 6 0.000000 0.000000 0.000000 0.000000 0.000000 0.029196
#
#
# Mechanical properties :
#
#
# Convention : Reuss Voigt Hill
#
# Bulk Modulus (GPa) = 31.98292 63.58375 47.78334
# Shear Modulus (GPa) = 23.38481 29.95189 26.66835
#
# Velocity S-wave (km/s) = 3.12290 3.53430 3.33495
# Velocity P-wave (km/s) = 5.13241 6.57056 5.89550
#
# Compressibility (1/GPa) = 0.03126669
#
# Stress axis : x y z
#
# Youngs Moduli (GPa) = 107.31050 58.66281 43.52734
#
# Poissons Ratio (x) = 0.47921 0.18145
# Poissons Ratio (y) = 0.87661 -0.14369
# Poissons Ratio (z) = 0.44735 -0.19366
#
# Static dielectric constant tensor:
#      x y z
#    x 2.165540 0.000000 0.000000 
#    y 0.000000 1.872260 0.000000 
#    z 0.000000 0.000000 2.019950 
# 
# From -- ./inp_files/4013.got.cif
#   From: 2010.05.17/outbox.cif.g08.bks.cpg/sg39_3_cif.got.tgz:4013.got - 2010.06.03 18:22:40.
