data_PCOD9360330
_publ_section_title
;
Structure prediction by ZEFSAII (Michael W. Deem and Ramdas Pophale) SiO2 
 PCOD9360330
Probable space group: A B M 2
;
_chemical_formula_sum "Si O2"
_cell_formula_units_Z 64
_cell_length_a 24.696035
_cell_length_b 8.154957
_cell_length_c 15.902732
_cell_angle_alpha 90.000000
_cell_angle_beta 90.000000
_cell_angle_gamma 90.000000
_cell_volume 3202.732357
_symmetry_space_group_name_H-M "A B M 2"
_symmetry_group_IT_number 39
_symmetry_cell_setting 'orthorhombic'
loop_
_space_group_symop_operation_xyz
x,y,z
-x,-y,z
-x,1/2+y,z
x,1/2-y,z
x,1/2+y,1/2+z
-x,1/2-y,1/2+z
-x,y,1/2+z
x,-y,1/2+z
loop_
_atom_site_type_symbol
_atom_site_label
_atom_site_fract_x
_atom_site_fract_y
_atom_site_fract_z
Si Si1 0.174171 0.943531 0.451250
Si Si2 0.438565 0.553862 0.461899
Si Si3 0.634661 0.448008 0.807193
Si Si4 0.242967 0.445477 0.293843
Si Si5 0.173743 0.951308 0.635919
Si Si6 0.941203 0.446448 0.897165
Si Si7 0.561411 0.551932 0.152508
Si Si8 0.941729 0.946791 0.200838
O O1 0.183850 0.750000 0.445829
O O2 0.191736 0.003121 0.543347
O O3 0.205804 0.024462 0.374716
O O4 0.110154 0.976514 0.442636
O O5 0.500000 0.500000 0.441979
O O6 0.437234 0.750000 0.462609
O O7 0.397378 0.493559 0.391426
O O8 0.425992 0.494968 0.557210
O O9 0.635959 0.250000 0.803198
O O10 0.696343 0.510178 0.806130
O O11 0.601781 0.507036 0.725019
O O12 0.247313 0.250000 0.282525
O O13 0.212285 0.508931 0.210992
O O14 0.173232 0.750000 0.636636
O O15 0.112085 0.005458 0.654172
O O16 0.936814 0.250000 0.900271
O O17 0.938419 0.499612 0.798798
O O18 0.000000 0.500000 0.929717
O O19 0.500000 0.500000 0.171971
O O20 0.563321 0.750000 0.151844
O O21 0.940736 0.750000 0.200617
O O22 0.000000 0.000000 0.166523
#
# Coordination Sequence:
#
# PCOD9360330 Si02
#       8
#     8   8   8   8   8   8   8   8
#     4  11  22  36  58  85 111 141 184 233 279 330
#     4  10  20  35  57  85 119 150 182 225 274 327
#     4  10  21  36  58  83 109 147 192 231 275 328
#     4  10  21  41  60  76 108 151 190 230 277 330
#     4   9  19  37  58  78 105 145 185 224 277 336
#     4  10  19  34  57  82 112 146 180 221 276 337
#     4   9  19  35  55  83 114 148 184 222 272 328
#     4   9  17  32  54  78 104 138 175 214 266 328
#
# _framework density 19.982938000000001
#
# number of rings (size 3 to 8) (size 9 to 14) (size 15 to 20)
#    0.000    2.250    1.250    1.500    0.000    4.500 
#    0.000    6.250    0.000    0.000    0.000    0.000 
#    0.000    0.000    0.000    0.000    0.000    0.000 
#
# Total GULP energy -178660.700585 kJ/mol
# GULP energy per Si atom -5583.146893 kJ/mol
# Density = 1.993746 g / cm^3
# Si number density = 19.982938 Si / 1000 Ang^3
#
#
#
# Elastic Constant Matrix: (Units=GPa)
#
#
# Indices 1 2 3 4 5 6 
#
# 1 128.3763 -2.0464 73.7459 0.0000 0.0000 0.0000
# 2 -2.0464 7.5464 -0.1338 0.0000 0.0000 0.0000
# 3 73.7459 -0.1338 120.5595 0.0000 0.0000 0.0000
# 4 0.0000 0.0000 0.0000 8.2866 0.0000 0.0000
# 5 0.0000 0.0000 0.0000 0.0000 -6.2954 0.0000
# 6 0.0000 0.0000 0.0000 0.0000 0.0000 22.9720
#
#
#
# Elastic Compliance Matrix: (Units=1/GPa)
#
#
# Indices 1 2 3 4 5 6 
#
# 1 0.012084 0.003146 -0.007388 0.000000 0.000000 0.000000
# 2 0.003146 0.133335 -0.001776 0.000000 0.000000 0.000000
# 3 -0.007388 -0.001776 0.012812 0.000000 0.000000 0.000000
# 4 0.000000 0.000000 0.000000 0.120677 0.000000 0.000000
# 5 0.000000 0.000000 0.000000 0.000000 -0.158847 0.000000
# 6 0.000000 0.000000 0.000000 0.000000 0.000000 0.043531
#
#
# Mechanical properties :
#
#
# Convention : Reuss Voigt Hill
#
# Bulk Modulus (GPa) = 6.84025 44.40150 25.62087
# Shear Modulus (GPa) = 22.28555 17.32041 19.80298
#
# Velocity S-wave (km/s) = 3.34313 2.94727 3.15142
# Velocity P-wave (km/s) = 4.28164 5.81806 5.10795
#
# Compressibility (1/GPa) = 0.14619354
#
# Stress axis : x y z
#
# Youngs Moduli (GPa) = 82.75471 7.49991 78.05170
#
# Poissons Ratio (x) = -0.02359 0.57666
# Poissons Ratio (y) = -0.26033 0.13864
# Poissons Ratio (z) = 0.61141 0.01332
#
# Static dielectric constant tensor:
#      x y z
#    x 1.683490 0.000000 0.000000 
#    y 0.000000 1.712700 0.000000 
#    z 0.000000 0.000000 1.715970 
# 
# From -- ./inp_files/10562.got.cif
#   From: 2010.05.17/outbox.cif.g08.bks.cpg/sg39_6_cif.got.tgz:10562.got - 2010.06.03 18:22:40.
