data_PCOD9360640
_publ_section_title
;
Structure prediction by ZEFSAII (Michael W. Deem and Ramdas Pophale) SiO2 
 PCOD9360640
Probable space group: A B M 2
;
_chemical_formula_sum "Si O2"
_cell_formula_units_Z 64
_cell_length_a 14.356178
_cell_length_b 8.172649
_cell_length_c 28.941052
_cell_angle_alpha 90.000000
_cell_angle_beta 90.000000
_cell_angle_gamma 90.000000
_cell_volume 3395.595858
_symmetry_space_group_name_H-M "A B M 2"
_symmetry_group_IT_number 39
_symmetry_cell_setting 'orthorhombic'
loop_
_space_group_symop_operation_xyz
x,y,z
-x,-y,z
-x,1/2+y,z
x,1/2-y,z
x,1/2+y,1/2+z
-x,1/2-y,1/2+z
-x,y,1/2+z
x,-y,1/2+z
loop_
_atom_site_type_symbol
_atom_site_label
_atom_site_fract_x
_atom_site_fract_y
_atom_site_fract_z
Si Si1 0.893352 0.554617 0.045010
Si Si2 0.099962 0.558346 0.297373
Si Si3 0.752270 0.937986 0.472730
Si Si4 0.239930 0.936852 0.723011
Si Si5 0.392869 0.948390 0.047767
Si Si6 0.106553 0.554024 0.145387
Si Si7 0.393459 0.054516 0.652282
Si Si8 0.103572 0.557223 0.901925
O O1 0.884419 0.750000 0.038042
O O2 0.858823 0.502597 0.095477
O O3 0.000000 0.500000 0.042495
O O4 0.836820 0.449902 0.008628
O O5 0.090218 0.750000 0.305025
O O6 0.190658 0.525601 0.266182
O O7 0.109241 0.475267 0.347336
O O8 0.000000 0.500000 0.276396
O O9 0.725850 0.750000 0.461953
O O10 0.668534 0.010308 0.504216
O O11 0.804532 0.013325 0.427886
O O12 0.254325 0.750000 0.736381
O O13 0.162004 0.958834 0.683945
O O14 0.330908 0.998426 0.695490
O O15 0.385605 0.750000 0.047632
O O16 0.364930 0.003895 0.100121
O O17 0.500000 0.000000 0.041966
O O18 0.116363 0.750000 0.150774
O O19 0.000000 0.500000 0.148082
O O20 0.388210 0.250000 0.651011
O O21 0.500000 0.000000 0.658547
O O22 0.105432 0.750000 0.910552
O O23 0.000000 0.500000 0.917486
#
# Coordination Sequence:
#
# PCOD9360640 Si02
#       8
#     8   8   8   8   8   8   8   8
#     4  11  21  32  47  70 102 139 176 213 257 312
#     4  11  22  38  58  81 110 143 181 225 275 328
#     4  10  20  34  53  77 106 140 178 222 270 319
#     4  12  23  36  55  80 107 138 179 223 270 324
#     4   9  19  35  55  79 109 143 179 221 266 316
#     4  11  21  34  49  70 103 140 176 214 260 315
#     4  10  20  36  57  82 112 147 185 226 273 323
#     4  10  20  35  55  79 108 142 181 224 273 325
#
# _framework density 18.847943999999998
#
# number of rings (size 3 to 8) (size 9 to 14) (size 15 to 20)
#    0.000    1.500    0.000    8.250    0.000    4.000 
#    0.000    0.000    0.000    0.750    0.000    3.500 
#    0.000    0.000    0.000    0.000    0.000    0.000 
#
# Total GULP energy -178434.248422 kJ/mol
# GULP energy per Si atom -5576.070263 kJ/mol
# Density = 1.880505 g / cm^3
# Si number density = 18.847944 Si / 1000 Ang^3
#
#
#
# Elastic Constant Matrix: (Units=GPa)
#
#
# Indices 1 2 3 4 5 6 
#
# 1 104.9729 0.6580 41.7673 0.0000 0.0000 0.0000
# 2 0.6580 45.3084 -9.3192 0.0000 0.0000 0.0000
# 3 41.7673 -9.3192 73.2912 0.0000 0.0000 0.0000
# 4 0.0000 0.0000 0.0000 17.7520 0.0000 0.0000
# 5 0.0000 0.0000 0.0000 0.0000 34.8664 0.0000
# 6 0.0000 0.0000 0.0000 0.0000 0.0000 24.5728
#
#
#
# Elastic Compliance Matrix: (Units=1/GPa)
#
#
# Indices 1 2 3 4 5 6 
#
# 1 0.012444 -0.001683 -0.007305 0.000000 0.000000 0.000000
# 2 -0.001683 0.022891 0.003870 0.000000 0.000000 0.000000
# 3 -0.007305 0.003870 0.018299 0.000000 0.000000 0.000000
# 4 0.000000 0.000000 0.000000 0.056332 0.000000 0.000000
# 5 0.000000 0.000000 0.000000 0.000000 0.028681 0.000000
# 6 0.000000 0.000000 0.000000 0.000000 0.000000 0.040695
#
#
# Mechanical properties :
#
#
# Convention : Reuss Voigt Hill
#
# Bulk Modulus (GPa) = 23.04304 32.19830 27.62067
# Shear Modulus (GPa) = 24.50431 28.13598 26.32015
#
# Velocity S-wave (km/s) = 3.60961 3.86785 3.74096
# Velocity P-wave (km/s) = 5.44285 6.08829 5.77460
#
# Compressibility (1/GPa) = 0.04339706
#
# Stress axis : x y z
#
# Youngs Moduli (GPa) = 80.36297 43.68449 54.64631
#
# Poissons Ratio (x) = 0.07353 0.39921
# Poissons Ratio (y) = 0.13528 -0.21148
# Poissons Ratio (z) = 0.58708 -0.16906
#
# Static dielectric constant tensor:
#      x y z
#    x 1.536420 0.000000 0.000000 
#    y 0.000000 1.656690 0.000000 
#    z 0.000000 0.000000 1.692510 
# 
# From -- ./inp_files/17961.got.cif
#   From: 2010.05.17/outbox.cif.g08.bks.cpg/sg39_9_cif.got.tgz:17961.got - 2010.06.03 18:22:40.
