data_PCOD9360924
_publ_section_title
;
Structure prediction by ZEFSAII (Michael W. Deem and Ramdas Pophale) SiO2 
 PCOD9360924
Probable space group: A B M 2
;
_chemical_formula_sum "Si O2"
_cell_formula_units_Z 60
_cell_length_a 21.369661
_cell_length_b 13.861975
_cell_length_c 9.952923
_cell_angle_alpha 90.000000
_cell_angle_beta 90.000000
_cell_angle_gamma 90.000000
_cell_volume 2948.311648
_symmetry_space_group_name_H-M "A B M 2"
_symmetry_group_IT_number 39
_symmetry_cell_setting 'orthorhombic'
loop_
_space_group_symop_operation_xyz
x,y,z
-x,-y,z
-x,1/2+y,z
x,1/2-y,z
x,1/2+y,1/2+z
-x,1/2-y,1/2+z
-x,y,1/2+z
x,-y,1/2+z
loop_
_atom_site_type_symbol
_atom_site_label
_atom_site_fract_x
_atom_site_fract_y
_atom_site_fract_z
Si Si1 0.942482 0.567030 0.777150
Si Si2 0.357945 0.367255 0.657824
Si Si3 0.978370 0.250000 0.877760
Si Si4 0.746176 0.133273 0.946963
Si Si5 0.112291 0.422755 0.487753
Si Si6 0.643235 0.867340 0.236402
Si Si7 0.461505 0.632514 0.947057
Si Si8 0.605346 0.367928 0.446941
O O1 0.897544 0.572752 0.648180
O O2 0.911605 0.516647 0.906869
O O3 0.000000 0.500000 0.729962
O O4 0.973517 0.666634 0.820189
O O5 0.358249 0.250000 0.658390
O O6 0.296958 0.394737 0.573834
O O7 0.420918 0.394764 0.577400
O O8 0.361320 0.399891 0.810776
O O9 0.930257 0.165129 0.933320
O O10 0.750948 0.250000 0.946813
O O11 0.815268 0.092439 0.953534
O O12 0.705318 0.104919 0.816916
O O13 0.642985 0.750000 0.236146
O O14 0.580984 0.894780 0.319509
O O15 0.638172 0.899935 0.083629
O O16 0.464195 0.750000 0.946597
O O17 0.532958 0.600147 0.945836
O O18 0.605175 0.250000 0.447218
#
# Coordination Sequence:
#
# PCOD9360924 Si02
#       8
#     8   8   4   8   8   8   8   8
#     4  10  22  38  63  95 127 153 191 241 294 345
#     4   8  14  22  34  56  88 131 186 242 279 338
#     4  10  20  36  66  96 122 154 192 236 292 348
#     4   9  17  31  49  68 100 151 203 231 279 345
#     4  11  21  39  62  91 124 163 197 242 290 355
#     4   8  14  22  34  57  89 132 186 242 281 338
#     4   8  12  18  29  49  81 128 184 233 293 349
#     4   9  13  18  31  52  85 132 183 244 300 332
#
# _framework density 20.350631
#
# number of rings (size 3 to 8) (size 9 to 14) (size 15 to 20)
#    0.000    2.933    0.667    4.000    0.000    4.267 
#    0.000    1.333    0.000    0.000    0.000    0.000 
#    0.000    0.000    0.000   57.600    0.000   25.600 
#
# Total GULP energy -167042.766416 kJ/mol
# GULP energy per Si atom -5568.092214 kJ/mol
# Density = 2.030431 g / cm^3
# Si number density = 20.350631 Si / 1000 Ang^3
#
#
#
# Elastic Constant Matrix: (Units=GPa)
#
#
# Indices 1 2 3 4 5 6 
#
# 1 109.5519 33.9828 64.9682 0.0000 0.0000 0.0000
# 2 33.9828 111.7802 22.0778 0.0000 0.0000 0.0000
# 3 64.9682 22.0778 161.6887 0.0000 0.0000 0.0000
# 4 0.0000 0.0000 0.0000 -2.6366 0.0000 0.0000
# 5 0.0000 0.0000 0.0000 0.0000 8.4498 0.0000
# 6 0.0000 0.0000 0.0000 0.0000 0.0000 20.0532
#
#
#
# Elastic Compliance Matrix: (Units=1/GPa)
#
#
# Indices 1 2 3 4 5 6 
#
# 1 0.012878 -0.002973 -0.004769 0.000000 0.000000 0.000000
# 2 -0.002973 0.009881 -0.000154 0.000000 0.000000 0.000000
# 3 -0.004769 -0.000154 0.008122 0.000000 0.000000 0.000000
# 4 0.000000 0.000000 0.000000 -0.379272 0.000000 0.000000
# 5 0.000000 0.000000 0.000000 0.000000 0.118346 0.000000
# 6 0.000000 0.000000 0.000000 0.000000 0.000000 0.049867
#
#
# Mechanical properties :
#
#
# Convention : Reuss Voigt Hill
#
# Bulk Modulus (GPa) = 66.27789 69.45315 67.86552
# Shear Modulus (GPa) = -31.37638 22.63940 -4.36849
#
# Velocity S-wave (km/s) = -3.93082 3.33898 -1.46672
# Velocity P-wave (km/s) = 3.46942 7.00482 5.52740
#
# Compressibility (1/GPa) = 0.01508799
#
# Stress axis : x y z
#
# Youngs Moduli (GPa) = 77.64919 101.20868 123.12358
#
# Poissons Ratio (x) = 0.30093 0.58714
# Poissons Ratio (y) = 0.23088 0.01901
# Poissons Ratio (z) = 0.37029 0.01563
#
# Static dielectric constant tensor:
#      x y z
#    x 1.662500 0.000000 0.000000 
#    y 0.000000 1.789040 0.000000 
#    z 0.000000 0.000000 1.726930 
# 
# From -- ./inp_files/4074.got.cif
#   From: 2010.05.17/outbox.cif.g08.bks.cpg/sg39_3_cif.got.tgz:4074.got - 2010.06.03 18:22:40.
