data_PCOD9360834
_publ_section_title
;
Structure prediction by ZEFSAII (Michael W. Deem and Ramdas Pophale) SiO2 
 PCOD9360834
Probable space group: A B M 2
;
_chemical_formula_sum "Si O2"
_cell_formula_units_Z 56
_cell_length_a 16.621673
_cell_length_b 15.022315
_cell_length_c 10.479343
_cell_angle_alpha 90.000000
_cell_angle_beta 90.000000
_cell_angle_gamma 90.000000
_cell_volume 2616.650110
_symmetry_space_group_name_H-M "A B M 2"
_symmetry_group_IT_number 39
_symmetry_cell_setting 'orthorhombic'
loop_
_space_group_symop_operation_xyz
x,y,z
-x,-y,z
-x,1/2+y,z
x,1/2-y,z
x,1/2+y,1/2+z
-x,1/2-y,1/2+z
-x,y,1/2+z
x,-y,1/2+z
loop_
_atom_site_type_symbol
_atom_site_label
_atom_site_fract_x
_atom_site_fract_y
_atom_site_fract_z
Si Si1 0.506379 0.352224 0.938440
Si Si2 0.151299 0.155055 0.347997
Si Si3 0.580253 0.142846 0.195157
Si Si4 0.295267 0.521915 0.096955
Si Si5 0.975139 0.147351 0.618487
Si Si6 0.112375 0.978145 0.065434
Si Si7 0.328109 0.091853 0.324918
O O1 0.481198 0.250000 0.957651
O O2 0.446435 0.392972 0.833561
O O3 0.522762 0.390113 0.079219
O O4 0.593336 0.355332 0.868912
O O5 0.143603 0.250000 0.416553
O O6 0.087105 0.154058 0.234983
O O7 0.127518 0.074537 0.436549
O O8 0.244876 0.145673 0.312934
O O9 0.574638 0.250000 0.198176
O O10 0.669042 0.114182 0.151571
O O11 0.200853 0.509869 0.123709
O O12 0.340677 0.451883 0.186791
O O13 0.311426 0.524455 0.945208
O O14 0.987470 0.250000 0.574319
O O15 0.056284 0.090529 0.645917
O O16 0.929004 0.072671 0.534260
#
# Coordination Sequence:
#
# PCOD9360834 Si02
#       7
#     8   8   8   8   8   8   8
#     4   9  18  34  56  82 110 149 194 248 302 359
#     4  10  20  37  61  86 116 158 205 248 302 373
#     4   9  19  35  57  82 114 152 198 247 303 365
#     4  10  21  37  57  84 115 156 196 245 308 359
#     4  10  21  37  59  87 116 153 200 249 307 365
#     4  10  21  37  58  86 121 157 196 255 305 359
#     4  10  20  36  57  83 114 152 200 246 301 364
#
# _framework density 21.401411
#
# number of rings (size 3 to 8) (size 9 to 14) (size 15 to 20)
#    0.000    2.286    1.429    0.857    0.000    8.000 
#    0.000    2.857    0.000    5.143    0.000    0.000 
#    0.000    0.000    0.000    0.000    0.000    0.000 
#
# Total GULP energy -155880.940814 kJ/mol
# GULP energy per Si atom -5567.176458 kJ/mol
# Density = 2.135270 g / cm^3
# Si number density = 21.401411 Si / 1000 Ang^3
#
#
#
# Elastic Constant Matrix: (Units=GPa)
#
#
# Indices 1 2 3 4 5 6 
#
# 1 86.6563 12.3769 0.9273 0.0000 0.0000 0.0000
# 2 12.3769 99.4811 20.5292 0.0000 0.0000 0.0000
# 3 0.9273 20.5292 32.3486 0.0000 0.0000 0.0000
# 4 0.0000 0.0000 0.0000 24.7438 0.0000 0.0000
# 5 0.0000 0.0000 0.0000 0.0000 27.6296 0.0000
# 6 0.0000 0.0000 0.0000 0.0000 0.0000 17.5022
#
#
#
# Elastic Compliance Matrix: (Units=1/GPa)
#
#
# Indices 1 2 3 4 5 6 
#
# 1 0.011762 -0.001604 0.000681 0.000000 0.000000 0.000000
# 2 -0.001604 0.011786 -0.007434 0.000000 0.000000 0.000000
# 3 0.000681 -0.007434 0.035611 0.000000 0.000000 0.000000
# 4 0.000000 0.000000 0.000000 0.040414 0.000000 0.000000
# 5 0.000000 0.000000 0.000000 0.000000 0.036193 0.000000
# 6 0.000000 0.000000 0.000000 0.000000 0.000000 0.057136
#
#
# Mechanical properties :
#
#
# Convention : Reuss Voigt Hill
#
# Bulk Modulus (GPa) = 23.55978 31.79477 27.67728
# Shear Modulus (GPa) = 22.34506 26.28530 24.31518
#
# Velocity S-wave (km/s) = 3.23475 3.50838 3.37434
# Velocity P-wave (km/s) = 4.99839 5.59466 5.30491
#
# Compressibility (1/GPa) = 0.04244521
#
# Stress axis : x y z
#
# Youngs Moduli (GPa) = 85.02229 84.84868 28.08104
#
# Poissons Ratio (x) = 0.13608 -0.01911
# Poissons Ratio (y) = 0.13636 0.20874
# Poissons Ratio (z) = -0.05787 0.63072
#
# Static dielectric constant tensor:
#      x y z
#    x 1.826130 0.000000 0.000000 
#    y 0.000000 1.835310 0.000000 
#    z 0.000000 0.000000 1.797850 
# 
# From -- ./inp_files/6479.got.cif
#   From: 2010.05.17/outbox.cif.g08.bks.cpg/sg39_4_cif.got.tgz:6479.got - 2010.06.03 18:22:40.
