data_PCOD9360562
_publ_section_title
;
Structure prediction by ZEFSAII (Michael W. Deem and Ramdas Pophale) SiO2 
 PCOD9360562
Probable space group: A B M 2
;
_chemical_formula_sum "Si O2"
_cell_formula_units_Z 56
_cell_length_a 14.618829
_cell_length_b 8.190518
_cell_length_c 22.205553
_cell_angle_alpha 90.000000
_cell_angle_beta 90.000000
_cell_angle_gamma 90.000000
_cell_volume 2658.799255
_symmetry_space_group_name_H-M "A B M 2"
_symmetry_group_IT_number 39
_symmetry_cell_setting 'orthorhombic'
loop_
_space_group_symop_operation_xyz
x,y,z
-x,-y,z
-x,1/2+y,z
x,1/2-y,z
x,1/2+y,1/2+z
-x,1/2-y,1/2+z
-x,y,1/2+z
x,-y,1/2+z
loop_
_atom_site_type_symbol
_atom_site_label
_atom_site_fract_x
_atom_site_fract_y
_atom_site_fract_z
Si Si1 0.894509 0.945380 0.477330
Si Si2 0.894407 0.947576 0.344791
Si Si3 0.211098 0.449601 0.225911
Si Si4 0.604031 0.946208 0.279252
Si Si5 0.213472 0.552842 0.595312
Si Si6 0.394101 0.554445 0.912402
Si Si7 0.395633 0.442424 0.041954
O O1 0.889882 0.750000 0.477501
O O2 0.858826 0.001290 0.411073
O O3 0.843142 0.005978 0.536488
O O4 0.000000 0.000000 0.480521
O O5 0.888980 0.750000 0.344508
O O6 0.842886 0.007231 0.285009
O O7 0.000000 0.000000 0.341369
O O8 0.207660 0.250000 0.227295
O O9 0.317500 0.497524 0.233475
O O10 0.176736 0.503395 0.160304
O O11 0.601665 0.750000 0.280267
O O12 0.637880 0.997910 0.346298
O O13 0.500000 0.000000 0.268305
O O14 0.215919 0.750000 0.597125
O O15 0.317770 0.491869 0.586128
O O16 0.500000 0.500000 0.911872
O O17 0.386405 0.750000 0.916757
O O18 0.359229 0.481573 0.974578
O O19 0.500000 0.500000 0.049050
O O20 0.399773 0.250000 0.048926
#
# Coordination Sequence:
#
# PCOD9360562 Si02
#       7
#     8   8   8   8   8   8   8
#     4  10  21  38  63  89 114 143 181 227 279 335
#     4   9  19  37  62  86 109 140 178 223 273 327
#     4   9  19  37  57  79 110 150 187 222 273 331
#     4   9  18  32  52  76 106 143 185 228 274 325
#     4  10  22  38  56  81 115 152 189 230 278 330
#     4   9  16  27  47  72  99 132 176 227 275 323
#     4  10  20  33  50  75 108 148 189 231 278 325
#
# _framework density 21.062137
#
# number of rings (size 3 to 8) (size 9 to 14) (size 15 to 20)
#    0.000    2.571    0.000    2.143    2.000    3.429 
#    0.000    3.571    0.000    0.000    0.000    0.000 
#    0.000    0.000    0.000    0.000    0.000    0.000 
#
# Total GULP energy -156107.387551 kJ/mol
# GULP energy per Si atom -5575.263841 kJ/mol
# Density = 2.101420 g / cm^3
# Si number density = 21.062137 Si / 1000 Ang^3
#
#
#
# Elastic Constant Matrix: (Units=GPa)
#
#
# Indices 1 2 3 4 5 6 
#
# 1 76.5234 4.9524 80.8883 0.0000 0.0000 0.0000
# 2 4.9524 6.1457 15.2300 0.0000 0.0000 0.0000
# 3 80.8883 15.2300 199.5505 0.0000 0.0000 0.0000
# 4 0.0000 0.0000 0.0000 1.9626 0.0000 0.0000
# 5 0.0000 0.0000 0.0000 0.0000 24.3922 0.0000
# 6 0.0000 0.0000 0.0000 0.0000 0.0000 9.3953
#
#
#
# Elastic Compliance Matrix: (Units=1/GPa)
#
#
# Indices 1 2 3 4 5 6 
#
# 1 0.023022 0.005642 -0.009763 0.000000 0.000000 0.000000
# 2 0.005642 0.202052 -0.017708 0.000000 0.000000 0.000000
# 3 -0.009763 -0.017708 0.010320 0.000000 0.000000 0.000000
# 4 0.000000 0.000000 0.000000 0.509540 0.000000 0.000000
# 5 0.000000 0.000000 0.000000 0.000000 0.040997 0.000000
# 6 0.000000 0.000000 0.000000 0.000000 0.000000 0.106436
#
#
# Mechanical properties :
#
#
# Convention : Reuss Voigt Hill
#
# Bulk Modulus (GPa) = 5.21550 53.81788 29.51669
# Shear Modulus (GPa) = 5.00031 19.22661 12.11346
#
# Velocity S-wave (km/s) = 1.54248 3.02462 2.40079
# Velocity P-wave (km/s) = 2.37780 6.14859 4.66150
#
# Compressibility (1/GPa) = 0.19173627
#
# Stress axis : x y z
#
# Youngs Moduli (GPa) = 43.43592 4.94923 96.89831
#
# Poissons Ratio (x) = -0.02792 0.94600
# Poissons Ratio (y) = -0.24504 1.71584
# Poissons Ratio (z) = 0.42405 0.08764
#
# Static dielectric constant tensor:
#      x y z
#    x 1.754810 0.000000 0.000000 
#    y 0.000000 1.754060 0.000000 
#    z 0.000000 0.000000 1.811260 
# 
# From -- ./inp_files/14748.got.cif
#   From: 2010.05.17/outbox.cif.g08.bks.cpg/sg39_8_cif.got.tgz:14748.got - 2010.06.03 18:22:40.
