data_PCOD9360307
_publ_section_title
;
Structure prediction by ZEFSAII (Michael W. Deem and Ramdas Pophale) SiO2 
 PCOD9360307
Probable space group: A B M 2
;
_chemical_formula_sum "Si O2"
_cell_formula_units_Z 64
_cell_length_a 21.374685
_cell_length_b 8.531366
_cell_length_c 17.183603
_cell_angle_alpha 90.000000
_cell_angle_beta 90.000000
_cell_angle_gamma 90.000000
_cell_volume 3133.520408
_symmetry_space_group_name_H-M "A B M 2"
_symmetry_group_IT_number 39
_symmetry_cell_setting 'orthorhombic'
loop_
_space_group_symop_operation_xyz
x,y,z
-x,-y,z
-x,1/2+y,z
x,1/2-y,z
x,1/2+y,1/2+z
-x,1/2-y,1/2+z
-x,y,1/2+z
x,-y,1/2+z
loop_
_atom_site_type_symbol
_atom_site_label
_atom_site_fract_x
_atom_site_fract_y
_atom_site_fract_z
Si Si1 0.769225 0.077155 0.039700
Si Si2 0.930633 0.562035 0.672131
Si Si3 0.891557 0.930210 0.002167
Si Si4 0.568187 0.562754 0.586236
Si Si5 0.642532 0.572255 0.439499
Si Si6 0.865145 0.560534 0.833586
Si Si7 0.691959 0.573385 0.160499
Si Si8 0.279713 0.569911 0.314744
O O1 0.798672 0.250000 0.034743
O O2 0.746467 0.035451 0.125464
O O3 0.704449 0.080700 0.993627
O O4 0.816716 0.947332 0.010791
O O5 0.928371 0.750000 0.671560
O O6 0.914229 0.507085 0.583587
O O7 0.889410 0.508503 0.747810
O O8 0.000000 0.500000 0.687914
O O9 0.912509 0.750000 0.003613
O O10 0.900991 0.994822 0.913211
O O11 0.500000 0.500000 0.605945
O O12 0.571295 0.750000 0.595303
O O13 0.586149 0.527491 0.496304
O O14 0.623784 0.486632 0.635927
O O15 0.632156 0.750000 0.409425
O O16 0.665429 0.447454 0.377620
O O17 0.871209 0.750000 0.835251
O O18 0.790851 0.526780 0.840842
O O19 0.700300 0.750000 0.131782
O O20 0.700665 0.555417 0.251039
O O21 0.277718 0.750000 0.286745
#
# Coordination Sequence:
#
# PCOD9360307 Si02
#       8
#     8   8   8   8   8   8   8   8
#     4  10  19  34  55  84 118 151 189 239 293 353
#     4  11  24  44  63  86 121 164 209 262 312 370
#     4  11  21  38  63  93 121 159 204 251 307 375
#     4  10  21  39  60  83 113 152 199 247 295 356
#     4   9  19  34  54  82 117 150 186 235 290 352
#     4   9  21  39  62  90 125 161 202 253 310 370
#     4  11  22  35  55  83 116 156 197 244 298 360
#     4  11  20  35  58  87 120 153 191 245 306 362
#
# _framework density 20.424312
#
# number of rings (size 3 to 8) (size 9 to 14) (size 15 to 20)
#    0.000    1.750    1.250    4.500    0.000    4.000 
#    0.000    6.250    0.000    1.500    0.000    0.000 
#    0.000    0.000    0.000    0.000    0.000    0.000 
#
# Total GULP energy -178257.277480 kJ/mol
# GULP energy per Si atom -5570.539921 kJ/mol
# Density = 2.037783 g / cm^3
# Si number density = 20.424312 Si / 1000 Ang^3
#
#
#
# Elastic Constant Matrix: (Units=GPa)
#
#
# Indices 1 2 3 4 5 6 
#
# 1 50.4041 -2.6287 23.4442 0.0000 0.0000 0.0000
# 2 -2.6287 36.9460 21.5814 0.0000 0.0000 0.0000
# 3 23.4442 21.5814 106.9556 0.0000 0.0000 0.0000
# 4 0.0000 0.0000 0.0000 25.4105 0.0000 0.0000
# 5 0.0000 0.0000 0.0000 0.0000 19.6220 0.0000
# 6 0.0000 0.0000 0.0000 0.0000 0.0000 26.4540
#
#
#
# Elastic Compliance Matrix: (Units=1/GPa)
#
#
# Indices 1 2 3 4 5 6 
#
# 1 0.022934 0.005179 -0.006072 0.000000 0.000000 0.000000
# 2 0.005179 0.031852 -0.007562 0.000000 0.000000 0.000000
# 3 -0.006072 -0.007562 0.012207 0.000000 0.000000 0.000000
# 4 0.000000 0.000000 0.000000 0.039354 0.000000 0.000000
# 5 0.000000 0.000000 0.000000 0.000000 0.050963 0.000000
# 6 0.000000 0.000000 0.000000 0.000000 0.000000 0.037802
#
#
# Mechanical properties :
#
#
# Convention : Reuss Voigt Hill
#
# Bulk Modulus (GPa) = 19.96742 31.01106 25.48924
# Shear Modulus (GPa) = 21.86112 24.42455 23.14284
#
# Velocity S-wave (km/s) = 3.27517 3.46187 3.36981
# Velocity P-wave (km/s) = 4.90916 5.58531 5.25812
#
# Compressibility (1/GPa) = 0.05008158
#
# Stress axis : x y z
#
# Youngs Moduli (GPa) = 43.60348 31.39485 81.92332
#
# Poissons Ratio (x) = -0.16258 0.49744
# Poissons Ratio (y) = -0.22581 0.61953
# Poissons Ratio (z) = 0.26476 0.23742
#
# Static dielectric constant tensor:
#      x y z
#    x 1.700140 0.000000 0.000000 
#    y 0.000000 1.725800 0.000000 
#    z 0.000000 0.000000 1.824310 
# 
# From -- ./inp_files/13152.got.cif
#   From: 2010.05.17/outbox.cif.g08.bks.cpg/sg39_7_cif.got.tgz:13152.got - 2010.06.03 18:22:40.
