data_PCOD9360258
_publ_section_title
;
Structure prediction by ZEFSAII (Michael W. Deem and Ramdas Pophale) SiO2 
 PCOD9360258
Probable space group: A B M 2
;
_chemical_formula_sum "Si O2"
_cell_formula_units_Z 64
_cell_length_a 21.138306
_cell_length_b 9.452785
_cell_length_c 16.509125
_cell_angle_alpha 90.000000
_cell_angle_beta 90.000000
_cell_angle_gamma 90.000000
_cell_volume 3298.785041
_symmetry_space_group_name_H-M "A B M 2"
_symmetry_group_IT_number 39
_symmetry_cell_setting 'orthorhombic'
loop_
_space_group_symop_operation_xyz
x,y,z
-x,-y,z
-x,1/2+y,z
x,1/2-y,z
x,1/2+y,1/2+z
-x,1/2-y,1/2+z
-x,y,1/2+z
x,-y,1/2+z
loop_
_atom_site_type_symbol
_atom_site_label
_atom_site_fract_x
_atom_site_fract_y
_atom_site_fract_z
Si Si1 0.359391 0.081076 0.243320
Si Si2 0.867468 0.591908 0.605825
Si Si3 0.185107 0.592134 0.386061
Si Si4 0.209439 0.916404 0.737170
Si Si5 0.056444 0.588871 0.489642
Si Si6 0.434633 0.079172 0.406757
Si Si7 0.618912 0.414561 0.084342
Si Si8 0.746935 0.903339 0.494314
O O1 0.367137 0.250000 0.233411
O O2 0.284299 0.049831 0.239771
O O3 0.387490 0.043723 0.331990
O O4 0.391340 0.003223 0.166153
O O5 0.886301 0.750000 0.631884
O O6 0.829268 0.505444 0.672333
O O7 0.923658 0.498742 0.569360
O O8 0.815161 0.608204 0.535260
O O9 0.195642 0.750000 0.352336
O O10 0.180975 0.467790 0.321605
O O11 0.119875 0.596048 0.435806
O O12 0.244855 0.541607 0.439929
O O13 0.202691 0.750000 0.722650
O O14 0.036956 0.750000 0.506637
O O15 0.000000 0.500000 0.449732
O O16 0.441539 0.250000 0.406572
O O17 0.412220 0.040220 0.498332
O O18 0.500000 0.000000 0.390867
O O19 0.602082 0.250000 0.098650
O O20 0.693380 0.420404 0.061505
O O21 0.732698 0.750000 0.452420
#
# Coordination Sequence:
#
# PCOD9360258 Si02
#       8
#     8   8   8   8   8   8   8   8
#     4  10  22  39  61  88 121 157 197 247 303 362
#     4  10  19  33  56  83 113 146 183 228 282 343
#     4  10  21  34  53  81 113 147 187 235 286 344
#     4  11  21  35  56  84 118 149 184 234 296 355
#     4  10  21  38  58  81 110 148 194 239 284 339
#     4  10  23  42  60  82 117 159 203 251 299 357
#     4  10  20  37  61  87 116 152 195 243 299 361
#     4   9  17  32  54  80 110 142 178 223 284 348
#
# _framework density 19.401081000000001
#
# number of rings (size 3 to 8) (size 9 to 14) (size 15 to 20)
#    0.000    2.000    1.250    2.250    0.000    6.500 
#    0.000    4.375    0.000    1.500    0.000    0.000 
#    0.000    0.000    0.000    0.000    0.000    0.000 
#
# Total GULP energy -178300.572551 kJ/mol
# GULP energy per Si atom -5571.892892 kJ/mol
# Density = 1.935692 g / cm^3
# Si number density = 19.401081 Si / 1000 Ang^3
#
#
#
# Elastic Constant Matrix: (Units=GPa)
#
#
# Indices 1 2 3 4 5 6 
#
# 1 47.7365 32.7336 23.2739 0.0000 0.0000 0.0000
# 2 32.7336 89.9999 45.3817 0.0000 0.0000 0.0000
# 3 23.2739 45.3817 86.4162 0.0000 0.0000 0.0000
# 4 0.0000 0.0000 0.0000 18.8553 0.0000 0.0000
# 5 0.0000 0.0000 0.0000 0.0000 18.8900 0.0000
# 6 0.0000 0.0000 0.0000 0.0000 0.0000 15.0744
#
#
#
# Elastic Compliance Matrix: (Units=1/GPa)
#
#
# Indices 1 2 3 4 5 6 
#
# 1 0.028482 -0.008829 -0.003034 0.000000 0.000000 0.000000
# 2 -0.008829 0.017850 -0.006996 0.000000 0.000000 0.000000
# 3 -0.003034 -0.006996 0.016063 0.000000 0.000000 0.000000
# 4 0.000000 0.000000 0.000000 0.053035 0.000000 0.000000
# 5 0.000000 0.000000 0.000000 0.000000 0.052938 0.000000
# 6 0.000000 0.000000 0.000000 0.000000 0.000000 0.066338
#
#
# Mechanical properties :
#
#
# Convention : Reuss Voigt Hill
#
# Bulk Modulus (GPa) = 40.52484 47.43677 43.98081
# Shear Modulus (GPa) = 17.81576 18.74818 18.28197
#
# Velocity S-wave (km/s) = 3.03361 3.11198 3.07305
# Velocity P-wave (km/s) = 5.76226 6.11688 5.94222
#
# Compressibility (1/GPa) = 0.02467622
#
# Stress axis : x y z
#
# Youngs Moduli (GPa) = 35.11000 56.02218 62.25436
#
# Poissons Ratio (x) = 0.49463 0.18889
# Poissons Ratio (y) = 0.30999 0.43554
# Poissons Ratio (z) = 0.10653 0.39194
#
# Static dielectric constant tensor:
#      x y z
#    x 1.689760 0.000000 0.000000 
#    y 0.000000 1.691080 0.000000 
#    z 0.000000 0.000000 1.751870 
# 
# From -- ./inp_files/13205.got.cif
#   From: 2010.05.17/outbox.cif.g08.bks.cpg/sg39_7_cif.got.tgz:13205.got - 2010.06.03 18:22:40.
