data_PCOD9360301
_publ_section_title
;
Structure prediction by ZEFSAII (Michael W. Deem and Ramdas Pophale) SiO2 
 PCOD9360301
Probable space group: A B M 2
;
_chemical_formula_sum "Si O2"
_cell_formula_units_Z 56
_cell_length_a 24.623935
_cell_length_b 8.362136
_cell_length_c 14.811714
_cell_angle_alpha 90.000000
_cell_angle_beta 90.000000
_cell_angle_gamma 90.000000
_cell_volume 3049.860676
_symmetry_space_group_name_H-M "A B M 2"
_symmetry_group_IT_number 39
_symmetry_cell_setting 'orthorhombic'
loop_
_space_group_symop_operation_xyz
x,y,z
-x,-y,z
-x,1/2+y,z
x,1/2-y,z
x,1/2+y,1/2+z
-x,1/2-y,1/2+z
-x,y,1/2+z
x,-y,1/2+z
loop_
_atom_site_type_symbol
_atom_site_label
_atom_site_fract_x
_atom_site_fract_y
_atom_site_fract_z
Si Si1 0.438543 0.441584 0.268480
Si Si2 0.352901 0.558242 0.412265
Si Si3 0.941261 0.942786 0.418210
Si Si4 0.940993 0.558526 0.625805
Si Si5 0.856788 0.442891 0.770667
Si Si6 0.647215 0.944798 0.119423
Si Si7 0.267044 0.943514 0.768158
O O1 0.500000 0.500000 0.267405
O O2 0.437528 0.250000 0.270164
O O3 0.405233 0.502229 0.355407
O O4 0.404787 0.494463 0.179420
O O5 0.352318 0.750000 0.413420
O O6 0.352982 0.499891 0.515968
O O7 0.301156 0.498932 0.355003
O O8 0.941481 0.750000 0.417201
O O9 0.935665 0.995992 0.521839
O O10 0.891888 0.999798 0.356434
O O11 0.000000 0.000000 0.384496
O O12 0.940387 0.750000 0.628439
O O13 0.891990 0.492576 0.684660
O O14 0.000000 0.500000 0.658767
O O15 0.854817 0.250000 0.774222
O O16 0.794908 0.501076 0.768856
O O17 0.647192 0.750000 0.117222
O O18 0.699496 0.994400 0.178815
O O19 0.267040 0.750000 0.768558
#
# Coordination Sequence:
#
# PCOD9360301 Si02
#       7
#     8   8   8   8   8   8   8
#     4  10  20  36  55  79 110 140 171 209 252 299
#     4  10  19  34  55  78 103 135 174 213 251 295
#     4   9  19  34  50  71  99 131 164 204 252 306
#     4  10  20  34  51  72 100 130 165 207 254 305
#     4  10  20  34  53  75 101 133 169 207 254 305
#     4   8  17  34  54  74 102 138 172 207 251 299
#     4   9  19  36  53  73 103 137 170 209 255 303
#
# _framework density 18.361495000000001
#
# number of rings (size 3 to 8) (size 9 to 14) (size 15 to 20)
#    0.000    2.571    0.000    2.571    0.000    4.571 
#    0.000    8.571    0.000    0.000    0.000    0.000 
#    0.000    0.000    0.000    0.000    0.000    0.000 
#
# Total GULP energy -156198.545906 kJ/mol
# GULP energy per Si atom -5578.519497 kJ/mol
# Density = 1.831970 g / cm^3
# Si number density = 18.361495 Si / 1000 Ang^3
#
#
#
# Elastic Constant Matrix: (Units=GPa)
#
#
# Indices 1 2 3 4 5 6 
#
# 1 208.0837 19.9336 106.6634 0.0000 0.0000 0.0000
# 2 19.9336 12.3200 15.9226 0.0000 0.0000 0.0000
# 3 106.6634 15.9226 170.3201 0.0000 0.0000 0.0000
# 4 0.0000 0.0000 0.0000 20.9092 0.0000 0.0000
# 5 0.0000 0.0000 0.0000 0.0000 18.9624 0.0000
# 6 0.0000 0.0000 0.0000 0.0000 0.0000 26.2405
#
#
#
# Elastic Compliance Matrix: (Units=1/GPa)
#
#
# Indices 1 2 3 4 5 6 
#
# 1 0.007569 -0.006961 -0.004089 0.000000 0.000000 0.000000
# 2 -0.006961 0.098727 -0.004870 0.000000 0.000000 0.000000
# 3 -0.004089 -0.004870 0.008887 0.000000 0.000000 0.000000
# 4 0.000000 0.000000 0.000000 0.047826 0.000000 0.000000
# 5 0.000000 0.000000 0.000000 0.000000 0.052736 0.000000
# 6 0.000000 0.000000 0.000000 0.000000 0.000000 0.038109
#
#
# Mechanical properties :
#
#
# Convention : Reuss Voigt Hill
#
# Bulk Modulus (GPa) = 11.99878 75.08478 43.54178
# Shear Modulus (GPa) = 15.95024 29.76937 22.85980
#
# Velocity S-wave (km/s) = 2.95053 4.03090 3.53226
# Velocity P-wave (km/s) = 4.26104 7.91489 6.35618
#
# Compressibility (1/GPa) = 0.08334179
#
# Stress axis : x y z
#
# Youngs Moduli (GPa) = 132.12297 10.12898 112.51855
#
# Poissons Ratio (x) = 0.07051 0.46010
# Poissons Ratio (y) = 0.91974 0.54798
# Poissons Ratio (z) = 0.54027 0.04933
#
# Static dielectric constant tensor:
#      x y z
#    x 1.614050 0.000000 0.000000 
#    y 0.000000 1.637040 0.000000 
#    z 0.000000 0.000000 1.635640 
# 
# From -- ./inp_files/10366.got.cif
#   From: 2010.05.17/outbox.cif.g08.bks.cpg/sg39_6_cif.got.tgz:10366.got - 2010.06.03 18:22:40.
