data_PCOD9360038
_publ_section_title
;
Structure prediction by ZEFSAII (Michael W. Deem and Ramdas Pophale) SiO2 
 PCOD9360038
Probable space group: A B M 2
;
_chemical_formula_sum "Si O2"
_cell_formula_units_Z 56
_cell_length_a 15.526768
_cell_length_b 9.037879
_cell_length_c 20.437777
_cell_angle_alpha 90.000000
_cell_angle_beta 90.000000
_cell_angle_gamma 90.000000
_cell_volume 2868.013840
_symmetry_space_group_name_H-M "A B M 2"
_symmetry_group_IT_number 39
_symmetry_cell_setting 'orthorhombic'
loop_
_space_group_symop_operation_xyz
x,y,z
-x,-y,z
-x,1/2+y,z
x,1/2-y,z
x,1/2+y,1/2+z
-x,1/2-y,1/2+z
-x,y,1/2+z
x,-y,1/2+z
loop_
_atom_site_type_symbol
_atom_site_label
_atom_site_fract_x
_atom_site_fract_y
_atom_site_fract_z
Si Si1 0.278559 0.572440 0.065940
Si Si2 0.279061 0.073116 0.713727
Si Si3 0.912189 0.425868 0.027461
Si Si4 0.129486 0.079211 0.376711
Si Si5 0.410319 0.073770 0.966387
Si Si6 0.668461 0.078253 0.844218
Si Si7 0.914786 0.924323 0.745931
O O1 0.282844 0.750000 0.052597
O O2 0.309450 0.546124 0.140015
O O3 0.178033 0.528837 0.059974
O O4 0.335684 0.486568 0.013862
O O5 0.283112 0.250000 0.726612
O O6 0.177686 0.030033 0.717019
O O7 0.327349 0.986744 0.771126
O O8 0.920077 0.250000 0.036249
O O9 0.000000 0.500000 0.050617
O O10 0.899990 0.455723 0.949842
O O11 0.105121 0.250000 0.361364
O O12 0.233138 0.071145 0.371255
O O13 0.092803 0.970570 0.322100
O O14 0.415217 0.250000 0.968392
O O15 0.500000 0.000000 0.986989
O O16 0.388372 0.017059 0.893478
O O17 0.642030 0.250000 0.844740
O O18 0.922907 0.750000 0.738450
O O19 0.000000 0.000000 0.718171
#
# Coordination Sequence:
#
# PCOD9360038 Si02
#       7
#     8   8   8   8   8   8   8
#     4  10  21  42  63  85 125 168 205 252 307 359
#     4   9  20  37  59  84 116 161 204 246 302 362
#     4  10  20  33  51  79 116 160 207 251 301 353
#     4   9  17  31  51  76 108 150 194 245 303 352
#     4  12  25  42  68  98 125 155 198 246 302 367
#     4  10  19  37  63  90 121 153 192 245 303 358
#     4  10  19  30  46  74 109 151 202 251 300 351
#
# _framework density 19.525708000000002
#
# number of rings (size 3 to 8) (size 9 to 14) (size 15 to 20)
#    0.000    2.000    1.429    2.571    0.000    4.571 
#    0.000    0.714    0.000    3.429    0.000    0.000 
#    0.000    0.000    0.000    0.000    0.000    0.000 
#
# Total GULP energy -156406.079811 kJ/mol
# GULP energy per Si atom -5585.931422 kJ/mol
# Density = 1.948127 g / cm^3
# Si number density = 19.525708 Si / 1000 Ang^3
#
#
#
# Elastic Constant Matrix: (Units=GPa)
#
#
# Indices 1 2 3 4 5 6 
#
# 1 70.5634 38.3746 35.9429 0.0000 0.0000 0.0000
# 2 38.3746 78.0488 52.0655 0.0000 0.0000 0.0000
# 3 35.9429 52.0655 93.4268 0.0000 0.0000 0.0000
# 4 0.0000 0.0000 0.0000 14.9260 0.0000 0.0000
# 5 0.0000 0.0000 0.0000 0.0000 -3.1331 0.0000
# 6 0.0000 0.0000 0.0000 0.0000 0.0000 30.1119
#
#
#
# Elastic Compliance Matrix: (Units=1/GPa)
#
#
# Indices 1 2 3 4 5 6 
#
# 1 0.020051 -0.007501 -0.003534 0.000000 0.000000 0.000000
# 2 -0.007501 0.023201 -0.010043 0.000000 0.000000 0.000000
# 3 -0.003534 -0.010043 0.017660 0.000000 0.000000 0.000000
# 4 0.000000 0.000000 0.000000 0.066997 0.000000 0.000000
# 5 0.000000 0.000000 0.000000 0.000000 -0.319173 0.000000
# 6 0.000000 0.000000 0.000000 0.000000 0.000000 0.033209
#
#
# Mechanical properties :
#
#
# Convention : Reuss Voigt Hill
#
# Bulk Modulus (GPa) = 53.31941 54.97832 54.14887
# Shear Modulus (GPa) = -45.60140 16.09137 -14.75501
#
# Velocity S-wave (km/s) = -4.83790 2.87385 -2.75193
# Velocity P-wave (km/s) = 1.95970 6.26339 4.20652
#
# Compressibility (1/GPa) = 0.01875490
#
# Stress axis : x y z
#
# Youngs Moduli (GPa) = 49.87276 43.10223 56.62484
#
# Poissons Ratio (x) = 0.32333 0.20009
# Poissons Ratio (y) = 0.37412 0.56871
# Poissons Ratio (z) = 0.17623 0.43290
#
# Static dielectric constant tensor:
#      x y z
#    x 1.695230 0.000000 0.000000 
#    y 0.000000 1.654240 0.000000 
#    z 0.000000 0.000000 1.684800 
# 
# From -- ./inp_files/14756.got.cif
#   From: 2010.05.17/outbox.cif.g08.bks.cpg/sg39_8_cif.got.tgz:14756.got - 2010.06.03 18:22:40.
