data_PCOD9360217
_publ_section_title
;
Structure prediction by ZEFSAII (Michael W. Deem and Ramdas Pophale) SiO2 
 PCOD9360217
Probable space group: A B M 2
;
_chemical_formula_sum "Si O2"
_cell_formula_units_Z 64
_cell_length_a 15.045344
_cell_length_b 8.790942
_cell_length_c 25.067113
_cell_angle_alpha 90.000000
_cell_angle_beta 90.000000
_cell_angle_gamma 90.000000
_cell_volume 3315.445212
_symmetry_space_group_name_H-M "A B M 2"
_symmetry_group_IT_number 39
_symmetry_cell_setting 'orthorhombic'
loop_
_space_group_symop_operation_xyz
x,y,z
-x,-y,z
-x,1/2+y,z
x,1/2-y,z
x,1/2+y,1/2+z
-x,1/2-y,1/2+z
-x,y,1/2+z
x,-y,1/2+z
loop_
_atom_site_type_symbol
_atom_site_label
_atom_site_fract_x
_atom_site_fract_y
_atom_site_fract_z
Si Si1 0.135246 0.929840 0.983500
Si Si2 0.719469 0.431377 0.334197
Si Si3 0.319535 0.070728 0.954915
Si Si4 0.908129 0.930226 0.097525
Si Si5 0.271771 0.568899 0.137020
Si Si6 0.400528 0.434195 0.734196
Si Si7 0.586295 0.929784 0.546284
Si Si8 0.092004 0.567828 0.862675
O O1 0.121348 0.750000 0.991000
O O2 0.096900 0.976763 0.925753
O O3 0.238499 0.969144 0.976199
O O4 0.101940 0.015168 0.035899
O O5 0.733775 0.250000 0.328528
O O6 0.674647 0.457538 0.391947
O O7 0.652785 0.480606 0.287672
O O8 0.816923 0.507951 0.336074
O O9 0.300569 0.250000 0.962682
O O10 0.400643 0.019283 0.991161
O O11 0.912270 0.750000 0.098540
O O12 0.822246 0.987615 0.129846
O O13 0.000000 0.000000 0.118386
O O14 0.255794 0.750000 0.142172
O O15 0.335582 0.520770 0.185486
O O16 0.329055 0.543513 0.083695
O O17 0.500000 0.500000 0.731121
O O18 0.407679 0.250000 0.733390
O O19 0.576643 0.750000 0.538187
O O20 0.500000 0.000000 0.574106
O O21 0.090458 0.750000 0.860046
O O22 0.000000 0.500000 0.840729
#
# Coordination Sequence:
#
# PCOD9360217 Si02
#       8
#     8   8   8   8   8   8   8   8
#     4  10  19  33  53  81 118 158 199 239 285 343
#     4   9  20  38  59  85 118 153 195 244 294 346
#     4  10  19  33  54  82 118 157 194 237 291 348
#     4  12  24  37  58  86 119 158 198 241 290 349
#     4  10  22  41  62  85 117 152 193 246 296 347
#     4  10  22  42  67  91 115 150 195 247 299 350
#     4  11  22  35  55  82 116 153 192 238 292 357
#     4  10  20  33  54  84 119 159 200 241 288 345
#
# _framework density 19.303591999999998
#
# number of rings (size 3 to 8) (size 9 to 14) (size 15 to 20)
#    0.000    1.750    1.250    3.375    0.000    5.000 
#    0.000    1.875    0.000    0.000    0.000    0.000 
#    0.000    0.000    0.000    0.000    0.000    0.000 
#
# Total GULP energy -178651.650270 kJ/mol
# GULP energy per Si atom -5582.864071 kJ/mol
# Density = 1.925966 g / cm^3
# Si number density = 19.303592 Si / 1000 Ang^3
#
#
#
# Elastic Constant Matrix: (Units=GPa)
#
#
# Indices 1 2 3 4 5 6 
#
# 1 155.7063 55.0191 60.7031 0.0000 0.0000 0.0000
# 2 55.0191 43.0504 37.5760 0.0000 0.0000 0.0000
# 3 60.7031 37.5760 91.2030 0.0000 0.0000 0.0000
# 4 0.0000 0.0000 0.0000 15.8517 0.0000 0.0000
# 5 0.0000 0.0000 0.0000 0.0000 11.8279 0.0000
# 6 0.0000 0.0000 0.0000 0.0000 0.0000 35.4728
#
#
#
# Elastic Compliance Matrix: (Units=1/GPa)
#
#
# Indices 1 2 3 4 5 6 
#
# 1 0.012101 -0.013172 -0.002627 0.000000 0.000000 0.000000
# 2 -0.013172 0.050611 -0.012085 0.000000 0.000000 0.000000
# 3 -0.002627 -0.012085 0.017692 0.000000 0.000000 0.000000
# 4 0.000000 0.000000 0.000000 0.063085 0.000000 0.000000
# 5 0.000000 0.000000 0.000000 0.000000 0.084546 0.000000
# 6 0.000000 0.000000 0.000000 0.000000 0.000000 0.028191
#
#
# Mechanical properties :
#
#
# Convention : Reuss Voigt Hill
#
# Bulk Modulus (GPa) = 40.59139 66.28402 53.43771
# Shear Modulus (GPa) = 15.61498 21.74123 18.67811
#
# Velocity S-wave (km/s) = 2.84723 3.35965 3.11400
# Velocity P-wave (km/s) = 5.64646 7.03291 6.37747
#
# Compressibility (1/GPa) = 0.02463577
#
# Stress axis : x y z
#
# Youngs Moduli (GPa) = 82.63786 19.75864 56.52224
#
# Poissons Ratio (x) = 0.26026 0.14850
# Poissons Ratio (y) = 1.08852 0.68305
# Poissons Ratio (z) = 0.21711 0.23878
#
# Static dielectric constant tensor:
#      x y z
#    x 1.758130 0.000000 0.000000 
#    y 0.000000 1.651730 0.000000 
#    z 0.000000 0.000000 1.686380 
# 
# From -- ./inp_files/16204.got.cif
#   From: 2010.05.17/outbox.cif.g08.bks.cpg/sg39_9_cif.got.tgz:16204.got - 2010.06.03 18:22:40.
