data_PCOD9360607
_publ_section_title
;
Structure prediction by ZEFSAII (Michael W. Deem and Ramdas Pophale) SiO2 
 PCOD9360607
Probable space group: A B M 2
;
_chemical_formula_sum "Si O2"
_cell_formula_units_Z 64
_cell_length_a 20.406997
_cell_length_b 7.853686
_cell_length_c 21.083174
_cell_angle_alpha 90.000000
_cell_angle_beta 90.000000
_cell_angle_gamma 90.000000
_cell_volume 3379.003389
_symmetry_space_group_name_H-M "A B M 2"
_symmetry_group_IT_number 39
_symmetry_cell_setting 'orthorhombic'
loop_
_space_group_symop_operation_xyz
x,y,z
-x,-y,z
-x,1/2+y,z
x,1/2-y,z
x,1/2+y,1/2+z
-x,1/2-y,1/2+z
-x,y,1/2+z
x,-y,1/2+z
loop_
_atom_site_type_symbol
_atom_site_label
_atom_site_fract_x
_atom_site_fract_y
_atom_site_fract_z
Si Si1 0.288091 0.544610 0.074840
Si Si2 0.571541 0.944906 0.916970
Si Si3 0.076277 0.955694 0.256193
Si Si4 0.431015 0.453608 0.563449
Si Si5 0.157739 0.049284 0.636561
Si Si6 0.923941 0.453718 0.514290
Si Si7 0.146132 0.541739 0.384627
Si Si8 0.286583 0.455710 0.926065
O O1 0.285592 0.750000 0.077159
O O2 0.362003 0.493347 0.093968
O O3 0.228817 0.476507 0.117489
O O4 0.278800 0.496181 0.000931
O O5 0.576573 0.750000 0.898630
O O6 0.642834 0.025374 0.902380
O O7 0.500000 0.000000 0.893108
O O8 0.568358 0.962252 0.993637
O O9 0.079724 0.750000 0.255956
O O10 0.119013 0.021768 0.196972
O O11 0.107775 0.015976 0.322275
O O12 0.000000 0.000000 0.250561
O O13 0.500000 0.500000 0.595331
O O14 0.429733 0.250000 0.554183
O O15 0.167301 0.250000 0.649271
O O16 0.112824 0.030555 0.574544
O O17 0.916887 0.250000 0.518097
O O18 0.890744 0.512010 0.448751
O O19 0.000000 0.500000 0.514828
O O20 0.146017 0.750000 0.384096
O O21 0.221737 0.485575 0.389590
O O22 0.288417 0.250000 0.921584
#
# Coordination Sequence:
#
# PCOD9360607 Si02
#       8
#     8   8   8   8   8   8   8   8
#     4   9  17  28  43  66  95 122 152 192 234 274
#     4   9  15  22  36  58  88 121 151 183 222 269
#     4  10  21  37  54  70  93 123 156 196 237 283
#     4   9  15  23  36  57  88 122 152 184 223 269
#     4  10  20  34  51  72  96 124 157 194 238 283
#     4  11  21  33  51  72  95 121 152 192 237 285
#     4   9  18  33  51  71  93 121 157 195 235 277
#     4   9  16  28  45  66  91 121 156 192 229 273
#
# _framework density 18.940497000000001
#
# number of rings (size 3 to 8) (size 9 to 14) (size 15 to 20)
#    0.000    2.500    1.250    2.625    0.000    2.500 
#    0.000    1.250    0.000    0.000    0.000    0.875 
#    0.000    0.000    0.000    0.000    0.000    0.000 
#
# Total GULP energy -178304.523097 kJ/mol
# GULP energy per Si atom -5572.016347 kJ/mol
# Density = 1.889739 g / cm^3
# Si number density = 18.940497 Si / 1000 Ang^3
#
#
#
# Elastic Constant Matrix: (Units=GPa)
#
#
# Indices 1 2 3 4 5 6 
#
# 1 185.3345 -4.3143 43.7683 0.0000 0.0000 0.0000
# 2 -4.3143 18.5562 -4.3457 0.0000 0.0000 0.0000
# 3 43.7683 -4.3457 73.9943 0.0000 0.0000 0.0000
# 4 0.0000 0.0000 0.0000 10.2669 0.0000 0.0000
# 5 0.0000 0.0000 0.0000 0.0000 19.4288 0.0000
# 6 0.0000 0.0000 0.0000 0.0000 0.0000 34.9680
#
#
#
# Elastic Compliance Matrix: (Units=1/GPa)
#
#
# Indices 1 2 3 4 5 6 
#
# 1 0.006278 0.000598 -0.003679 0.000000 0.000000 0.000000
# 2 0.000598 0.054699 0.002859 0.000000 0.000000 0.000000
# 3 -0.003679 0.002859 0.015858 0.000000 0.000000 0.000000
# 4 0.000000 0.000000 0.000000 0.097400 0.000000 0.000000
# 5 0.000000 0.000000 0.000000 0.000000 0.051470 0.000000
# 6 0.000000 0.000000 0.000000 0.000000 0.000000 0.028598
#
#
# Mechanical properties :
#
#
# Convention : Reuss Voigt Hill
#
# Bulk Modulus (GPa) = 13.09033 38.67796 25.88414
# Shear Modulus (GPa) = 17.84371 29.11784 23.48078
#
# Velocity S-wave (km/s) = 3.07268 3.92514 3.52478
# Velocity P-wave (km/s) = 4.41756 6.40370 5.50101
#
# Compressibility (1/GPa) = 0.07639227
#
# Stress axis : x y z
#
# Youngs Moduli (GPa) = 159.27891 18.28186 63.05829
#
# Poissons Ratio (x) = -0.01094 0.23196
# Poissons Ratio (y) = -0.09528 -0.18026
# Poissons Ratio (z) = 0.58591 -0.05226
#
# Static dielectric constant tensor:
#      x y z
#    x 1.726460 0.000000 0.000000 
#    y 0.000000 1.717420 0.000000 
#    z 0.000000 0.000000 1.619420 
# 
# From -- ./inp_files/15068.got.cif
#   From: 2010.05.17/outbox.cif.g08.bks.cpg/sg39_8_cif.got.tgz:15068.got - 2010.06.03 18:22:40.
