data_PCOD9360506
_publ_section_title
;
Structure prediction by ZEFSAII (Michael W. Deem and Ramdas Pophale) SiO2 
 PCOD9360506
Probable space group: A B M 2
;
_chemical_formula_sum "Si O2"
_cell_formula_units_Z 48
_cell_length_a 9.162561
_cell_length_b 17.578472
_cell_length_c 14.158581
_cell_angle_alpha 90.000000
_cell_angle_beta 90.000000
_cell_angle_gamma 90.000000
_cell_volume 2280.435170
_symmetry_space_group_name_H-M "A B M 2"
_symmetry_group_IT_number 39
_symmetry_cell_setting 'orthorhombic'
loop_
_space_group_symop_operation_xyz
x,y,z
-x,-y,z
-x,1/2+y,z
x,1/2-y,z
x,1/2+y,1/2+z
-x,1/2-y,1/2+z
-x,y,1/2+z
x,-y,1/2+z
loop_
_atom_site_type_symbol
_atom_site_label
_atom_site_fract_x
_atom_site_fract_y
_atom_site_fract_z
Si Si1 0.509089 0.338478 0.774020
Si Si2 0.291769 0.412578 0.902482
Si Si3 0.221342 0.552323 0.765375
Si Si4 0.971249 0.335614 0.312053
Si Si5 0.763337 0.664914 0.631057
Si Si6 0.165573 0.507986 0.058503
O O1 0.548159 0.250000 0.781786
O O2 0.436781 0.368968 0.871243
O O3 0.644113 0.391279 0.749561
O O4 0.382935 0.344950 0.694016
O O5 0.269966 0.481637 0.828702
O O6 0.157137 0.355342 0.885165
O O7 0.274603 0.453166 0.002144
O O8 0.094040 0.600626 0.814269
O O9 0.166821 0.519523 0.666422
O O10 0.026399 0.250000 0.326627
O O11 0.893799 0.338352 0.208696
O O12 0.762323 0.750000 0.589569
O O13 0.784718 0.595685 0.559617
O O14 0.000000 0.500000 0.021082
#
# Coordination Sequence:
#
# PCOD9360506 Si02
#       6
#     8   8   8   8   8   8
#     4  10  22  43  63  88 127 172 214 263 323 389
#     4  11  23  40  64  92 128 174 216 264 326 386
#     4  12  21  40  64  96 126 164 221 273 322 385
#     4  10  19  38  65  91 125 167 207 265 330 386
#     4   9  19  38  63  88 122 165 206 259 329 384
#     4  12  22  39  67 101 130 164 225 281 325 393
#
# _framework density 21.048613
#
# number of rings (size 3 to 8) (size 9 to 14) (size 15 to 20)
#    0.000    1.333    5.000    4.000    0.000    0.000 
#    6.000    8.333    0.000    0.000    0.000    0.000 
#    0.000    0.000    0.000    0.000    0.000    0.000 
#
# Total GULP energy -134201.459292 kJ/mol
# GULP energy per Si atom -5591.727470 kJ/mol
# Density = 2.100071 g / cm^3
# Si number density = 21.048613 Si / 1000 Ang^3
#
#
#
# Elastic Constant Matrix: (Units=GPa)
#
#
# Indices 1 2 3 4 5 6 
#
# 1 63.7719 21.9714 -13.0166 0.0000 0.0000 0.0000
# 2 21.9714 111.2657 11.1458 0.0000 0.0000 0.0000
# 3 -13.0166 11.1458 43.0867 0.0000 0.0000 0.0000
# 4 0.0000 0.0000 0.0000 24.8306 0.0000 0.0000
# 5 0.0000 0.0000 0.0000 0.0000 7.5330 0.0000
# 6 0.0000 0.0000 0.0000 0.0000 0.0000 33.1105
#
#
#
# Elastic Compliance Matrix: (Units=1/GPa)
#
#
# Indices 1 2 3 4 5 6 
#
# 1 0.018547 -0.004336 0.006725 0.000000 0.000000 0.000000
# 2 -0.004336 0.010240 -0.003959 0.000000 0.000000 0.000000
# 3 0.006725 -0.003959 0.026265 0.000000 0.000000 0.000000
# 4 0.000000 0.000000 0.000000 0.040273 0.000000 0.000000
# 5 0.000000 0.000000 0.000000 0.000000 0.132749 0.000000
# 6 0.000000 0.000000 0.000000 0.000000 0.000000 0.030202
#
#
# Mechanical properties :
#
#
# Convention : Reuss Voigt Hill
#
# Bulk Modulus (GPa) = 19.26332 28.70283 23.98308
# Shear Modulus (GPa) = 17.93910 26.29640 22.11775
#
# Velocity S-wave (km/s) = 2.92253 3.53840 3.24511
# Velocity P-wave (km/s) = 4.53431 5.50997 5.04578
#
# Compressibility (1/GPa) = 0.05191212
#
# Stress axis : x y z
#
# Youngs Moduli (GPa) = 53.91571 97.65313 38.07383
#
# Poissons Ratio (x) = 0.42344 -0.25604
# Poissons Ratio (y) = 0.23379 0.15073
# Poissons Ratio (z) = -0.36258 0.38660
#
# Static dielectric constant tensor:
#      x y z
#    x 1.747300 0.000000 0.000000 
#    y 0.000000 1.737990 0.000000 
#    z 0.000000 0.000000 1.764080 
# 
# From -- ./inp_files/8321.got.cif
#   From: 2010.05.17/outbox.cif.g08.bks.cpg/sg39_5_cif.got.tgz:8321.got - 2010.06.03 18:22:40.
