data_PCOD9360150
_publ_section_title
;
Structure prediction by ZEFSAII (Michael W. Deem and Ramdas Pophale) SiO2 
 PCOD9360150
Probable space group: A B M 2
;
_chemical_formula_sum "Si O2"
_cell_formula_units_Z 64
_cell_length_a 21.304097
_cell_length_b 8.925985
_cell_length_c 18.250873
_cell_angle_alpha 90.000000
_cell_angle_beta 90.000000
_cell_angle_gamma 90.000000
_cell_volume 3470.586927
_symmetry_space_group_name_H-M "A B M 2"
_symmetry_group_IT_number 39
_symmetry_cell_setting 'orthorhombic'
loop_
_space_group_symop_operation_xyz
x,y,z
-x,-y,z
-x,1/2+y,z
x,1/2-y,z
x,1/2+y,1/2+z
-x,1/2-y,1/2+z
-x,y,1/2+z
x,-y,1/2+z
loop_
_atom_site_type_symbol
_atom_site_label
_atom_site_fract_x
_atom_site_fract_y
_atom_site_fract_z
Si Si1 0.564700 0.423709 0.977400
Si Si2 0.304171 0.928980 0.479043
Si Si3 0.817414 0.925710 0.406729
Si Si4 0.934295 0.429790 0.487778
Si Si5 0.693283 0.928719 0.152481
Si Si6 0.436089 0.578067 0.156012
Si Si7 0.820880 0.426507 0.731961
Si Si8 0.935075 0.428968 0.149310
O O1 0.500000 0.500000 0.952267
O O2 0.563493 0.750000 0.677979
O O3 0.627833 0.509641 0.954822
O O4 0.563630 0.428785 0.066706
O O5 0.301148 0.750000 0.469794
O O6 0.298049 0.962364 0.566138
O O7 0.247306 0.008690 0.437952
O O8 0.823213 0.750000 0.426584
O O9 0.817880 0.937911 0.319155
O O10 0.875697 0.016433 0.440065
O O11 0.938368 0.250000 0.490848
O O12 0.925394 0.497253 0.569276
O O13 0.000000 0.500000 0.460160
O O14 0.686831 0.750000 0.159122
O O15 0.754944 0.975329 0.196475
O O16 0.628667 0.001515 0.179147
O O17 0.500000 0.500000 0.181318
O O18 0.432728 0.750000 0.955756
O O19 0.830545 0.250000 0.712625
O O20 0.877312 0.522687 0.699426
O O21 0.940539 0.250000 0.142808
O O22 0.000000 0.500000 0.178147
#
# Coordination Sequence:
#
# PCOD9360150 Si02
#       8
#     8   8   8   8   8   8   8   8
#     4   9  16  27  45  72 105 137 173 219 271 325
#     4  10  19  32  53  79 107 141 181 225 274 328
#     4  11  23  38  56  80 111 147 186 227 272 322
#     4  11  22  39  62  86 113 143 179 223 271 323
#     4   9  18  33  53  76 103 138 177 219 268 319
#     4   9  16  26  44  72 104 135 169 214 264 316
#     4  10  22  39  57  79 111 148 184 225 272 321
#     4  11  22  38  62  88 114 143 179 222 268 322
#
# _framework density 18.440684999999998
#
# number of rings (size 3 to 8) (size 9 to 14) (size 15 to 20)
#    0.000    2.000    0.000    5.250    0.000    6.500 
#    0.000    0.000    0.000    0.750    0.000    3.500 
#    0.000    0.000    0.000    0.000    0.000    0.000 
#
# Total GULP energy -178693.679936 kJ/mol
# GULP energy per Si atom -5584.177498 kJ/mol
# Density = 1.839871 g / cm^3
# Si number density = 18.440685 Si / 1000 Ang^3
#
#
#
# Elastic Constant Matrix: (Units=GPa)
#
#
# Indices 1 2 3 4 5 6 
#
# 1 191.2611 93.9965 53.6852 0.0000 0.0000 0.0000
# 2 93.9965 137.3745 43.8121 0.0000 0.0000 0.0000
# 3 53.6852 43.8121 28.1435 0.0000 0.0000 0.0000
# 4 0.0000 0.0000 0.0000 14.5507 0.0000 0.0000
# 5 0.0000 0.0000 0.0000 0.0000 -12.5346 0.0000
# 6 0.0000 0.0000 0.0000 0.0000 0.0000 40.1403
#
#
#
# Elastic Compliance Matrix: (Units=1/GPa)
#
#
# Indices 1 2 3 4 5 6 
#
# 1 0.011457 -0.001726 -0.019167 0.000000 0.000000 0.000000
# 2 -0.001726 0.014717 -0.019618 0.000000 0.000000 0.000000
# 3 -0.019167 -0.019618 0.102635 0.000000 0.000000 0.000000
# 4 0.000000 0.000000 0.000000 0.068725 0.000000 0.000000
# 5 0.000000 0.000000 0.000000 0.000000 -0.079779 0.000000
# 6 0.000000 0.000000 0.000000 0.000000 0.000000 0.024913
#
#
# Mechanical properties :
#
#
# Convention : Reuss Voigt Hill
#
# Bulk Modulus (GPa) = 20.92664 82.19627 51.56146
# Shear Modulus (GPa) = 20.86647 19.45029 20.15838
#
# Velocity S-wave (km/s) = 3.36749 3.25121 3.30986
# Velocity P-wave (km/s) = 5.14711 7.66576 6.52904
#
# Compressibility (1/GPa) = 0.04778598
#
# Stress axis : x y z
#
# Youngs Moduli (GPa) = 87.28323 67.94786 9.74330
#
# Poissons Ratio (x) = 0.11730 0.18675
# Poissons Ratio (y) = 0.15068 0.19114
# Poissons Ratio (z) = 1.67298 1.33298
#
# Static dielectric constant tensor:
#      x y z
#    x 1.623110 0.000000 0.000000 
#    y 0.000000 1.622250 0.000000 
#    z 0.000000 0.000000 1.612610 
# 
# From -- ./inp_files/13218.got.cif
#   From: 2010.05.17/outbox.cif.g08.bks.cpg/sg39_7_cif.got.tgz:13218.got - 2010.06.03 18:22:40.
