data_PCOD9360899
_publ_section_title
;
Structure prediction by ZEFSAII (Michael W. Deem and Ramdas Pophale) SiO2 
 PCOD9360899
Probable space group: A B M 2
;
_chemical_formula_sum "Si O2"
_cell_formula_units_Z 60
_cell_length_a 17.860548
_cell_length_b 7.920650
_cell_length_c 20.100353
_cell_angle_alpha 90.000000
_cell_angle_beta 90.000000
_cell_angle_gamma 90.000000
_cell_volume 2843.539643
_symmetry_space_group_name_H-M "A B M 2"
_symmetry_group_IT_number 39
_symmetry_cell_setting 'orthorhombic'
loop_
_space_group_symop_operation_xyz
x,y,z
-x,-y,z
-x,1/2+y,z
x,1/2-y,z
x,1/2+y,1/2+z
-x,1/2-y,1/2+z
-x,y,1/2+z
x,-y,1/2+z
loop_
_atom_site_type_symbol
_atom_site_label
_atom_site_fract_x
_atom_site_fract_y
_atom_site_fract_z
Si Si1 0.120728 0.547237 0.583600
Si Si2 0.312120 0.947690 0.908967
Si Si3 0.283207 0.049197 0.765307
Si Si4 0.288750 0.950137 0.617576
Si Si5 0.108574 0.949788 0.290280
Si Si6 0.000000 0.500000 0.684163
Si Si7 0.585167 0.056504 0.522266
Si Si8 0.140420 0.453162 0.435318
O O1 0.112058 0.750000 0.598096
O O2 0.205175 0.487175 0.600418
O O3 0.062617 0.446448 0.629836
O O4 0.109210 0.519073 0.505104
O O5 0.315367 0.750000 0.924588
O O6 0.228162 0.009132 0.928694
O O7 0.321325 0.973829 0.830473
O O8 0.375799 0.038190 0.950849
O O9 0.292629 0.250000 0.766102
O O10 0.194874 0.012701 0.774063
O O11 0.306795 0.978999 0.694438
O O12 0.283102 0.750000 0.604334
O O13 0.354373 0.026394 0.572240
O O14 0.094504 0.750000 0.276188
O O15 0.058925 0.061346 0.240834
O O16 0.099367 0.983586 0.368653
O O17 0.581736 0.250000 0.542252
O O18 0.500000 0.000000 0.522646
O O19 0.139221 0.250000 0.434979
#
# Coordination Sequence:
#
# PCOD9360899 Si02
#       8
#     8   8   8   8   8   4   8   8
#     4  11  23  40  63  89 123 164 208 261 315 371
#     4  10  20  37  62  92 123 158 203 254 304 367
#     4  10  20  36  61  90 120 159 205 254 304 367
#     4  10  21  39  62  90 124 165 206 252 310 374
#     4  10  22  39  59  85 118 157 202 255 313 367
#     4  12  24  40  60  90 122 162 210 264 316 366
#     4  11  23  40  64  95 130 165 204 253 310 370
#     4  10  22  39  63  89 117 156 206 256 307 369
#
# _framework density 21.100460999999999
#
# number of rings (size 3 to 8) (size 9 to 14) (size 15 to 20)
#    0.000    1.600    2.667    2.000    0.000    5.867 
#    0.000    0.667    0.000    1.600    0.000    0.000 
#    0.000    0.000    0.000    0.000    0.000    0.000 
#
# Total GULP energy -167320.745270 kJ/mol
# GULP energy per Si atom -5577.358176 kJ/mol
# Density = 2.105244 g / cm^3
# Si number density = 21.100461 Si / 1000 Ang^3
#
#
#
# Elastic Constant Matrix: (Units=GPa)
#
#
# Indices 1 2 3 4 5 6 
#
# 1 124.0901 26.2882 69.1630 0.0000 0.0000 0.0000
# 2 26.2882 38.8681 -1.2089 0.0000 0.0000 0.0000
# 3 69.1630 -1.2089 163.7106 0.0000 0.0000 0.0000
# 4 0.0000 0.0000 0.0000 6.4689 0.0000 0.0000
# 5 0.0000 0.0000 0.0000 0.0000 14.2880 0.0000
# 6 0.0000 0.0000 0.0000 0.0000 0.0000 -29.2251
#
#
#
# Elastic Compliance Matrix: (Units=1/GPa)
#
#
# Indices 1 2 3 4 5 6 
#
# 1 0.013091 -0.009028 -0.005597 0.000000 0.000000 0.000000
# 2 -0.009028 0.031960 0.004050 0.000000 0.000000 0.000000
# 3 -0.005597 0.004050 0.008503 0.000000 0.000000 0.000000
# 4 0.000000 0.000000 0.000000 0.154587 0.000000 0.000000
# 5 0.000000 0.000000 0.000000 0.000000 0.069989 0.000000
# 6 0.000000 0.000000 0.000000 0.000000 0.000000 -0.034217
#
#
# Mechanical properties :
#
#
# Convention : Reuss Voigt Hill
#
# Bulk Modulus (GPa) = 30.86077 57.23925 44.05001
# Shear Modulus (GPa) = 18.12488 13.80146 15.96317
#
# Velocity S-wave (km/s) = 2.93402 2.56028 2.75350
# Velocity P-wave (km/s) = 5.11227 5.99383 5.57052
#
# Compressibility (1/GPa) = 0.03240359
#
# Stress axis : x y z
#
# Youngs Moduli (GPa) = 76.38915 31.28907 117.60707
#
# Poissons Ratio (x) = 0.28248 0.65827
# Poissons Ratio (y) = 0.68964 -0.47632
# Poissons Ratio (z) = 0.42756 -0.12672
#
# Static dielectric constant tensor:
#      x y z
#    x 1.773430 0.000000 0.000000 
#    y 0.000000 1.818120 0.000000 
#    z 0.000000 0.000000 1.744980 
# 
# From -- ./inp_files/12936.got.cif
#   From: 2010.05.17/outbox.cif.g08.bks.cpg/sg39_7_cif.got.tgz:12936.got - 2010.06.03 18:22:40.
