data_PCOD9360587
_publ_section_title
;
Structure prediction by ZEFSAII (Michael W. Deem and Ramdas Pophale) SiO2 
 PCOD9360587
Probable space group: A B M 2
;
_chemical_formula_sum "Si O2"
_cell_formula_units_Z 64
_cell_length_a 14.142120
_cell_length_b 28.533731
_cell_length_c 9.329333
_cell_angle_alpha 90.000000
_cell_angle_beta 90.000000
_cell_angle_gamma 90.000000
_cell_volume 3764.641936
_symmetry_space_group_name_H-M "A B M 2"
_symmetry_group_IT_number 39
_symmetry_cell_setting 'orthorhombic'
loop_
_space_group_symop_operation_xyz
x,y,z
-x,-y,z
-x,1/2+y,z
x,1/2-y,z
x,1/2+y,1/2+z
-x,1/2-y,1/2+z
-x,y,1/2+z
x,-y,1/2+z
loop_
_atom_site_type_symbol
_atom_site_label
_atom_site_fract_x
_atom_site_fract_y
_atom_site_fract_z
Si Si1 0.800360 0.305521 0.162610
Si Si2 0.112218 0.147835 0.919370
Si Si3 0.109978 0.351392 0.409022
Si Si4 0.896044 0.955930 0.961673
Si Si5 0.591194 0.807191 0.215223
Si Si6 0.103127 0.453134 0.310267
Si Si7 0.799326 0.695897 0.165641
Si Si8 0.593454 0.693266 0.544581
O O1 0.816877 0.250000 0.137276
O O2 0.823464 0.318196 0.325354
O O3 0.692975 0.317412 0.119539
O O4 0.869386 0.339905 0.073788
O O5 0.146331 0.094127 0.917306
O O6 0.001853 0.152121 0.880115
O O7 0.125973 0.165226 0.080502
O O8 0.143732 0.402488 0.355059
O O9 0.171418 0.311865 0.329611
O O10 0.000028 0.952574 0.887768
O O11 0.850364 0.001613 0.887364
O O12 0.902533 0.958720 0.136472
O O13 0.591049 0.750000 0.216435
O O14 0.691541 0.820371 0.145646
O O15 0.590869 0.822875 0.380251
O O16 0.498489 0.823168 0.131241
O O17 0.807076 0.750000 0.126748
O O18 0.588176 0.750000 0.541324
#
# Coordination Sequence:
#
# PCOD9360587 Si02
#       8
#     8   8   8   8   8   8   8   8
#     4  11  23  36  51  74 107 145 183 218 252 303
#     4  11  24  34  50  76 106 142 184 215 250 305
#     4  11  22  36  52  72 105 144 183 214 253 303
#     4  10  20  34  53  75  97 130 174 222 273 309
#     4   9  18  32  52  71  95 129 170 221 269 305
#     4  10  20  33  54  74  97 131 172 223 273 309
#     4  11  21  36  51  72 106 143 178 215 253 303
#     4   9  18  33  51  72  95 128 172 220 269 305
#
# _framework density 17.000288999999999
#
# number of rings (size 3 to 8) (size 9 to 14) (size 15 to 20)
#    0.000    1.750    2.500    3.000    8.750    3.000 
#    0.000    0.000    0.000    0.000    0.000    0.000 
#    0.000    6.000    0.000    0.000    0.000    0.000 
#
# Total GULP energy -178206.933163 kJ/mol
# GULP energy per Si atom -5568.966661 kJ/mol
# Density = 1.696160 g / cm^3
# Si number density = 17.000289 Si / 1000 Ang^3
#
#
#
# Elastic Constant Matrix: (Units=GPa)
#
#
# Indices 1 2 3 4 5 6 
#
# 1 66.0319 26.1858 13.4411 0.0000 0.0000 0.0000
# 2 26.1858 74.2946 17.1413 0.0000 0.0000 0.0000
# 3 13.4411 17.1413 57.7613 0.0000 0.0000 0.0000
# 4 0.0000 0.0000 0.0000 26.0910 0.0000 0.0000
# 5 0.0000 0.0000 0.0000 0.0000 26.3782 0.0000
# 6 0.0000 0.0000 0.0000 0.0000 0.0000 -1.5000
#
#
#
# Elastic Compliance Matrix: (Units=1/GPa)
#
#
# Indices 1 2 3 4 5 6 
#
# 1 0.017926 -0.005749 -0.002465 0.000000 0.000000 0.000000
# 2 -0.005749 0.016293 -0.003497 0.000000 0.000000 0.000000
# 3 -0.002465 -0.003497 0.018924 0.000000 0.000000 0.000000
# 4 0.000000 0.000000 0.000000 0.038327 0.000000 0.000000
# 5 0.000000 0.000000 0.000000 0.000000 0.037910 0.000000
# 6 0.000000 0.000000 0.000000 0.000000 0.000000 -0.666668
#
#
# Mechanical properties :
#
#
# Convention : Reuss Voigt Hill
#
# Bulk Modulus (GPa) = 33.64786 34.62493 34.13639
# Shear Modulus (GPa) = -9.92149 19.61514 4.84683
#
# Velocity S-wave (km/s) = -2.41842 3.40047 1.69033
# Velocity P-wave (km/s) = 3.46946 5.98574 4.89215
#
# Compressibility (1/GPa) = 0.02971957
#
# Stress axis : x y z
#
# Youngs Moduli (GPa) = 55.78482 61.37505 52.84248
#
# Poissons Ratio (x) = 0.35287 0.13027
# Poissons Ratio (y) = 0.32073 0.18481
# Poissons Ratio (z) = 0.13752 0.21465
#
# Static dielectric constant tensor:
#      x y z
#    x 1.557570 0.000000 0.000000 
#    y 0.000000 1.617000 0.000000 
#    z 0.000000 0.000000 1.573860 
# 
# From -- ./inp_files/3573.got.cif
#   From: 2010.05.17/outbox.cif.g08.bks.cpg/sg39_2_cif.got.tgz:3573.got - 2010.06.03 18:22:40.
