data_PCOD9360650
_publ_section_title
;
Structure prediction by ZEFSAII (Michael W. Deem and Ramdas Pophale) SiO2 
 PCOD9360650
Probable space group: A B M 2
;
_chemical_formula_sum "Si O2"
_cell_formula_units_Z 60
_cell_length_a 14.924065
_cell_length_b 9.316613
_cell_length_c 24.500645
_cell_angle_alpha 90.000000
_cell_angle_beta 90.000000
_cell_angle_gamma 90.000000
_cell_volume 3406.612263
_symmetry_space_group_name_H-M "A B M 2"
_symmetry_group_IT_number 39
_symmetry_cell_setting 'orthorhombic'
loop_
_space_group_symop_operation_xyz
x,y,z
-x,-y,z
-x,1/2+y,z
x,1/2-y,z
x,1/2+y,1/2+z
-x,1/2-y,1/2+z
-x,y,1/2+z
x,-y,1/2+z
loop_
_atom_site_type_symbol
_atom_site_label
_atom_site_fract_x
_atom_site_fract_y
_atom_site_fract_z
Si Si1 0.675078 0.584093 0.525060
Si Si2 0.271452 0.919981 0.327393
Si Si3 0.593845 0.918992 0.248437
Si Si4 0.122487 0.539859 0.989285
Si Si5 0.406536 0.918303 0.618688
Si Si6 0.092140 0.582027 0.860027
Si Si7 0.969906 0.250000 0.514548
Si Si8 0.411889 0.580774 0.425397
O O1 0.646273 0.750000 0.529545
O O2 0.776864 0.579332 0.504389
O O3 0.665172 0.501164 0.582082
O O4 0.615692 0.498387 0.481041
O O5 0.260576 0.750000 0.316231
O O6 0.330349 0.933194 0.382695
O O7 0.328835 0.000076 0.281241
O O8 0.176849 0.998645 0.335418
O O9 0.587743 0.750000 0.263405
O O10 0.610970 0.927488 0.183431
O O11 0.500000 0.000000 0.259181
O O12 0.103054 0.575798 0.925772
O O13 0.103158 0.374840 0.999780
O O14 0.049265 0.629286 0.022007
O O15 0.412344 0.750000 0.604183
O O16 0.500000 0.000000 0.608172
O O17 0.089331 0.750000 0.844279
O O18 0.000000 0.500000 0.846420
O O19 0.500000 0.500000 0.403481
O O20 0.429371 0.750000 0.433549
#
# Coordination Sequence:
#
# PCOD9360650 Si02
#       8
#     8   8   8   8   8   8   4   8
#     4  12  23  35  55  84 116 152 191 231 285 341
#     4  11  24  37  58  87 115 150 193 234 288 342
#     4  10  21  40  64  87 113 146 191 242 290 341
#     4  11  20  34  54  81 113 153 190 238 280 338
#     4  10  22  40  61  85 112 148 191 239 287 337
#     4  12  21  35  55  82 116 154 193 237 283 337
#     4  10  20  34  54  78 112 150 196 236 282 332
#     4  11  24  38  53  76 116 156 187 226 279 345
#
# _framework density 17.612805999999999
#
# number of rings (size 3 to 8) (size 9 to 14) (size 15 to 20)
#    0.000    1.067    4.000    3.200    2.800    4.267 
#    0.000    0.000    0.000    0.000    3.467    0.000 
#    0.000    0.000    0.000    0.000    0.000    0.000 
#
# Total GULP energy -167019.398352 kJ/mol
# GULP energy per Si atom -5567.313278 kJ/mol
# Density = 1.757272 g / cm^3
# Si number density = 17.612806 Si / 1000 Ang^3
#
#
#
# Elastic Constant Matrix: (Units=GPa)
#
#
# Indices 1 2 3 4 5 6 
#
# 1 121.6555 72.1890 33.8230 0.0000 0.0000 0.0000
# 2 72.1890 217.0502 46.0868 0.0000 0.0000 0.0000
# 3 33.8230 46.0868 40.5168 0.0000 0.0000 0.0000
# 4 0.0000 0.0000 0.0000 29.2301 0.0000 0.0000
# 5 0.0000 0.0000 0.0000 0.0000 25.7185 0.0000
# 6 0.0000 0.0000 0.0000 0.0000 0.0000 35.4554
#
#
#
# Elastic Compliance Matrix: (Units=1/GPa)
#
#
# Indices 1 2 3 4 5 6 
#
# 1 0.011559 -0.002367 -0.006956 0.000000 0.000000 0.000000
# 2 -0.002367 0.006559 -0.005485 0.000000 0.000000 0.000000
# 3 -0.006956 -0.005485 0.036727 0.000000 0.000000 0.000000
# 4 0.000000 0.000000 0.000000 0.034211 0.000000 0.000000
# 5 0.000000 0.000000 0.000000 0.000000 0.038883 0.000000
# 6 0.000000 0.000000 0.000000 0.000000 0.000000 0.028204
#
#
# Mechanical properties :
#
#
# Convention : Reuss Voigt Hill
#
# Bulk Modulus (GPa) = 39.63835 75.93558 57.78696
# Shear Modulus (GPa) = 25.75078 33.22237 29.48657
#
# Velocity S-wave (km/s) = 3.82782 4.34782 4.09608
# Velocity P-wave (km/s) = 6.48772 8.27117 7.43313
#
# Compressibility (1/GPa) = 0.02522809
#
# Stress axis : x y z
#
# Youngs Moduli (GPa) = 86.51530 152.45913 27.22802
#
# Poissons Ratio (x) = 0.36091 0.18941
# Poissons Ratio (y) = 0.20480 0.14934
# Poissons Ratio (z) = 0.60183 0.83619
#
# Static dielectric constant tensor:
#      x y z
#    x 1.549010 0.000000 0.000000 
#    y 0.000000 1.600690 0.000000 
#    z 0.000000 0.000000 1.598950 
# 
# From -- ./inp_files/16057.got.cif
#   From: 2010.05.17/outbox.cif.g08.bks.cpg/sg39_9_cif.got.tgz:16057.got - 2010.06.03 18:22:40.
