data_PCOD9360672
_publ_section_title
;
Structure prediction by ZEFSAII (Michael W. Deem and Ramdas Pophale) SiO2 
 PCOD9360672
Probable space group: A B M 2
;
_chemical_formula_sum "Si O2"
_cell_formula_units_Z 64
_cell_length_a 14.965644
_cell_length_b 8.821491
_cell_length_c 25.251715
_cell_angle_alpha 90.000000
_cell_angle_beta 90.000000
_cell_angle_gamma 90.000000
_cell_volume 3333.713583
_symmetry_space_group_name_H-M "A B M 2"
_symmetry_group_IT_number 39
_symmetry_cell_setting 'orthorhombic'
loop_
_space_group_symop_operation_xyz
x,y,z
-x,-y,z
-x,1/2+y,z
x,1/2-y,z
x,1/2+y,1/2+z
-x,1/2-y,1/2+z
-x,y,1/2+z
x,-y,1/2+z
loop_
_atom_site_type_symbol
_atom_site_label
_atom_site_fract_x
_atom_site_fract_y
_atom_site_fract_z
Si Si1 0.229299 0.932597 0.637190
Si Si2 0.781721 0.569381 0.938891
Si Si3 0.405700 0.929709 0.179413
Si Si4 0.407567 0.567461 0.911642
Si Si5 0.365917 0.424074 0.292380
Si Si6 0.089211 0.432193 0.224814
Si Si7 0.900232 0.432934 0.540113
Si Si8 0.837060 0.424893 0.831250
O O1 0.240588 0.750000 0.635876
O O2 0.173856 0.973902 0.689738
O O3 0.165556 0.976390 0.588415
O O4 0.325324 0.008228 0.643186
O O5 0.769285 0.750000 0.940997
O O6 0.683520 0.492552 0.938445
O O7 0.828139 0.521161 0.883962
O O8 0.846685 0.523579 0.986823
O O9 0.408714 0.750000 0.177214
O O10 0.500000 0.000000 0.162852
O O11 0.388983 0.981768 0.240452
O O12 0.500000 0.500000 0.933515
O O13 0.407747 0.750000 0.913338
O O14 0.402358 0.521328 0.849213
O O15 0.395861 0.250000 0.283349
O O16 0.259970 0.420843 0.303118
O O17 0.084363 0.250000 0.225682
O O18 0.100010 0.486184 0.285100
O O19 0.000000 0.500000 0.200499
O O20 0.908571 0.250000 0.541191
O O21 0.000000 0.500000 0.543253
O O22 0.859597 0.250000 0.844695
#
# Coordination Sequence:
#
# PCOD9360672 Si02
#       8
#     8   8   8   8   8   8   8   8
#     4  10  21  42  63  82 115 152 190 244 294 342
#     4  10  21  37  57  86 118 151 194 243 291 343
#     4  12  24  36  56  86 118 155 196 237 287 346
#     4  10  20  34  55  84 118 159 199 239 287 343
#     4   9  17  33  54  78 114 156 198 236 282 338
#     4  10  20  34  55  82 114 149 187 232 288 348
#     4  10  23  42  67  91 114 149 195 245 298 349
#     4   9  18  34  54  79 114 158 193 231 289 343
#
# _framework density 19.19781
#
# number of rings (size 3 to 8) (size 9 to 14) (size 15 to 20)
#    0.000    2.000    1.250    3.375    0.000    6.500 
#    0.000    3.125    0.000    0.000    0.000    0.000 
#    0.000    0.000    0.000    0.000    0.000    0.000 
#
# Total GULP energy -178595.173822 kJ/mol
# GULP energy per Si atom -5581.099182 kJ/mol
# Density = 1.915411 g / cm^3
# Si number density = 19.197810 Si / 1000 Ang^3
#
#
#
# Elastic Constant Matrix: (Units=GPa)
#
#
# Indices 1 2 3 4 5 6 
#
# 1 157.2788 50.4095 72.8575 0.0000 0.0000 0.0000
# 2 50.4095 50.0641 39.6858 0.0000 0.0000 0.0000
# 3 72.8575 39.6858 102.5912 0.0000 0.0000 0.0000
# 4 0.0000 0.0000 0.0000 19.1343 0.0000 0.0000
# 5 0.0000 0.0000 0.0000 0.0000 16.3414 0.0000
# 6 0.0000 0.0000 0.0000 0.0000 0.0000 32.0853
#
#
#
# Elastic Compliance Matrix: (Units=1/GPa)
#
#
# Indices 1 2 3 4 5 6 
#
# 1 0.010952 -0.007012 -0.005065 0.000000 0.000000 0.000000
# 2 -0.007012 0.033298 -0.007901 0.000000 0.000000 0.000000
# 3 -0.005065 -0.007901 0.016401 0.000000 0.000000 0.000000
# 4 0.000000 0.000000 0.000000 0.052262 0.000000 0.000000
# 5 0.000000 0.000000 0.000000 0.000000 0.061194 0.000000
# 6 0.000000 0.000000 0.000000 0.000000 0.000000 0.031167
#
#
# Mechanical properties :
#
#
# Convention : Reuss Voigt Hill
#
# Bulk Modulus (GPa) = 48.32270 70.64884 59.48577
# Shear Modulus (GPa) = 19.83106 23.31095 21.57100
#
# Velocity S-wave (km/s) = 3.21750 3.48839 3.35568
# Velocity P-wave (km/s) = 6.24729 7.28735 6.78727
#
# Compressibility (1/GPa) = 0.02069421
#
# Stress axis : x y z
#
# Youngs Moduli (GPa) = 91.30664 30.03167 60.97216
#
# Poissons Ratio (x) = 0.21060 0.30884
# Poissons Ratio (y) = 0.64028 0.48173
# Poissons Ratio (z) = 0.46249 0.23727
#
# Static dielectric constant tensor:
#      x y z
#    x 1.699040 0.000000 0.000000 
#    y 0.000000 1.652880 0.000000 
#    z 0.000000 0.000000 1.674420 
# 
# From -- ./inp_files/16222.got.cif
#   From: 2010.05.17/outbox.cif.g08.bks.cpg/sg39_9_cif.got.tgz:16222.got - 2010.06.03 18:22:40.
