data_PCOD9360941
_publ_section_title
;
Structure prediction by ZEFSAII (Michael W. Deem and Ramdas Pophale) SiO2 
 PCOD9360941
Probable space group: A B M 2
;
_chemical_formula_sum "Si O2"
_cell_formula_units_Z 48
_cell_length_a 9.489675
_cell_length_b 8.690546
_cell_length_c 31.565377
_cell_angle_alpha 90.000000
_cell_angle_beta 90.000000
_cell_angle_gamma 90.000000
_cell_volume 2603.211070
_symmetry_space_group_name_H-M "A B M 2"
_symmetry_group_IT_number 39
_symmetry_cell_setting 'orthorhombic'
loop_
_space_group_symop_operation_xyz
x,y,z
-x,-y,z
-x,1/2+y,z
x,1/2-y,z
x,1/2+y,1/2+z
-x,1/2-y,1/2+z
-x,y,1/2+z
x,-y,1/2+z
loop_
_atom_site_type_symbol
_atom_site_label
_atom_site_fract_x
_atom_site_fract_y
_atom_site_fract_z
Si Si1 0.156887 0.434953 0.638380
Si Si2 0.657290 0.565575 0.803589
Si Si3 0.843511 0.435062 0.042414
Si Si4 0.657106 0.566341 0.213806
Si Si5 0.342546 0.564858 0.962765
Si Si6 0.157731 0.065399 0.885814
O O1 0.156805 0.250000 0.641696
O O2 0.200865 0.477868 0.590272
O O3 0.253040 0.506037 0.674589
O O4 0.000000 0.500000 0.643714
O O5 0.500000 0.500000 0.811422
O O6 0.647100 0.750000 0.799711
O O7 0.710067 0.496066 0.759174
O O8 0.760331 0.527610 0.842280
O O9 0.853464 0.250000 0.041011
O O10 0.000000 0.500000 0.034431
O O11 0.734000 0.483956 0.006462
O O12 0.500000 0.500000 0.209577
O O13 0.653863 0.750000 0.214557
O O14 0.500000 0.500000 0.959970
O O15 0.347507 0.750000 0.961359
O O16 0.247591 0.503903 0.924311
O O17 0.152878 0.250000 0.889930
O O18 0.000000 0.000000 0.885845
#
# Coordination Sequence:
#
# PCOD9360941 Si02
#       6
#     8   8   8   8   8   8
#     4  10  20  37  58  83 115 150 190 233 281 334
#     4  10  21  38  59  83 112 147 188 233 282 335
#     4   9  20  37  58  83 112 148 188 232 280 333
#     4  11  22  37  58  84 114 150 190 233 283 335
#     4  11  23  39  59  85 116 150 189 232 280 333
#     4  11  24  40  60  86 115 149 188 231 280 334
#
# _framework density 18.438766000000001
#
# number of rings (size 3 to 8) (size 9 to 14) (size 15 to 20)
#    0.000    1.667    0.000    5.500    0.000    8.667 
#    0.000    3.333    0.000    0.000    0.000    0.000 
#    0.000    0.000    0.000    0.000    0.000    0.000 
#
# Total GULP energy -134116.185297 kJ/mol
# GULP energy per Si atom -5588.174387 kJ/mol
# Density = 1.839680 g / cm^3
# Si number density = 18.438766 Si / 1000 Ang^3
#
#
#
# Elastic Constant Matrix: (Units=GPa)
#
#
# Indices 1 2 3 4 5 6 
#
# 1 129.0103 55.5954 122.5631 0.0000 0.0000 0.0000
# 2 55.5954 86.3367 79.7685 0.0000 0.0000 0.0000
# 3 122.5631 79.7685 200.8355 0.0000 0.0000 0.0000
# 4 0.0000 0.0000 0.0000 25.3148 0.0000 0.0000
# 5 0.0000 0.0000 0.0000 0.0000 41.8687 0.0000
# 6 0.0000 0.0000 0.0000 0.0000 0.0000 36.9252
#
#
#
# Elastic Compliance Matrix: (Units=1/GPa)
#
#
# Indices 1 2 3 4 5 6 
#
# 1 0.018748 -0.002372 -0.010499 0.000000 0.000000 0.000000
# 2 -0.002372 0.018597 -0.005939 0.000000 0.000000 0.000000
# 3 -0.010499 -0.005939 0.013745 0.000000 0.000000 0.000000
# 4 0.000000 0.000000 0.000000 0.039503 0.000000 0.000000
# 5 0.000000 0.000000 0.000000 0.000000 0.023884 0.000000
# 6 0.000000 0.000000 0.000000 0.000000 0.000000 0.027082
#
#
# Mechanical properties :
#
#
# Convention : Reuss Voigt Hill
#
# Bulk Modulus (GPa) = 74.23798 103.55962 88.89880
# Shear Modulus (GPa) = 27.22288 31.37209 29.29748
#
# Velocity S-wave (km/s) = 3.84656 4.12930 3.99043
# Velocity P-wave (km/s) = 7.75095 8.88937 8.33961
#
# Compressibility (1/GPa) = 0.01347019
#
# Stress axis : x y z
#
# Youngs Moduli (GPa) = 53.33915 53.77184 72.75268
#
# Poissons Ratio (x) = 0.12756 0.76383
# Poissons Ratio (y) = 0.12653 0.43206
# Poissons Ratio (z) = 0.56001 0.31934
#
# Static dielectric constant tensor:
#      x y z
#    x 1.580970 0.000000 0.000000 
#    y 0.000000 1.619890 0.000000 
#    z 0.000000 0.000000 1.640190 
# 
# From -- ./inp_files/17581.got.cif
#   From: 2010.05.17/outbox.cif.g08.bks.cpg/sg39_9_cif.got.tgz:17581.got - 2010.06.03 18:22:40.
