data_PCOD9360313
_publ_section_title
;
Structure prediction by ZEFSAII (Michael W. Deem and Ramdas Pophale) SiO2 
 PCOD9360313
Probable space group: A B M 2
;
_chemical_formula_sum "Si O2"
_cell_formula_units_Z 64
_cell_length_a 19.504384
_cell_length_b 7.865615
_cell_length_c 20.645148
_cell_angle_alpha 90.000000
_cell_angle_beta 90.000000
_cell_angle_gamma 90.000000
_cell_volume 3167.254226
_symmetry_space_group_name_H-M "A B M 2"
_symmetry_group_IT_number 39
_symmetry_cell_setting 'orthorhombic'
loop_
_space_group_symop_operation_xyz
x,y,z
-x,-y,z
-x,1/2+y,z
x,1/2-y,z
x,1/2+y,1/2+z
-x,1/2-y,1/2+z
-x,y,1/2+z
x,-y,1/2+z
loop_
_atom_site_type_symbol
_atom_site_label
_atom_site_fract_x
_atom_site_fract_y
_atom_site_fract_z
Si Si1 0.420732 0.546937 0.733150
Si Si2 0.310287 0.041834 0.483082
Si Si3 0.579154 0.545200 0.379117
Si Si4 0.695159 0.047608 0.132462
Si Si5 0.162165 0.044274 0.692633
Si Si6 0.079402 0.549356 0.819351
Si Si7 0.078419 0.045967 0.570270
Si Si8 0.840706 0.541652 0.444552
O O1 0.500000 0.500000 0.721470
O O2 0.415245 0.750000 0.733718
O O3 0.402525 0.483859 0.806124
O O4 0.370787 0.482043 0.677188
O O5 0.312495 0.250000 0.484705
O O6 0.372083 0.983303 0.436875
O O7 0.311755 0.983406 0.558277
O O8 0.238646 0.992316 0.449420
O O9 0.500000 0.500000 0.390585
O O10 0.584681 0.750000 0.377707
O O11 0.705173 0.250000 0.125797
O O12 0.762465 0.982665 0.170884
O O13 0.163927 0.250000 0.692951
O O14 0.109991 0.983582 0.637206
O O15 0.130022 0.991138 0.760364
O O16 0.077650 0.750000 0.827280
O O17 0.114996 0.477606 0.884120
O O18 0.000000 0.500000 0.809037
O O19 0.084189 0.250000 0.570968
O O20 0.122824 0.984309 0.510186
O O21 0.000000 0.000000 0.562686
O O22 0.841301 0.750000 0.443358
#
# Coordination Sequence:
#
# PCOD9360313 Si02
#       8
#     8   8   8   8   8   8   8   8
#     4  10  21  37  58  85 116 149 186 227 271 324
#     4   9  17  34  58  82 108 144 185 222 269 327
#     4   9  19  35  58  83 110 144 182 223 266 319
#     4  10  20  36  59  84 113 149 185 227 276 328
#     4  10  21  37  56  80 112 147 184 225 275 332
#     4  11  23  37  57  81 110 145 184 233 282 333
#     4  10  19  34  56  79 103 140 183 224 270 324
#     4   9  18  34  56  80 106 140 184 226 270 328
#
# _framework density 20.206778
#
# number of rings (size 3 to 8) (size 9 to 14) (size 15 to 20)
#    0.000    2.250    1.250    1.500    1.750    3.000 
#    0.000    2.500    0.000    2.250    0.000    0.000 
#    0.000    0.000    0.000    0.000    0.000    0.000 
#
# Total GULP energy -178579.572326 kJ/mol
# GULP energy per Si atom -5580.611635 kJ/mol
# Density = 2.016079 g / cm^3
# Si number density = 20.206778 Si / 1000 Ang^3
#
#
#
# Elastic Constant Matrix: (Units=GPa)
#
#
# Indices 1 2 3 4 5 6 
#
# 1 93.2634 -4.7204 31.3109 0.0000 0.0000 0.0000
# 2 -4.7204 18.8106 1.4990 0.0000 0.0000 0.0000
# 3 31.3109 1.4990 85.7791 0.0000 0.0000 0.0000
# 4 0.0000 0.0000 0.0000 16.3876 0.0000 0.0000
# 5 0.0000 0.0000 0.0000 0.0000 39.8315 0.0000
# 6 0.0000 0.0000 0.0000 0.0000 0.0000 17.0812
#
#
#
# Elastic Compliance Matrix: (Units=1/GPa)
#
#
# Indices 1 2 3 4 5 6 
#
# 1 0.012444 0.003490 -0.004603 0.000000 0.000000 0.000000
# 2 0.003490 0.054214 -0.002221 0.000000 0.000000 0.000000
# 3 -0.004603 -0.002221 0.013377 0.000000 0.000000 0.000000
# 4 0.000000 0.000000 0.000000 0.061022 0.000000 0.000000
# 5 0.000000 0.000000 0.000000 0.000000 0.025106 0.000000
# 6 0.000000 0.000000 0.000000 0.000000 0.000000 0.058544
#
#
# Mechanical properties :
#
#
# Convention : Reuss Voigt Hill
#
# Bulk Modulus (GPa) = 13.63030 28.22576 20.92803
# Shear Modulus (GPa) = 19.54405 25.97763 22.76084
#
# Velocity S-wave (km/s) = 3.11336 3.58940 3.35982
# Velocity P-wave (km/s) = 4.43667 5.58365 5.04288
#
# Compressibility (1/GPa) = 0.07336598
#
# Stress axis : x y z
#
# Youngs Moduli (GPa) = 80.35722 18.44530 74.75522
#
# Poissons Ratio (x) = -0.06437 0.34413
# Poissons Ratio (y) = -0.28042 0.16604
# Poissons Ratio (z) = 0.36992 0.04097
#
# Static dielectric constant tensor:
#      x y z
#    x 1.696630 0.000000 0.000000 
#    y 0.000000 1.740810 0.000000 
#    z 0.000000 0.000000 1.714020 
# 
# From -- ./inp_files/13163.got.cif
#   From: 2010.05.17/outbox.cif.g08.bks.cpg/sg39_7_cif.got.tgz:13163.got - 2010.06.03 18:22:40.
