data_PCOD9360129
_publ_section_title
;
Structure prediction by ZEFSAII (Michael W. Deem and Ramdas Pophale) SiO2 
 PCOD9360129
Probable space group: A B M 2
;
_chemical_formula_sum "Si O2"
_cell_formula_units_Z 64
_cell_length_a 17.259148
_cell_length_b 8.994435
_cell_length_c 21.861821
_cell_angle_alpha 90.000000
_cell_angle_beta 90.000000
_cell_angle_gamma 90.000000
_cell_volume 3393.747872
_symmetry_space_group_name_H-M "A B M 2"
_symmetry_group_IT_number 39
_symmetry_cell_setting 'orthorhombic'
loop_
_space_group_symop_operation_xyz
x,y,z
-x,-y,z
-x,1/2+y,z
x,1/2-y,z
x,1/2+y,1/2+z
-x,1/2-y,1/2+z
-x,y,1/2+z
x,-y,1/2+z
loop_
_atom_site_type_symbol
_atom_site_label
_atom_site_fract_x
_atom_site_fract_y
_atom_site_fract_z
Si Si1 0.919609 0.419603 0.431470
Si Si2 0.582459 0.931064 0.446114
Si Si3 0.243197 0.923714 0.897167
Si Si4 0.617855 0.928819 0.583425
Si Si5 0.728905 0.577277 0.255455
Si Si6 0.217660 0.425855 0.636604
Si Si7 0.425456 0.073182 0.718148
Si Si8 0.076184 0.419164 0.078253
O O1 0.918571 0.250000 0.407995
O O2 0.835227 0.494282 0.419455
O O3 0.926809 0.414001 0.504944
O O4 0.000000 0.500000 0.409807
O O5 0.576857 0.750000 0.442068
O O6 0.668169 0.970912 0.417423
O O7 0.589160 0.980938 0.517642
O O8 0.500000 0.000000 0.422774
O O9 0.237629 0.750000 0.916214
O O10 0.239562 0.933410 0.823663
O O11 0.609770 0.750000 0.582063
O O12 0.707465 0.964346 0.595630
O O13 0.580389 0.980132 0.647201
O O14 0.711909 0.750000 0.242621
O O15 0.780225 0.511293 0.200953
O O16 0.650661 0.482853 0.251228
O O17 0.220536 0.250000 0.648208
O O18 0.145522 0.477771 0.598585
O O19 0.429740 0.250000 0.718503
O O20 0.500000 0.000000 0.747345
O O21 0.084284 0.250000 0.100610
O O22 0.000000 0.500000 0.101840
#
# Coordination Sequence:
#
# PCOD9360129 Si02
#       8
#     8   8   8   8   8   8   8   8
#     4  10  21  37  61  90 118 147 183 226 276 332
#     4  10  20  35  53  77 109 145 183 226 275 330
#     4  10  22  39  58  79 110 151 192 235 284 330
#     4   8  16  30  50  75 103 134 171 216 271 329
#     4  10  21  37  54  75 104 141 185 231 276 328
#     4  10  19  34  56  80 106 140 178 222 276 331
#     4  10  19  32  51  76 103 136 178 226 280 335
#     4  10  20  34  54  84 116 144 173 212 264 325
#
# _framework density 18.858207
#
# number of rings (size 3 to 8) (size 9 to 14) (size 15 to 20)
#    0.000    2.250    0.000    3.750    0.000    4.500 
#    0.000    5.000    0.000    3.000    0.000    0.000 
#    0.000    0.000    0.000    0.000    0.000    0.000 
#
# Total GULP energy -178230.442759 kJ/mol
# GULP energy per Si atom -5569.701336 kJ/mol
# Density = 1.881528 g / cm^3
# Si number density = 18.858207 Si / 1000 Ang^3
#
#
#
# Elastic Constant Matrix: (Units=GPa)
#
#
# Indices 1 2 3 4 5 6 
#
# 1 135.2420 45.2051 8.3848 0.0000 0.0000 0.0000
# 2 45.2051 66.6903 18.1792 0.0000 0.0000 0.0000
# 3 8.3848 18.1792 26.0617 0.0000 0.0000 0.0000
# 4 0.0000 0.0000 0.0000 7.8938 0.0000 0.0000
# 5 0.0000 0.0000 0.0000 0.0000 -64.9484 0.0000
# 6 0.0000 0.0000 0.0000 0.0000 0.0000 32.7532
#
#
#
# Elastic Compliance Matrix: (Units=1/GPa)
#
#
# Indices 1 2 3 4 5 6 
#
# 1 0.009628 -0.007016 0.001796 0.000000 0.000000 0.000000
# 2 -0.007016 0.023628 -0.014224 0.000000 0.000000 0.000000
# 3 0.001796 -0.014224 0.047715 0.000000 0.000000 0.000000
# 4 0.000000 0.000000 0.000000 0.126682 0.000000 0.000000
# 5 0.000000 0.000000 0.000000 0.000000 -0.015397 0.000000
# 6 0.000000 0.000000 0.000000 0.000000 0.000000 0.030531
#
#
# Mechanical properties :
#
#
# Convention : Reuss Voigt Hill
#
# Bulk Modulus (GPa) = 23.76272 41.28138 32.52205
# Shear Modulus (GPa) = 18.13557 5.55470 11.84514
#
# Velocity S-wave (km/s) = 3.10446 1.71811 2.50894
# Velocity P-wave (km/s) = 5.04761 5.08663 5.06716
#
# Compressibility (1/GPa) = 0.04208273
#
# Stress axis : x y z
#
# Youngs Moduli (GPa) = 103.86564 42.32337 20.95791
#
# Poissons Ratio (x) = 0.29693 -0.03765
# Poissons Ratio (y) = 0.72869 0.29811
# Poissons Ratio (z) = -0.18657 0.60202
#
# Static dielectric constant tensor:
#      x y z
#    x 1.798920 0.000000 0.000000 
#    y 0.000000 1.715600 0.000000 
#    z 0.000000 0.000000 1.661470 
# 
# From -- ./inp_files/16150.got.cif
#   From: 2010.05.17/outbox.cif.g08.bks.cpg/sg39_9_cif.got.tgz:16150.got - 2010.06.03 18:22:40.
