data_PCOD9360555
_publ_section_title
;
Structure prediction by ZEFSAII (Michael W. Deem and Ramdas Pophale) SiO2 
 PCOD9360555
Probable space group: A B M 2
;
_chemical_formula_sum "Si O2"
_cell_formula_units_Z 60
_cell_length_a 14.216661
_cell_length_b 28.488497
_cell_length_c 8.497123
_cell_angle_alpha 90.000000
_cell_angle_beta 90.000000
_cell_angle_gamma 90.000000
_cell_volume 3441.430869
_symmetry_space_group_name_H-M "A B M 2"
_symmetry_group_IT_number 39
_symmetry_cell_setting 'orthorhombic'
loop_
_space_group_symop_operation_xyz
x,y,z
-x,-y,z
-x,1/2+y,z
x,1/2-y,z
x,1/2+y,1/2+z
-x,1/2-y,1/2+z
-x,y,1/2+z
x,-y,1/2+z
loop_
_atom_site_type_symbol
_atom_site_label
_atom_site_fract_x
_atom_site_fract_y
_atom_site_fract_z
Si Si1 0.526986 0.147531 0.937270
Si Si2 0.951134 0.693704 0.722176
Si Si3 0.407480 0.061576 0.076495
Si Si4 0.788341 0.695702 0.932101
Si Si5 0.296077 0.363359 0.216205
Si Si6 0.611304 0.197763 0.226813
Si Si7 0.500000 0.000000 0.339531
Si Si8 0.140770 0.193130 0.385370
O O1 0.601499 0.143004 0.795407
O O2 0.453061 0.186124 0.877271
O O3 0.466353 0.102501 0.988464
O O4 0.584763 0.162526 0.090021
O O5 0.943193 0.750000 0.734126
O O6 0.885803 0.675603 0.865039
O O7 0.908066 0.682321 0.552774
O O8 0.060221 0.684115 0.753905
O O9 0.310504 0.084625 0.139576
O O10 0.461757 0.040726 0.226697
O O11 0.415534 0.019303 0.949969
O O12 0.800764 0.750000 0.982507
O O13 0.718171 0.695264 0.783026
O O14 0.735997 0.668398 0.069725
O O15 0.224153 0.343312 0.347787
O O16 0.591599 0.250000 0.169250
O O17 0.165438 0.250000 0.383396
#
# Coordination Sequence:
#
# PCOD9360555 Si02
#       8
#     8   8   8   8   8   8   4   8
#     4  12  21  36  49  72 108 145 184 230 274 317
#     4   9  18  35  54  76 109 154 205 244 278 310
#     4  11  21  39  58  81 101 141 171 234 283 346
#     4  10  20  33  49  73 108 153 195 232 268 310
#     4  12  22  33  54  79 112 144 186 233 279 326
#     4  11  21  31  45  68 105 154 194 219 255 312
#     4  10  22  40  64  76 100 134 182 222 304 358
#     4  10  20  34  54  79 112 156 197 238 277 319
#
# _framework density 17.434608000000001
#
# number of rings (size 3 to 8) (size 9 to 14) (size 15 to 20)
#    0.000    1.333    4.000    2.400    0.000    6.400 
#    0.000    0.000    0.000    0.000    0.000    0.000 
#    0.000   12.800    0.000    0.000    0.000    0.000 
#
# Total GULP energy -167053.255941 kJ/mol
# GULP energy per Si atom -5568.441865 kJ/mol
# Density = 1.739493 g / cm^3
# Si number density = 17.434608 Si / 1000 Ang^3
#
#
#
# Elastic Constant Matrix: (Units=GPa)
#
#
# Indices 1 2 3 4 5 6 
#
# 1 75.4318 19.1728 14.9976 0.0000 0.0000 0.0000
# 2 19.1728 41.5809 8.4733 0.0000 0.0000 0.0000
# 3 14.9976 8.4733 64.1777 0.0000 0.0000 0.0000
# 4 0.0000 0.0000 0.0000 27.6659 0.0000 0.0000
# 5 0.0000 0.0000 0.0000 0.0000 35.4605 0.0000
# 6 0.0000 0.0000 0.0000 0.0000 0.0000 16.5464
#
#
#
# Elastic Compliance Matrix: (Units=1/GPa)
#
#
# Indices 1 2 3 4 5 6 
#
# 1 0.015475 -0.006575 -0.002748 0.000000 0.000000 0.000000
# 2 -0.006575 0.027508 -0.002095 0.000000 0.000000 0.000000
# 3 -0.002748 -0.002095 0.016501 0.000000 0.000000 0.000000
# 4 0.000000 0.000000 0.000000 0.036146 0.000000 0.000000
# 5 0.000000 0.000000 0.000000 0.000000 0.028200 0.000000
# 6 0.000000 0.000000 0.000000 0.000000 0.000000 0.060436
#
#
# Mechanical properties :
#
#
# Convention : Reuss Voigt Hill
#
# Bulk Modulus (GPa) = 27.28803 29.60864 28.44834
# Shear Modulus (GPa) = 22.79789 25.17101 23.98445
#
# Velocity S-wave (km/s) = 3.62003 3.80378 3.71304
# Velocity P-wave (km/s) = 5.75834 6.02588 5.89362
#
# Compressibility (1/GPa) = 0.03664611
#
# Stress axis : x y z
#
# Youngs Moduli (GPa) = 64.62176 36.35262 60.60395
#
# Poissons Ratio (x) = 0.23903 0.16655
# Poissons Ratio (y) = 0.42491 0.12698
# Poissons Ratio (z) = 0.17759 0.07617
#
# Static dielectric constant tensor:
#      x y z
#    x 1.624430 0.000000 0.000000 
#    y 0.000000 1.590980 0.000000 
#    z 0.000000 0.000000 1.659990 
# 
# From -- ./inp_files/2879.got.cif
#   From: 2010.05.17/outbox.cif.g08.bks.cpg/sg39_2_cif.got.tgz:2879.got - 2010.06.03 18:22:40.
