data_PCOD9360114
_publ_section_title
;
Structure prediction by ZEFSAII (Michael W. Deem and Ramdas Pophale) SiO2 
 PCOD9360114
Probable space group: A B M 2
;
_chemical_formula_sum "Si O2"
_cell_formula_units_Z 64
_cell_length_a 17.903886
_cell_length_b 9.103044
_cell_length_c 23.518199
_cell_angle_alpha 90.000000
_cell_angle_beta 90.000000
_cell_angle_gamma 90.000000
_cell_volume 3832.992828
_symmetry_space_group_name_H-M "A B M 2"
_symmetry_group_IT_number 39
_symmetry_cell_setting 'orthorhombic'
loop_
_space_group_symop_operation_xyz
x,y,z
-x,-y,z
-x,1/2+y,z
x,1/2-y,z
x,1/2+y,1/2+z
-x,1/2-y,1/2+z
-x,y,1/2+z
x,-y,1/2+z
loop_
_atom_site_type_symbol
_atom_site_label
_atom_site_fract_x
_atom_site_fract_y
_atom_site_fract_z
Si Si1 0.152469 0.923497 0.078120
Si Si2 0.076552 0.423412 0.463654
Si Si3 0.732976 0.575903 0.298230
Si Si4 0.798281 0.082692 0.194742
Si Si5 0.364423 0.081387 0.632796
Si Si6 0.573905 0.075846 0.740091
Si Si7 0.226392 0.573904 0.416033
Si Si8 0.701312 0.923604 0.031191
O O1 0.176240 0.750000 0.074324
O O2 0.142282 0.953173 0.145059
O O3 0.218124 0.029260 0.056389
O O4 0.087537 0.940199 0.032073
O O5 0.075846 0.250000 0.451009
O O6 0.148906 0.498029 0.435194
O O7 0.000000 0.500000 0.445911
O O8 0.739696 0.750000 0.307314
O O9 0.788243 0.523753 0.247787
O O10 0.648968 0.544070 0.275845
O O11 0.749777 0.488503 0.355443
O O12 0.810034 0.250000 0.214651
O O13 0.718851 0.079914 0.160962
O O14 0.389278 0.250000 0.630501
O O15 0.412465 0.987944 0.676950
O O16 0.356680 0.011683 0.570337
O O17 0.564330 0.250000 0.737605
O O18 0.500000 0.000000 0.764166
O O19 0.216957 0.750000 0.415007
O O20 0.288744 0.540458 0.464609
O O21 0.689602 0.750000 0.037936
#
# Coordination Sequence:
#
# PCOD9360114 Si02
#       8
#     8   8   8   8   8   8   8   8
#     4   8  15  27  44  66  92 122 152 186 233 287
#     4  10  19  32  50  73 101 130 163 204 251 303
#     4  10  20  32  48  72  99 129 168 212 252 295
#     4   8  14  26  44  66  91 119 152 189 232 282
#     4   9  16  27  45  68  94 123 152 186 234 287
#     4  10  20  33  50  73 100 129 163 204 252 303
#     4  10  20  33  50  72  98 132 172 212 252 295
#     4   9  16  26  43  68  94 118 150 193 237 282
#
# _framework density 16.697136
#
# number of rings (size 3 to 8) (size 9 to 14) (size 15 to 20)
#    0.000    2.750    0.000    3.000    0.000    6.500 
#    0.000    0.000    0.000    1.500    0.000    5.250 
#    0.000    0.000    0.000    0.000    0.000    0.000 
#
# Total GULP energy -178163.786766 kJ/mol
# GULP energy per Si atom -5567.618336 kJ/mol
# Density = 1.665913 g / cm^3
# Si number density = 16.697136 Si / 1000 Ang^3
#
#
#
# Elastic Constant Matrix: (Units=GPa)
#
#
# Indices 1 2 3 4 5 6 
#
# 1 48.6243 37.8360 31.5883 0.0000 0.0000 0.0000
# 2 37.8360 83.7850 62.9707 0.0000 0.0000 0.0000
# 3 31.5883 62.9707 115.1365 0.0000 0.0000 0.0000
# 4 0.0000 0.0000 0.0000 27.3084 0.0000 0.0000
# 5 0.0000 0.0000 0.0000 0.0000 10.9106 0.0000
# 6 0.0000 0.0000 0.0000 0.0000 0.0000 20.4321
#
#
#
# Elastic Compliance Matrix: (Units=1/GPa)
#
#
# Indices 1 2 3 4 5 6 
#
# 1 0.031856 -0.013273 -0.001481 0.000000 0.000000 0.000000
# 2 -0.013273 0.025796 -0.010467 0.000000 0.000000 0.000000
# 3 -0.001481 -0.010467 0.014816 0.000000 0.000000 0.000000
# 4 0.000000 0.000000 0.000000 0.036619 0.000000 0.000000
# 5 0.000000 0.000000 0.000000 0.000000 0.091654 0.000000
# 6 0.000000 0.000000 0.000000 0.000000 0.000000 0.048943
#
#
# Mechanical properties :
#
#
# Convention : Reuss Voigt Hill
#
# Bulk Modulus (GPa) = 45.39858 56.92620 51.16239
# Shear Modulus (GPa) = 16.26199 19.40692 17.83445
#
# Velocity S-wave (km/s) = 3.12418 3.41294 3.27175
# Velocity P-wave (km/s) = 6.34527 7.04970 6.70674
#
# Compressibility (1/GPa) = 0.02202712
#
# Stress axis : x y z
#
# Youngs Moduli (GPa) = 31.39169 38.76630 67.49429
#
# Poissons Ratio (x) = 0.51453 0.09993
# Poissons Ratio (y) = 0.41665 0.70645
# Poissons Ratio (z) = 0.04648 0.40576
#
# Static dielectric constant tensor:
#      x y z
#    x 1.574550 0.000000 0.000000 
#    y 0.000000 1.556150 0.000000 
#    z 0.000000 0.000000 1.582530 
# 
# From -- ./inp_files/16324.got.cif
#   From: 2010.05.17/outbox.cif.g08.bks.cpg/sg39_9_cif.got.tgz:16324.got - 2010.06.03 18:22:40.
