data_PCOD9360405
_publ_section_title
;
Structure prediction by ZEFSAII (Michael W. Deem and Ramdas Pophale) SiO2 
 PCOD9360405
Probable space group: A B M 2
;
_chemical_formula_sum "Si O2"
_cell_formula_units_Z 64
_cell_length_a 12.717529
_cell_length_b 14.401582
_cell_length_c 17.953184
_cell_angle_alpha 90.000000
_cell_angle_beta 90.000000
_cell_angle_gamma 90.000000
_cell_volume 3288.171192
_symmetry_space_group_name_H-M "A B M 2"
_symmetry_group_IT_number 39
_symmetry_cell_setting 'orthorhombic'
loop_
_space_group_symop_operation_xyz
x,y,z
-x,-y,z
-x,1/2+y,z
x,1/2-y,z
x,1/2+y,1/2+z
-x,1/2-y,1/2+z
-x,y,1/2+z
x,-y,1/2+z
loop_
_atom_site_type_symbol
_atom_site_label
_atom_site_fract_x
_atom_site_fract_y
_atom_site_fract_z
Si Si1 0.881479 0.351979 0.246740
Si Si2 0.892058 0.979021 0.613608
Si Si3 0.612371 0.017324 0.920106
Si Si4 0.658328 0.359936 0.310712
Si Si5 0.793677 0.640714 0.487995
Si Si6 0.429953 0.640676 0.774761
Si Si7 0.208951 0.861820 0.706315
Si Si8 0.941258 0.098429 0.848321
O O1 0.872542 0.250000 0.212686
O O2 0.925607 0.423936 0.187960
O O3 0.765919 0.384826 0.269928
O O4 0.959521 0.345714 0.316238
O O5 0.829500 0.905380 0.564856
O O6 0.832451 0.072024 0.640094
O O7 0.000000 0.000000 0.571202
O O8 0.696108 0.076407 0.964411
O O9 0.590573 0.079384 0.847057
O O10 0.500000 0.000000 0.958482
O O11 0.651812 0.920094 0.885830
O O12 0.661967 0.250000 0.326886
O O13 0.553979 0.376825 0.260228
O O14 0.768736 0.750000 0.493824
O O15 0.882431 0.629035 0.423317
O O16 0.420794 0.750000 0.793202
O O17 0.334200 0.622425 0.718472
O O18 0.191066 0.750000 0.696084
O O19 0.146713 0.892381 0.782148
O O20 0.000000 0.000000 0.858336
#
# Coordination Sequence:
#
# PCOD9360405 Si02
#       8
#     8   8   8   8   8   8   8   8
#     4  11  20  35  59  87 122 166 210 258 319 380
#     4  12  25  42  57  87 128 170 205 262 324 394
#     4  10  19  35  60  88 121 163 207 262 320 376
#     4   9  19  33  55  91 129 163 205 265 322 365
#     4  12  26  43  64  95 129 169 216 267 326 392
#     4   9  17  32  58  93 124 155 210 271 315 368
#     4  11  20  36  65  93 120 166 219 265 316 378
#     4  12  21  38  65  94 126 157 210 267 313 371
#
# _framework density 19.463706999999999
#
# number of rings (size 3 to 8) (size 9 to 14) (size 15 to 20)
#    0.000    1.250    3.750    3.750    0.000    1.000 
#    0.000    1.875    0.000    1.500    0.000    0.000 
#    0.000    0.000    0.000    0.000    0.000    0.000 
#
# Total GULP energy -178383.203745 kJ/mol
# GULP energy per Si atom -5574.475117 kJ/mol
# Density = 1.941941 g / cm^3
# Si number density = 19.463707 Si / 1000 Ang^3
#
#
#
# Elastic Constant Matrix: (Units=GPa)
#
#
# Indices 1 2 3 4 5 6 
#
# 1 117.3997 38.8588 22.9371 0.0000 0.0000 0.0000
# 2 38.8588 99.6919 29.7677 0.0000 0.0000 0.0000
# 3 22.9371 29.7677 47.7249 0.0000 0.0000 0.0000
# 4 0.0000 0.0000 0.0000 9.0417 0.0000 0.0000
# 5 0.0000 0.0000 0.0000 0.0000 14.3721 0.0000
# 6 0.0000 0.0000 0.0000 0.0000 0.0000 29.2642
#
#
#
# Elastic Compliance Matrix: (Units=1/GPa)
#
#
# Indices 1 2 3 4 5 6 
#
# 1 0.010107 -0.003059 -0.002950 0.000000 0.000000 0.000000
# 2 -0.003059 0.013252 -0.006796 0.000000 0.000000 0.000000
# 3 -0.002950 -0.006796 0.026610 0.000000 0.000000 0.000000
# 4 0.000000 0.000000 0.000000 0.110598 0.000000 0.000000
# 5 0.000000 0.000000 0.000000 0.000000 0.069579 0.000000
# 6 0.000000 0.000000 0.000000 0.000000 0.000000 0.034171
#
#
# Mechanical properties :
#
#
# Convention : Reuss Voigt Hill
#
# Bulk Modulus (GPa) = 41.05003 49.77153 45.41078
# Shear Modulus (GPa) = 16.77590 22.08579 19.43084
#
# Velocity S-wave (km/s) = 2.93901 3.37221 3.16303
# Velocity P-wave (km/s) = 5.71431 6.38666 6.05982
#
# Compressibility (1/GPa) = 0.02436052
#
# Stress axis : x y z
#
# Youngs Moduli (GPa) = 98.94524 75.45795 37.58004
#
# Poissons Ratio (x) = 0.23081 0.11084
# Poissons Ratio (y) = 0.30265 0.25539
# Poissons Ratio (z) = 0.29184 0.51281
#
# Static dielectric constant tensor:
#      x y z
#    x 1.785980 0.000000 0.000000 
#    y 0.000000 1.823090 0.000000 
#    z 0.000000 0.000000 1.653540 
# 
# From -- ./inp_files/12368.got.cif
#   From: 2010.05.17/outbox.cif.g08.bks.cpg/sg39_7_cif.got.tgz:12368.got - 2010.06.03 18:22:40.
