data_PCOD9360472
_publ_section_title
;
Structure prediction by ZEFSAII (Michael W. Deem and Ramdas Pophale) SiO2 
 PCOD9360472
Probable space group: A B M 2
;
_chemical_formula_sum "Si O2"
_cell_formula_units_Z 52
_cell_length_a 11.202734
_cell_length_b 24.822245
_cell_length_c 7.867023
_cell_angle_alpha 90.000000
_cell_angle_beta 90.000000
_cell_angle_gamma 90.000000
_cell_volume 2187.638218
_symmetry_space_group_name_H-M "A B M 2"
_symmetry_group_IT_number 39
_symmetry_cell_setting 'orthorhombic'
loop_
_space_group_symop_operation_xyz
x,y,z
-x,-y,z
-x,1/2+y,z
x,1/2-y,z
x,1/2+y,1/2+z
-x,1/2-y,1/2+z
-x,y,1/2+z
x,-y,1/2+z
loop_
_atom_site_type_symbol
_atom_site_label
_atom_site_fract_x
_atom_site_fract_y
_atom_site_fract_z
Si Si1 0.887389 0.309070 0.509980
Si Si2 0.537242 0.836375 0.113907
Si Si3 0.096755 0.574516 0.418156
Si Si4 0.399224 0.250000 0.840019
Si Si5 0.655782 0.107524 0.925298
Si Si6 0.161013 0.691630 0.914657
Si Si7 0.842907 0.965049 0.294513
O O1 0.844035 0.250000 0.441970
O O2 0.862646 0.363605 0.405436
O O3 0.858238 0.314267 0.710373
O O4 0.031229 0.307081 0.497854
O O5 0.442796 0.796726 0.202749
O O6 0.623252 0.861312 0.252228
O O7 0.609238 0.798452 0.985342
O O8 0.463211 0.885573 0.032380
O O9 0.148467 0.529460 0.293323
O O10 0.138325 0.556594 0.605225
O O11 0.954377 0.562919 0.395946
O O12 0.760814 0.145330 0.995992
O O13 0.718728 0.052317 0.878184
O O14 0.220468 0.750000 0.940493
#
# Coordination Sequence:
#
# PCOD9360472 Si02
#       7
#     8   8   8   4   8   8   8
#     4  10  19  37  58  93 133 167 200 265 315 397
#     4   9  20  34  61  82 134 159 235 270 325 364
#     4  11  20  40  60 101 121 165 214 269 307 404
#     4   8  16  36  54  90 114 174 208 298 304 360
#     4  11  21  40  59  92 122 185 212 279 315 380
#     4  10  21  34  61  87 134 174 207 246 328 381
#     4  11  23  38  69  90 134 163 218 265 333 369
#
# _framework density 23.769926999999999
#
# number of rings (size 3 to 8) (size 9 to 14) (size 15 to 20)
#    0.000    1.846    3.077    1.846    6.462    0.000 
#    0.000    9.231    3.385    2.769    0.000    0.000 
#    0.000    0.000    0.000    0.000    0.000    0.000 
#
# Total GULP energy -144736.214696 kJ/mol
# GULP energy per Si atom -5566.777488 kJ/mol
# Density = 2.371583 g / cm^3
# Si number density = 23.769927 Si / 1000 Ang^3
#
#
#
# Elastic Constant Matrix: (Units=GPa)
#
#
# Indices 1 2 3 4 5 6 
#
# 1 124.7502 23.6934 -19.5783 0.0000 0.0000 0.0000
# 2 23.6934 114.2047 5.6511 0.0000 0.0000 0.0000
# 3 -19.5783 5.6511 57.3801 0.0000 0.0000 0.0000
# 4 0.0000 0.0000 0.0000 18.3849 0.0000 0.0000
# 5 0.0000 0.0000 0.0000 0.0000 24.5479 0.0000
# 6 0.0000 0.0000 0.0000 0.0000 0.0000 42.7218
#
#
#
# Elastic Compliance Matrix: (Units=1/GPa)
#
#
# Indices 1 2 3 4 5 6 
#
# 1 0.008905 -0.002008 0.003236 0.000000 0.000000 0.000000
# 2 -0.002008 0.009252 -0.001596 0.000000 0.000000 0.000000
# 3 0.003236 -0.001596 0.018689 0.000000 0.000000 0.000000
# 4 0.000000 0.000000 0.000000 0.054393 0.000000 0.000000
# 5 0.000000 0.000000 0.000000 0.000000 0.040737 0.000000
# 6 0.000000 0.000000 0.000000 0.000000 0.000000 0.023407
#
#
# Mechanical properties :
#
#
# Convention : Reuss Voigt Hill
#
# Bulk Modulus (GPa) = 27.69256 35.09637 31.39446
# Shear Modulus (GPa) = 29.73452 36.23548 32.98500
#
# Velocity S-wave (km/s) = 3.54069 3.90862 3.72920
# Velocity P-wave (km/s) = 5.32830 5.93017 5.63727
#
# Compressibility (1/GPa) = 0.03611079
#
# Stress axis : x y z
#
# Youngs Moduli (GPa) = 112.29371 108.08816 53.50719
#
# Poissons Ratio (x) = 0.21700 -0.17316
# Poissons Ratio (y) = 0.22545 0.08541
# Poissons Ratio (z) = -0.36341 0.17253
#
# Static dielectric constant tensor:
#      x y z
#    x 1.918960 0.000000 0.000000 
#    y 0.000000 1.943450 0.000000 
#    z 0.000000 0.000000 1.869070 
# 
# From -- ./inp_files/2800.got.cif
#   From: 2010.05.17/outbox.cif.g08.bks.cpg/sg39_2_cif.got.tgz:2800.got - 2010.06.03 18:22:40.
