data_PCOD9360900
_publ_section_title
;
Structure prediction by ZEFSAII (Michael W. Deem and Ramdas Pophale) SiO2 
 PCOD9360900
Probable space group: A B M 2
;
_chemical_formula_sum "Si O2"
_cell_formula_units_Z 64
_cell_length_a 15.799638
_cell_length_b 8.776742
_cell_length_c 24.211818
_cell_angle_alpha 90.000000
_cell_angle_beta 90.000000
_cell_angle_gamma 90.000000
_cell_volume 3357.436978
_symmetry_space_group_name_H-M "A B M 2"
_symmetry_group_IT_number 39
_symmetry_cell_setting 'orthorhombic'
loop_
_space_group_symop_operation_xyz
x,y,z
-x,-y,z
-x,1/2+y,z
x,1/2-y,z
x,1/2+y,1/2+z
-x,1/2-y,1/2+z
-x,y,1/2+z
x,-y,1/2+z
loop_
_atom_site_type_symbol
_atom_site_label
_atom_site_fract_x
_atom_site_fract_y
_atom_site_fract_z
Si Si1 0.409102 0.068004 0.365500
Si Si2 0.851564 0.567925 0.981865
Si Si3 0.409427 0.933121 0.103779
Si Si4 0.910909 0.068474 0.867950
Si Si5 0.751675 0.067336 0.302556
Si Si6 0.909922 0.067983 0.604881
Si Si7 0.754379 0.566607 0.673031
Si Si8 0.664028 0.567048 0.485119
O O1 0.409413 0.250000 0.358722
O O2 0.388391 0.034070 0.429826
O O3 0.500000 0.000000 0.350644
O O4 0.333430 0.996641 0.330075
O O5 0.858151 0.750000 0.974387
O O6 0.896039 0.484617 0.930988
O O7 0.753577 0.517740 0.982370
O O8 0.890864 0.525736 0.041054
O O9 0.414417 0.750000 0.105936
O O10 0.332631 0.982383 0.143322
O O11 0.500000 0.000000 0.119086
O O12 0.384618 0.976438 0.041007
O O13 0.912481 0.250000 0.865044
O O14 0.832379 0.004085 0.833146
O O15 0.000000 0.000000 0.848361
O O16 0.753970 0.250000 0.308913
O O17 0.753652 0.029715 0.237689
O O18 0.912368 0.250000 0.608257
O O19 0.833842 0.005853 0.642028
O O20 0.000000 0.000000 0.621711
O O21 0.760176 0.750000 0.667364
O O22 0.679898 0.750000 0.486914
#
# Coordination Sequence:
#
# PCOD9360900 Si02
#       8
#     8   8   8   8   8   8   8   8
#     4  11  23  39  62  93 125 166 207 252 311 368
#     4  11  22  37  62  95 127 162 201 247 305 367
#     4  10  21  38  61  90 123 161 201 248 302 361
#     4  12  25  42  65  93 125 163 204 251 310 370
#     4  11  24  43  65  91 122 161 210 261 313 367
#     4  11  24  40  63  94 125 162 203 248 304 363
#     4  10  23  43  65  88 121 163 206 256 309 360
#     4  10  20  36  61  90 124 162 201 247 306 368
#
# _framework density 19.062159999999999
#
# number of rings (size 3 to 8) (size 9 to 14) (size 15 to 20)
#    0.000    1.250    2.500    3.375    0.000    6.000 
#    0.000    1.250    0.000    0.000    0.000    0.000 
#    0.000    0.000    0.000    0.000    0.000    0.000 
#
# Total GULP energy -178982.896480 kJ/mol
# GULP energy per Si atom -5593.215515 kJ/mol
# Density = 1.901877 g / cm^3
# Si number density = 19.062160 Si / 1000 Ang^3
#
#
#
# Elastic Constant Matrix: (Units=GPa)
#
#
# Indices 1 2 3 4 5 6 
#
# 1 204.4487 65.2714 89.3089 0.0000 0.0000 0.0000
# 2 65.2714 61.9404 65.9840 0.0000 0.0000 0.0000
# 3 89.3089 65.9840 144.9127 0.0000 0.0000 0.0000
# 4 0.0000 0.0000 0.0000 19.0348 0.0000 0.0000
# 5 0.0000 0.0000 0.0000 0.0000 -41.3215 0.0000
# 6 0.0000 0.0000 0.0000 0.0000 0.0000 34.1895
#
#
#
# Elastic Compliance Matrix: (Units=1/GPa)
#
#
# Indices 1 2 3 4 5 6 
#
# 1 0.007667 -0.005915 -0.002032 0.000000 0.000000 0.000000
# 2 -0.005915 0.035915 -0.012708 0.000000 0.000000 0.000000
# 3 -0.002032 -0.012708 0.013940 0.000000 0.000000 0.000000
# 4 0.000000 0.000000 0.000000 0.052535 0.000000 0.000000
# 5 0.000000 0.000000 0.000000 0.000000 -0.024200 0.000000
# 6 0.000000 0.000000 0.000000 0.000000 0.000000 0.029249
#
#
# Mechanical properties :
#
#
# Convention : Reuss Voigt Hill
#
# Bulk Modulus (GPa) = 61.68320 94.71447 78.19883
# Shear Modulus (GPa) = 30.89853 15.09640 22.99747
#
# Velocity S-wave (km/s) = 4.03045 2.81723 3.47716
# Velocity P-wave (km/s) = 7.35450 7.77029 7.56525
#
# Compressibility (1/GPa) = 0.01621187
#
# Stress axis : x y z
#
# Youngs Moduli (GPa) = 130.42601 27.84317 71.73819
#
# Poissons Ratio (x) = 0.16469 0.14577
# Poissons Ratio (y) = 0.77145 0.91167
# Poissons Ratio (z) = 0.26502 0.35384
#
# Static dielectric constant tensor:
#      x y z
#    x 1.650220 0.000000 0.000000 
#    y 0.000000 1.642070 0.000000 
#    z 0.000000 0.000000 1.651640 
# 
# From -- ./inp_files/16162.got.cif
#   From: 2010.05.17/outbox.cif.g08.bks.cpg/sg39_9_cif.got.tgz:16162.got - 2010.06.03 18:22:40.
