data_PCOD9360378
_publ_section_title
;
Structure prediction by ZEFSAII (Michael W. Deem and Ramdas Pophale) SiO2 
 PCOD9360378
Probable space group: A B M 2
;
_chemical_formula_sum "Si O2"
_cell_formula_units_Z 48
_cell_length_a 4.988114
_cell_length_b 17.057373
_cell_length_c 28.343252
_cell_angle_alpha 90.000000
_cell_angle_beta 90.000000
_cell_angle_gamma 90.000000
_cell_volume 2411.560685
_symmetry_space_group_name_H-M "A B M 2"
_symmetry_group_IT_number 39
_symmetry_cell_setting 'orthorhombic'
loop_
_space_group_symop_operation_xyz
x,y,z
-x,-y,z
-x,1/2+y,z
x,1/2-y,z
x,1/2+y,1/2+z
-x,1/2-y,1/2+z
-x,y,1/2+z
x,-y,1/2+z
loop_
_atom_site_type_symbol
_atom_site_label
_atom_site_fract_x
_atom_site_fract_y
_atom_site_fract_z
Si Si1 0.251819 0.056638 0.805740
Si Si2 0.973683 0.339314 0.117864
Si Si3 0.991921 0.594324 0.397697
Si Si4 0.452957 0.840784 0.554514
Si Si5 0.486184 0.657104 0.449016
Si Si6 0.746530 0.943739 0.701025
O O1 0.133508 0.111647 0.846905
O O2 0.318445 0.089625 0.753663
O O3 0.500000 0.000000 0.820619
O O4 0.000000 0.000000 0.798710
O O5 0.045813 0.250000 0.131559
O O6 0.736332 0.338663 0.080027
O O7 0.843293 0.381309 0.162833
O O8 0.231610 0.375417 0.090662
O O9 0.185603 0.637475 0.433937
O O10 0.000000 0.500000 0.402414
O O11 0.693171 0.620197 0.411414
O O12 0.360773 0.750000 0.546771
O O13 0.502793 0.874913 0.502565
O O14 0.537280 0.750000 0.449363
O O15 0.500000 0.000000 0.686807
O O16 0.000000 0.000000 0.704786
#
# Coordination Sequence:
#
# PCOD9360378 Si02
#       6
#     8   8   8   8   8   8
#     4   9  18  34  56  79 108 148 183 216 275 349
#     4  10  19  35  56  78 104 141 183 223 266 325
#     4  11  21  37  59  83 111 146 188 233 281 339
#     4   9  19  35  55  75 105 147 182 211 269 344
#     4  11  22  38  58  82 111 148 189 233 282 341
#     4  10  20  35  56  81 109 142 182 226 274 328
#
# _framework density 19.904122000000001
#
# number of rings (size 3 to 8) (size 9 to 14) (size 15 to 20)
#    0.000    2.000    0.000    5.000    0.000    2.667 
#    0.000   10.000    0.000    2.000    0.000    0.000 
#    0.000    0.000    0.000    0.000    0.000    0.000 
#
# Total GULP energy -133611.072269 kJ/mol
# GULP energy per Si atom -5567.128011 kJ/mol
# Density = 1.985882 g / cm^3
# Si number density = 19.904122 Si / 1000 Ang^3
#
#
#
# Elastic Constant Matrix: (Units=GPa)
#
#
# Indices 1 2 3 4 5 6 
#
# 1 100.1074 1.4535 -7.2569 0.0000 0.0000 0.0000
# 2 1.4535 29.8813 18.4310 0.0000 0.0000 0.0000
# 3 -7.2569 18.4310 98.0975 0.0000 0.0000 0.0000
# 4 0.0000 0.0000 0.0000 18.3659 0.0000 0.0000
# 5 0.0000 0.0000 0.0000 0.0000 27.7188 0.0000
# 6 0.0000 0.0000 0.0000 0.0000 0.0000 27.7428
#
#
#
# Elastic Compliance Matrix: (Units=1/GPa)
#
#
# Indices 1 2 3 4 5 6 
#
# 1 0.010074 -0.001074 0.000947 0.000000 0.000000 0.000000
# 2 -0.001074 0.037967 -0.007213 0.000000 0.000000 0.000000
# 3 0.000947 -0.007213 0.011619 0.000000 0.000000 0.000000
# 4 0.000000 0.000000 0.000000 0.054449 0.000000 0.000000
# 5 0.000000 0.000000 0.000000 0.000000 0.036077 0.000000
# 6 0.000000 0.000000 0.000000 0.000000 0.000000 0.036045
#
#
# Mechanical properties :
#
#
# Convention : Reuss Voigt Hill
#
# Bulk Modulus (GPa) = 22.23226 28.14905 25.19066
# Shear Modulus (GPa) = 23.15850 29.12941 26.14396
#
# Velocity S-wave (km/s) = 3.41472 3.82970 3.62815
# Velocity P-wave (km/s) = 5.17117 5.80763 5.49861
#
# Compressibility (1/GPa) = 0.04497968
#
# Stress axis : x y z
#
# Youngs Moduli (GPa) = 99.27023 26.33875 86.06468
#
# Poissons Ratio (x) = 0.02829 -0.08150
# Poissons Ratio (y) = 0.10663 0.62077
# Poissons Ratio (z) = -0.09401 0.18998
#
# Static dielectric constant tensor:
#      x y z
#    x 1.522840 0.000000 0.000000 
#    y 0.000000 1.629610 0.000000 
#    z 0.000000 0.000000 1.822150 
# 
# From -- ./inp_files/16505.got.cif
#   From: 2010.05.17/outbox.cif.g08.bks.cpg/sg39_9_cif.got.tgz:16505.got - 2010.06.03 18:22:40.
