data_PCOD9360523
_publ_section_title
;
Structure prediction by ZEFSAII (Michael W. Deem and Ramdas Pophale) SiO2 
 PCOD9360523
Probable space group: A B M 2
;
_chemical_formula_sum "Si O2"
_cell_formula_units_Z 48
_cell_length_a 16.259526
_cell_length_b 9.829722
_cell_length_c 15.699355
_cell_angle_alpha 90.000000
_cell_angle_beta 90.000000
_cell_angle_gamma 90.000000
_cell_volume 2509.174853
_symmetry_space_group_name_H-M "A B M 2"
_symmetry_group_IT_number 39
_symmetry_cell_setting 'orthorhombic'
loop_
_space_group_symop_operation_xyz
x,y,z
-x,-y,z
-x,1/2+y,z
x,1/2-y,z
x,1/2+y,1/2+z
-x,1/2-y,1/2+z
-x,y,1/2+z
x,-y,1/2+z
loop_
_atom_site_type_symbol
_atom_site_label
_atom_site_fract_x
_atom_site_fract_y
_atom_site_fract_z
Si Si1 0.634193 0.750000 0.457430
Si Si2 0.500000 0.000000 0.736828
Si Si3 0.918571 0.409307 0.128982
Si Si4 0.461587 0.750000 0.119932
Si Si5 0.818794 0.091663 0.298587
Si Si6 0.443484 0.750000 0.455645
Si Si7 0.084428 0.413308 0.434490
Si Si8 0.646331 0.992300 0.860069
O O1 0.618111 0.750000 0.558444
O O2 0.538462 0.750000 0.425870
O O3 0.674645 0.616170 0.419658
O O4 0.533023 0.880321 0.678224
O O5 0.576364 0.042357 0.795410
O O6 0.942086 0.250000 0.134763
O O7 0.853872 0.436370 0.204239
O O8 0.000000 0.500000 0.141073
O O9 0.885953 0.430198 0.032661
O O10 0.540831 0.750000 0.056627
O O11 0.839106 0.250000 0.319281
O O12 0.721482 0.071727 0.308695
O O13 0.859146 0.986632 0.364900
O O14 0.397005 0.619311 0.420130
O O15 0.074066 0.250000 0.419234
O O16 0.000000 0.500000 0.430204
#
# Coordination Sequence:
#
# PCOD9360523 Si02
#       8
#     4   4   8   4   8   4   8   8
#     4  10  21  40  59  82 110 158 206 248 299 363
#     4  12  20  38  60  88 112 156 202 258 296 362
#     4   9  20  41  64  89 122 158 197 244 298 359
#     4  10  22  36  62  88 108 142 216 256 304 346
#     4  11  24  40  59  93 126 166 201 249 304 363
#     4  10  19  42  59  82 110 162 200 246 299 361
#     4  10  21  41  68  93 122 160 203 247 300 364
#     4  12  22  39  61  80 123 160 201 241 307 360
#
# _framework density 19.129795999999999
#
# number of rings (size 3 to 8) (size 9 to 14) (size 15 to 20)
#    0.500    1.000    2.500    3.000    1.167    2.667 
#    6.000    0.000    0.000    0.000    0.000    0.000 
#    0.000    0.000    0.000    0.000    0.000    0.000 
#
# Total GULP energy -133865.723489 kJ/mol
# GULP energy per Si atom -5577.738479 kJ/mol
# Density = 1.908626 g / cm^3
# Si number density = 19.129796 Si / 1000 Ang^3
#
#
#
# Elastic Constant Matrix: (Units=GPa)
#
#
# Indices 1 2 3 4 5 6 
#
# 1 42.2778 -2.6330 25.2128 0.0000 0.0000 0.0000
# 2 -2.6330 89.9474 38.1808 0.0000 0.0000 0.0000
# 3 25.2128 38.1808 99.1861 0.0000 0.0000 0.0000
# 4 0.0000 0.0000 0.0000 25.5532 0.0000 0.0000
# 5 0.0000 0.0000 0.0000 0.0000 7.2951 0.0000
# 6 0.0000 0.0000 0.0000 0.0000 0.0000 25.8849
#
#
#
# Elastic Compliance Matrix: (Units=1/GPa)
#
#
# Indices 1 2 3 4 5 6 
#
# 1 0.029546 0.004845 -0.009375 0.000000 0.000000 0.000000
# 2 0.004845 0.014083 -0.006653 0.000000 0.000000 0.000000
# 3 -0.009375 -0.006653 0.015026 0.000000 0.000000 0.000000
# 4 0.000000 0.000000 0.000000 0.039134 0.000000 0.000000
# 5 0.000000 0.000000 0.000000 0.000000 0.137079 0.000000
# 6 0.000000 0.000000 0.000000 0.000000 0.000000 0.038633
#
#
# Mechanical properties :
#
#
# Convention : Reuss Voigt Hill
#
# Bulk Modulus (GPa) = 27.55709 39.21472 33.38590
# Shear Modulus (GPa) = 16.23568 23.12336 19.67952
#
# Velocity S-wave (km/s) = 2.91643 3.48050 3.21087
# Velocity P-wave (km/s) = 5.07714 6.05769 5.58896
#
# Compressibility (1/GPa) = 0.03628831
#
# Stress axis : x y z
#
# Youngs Moduli (GPa) = 33.84566 71.00582 66.55065
#
# Poissons Ratio (x) = -0.34399 0.62393
# Poissons Ratio (y) = -0.16397 0.44274
# Poissons Ratio (z) = 0.31731 0.47238
#
# Static dielectric constant tensor:
#      x y z
#    x 1.646390 0.000000 0.000000 
#    y 0.000000 1.659910 0.000000 
#    z 0.000000 0.000000 1.662490 
# 
# From -- ./inp_files/10098.got.cif
#   From: 2010.05.17/outbox.cif.g08.bks.cpg/sg39_6_cif.got.tgz:10098.got - 2010.06.03 18:22:40.
