data_PCOD9360556
_publ_section_title
;
Structure prediction by ZEFSAII (Michael W. Deem and Ramdas Pophale) SiO2 
 PCOD9360556
Probable space group: A B M 2
;
_chemical_formula_sum "Si O2"
_cell_formula_units_Z 64
_cell_length_a 7.087936
_cell_length_b 14.499310
_cell_length_c 25.108676
_cell_angle_alpha 90.000000
_cell_angle_beta 90.000000
_cell_angle_gamma 90.000000
_cell_volume 2580.423185
_symmetry_space_group_name_H-M "A B M 2"
_symmetry_group_IT_number 39
_symmetry_cell_setting 'orthorhombic'
loop_
_space_group_symop_operation_xyz
x,y,z
-x,-y,z
-x,1/2+y,z
x,1/2-y,z
x,1/2+y,1/2+z
-x,1/2-y,1/2+z
-x,y,1/2+z
x,-y,1/2+z
loop_
_atom_site_type_symbol
_atom_site_label
_atom_site_fract_x
_atom_site_fract_y
_atom_site_fract_z
Si Si1 0.704260 0.857428 0.822170
Si Si2 0.077099 0.859138 0.677753
Si Si3 0.402203 0.853690 0.093435
Si Si4 0.221424 0.022431 0.386990
Si Si5 0.153647 0.357141 0.290868
Si Si6 0.636755 0.640932 0.707155
Si Si7 0.721698 0.023834 0.004796
Si Si8 0.169357 0.645606 0.559763
O O1 0.659677 0.750000 0.832938
O O2 0.607636 0.891770 0.767264
O O3 0.929175 0.859800 0.806072
O O4 0.677697 0.926045 0.871619
O O5 0.125599 0.750000 0.675169
O O6 0.178857 0.896833 0.730911
O O7 0.109507 0.891927 0.618038
O O8 0.858288 0.867304 0.692693
O O9 0.326736 0.750000 0.101414
O O10 0.448923 0.894394 0.151901
O O11 0.260551 0.908477 0.055330
O O12 0.603991 0.845844 0.065684
O O13 0.256373 0.090600 0.338050
O O14 0.255838 0.061072 0.445474
O O15 0.000000 0.000000 0.385943
O O16 0.206353 0.250000 0.289695
O O17 0.589568 0.750000 0.710637
O O18 0.500000 0.000000 0.007348
O O19 0.847117 0.932044 0.014504
O O20 0.097041 0.750000 0.549680
#
# Coordination Sequence:
#
# PCOD9360556 Si02
#       8
#     8   8   8   8   8   8   8   8
#     4   8  15  29  48  71  99 124 146 184 237 280
#     4   8  14  27  49  75  99 121 148 185 230 280
#     4   9  18  33  51  69  93 125 155 187 232 280
#     4  10  20  33  50  70  90 121 165 198 223 268
#     4   8  15  29  48  71  99 124 146 184 237 280
#     4   8  14  27  49  75  99 121 148 185 230 280
#     4  10  22  37  48  64  94 127 159 196 235 272
#     4   9  18  33  51  69  93 125 155 187 232 280
#
# _framework density 24.802132
#
# number of rings (size 3 to 8) (size 9 to 14) (size 15 to 20)
#    0.000    3.250    0.000    1.500    0.000    3.000 
#    0.000    2.500    0.000    1.500    0.000    0.000 
#    0.000    0.000    0.000    0.000    0.000    0.000 
#
# Total GULP energy -178685.237064 kJ/mol
# GULP energy per Si atom -5583.913658 kJ/mol
# Density = 2.474568 g / cm^3
# Si number density = 24.802132 Si / 1000 Ang^3
#
#
#
# Elastic Constant Matrix: (Units=GPa)
#
#
# Indices 1 2 3 4 5 6 
#
# 1 54.0178 8.6126 9.5288 0.0000 0.0000 0.0000
# 2 8.6126 70.0191 46.4249 0.0000 0.0000 0.0000
# 3 9.5288 46.4249 145.9875 0.0000 0.0000 0.0000
# 4 0.0000 0.0000 0.0000 35.4748 0.0000 0.0000
# 5 0.0000 0.0000 0.0000 0.0000 31.5145 0.0000
# 6 0.0000 0.0000 0.0000 0.0000 0.0000 11.0512
#
#
#
# Elastic Compliance Matrix: (Units=1/GPa)
#
#
# Indices 1 2 3 4 5 6 
#
# 1 0.018928 -0.001912 -0.000627 0.000000 0.000000 0.000000
# 2 -0.001912 0.018291 -0.005692 0.000000 0.000000 0.000000
# 3 -0.000627 -0.005692 0.008701 0.000000 0.000000 0.000000
# 4 0.000000 0.000000 0.000000 0.028189 0.000000 0.000000
# 5 0.000000 0.000000 0.000000 0.000000 0.031731 0.000000
# 6 0.000000 0.000000 0.000000 0.000000 0.000000 0.090488
#
#
# Mechanical properties :
#
#
# Convention : Reuss Voigt Hill
#
# Bulk Modulus (GPa) = 33.94786 44.35077 39.14932
# Shear Modulus (GPa) = 22.46081 29.30531 25.88306
#
# Velocity S-wave (km/s) = 3.01258 3.44112 3.23396
# Velocity P-wave (km/s) = 5.08115 5.80595 5.45560
#
# Compressibility (1/GPa) = 0.02945694
#
# Stress axis : x y z
#
# Youngs Moduli (GPa) = 52.83186 54.67209 114.93099
#
# Poissons Ratio (x) = 0.10455 0.07210
# Poissons Ratio (y) = 0.10103 0.65416
# Poissons Ratio (z) = 0.03314 0.31118
#
# Static dielectric constant tensor:
#      x y z
#    x 2.060740 0.000000 0.000000 
#    y 0.000000 1.989260 0.000000 
#    z 0.000000 0.000000 1.982260 
# 
# From -- ./inp_files/14216.got.cif
#   From: 2010.05.17/outbox.cif.g08.bks.cpg/sg39_8_cif.got.tgz:14216.got - 2010.06.03 18:22:40.
