data_PCOD9360949
_publ_section_title
;
Structure prediction by ZEFSAII (Michael W. Deem and Ramdas Pophale) SiO2 
 PCOD9360949
Probable space group: A B M 2
;
_chemical_formula_sum "Si O2"
_cell_formula_units_Z 64
_cell_length_a 9.035993
_cell_length_b 16.037956
_cell_length_c 21.438658
_cell_angle_alpha 90.000000
_cell_angle_beta 90.000000
_cell_angle_gamma 90.000000
_cell_volume 3106.865838
_symmetry_space_group_name_H-M "A B M 2"
_symmetry_group_IT_number 39
_symmetry_cell_setting 'orthorhombic'
loop_
_space_group_symop_operation_xyz
x,y,z
-x,-y,z
-x,1/2+y,z
x,1/2-y,z
x,1/2+y,1/2+z
-x,1/2-y,1/2+z
-x,y,1/2+z
x,-y,1/2+z
loop_
_atom_site_type_symbol
_atom_site_label
_atom_site_fract_x
_atom_site_fract_y
_atom_site_fract_z
Si Si1 0.418564 0.849275 0.724710
Si Si2 0.590570 0.349713 0.343698
Si Si3 0.575843 0.591184 0.603857
Si Si4 0.087012 0.149085 0.222416
Si Si5 0.929490 0.648716 0.846852
Si Si6 0.927469 0.589898 0.599225
Si Si7 0.567417 0.407331 0.481056
Si Si8 0.104839 0.847511 0.484556
O O1 0.402417 0.750000 0.732615
O O2 0.487233 0.883575 0.788796
O O3 0.526467 0.864533 0.667072
O O4 0.254030 0.882198 0.711075
O O5 0.596495 0.250000 0.336629
O O6 0.759941 0.379594 0.337185
O O7 0.538109 0.368040 0.413591
O O8 0.500000 0.500000 0.607505
O O9 0.751218 0.586124 0.597626
O O10 0.508988 0.633039 0.541549
O O11 0.087382 0.250000 0.222800
O O12 0.030331 0.119196 0.289998
O O13 0.981832 0.122211 0.166277
O O14 0.931993 0.750000 0.843737
O O15 0.968845 0.627430 0.918357
O O16 0.000000 0.500000 0.590448
O O17 0.996518 0.643113 0.542724
O O18 0.500000 0.500000 0.477870
O O19 0.744258 0.400439 0.491896
O O20 0.150772 0.750000 0.478926
#
# Coordination Sequence:
#
# PCOD9360949 Si02
#       8
#     8   8   8   8   8   8   8   8
#     4  10  21  36  58  86 117 151 192 240 291 346
#     4   9  18  34  55  82 115 154 195 240 291 347
#     4  11  24  40  57  80 115 153 192 240 295 354
#     4  10  20  37  59  84 115 152 192 239 290 348
#     4   8  16  33  58  84 113 149 195 244 290 342
#     4  12  24  39  59  84 116 153 196 247 298 354
#     4  10  20  37  59  86 120 157 195 239 296 353
#     4  10  21  40  64  90 120 159 201 245 296 352
#
# _framework density 20.599536000000001
#
# number of rings (size 3 to 8) (size 9 to 14) (size 15 to 20)
#    0.000    2.000    0.000    5.250    0.000    5.500 
#    0.000    4.375    0.000    0.000    0.000    0.000 
#    0.000    0.000    0.000    0.000    0.000    0.000 
#
# Total GULP energy -178630.853130 kJ/mol
# GULP energy per Si atom -5582.214160 kJ/mol
# Density = 2.055265 g / cm^3
# Si number density = 20.599536 Si / 1000 Ang^3
#
#
#
# Elastic Constant Matrix: (Units=GPa)
#
#
# Indices 1 2 3 4 5 6 
#
# 1 123.2271 9.3670 74.0934 0.0000 0.0000 0.0000
# 2 9.3670 19.7684 -3.4915 0.0000 0.0000 0.0000
# 3 74.0934 -3.4915 152.6120 0.0000 0.0000 0.0000
# 4 0.0000 0.0000 0.0000 -3.1740 0.0000 0.0000
# 5 0.0000 0.0000 0.0000 0.0000 38.8629 0.0000
# 6 0.0000 0.0000 0.0000 0.0000 0.0000 13.6072
#
#
#
# Elastic Compliance Matrix: (Units=1/GPa)
#
#
# Indices 1 2 3 4 5 6 
#
# 1 0.012340 -0.006933 -0.006150 0.000000 0.000000 0.000000
# 2 -0.006933 0.054687 0.004617 0.000000 0.000000 0.000000
# 3 -0.006150 0.004617 0.009644 0.000000 0.000000 0.000000
# 4 0.000000 0.000000 0.000000 -0.315057 0.000000 0.000000
# 5 0.000000 0.000000 0.000000 0.000000 0.025731 0.000000
# 6 0.000000 0.000000 0.000000 0.000000 0.000000 0.073491
#
#
# Mechanical properties :
#
#
# Convention : Reuss Voigt Hill
#
# Bulk Modulus (GPa) = 16.73947 50.61613 33.67780
# Shear Modulus (GPa) = -48.86606 24.23511 -12.31548
#
# Velocity S-wave (km/s) = -4.87580 3.43372 -2.44775
# Velocity P-wave (km/s) = 4.85326 6.35180 2.89752
#
# Compressibility (1/GPa) = 0.05973904
#
# Stress axis : x y z
#
# Youngs Moduli (GPa) = 81.03922 18.28603 103.69324
#
# Poissons Ratio (x) = 0.12678 0.63767
# Poissons Ratio (y) = 0.56186 -0.47877
# Poissons Ratio (z) = 0.49836 -0.08443
#
# Static dielectric constant tensor:
#      x y z
#    x 1.718390 0.000000 0.000000 
#    y 0.000000 1.758220 0.000000 
#    z 0.000000 0.000000 1.757740 
# 
# From -- ./inp_files/14176.got.cif
#   From: 2010.05.17/outbox.cif.g08.bks.cpg/sg39_8_cif.got.tgz:14176.got - 2010.06.03 18:22:40.
