data_PCOD9360544
_publ_section_title
;
Structure prediction by ZEFSAII (Michael W. Deem and Ramdas Pophale) SiO2 
 PCOD9360544
Probable space group: A B M 2
;
_chemical_formula_sum "Si O2"
_cell_formula_units_Z 48
_cell_length_a 12.981542
_cell_length_b 20.162712
_cell_length_c 9.650553
_cell_angle_alpha 90.000000
_cell_angle_beta 90.000000
_cell_angle_gamma 90.000000
_cell_volume 2525.965588
_symmetry_space_group_name_H-M "A B M 2"
_symmetry_group_IT_number 39
_symmetry_cell_setting 'orthorhombic'
loop_
_space_group_symop_operation_xyz
x,y,z
-x,-y,z
-x,1/2+y,z
x,1/2-y,z
x,1/2+y,1/2+z
-x,1/2-y,1/2+z
-x,y,1/2+z
x,-y,1/2+z
loop_
_atom_site_type_symbol
_atom_site_label
_atom_site_fract_x
_atom_site_fract_y
_atom_site_fract_z
Si Si1 0.000000 0.000000 0.000000
Si Si2 0.590738 0.374574 0.556853
Si Si3 0.693278 0.426272 0.302062
Si Si4 0.138355 0.957767 0.755559
Si Si5 0.739526 0.822140 0.270893
Si Si6 0.500000 0.000000 0.211818
Si Si7 0.633621 0.324280 0.063210
O O1 0.937086 0.044851 0.889606
O O2 0.079699 0.031881 0.109622
O O3 0.679941 0.384450 0.442556
O O4 0.637853 0.329930 0.677721
O O5 0.558268 0.445266 0.621105
O O6 0.481338 0.343946 0.512585
O O7 0.786270 0.478497 0.283149
O O8 0.587806 0.467964 0.303908
O O9 0.678015 0.377083 0.172438
O O10 0.196614 0.888464 0.744941
O O11 0.788216 0.750000 0.241854
O O12 0.705688 0.824053 0.429995
O O13 0.630026 0.250000 0.123471
#
# Coordination Sequence:
#
# PCOD9360544 Si02
#       7
#     4   8   8   8   8   4   8
#     4  10  24  42  68  88 112 142 196 264 328 356
#     4  11  21  32  54  86 124 165 205 237 279 340
#     4  11  22  35  62  88 121 158 203 246 288 351
#     4  11  22  42  64  91 114 150 198 258 309 366
#     4  11  23  39  59  84 121 163 199 243 303 362
#     4  10  20  32  52  92 124 156 196 234 282 344
#     4  10  22  37  53  82 129 173 202 232 281 348
#
# _framework density 19.002634
#
# number of rings (size 3 to 8) (size 9 to 14) (size 15 to 20)
#    0.000    1.333    1.667    5.000    4.667    2.667 
#    0.000    0.833    0.000    4.000    0.000    0.000 
#    0.000    0.000    0.000    0.000    0.000    0.000 
#
# Total GULP energy -133847.295516 kJ/mol
# GULP energy per Si atom -5576.970647 kJ/mol
# Density = 1.895938 g / cm^3
# Si number density = 19.002634 Si / 1000 Ang^3
#
#
#
# Elastic Constant Matrix: (Units=GPa)
#
#
# Indices 1 2 3 4 5 6 
#
# 1 54.7000 34.3991 25.3275 0.0000 0.0000 0.0000
# 2 34.3991 107.4358 17.7454 0.0000 0.0000 0.0000
# 3 25.3275 17.7454 82.5211 0.0000 0.0000 0.0000
# 4 0.0000 0.0000 0.0000 0.2669 0.0000 0.0000
# 5 0.0000 0.0000 0.0000 0.0000 32.8610 0.0000
# 6 0.0000 0.0000 0.0000 0.0000 0.0000 6.2698
#
#
#
# Elastic Compliance Matrix: (Units=1/GPa)
#
#
# Indices 1 2 3 4 5 6 
#
# 1 0.025749 -0.007195 -0.006356 0.000000 0.000000 0.000000
# 2 -0.007195 0.011661 -0.000299 0.000000 0.000000 0.000000
# 3 -0.006356 -0.000299 0.014133 0.000000 0.000000 0.000000
# 4 0.000000 0.000000 0.000000 3.746886 0.000000 0.000000
# 5 0.000000 0.000000 0.000000 0.000000 0.030431 0.000000
# 6 0.000000 0.000000 0.000000 0.000000 0.000000 0.159494
#
#
# Mechanical properties :
#
#
# Convention : Reuss Voigt Hill
#
# Bulk Modulus (GPa) = 41.94007 44.40011 43.17009
# Shear Modulus (GPa) = 1.24254 19.02520 10.13387
#
# Velocity S-wave (km/s) = 0.80951 3.16759 2.31181
# Velocity P-wave (km/s) = 4.79503 6.06581 5.46747
#
# Compressibility (1/GPa) = 0.02384354
#
# Stress axis : x y z
#
# Youngs Moduli (GPa) = 38.83676 85.75672 70.75530
#
# Poissons Ratio (x) = 0.61698 0.44970
# Poissons Ratio (y) = 0.27941 0.02119
# Poissons Ratio (z) = 0.24684 0.02568
#
# Static dielectric constant tensor:
#      x y z
#    x 1.668580 0.000000 0.000000 
#    y 0.000000 1.727250 0.000000 
#    z 0.000000 0.000000 1.685230 
# 
# From -- ./inp_files/3325.got.cif
#   From: 2010.05.17/outbox.cif.g08.bks.cpg/sg39_2_cif.got.tgz:3325.got - 2010.06.03 18:22:40.
