data_PCOD9360698
_publ_section_title
;
Structure prediction by ZEFSAII (Michael W. Deem and Ramdas Pophale) SiO2 
 PCOD9360698
Probable space group: A B M 2
;
_chemical_formula_sum "Si O2"
_cell_formula_units_Z 52
_cell_length_a 22.980875
_cell_length_b 13.006470
_cell_length_c 9.034368
_cell_angle_alpha 90.000000
_cell_angle_beta 90.000000
_cell_angle_gamma 90.000000
_cell_volume 2700.373149
_symmetry_space_group_name_H-M "A B M 2"
_symmetry_group_IT_number 39
_symmetry_cell_setting 'orthorhombic'
loop_
_space_group_symop_operation_xyz
x,y,z
-x,-y,z
-x,1/2+y,z
x,1/2-y,z
x,1/2+y,1/2+z
-x,1/2-y,1/2+z
-x,y,1/2+z
x,-y,1/2+z
loop_
_atom_site_type_symbol
_atom_site_label
_atom_site_fract_x
_atom_site_fract_y
_atom_site_fract_z
Si Si1 0.576838 0.872571 0.723220
Si Si2 0.731336 0.005475 0.515718
Si Si3 0.934860 0.371035 0.261703
Si Si4 0.000000 0.000000 0.511697
Si Si5 0.652057 0.552820 0.266083
Si Si6 0.204656 0.129286 0.761968
Si Si7 0.463378 0.627581 0.898833
O O1 0.583829 0.750000 0.723098
O O2 0.526646 0.903145 0.839380
O O3 0.554963 0.908889 0.561655
O O4 0.635559 0.931722 0.760172
O O5 0.688097 0.072881 0.618537
O O6 0.769722 0.076594 0.409566
O O7 0.691990 0.933547 0.409361
O O8 0.769054 0.935409 0.625456
O O9 0.950398 0.250000 0.261838
O O10 0.865118 0.379130 0.261568
O O11 0.961196 0.428410 0.404807
O O12 0.961256 0.428283 0.118554
O O13 0.589722 0.605455 0.286854
O O14 0.220102 0.250000 0.753275
O O15 0.467647 0.750000 0.912050
#
# Coordination Sequence:
#
# PCOD9360698 Si02
#       7
#     8   8   8   4   8   8   8
#     4  10  22  38  56  78 107 142 177 226 298 369
#     4  10  23  38  58  87 110 147 211 243 292 354
#     4  10  20  36  60  90 125 167 204 239 298 349
#     4  10  20  34  60  96 132 160 196 256 286 340
#     4  11  21  37  58  80 108 142 182 245 291 347
#     4  10  22  42  63  84 122 165 200 250 296 340
#     4  10  22  37  54  79 107 138 177 224 291 368
#
# _framework density 19.256596999999999
#
# number of rings (size 3 to 8) (size 9 to 14) (size 15 to 20)
#    0.000    1.846    1.538    1.846    2.154    4.923 
#    0.000    2.308    0.000   12.923    0.000    0.000 
#    0.000    0.000    0.000    0.000    0.000    0.000 
#
# Total GULP energy -145206.238735 kJ/mol
# GULP energy per Si atom -5584.855336 kJ/mol
# Density = 1.921277 g / cm^3
# Si number density = 19.256597 Si / 1000 Ang^3
#
#
#
# Elastic Constant Matrix: (Units=GPa)
#
#
# Indices 1 2 3 4 5 6 
#
# 1 89.7393 43.2152 50.9419 0.0000 0.0000 0.0000
# 2 43.2152 93.2008 50.5902 0.0000 0.0000 0.0000
# 3 50.9419 50.5902 132.7309 0.0000 0.0000 0.0000
# 4 0.0000 0.0000 0.0000 22.8827 0.0000 0.0000
# 5 0.0000 0.0000 0.0000 0.0000 26.2055 0.0000
# 6 0.0000 0.0000 0.0000 0.0000 0.0000 25.3659
#
#
#
# Elastic Compliance Matrix: (Units=1/GPa)
#
#
# Indices 1 2 3 4 5 6 
#
# 1 0.015993 -0.005149 -0.004176 0.000000 0.000000 0.000000
# 2 -0.005149 0.015186 -0.003812 0.000000 0.000000 0.000000
# 3 -0.004176 -0.003812 0.010590 0.000000 0.000000 0.000000
# 4 0.000000 0.000000 0.000000 0.043701 0.000000 0.000000
# 5 0.000000 0.000000 0.000000 0.000000 0.038160 0.000000
# 6 0.000000 0.000000 0.000000 0.000000 0.000000 0.039423
#
#
# Mechanical properties :
#
#
# Convention : Reuss Voigt Hill
#
# Bulk Modulus (GPa) = 64.53436 67.24061 65.88749
# Shear Modulus (GPa) = 25.70798 26.28574 25.99686
#
# Velocity S-wave (km/s) = 3.65776 3.69863 3.67825
# Velocity P-wave (km/s) = 7.17109 7.29615 7.23389
#
# Compressibility (1/GPa) = 0.01549562
#
# Stress axis : x y z
#
# Youngs Moduli (GPa) = 62.52559 65.84893 94.43257
#
# Poissons Ratio (x) = 0.33907 0.39432
# Poissons Ratio (y) = 0.32196 0.35997
# Poissons Ratio (z) = 0.26108 0.25101
#
# Static dielectric constant tensor:
#      x y z
#    x 1.652960 0.000000 0.000000 
#    y 0.000000 1.682730 0.000000 
#    z 0.000000 0.000000 1.677360 
# 
# From -- ./inp_files/3942.got.cif
#   From: 2010.05.17/outbox.cif.g08.bks.cpg/sg39_2_cif.got.tgz:3942.got - 2010.06.03 18:22:40.
