data_PCOD9360786
_publ_section_title
;
Structure prediction by ZEFSAII (Michael W. Deem and Ramdas Pophale) SiO2 
 PCOD9360786
Probable space group: A B M 2
;
_chemical_formula_sum "Si O2"
_cell_formula_units_Z 48
_cell_length_a 10.981579
_cell_length_b 25.426900
_cell_length_c 7.957954
_cell_angle_alpha 90.000000
_cell_angle_beta 90.000000
_cell_angle_gamma 90.000000
_cell_volume 2222.079689
_symmetry_space_group_name_H-M "A B M 2"
_symmetry_group_IT_number 39
_symmetry_cell_setting 'orthorhombic'
loop_
_space_group_symop_operation_xyz
x,y,z
-x,-y,z
-x,1/2+y,z
x,1/2-y,z
x,1/2+y,1/2+z
-x,1/2-y,1/2+z
-x,y,1/2+z
x,-y,1/2+z
loop_
_atom_site_type_symbol
_atom_site_label
_atom_site_fract_x
_atom_site_fract_y
_atom_site_fract_z
Si Si1 0.610621 0.308990 0.602890
Si Si2 0.249766 0.075557 0.503135
Si Si3 0.526144 0.060078 0.183137
Si Si4 0.138503 0.480632 0.177895
Si Si5 0.697490 0.406148 0.485397
Si Si6 0.333863 0.189454 0.499326
O O1 0.618010 0.250000 0.537120
O O2 0.707612 0.343864 0.500572
O O3 0.466816 0.322692 0.580216
O O4 0.643226 0.309903 0.799034
O O5 0.393849 0.063319 0.510740
O O6 0.178074 0.052419 0.342514
O O7 0.245641 0.138771 0.529080
O O8 0.205001 0.036206 0.649507
O O9 0.614281 0.083075 0.324417
O O10 0.500000 0.000000 0.219252
O O11 0.395811 0.084426 0.141816
O O12 0.000000 0.500000 0.177643
O O13 0.186975 0.442535 0.026420
O O14 0.298588 0.250000 0.547326
#
# Coordination Sequence:
#
# PCOD9360786 Si02
#       6
#     8   8   8   8   8   8
#     4  10  20  35  58  92 132 172 209 257 324 397
#     4  12  24  43  65  94 127 171 214 273 332 397
#     4  12  24  36  62  97 132 169 208 259 344 405
#     4  12  27  45  64  90 130 178 228 272 325 387
#     4  12  22  38  61  95 137 171 210 269 328 402
#     4  10  21  38  61  93 133 173 210 259 328 399
#
# _framework density 21.601385000000001
#
# number of rings (size 3 to 8) (size 9 to 14) (size 15 to 20)
#    0.000    0.667    5.000    4.000    0.000    0.000 
#    0.000    0.833    0.000    2.000    0.000    0.000 
#    0.000    0.000    0.000    0.000    0.000    0.000 
#
# Total GULP energy -133843.536303 kJ/mol
# GULP energy per Si atom -5576.814013 kJ/mol
# Density = 2.155222 g / cm^3
# Si number density = 21.601385 Si / 1000 Ang^3
#
#
#
# Elastic Constant Matrix: (Units=GPa)
#
#
# Indices 1 2 3 4 5 6 
#
# 1 95.3021 42.7596 7.4869 0.0000 0.0000 0.0000
# 2 42.7596 174.3836 15.6064 0.0000 0.0000 0.0000
# 3 7.4869 15.6064 70.3926 0.0000 0.0000 0.0000
# 4 0.0000 0.0000 0.0000 31.4025 0.0000 0.0000
# 5 0.0000 0.0000 0.0000 0.0000 17.9725 0.0000
# 6 0.0000 0.0000 0.0000 0.0000 0.0000 16.9187
#
#
#
# Elastic Compliance Matrix: (Units=1/GPa)
#
#
# Indices 1 2 3 4 5 6 
#
# 1 0.011817 -0.002842 -0.000627 0.000000 0.000000 0.000000
# 2 -0.002842 0.006534 -0.001146 0.000000 0.000000 0.000000
# 3 -0.000627 -0.001146 0.014527 0.000000 0.000000 0.000000
# 4 0.000000 0.000000 0.000000 0.031845 0.000000 0.000000
# 5 0.000000 0.000000 0.000000 0.000000 0.055641 0.000000
# 6 0.000000 0.000000 0.000000 0.000000 0.000000 0.059106
#
#
# Mechanical properties :
#
#
# Convention : Reuss Voigt Hill
#
# Bulk Modulus (GPa) = 42.28633 52.42044 47.35339
# Shear Modulus (GPa) = 25.43475 31.54043 28.48759
#
# Velocity S-wave (km/s) = 3.43513 3.82529 3.63545
# Velocity P-wave (km/s) = 5.94574 6.62044 6.29214
#
# Compressibility (1/GPa) = 0.02364830
#
# Stress axis : x y z
#
# Youngs Moduli (GPa) = 84.62312 153.04967 68.83802
#
# Poissons Ratio (x) = 0.43489 0.04315
# Poissons Ratio (y) = 0.24046 0.07891
# Poissons Ratio (z) = 0.05305 0.17545
#
# Static dielectric constant tensor:
#      x y z
#    x 1.824350 0.000000 0.000000 
#    y 0.000000 2.064540 0.000000 
#    z 0.000000 0.000000 1.947670 
# 
# From -- ./inp_files/2765.got.cif
#   From: 2010.05.17/outbox.cif.g08.bks.cpg/sg39_2_cif.got.tgz:2765.got - 2010.06.03 18:22:40.
