data_PCOD9360875
_publ_section_title
;
Structure prediction by ZEFSAII (Michael W. Deem and Ramdas Pophale) SiO2 
 PCOD9360875
Probable space group: A B M 2
;
_chemical_formula_sum "Si O2"
_cell_formula_units_Z 64
_cell_length_a 24.491665
_cell_length_b 8.449623
_cell_length_c 15.633627
_cell_angle_alpha 90.000000
_cell_angle_beta 90.000000
_cell_angle_gamma 90.000000
_cell_volume 3235.306191
_symmetry_space_group_name_H-M "A B M 2"
_symmetry_group_IT_number 39
_symmetry_cell_setting 'orthorhombic'
loop_
_space_group_symop_operation_xyz
x,y,z
-x,-y,z
-x,1/2+y,z
x,1/2-y,z
x,1/2+y,1/2+z
-x,1/2-y,1/2+z
-x,y,1/2+z
x,-y,1/2+z
loop_
_atom_site_type_symbol
_atom_site_label
_atom_site_fract_x
_atom_site_fract_y
_atom_site_fract_z
Si Si1 0.246126 0.563620 0.012170
Si Si2 0.126342 0.940359 0.981613
Si Si3 0.621280 0.060651 0.253078
Si Si4 0.862314 0.061198 0.289034
Si Si5 0.560627 0.437896 0.916054
Si Si6 0.259754 0.560603 0.324544
Si Si7 0.939710 0.562470 0.139025
Si Si8 0.638740 0.555812 0.567228
O O1 0.242876 0.750000 0.032117
O O2 0.298467 0.499177 0.062222
O O3 0.184707 0.500084 0.020089
O O4 0.260350 0.536067 0.912614
O O5 0.128218 0.750000 0.975524
O O6 0.121634 0.006415 0.885187
O O7 0.080797 0.990459 0.049060
O O8 0.614224 0.250000 0.258474
O O9 0.684854 0.027494 0.274272
O O10 0.611464 0.008961 0.156133
O O11 0.582941 0.983845 0.323251
O O12 0.868433 0.250000 0.283728
O O13 0.797646 0.023872 0.278675
O O14 0.898715 0.985425 0.215257
O O15 0.500000 0.500000 0.930525
O O16 0.559597 0.250000 0.923499
O O17 0.603794 0.499304 0.986409
O O18 0.258729 0.750000 0.343792
O O19 0.940850 0.750000 0.130948
O O20 0.000000 0.500000 0.159204
O O21 0.640747 0.750000 0.565332
#
# Coordination Sequence:
#
# PCOD9360875 Si02
#       8
#     8   8   8   8   8   8   8   8
#     4   9  17  33  59  86 120 157 194 236 290 355
#     4  10  21  38  63  93 125 163 203 249 306 364
#     4  10  20  36  59  88 119 154 194 238 292 351
#     4  10  21  39  62  92 127 164 204 249 304 364
#     4  11  23  41  61  82 114 155 200 247 295 349
#     4   9  18  32  57  88 123 156 191 238 293 353
#     4  12  26  44  64  89 122 162 211 259 305 365
#     4   9  19  35  58  86 117 154 193 236 290 350
#
# _framework density 19.781744
#
# number of rings (size 3 to 8) (size 9 to 14) (size 15 to 20)
#    0.000    2.000    1.250    2.250    1.750    2.000 
#    0.000    5.625    0.000    0.000    0.000    0.000 
#    0.000    0.000    0.000    0.000    0.000    0.000 
#
# Total GULP energy -178650.149487 kJ/mol
# GULP energy per Si atom -5582.817171 kJ/mol
# Density = 1.973672 g / cm^3
# Si number density = 19.781744 Si / 1000 Ang^3
#
#
#
# Elastic Constant Matrix: (Units=GPa)
#
#
# Indices 1 2 3 4 5 6 
#
# 1 49.3476 6.8639 -4.7461 0.0000 0.0000 0.0000
# 2 6.8639 24.5464 -4.0600 0.0000 0.0000 0.0000
# 3 -4.7461 -4.0600 30.3736 0.0000 0.0000 0.0000
# 4 0.0000 0.0000 0.0000 27.7541 0.0000 0.0000
# 5 0.0000 0.0000 0.0000 0.0000 8.9687 0.0000
# 6 0.0000 0.0000 0.0000 0.0000 0.0000 19.6486
#
#
#
# Elastic Compliance Matrix: (Units=1/GPa)
#
#
# Indices 1 2 3 4 5 6 
#
# 1 0.021281 -0.005523 0.002587 0.000000 0.000000 0.000000
# 2 -0.005523 0.043094 0.004897 0.000000 0.000000 0.000000
# 3 0.002587 0.004897 0.033982 0.000000 0.000000 0.000000
# 4 0.000000 0.000000 0.000000 0.036031 0.000000 0.000000
# 5 0.000000 0.000000 0.000000 0.000000 0.111499 0.000000
# 6 0.000000 0.000000 0.000000 0.000000 0.000000 0.050894
#
#
# Mechanical properties :
#
#
# Convention : Reuss Voigt Hill
#
# Bulk Modulus (GPa) = 9.77709 11.15369 10.46539
# Shear Modulus (GPa) = 15.29277 18.35493 16.82385
#
# Velocity S-wave (km/s) = 2.78344 3.04940 2.91945
# Velocity P-wave (km/s) = 3.90938 4.24842 4.08242
#
# Compressibility (1/GPa) = 0.10227994
#
# Stress axis : x y z
#
# Youngs Moduli (GPa) = 46.98924 23.20527 29.42718
#
# Poissons Ratio (x) = 0.12816 -0.07613
# Poissons Ratio (y) = 0.25952 -0.14411
# Poissons Ratio (z) = -0.12157 -0.11364
#
# Static dielectric constant tensor:
#      x y z
#    x 1.698990 0.000000 0.000000 
#    y 0.000000 1.687060 0.000000 
#    z 0.000000 0.000000 1.677010 
# 
# From -- ./inp_files/10673.got.cif
#   From: 2010.05.17/outbox.cif.g08.bks.cpg/sg39_6_cif.got.tgz:10673.got - 2010.06.03 18:22:40.
