data_PCOD9360927
_publ_section_title
;
Structure prediction by ZEFSAII (Michael W. Deem and Ramdas Pophale) SiO2 
 PCOD9360927
Probable space group: A B M 2
;
_chemical_formula_sum "Si O2"
_cell_formula_units_Z 44
_cell_length_a 4.825773
_cell_length_b 25.869088
_cell_length_c 14.180977
_cell_angle_alpha 90.000000
_cell_angle_beta 90.000000
_cell_angle_gamma 90.000000
_cell_volume 1770.329719
_symmetry_space_group_name_H-M "A B M 2"
_symmetry_group_IT_number 39
_symmetry_cell_setting 'orthorhombic'
loop_
_space_group_symop_operation_xyz
x,y,z
-x,-y,z
-x,1/2+y,z
x,1/2-y,z
x,1/2+y,1/2+z
-x,1/2-y,1/2+z
-x,y,1/2+z
x,-y,1/2+z
loop_
_atom_site_type_symbol
_atom_site_label
_atom_site_fract_x
_atom_site_fract_y
_atom_site_fract_z
Si Si1 0.254820 0.428285 0.577100
Si Si2 0.500000 0.000000 0.725367
Si Si3 0.430146 0.082280 0.376309
Si Si4 0.235017 0.362111 0.113811
Si Si5 0.696111 0.250000 0.264062
Si Si6 0.042708 0.854624 0.320296
Si Si7 0.814225 0.250000 0.628026
O O1 0.286613 0.471907 0.655493
O O2 0.383012 0.443612 0.477010
O O3 0.453146 0.382114 0.615600
O O4 0.950262 0.405303 0.563728
O O5 0.357377 0.958047 0.793633
O O6 0.733842 0.102279 0.349244
O O7 0.229227 0.132465 0.380829
O O8 0.232351 0.303883 0.074966
O O9 0.090806 0.358875 0.215960
O O10 0.793974 0.199359 0.320161
O O11 0.384711 0.250000 0.222404
O O12 0.875366 0.250000 0.167557
#
# Coordination Sequence:
#
# PCOD9360927 Si02
#       7
#     8   4   8   8   4   8   4
#     4  12  26  44  70 102 137 178 236 295 352 420
#     4  12  26  50  72  94 136 190 242 294 368 426
#     4  12  26  44  70 102 137 178 236 295 352 420
#     4  11  21  44  68 102 141 181 226 283 348 422
#     4  10  20  36  71 106 135 185 228 265 335 430
#     4  11  21  44  68 102 141 181 226 283 348 422
#     4  10  20  36  71 106 135 185 228 265 335 430
#
# _framework density 24.854130000000001
#
# number of rings (size 3 to 8) (size 9 to 14) (size 15 to 20)
#    0.000    0.727    3.636    6.000    0.000    2.909 
#    0.000    9.091    0.000    0.000    0.000    0.000 
#    0.000    0.000    0.000    0.000    0.000    0.000 
#
# Total GULP energy -123061.031832 kJ/mol
# GULP energy per Si atom -5593.683265 kJ/mol
# Density = 2.479756 g / cm^3
# Si number density = 24.854130 Si / 1000 Ang^3
#
#
#
# Elastic Constant Matrix: (Units=GPa)
#
#
# Indices 1 2 3 4 5 6 
#
# 1 99.2828 16.7208 -1.2417 0.0000 0.0000 0.0000
# 2 16.7208 119.4395 26.0904 0.0000 0.0000 0.0000
# 3 -1.2417 26.0904 112.9454 0.0000 0.0000 0.0000
# 4 0.0000 0.0000 0.0000 -2.7365 0.0000 0.0000
# 5 0.0000 0.0000 0.0000 0.0000 28.2828 0.0000
# 6 0.0000 0.0000 0.0000 0.0000 0.0000 29.5983
#
#
#
# Elastic Compliance Matrix: (Units=1/GPa)
#
#
# Indices 1 2 3 4 5 6 
#
# 1 0.010339 -0.001551 0.000472 0.000000 0.000000 0.000000
# 2 -0.001551 0.009050 -0.002108 0.000000 0.000000 0.000000
# 3 0.000472 -0.002108 0.009346 0.000000 0.000000 0.000000
# 4 0.000000 0.000000 0.000000 -0.365431 0.000000 0.000000
# 5 0.000000 0.000000 0.000000 0.000000 0.035357 0.000000
# 6 0.000000 0.000000 0.000000 0.000000 0.000000 0.033786
#
#
# Mechanical properties :
#
#
# Convention : Reuss Voigt Hill
#
# Bulk Modulus (GPa) = 44.71763 46.08964 45.40363
# Shear Modulus (GPa) = -19.70627 30.36880 5.33126
#
# Velocity S-wave (km/s) = -2.81886 3.49933 1.46618
# Velocity P-wave (km/s) = 2.72698 5.90859 4.60151
#
# Compressibility (1/GPa) = 0.02236254
#
# Stress axis : x y z
#
# Youngs Moduli (GPa) = 96.71859 110.49870 106.99912
#
# Poissons Ratio (x) = 0.17133 -0.05049
# Poissons Ratio (y) = 0.14996 0.22551
# Poissons Ratio (z) = -0.04564 0.23288
#
# Static dielectric constant tensor:
#      x y z
#    x 1.884300 0.000000 0.000000 
#    y 0.000000 2.024250 0.000000 
#    z 0.000000 0.000000 2.013510 
# 
# From -- ./inp_files/7519.got.cif
#   From: 2010.05.17/outbox.cif.g08.bks.cpg/sg39_4_cif.got.tgz:7519.got - 2010.06.03 18:22:40.
