data_PCOD9360975
_publ_section_title
;
Structure prediction by ZEFSAII (Michael W. Deem and Ramdas Pophale) SiO2 
 PCOD9360975
Probable space group: A B M 2
;
_chemical_formula_sum "Si O2"
_cell_formula_units_Z 64
_cell_length_a 24.515654
_cell_length_b 8.673994
_cell_length_c 15.711353
_cell_angle_alpha 90.000000
_cell_angle_beta 90.000000
_cell_angle_gamma 90.000000
_cell_volume 3340.997780
_symmetry_space_group_name_H-M "A B M 2"
_symmetry_group_IT_number 39
_symmetry_cell_setting 'orthorhombic'
loop_
_space_group_symop_operation_xyz
x,y,z
-x,-y,z
-x,1/2+y,z
x,1/2-y,z
x,1/2+y,1/2+z
-x,1/2-y,1/2+z
-x,y,1/2+z
x,-y,1/2+z
loop_
_atom_site_type_symbol
_atom_site_label
_atom_site_fract_x
_atom_site_fract_y
_atom_site_fract_z
Si Si1 0.439662 0.935230 0.901310
Si Si2 0.166808 0.434274 0.396044
Si Si3 0.828325 0.433292 0.705556
Si Si4 0.440081 0.435675 0.205982
Si Si5 0.756775 0.065580 0.053604
Si Si6 0.942350 0.934311 0.650271
Si Si7 0.056078 0.433330 0.958702
Si Si8 0.635415 0.564971 0.049768
O O1 0.440812 0.750000 0.906113
O O2 0.426575 0.980725 0.803384
O O3 0.500000 0.000000 0.920573
O O4 0.396797 0.999948 0.968523
O O5 0.156472 0.250000 0.404040
O O6 0.190116 0.462153 0.302212
O O7 0.207839 0.480552 0.470885
O O8 0.109706 0.521056 0.407398
O O9 0.828750 0.250000 0.690268
O O10 0.790121 0.512476 0.636267
O O11 0.889633 0.496700 0.695827
O O12 0.500000 0.500000 0.185560
O O13 0.442800 0.250000 0.204144
O O14 0.396695 0.485653 0.135294
O O15 0.752104 0.250000 0.052980
O O16 0.697160 0.992783 0.051537
O O17 0.942230 0.750000 0.654513
O O18 0.938090 0.988499 0.551764
O O19 0.000000 0.000000 0.682725
O O20 0.051691 0.250000 0.968679
O O21 0.000000 0.500000 0.920793
O O22 0.634493 0.750000 0.046924
#
# Coordination Sequence:
#
# PCOD9360975 Si02
#       8
#     8   8   8   8   8   8   8   8
#     4  10  20  37  60  89 123 158 196 239 292 350
#     4  10  23  42  63  86 118 155 196 245 303 361
#     4  11  23  41  64  89 116 154 197 246 302 360
#     4   9  20  37  59  87 122 159 194 238 292 347
#     4  11  24  43  63  85 117 158 200 251 300 352
#     4  11  21  36  59  88 121 155 192 239 296 357
#     4  11  21  35  60  89 120 155 194 240 297 358
#     4  11  23  39  60  87 119 158 202 248 293 349
#
# _framework density 19.155954000000001
#
# number of rings (size 3 to 8) (size 9 to 14) (size 15 to 20)
#    0.000    1.500    1.250    4.875    0.000    5.500 
#    0.000    5.000    0.000    0.000    0.000    0.000 
#    0.000    0.000    0.000    0.000    0.000    0.000 
#
# Total GULP energy -178892.409918 kJ/mol
# GULP energy per Si atom -5590.387810 kJ/mol
# Density = 1.911235 g / cm^3
# Si number density = 19.155954 Si / 1000 Ang^3
#
#
#
# Elastic Constant Matrix: (Units=GPa)
#
#
# Indices 1 2 3 4 5 6 
#
# 1 145.2201 35.7065 80.6537 0.0000 0.0000 0.0000
# 2 35.7065 56.8672 36.3668 0.0000 0.0000 0.0000
# 3 80.6537 36.3668 110.0395 0.0000 0.0000 0.0000
# 4 0.0000 0.0000 0.0000 25.4992 0.0000 0.0000
# 5 0.0000 0.0000 0.0000 0.0000 -12.8850 0.0000
# 6 0.0000 0.0000 0.0000 0.0000 0.0000 38.1437
#
#
#
# Elastic Compliance Matrix: (Units=1/GPa)
#
#
# Indices 1 2 3 4 5 6 
#
# 1 0.011865 -0.002395 -0.007905 0.000000 0.000000 0.000000
# 2 -0.002395 0.022781 -0.005774 0.000000 0.000000 0.000000
# 3 -0.007905 -0.005774 0.016790 0.000000 0.000000 0.000000
# 4 0.000000 0.000000 0.000000 0.039217 0.000000 0.000000
# 5 0.000000 0.000000 0.000000 0.000000 -0.077610 0.000000
# 6 0.000000 0.000000 0.000000 0.000000 0.000000 0.026217
#
#
# Mechanical properties :
#
#
# Convention : Reuss Voigt Hill
#
# Bulk Modulus (GPa) = 51.84343 68.62006 60.23175
# Shear Modulus (GPa) = 64.23680 20.77823 42.50751
#
# Velocity S-wave (km/s) = 5.79710 3.29703 4.71576
# Velocity P-wave (km/s) = 8.48122 7.09884 7.82063
#
# Compressibility (1/GPa) = 0.01928885
#
# Stress axis : x y z
#
# Youngs Moduli (GPa) = 84.27804 43.89694 59.55920
#
# Poissons Ratio (x) = 0.10512 0.47084
# Poissons Ratio (y) = 0.20182 0.34387
# Poissons Ratio (z) = 0.66625 0.25344
#
# Static dielectric constant tensor:
#      x y z
#    x 1.630050 0.000000 0.000000 
#    y 0.000000 1.643070 0.000000 
#    z 0.000000 0.000000 1.686510 
# 
# From -- ./inp_files/10685.got.cif
#   From: 2010.05.17/outbox.cif.g08.bks.cpg/sg39_6_cif.got.tgz:10685.got - 2010.06.03 18:22:40.
