data_PCOD9360345
_publ_section_title
;
Structure prediction by ZEFSAII (Michael W. Deem and Ramdas Pophale) SiO2 
 PCOD9360345
Probable space group: A B M 2
;
_chemical_formula_sum "Si O2"
_cell_formula_units_Z 48
_cell_length_a 11.959569
_cell_length_b 18.104568
_cell_length_c 9.033203
_cell_angle_alpha 90.000000
_cell_angle_beta 90.000000
_cell_angle_gamma 90.000000
_cell_volume 1955.894679
_symmetry_space_group_name_H-M "A B M 2"
_symmetry_group_IT_number 39
_symmetry_cell_setting 'orthorhombic'
loop_
_space_group_symop_operation_xyz
x,y,z
-x,-y,z
-x,1/2+y,z
x,1/2-y,z
x,1/2+y,1/2+z
-x,1/2-y,1/2+z
-x,y,1/2+z
x,-y,1/2+z
loop_
_atom_site_type_symbol
_atom_site_label
_atom_site_fract_x
_atom_site_fract_y
_atom_site_fract_z
Si Si1 0.994616 0.336569 0.163000
Si Si2 0.142086 0.838041 0.412474
Si Si3 0.366824 0.665073 0.606996
Si Si4 0.799977 0.401039 0.820425
Si Si5 0.593683 0.556060 0.899489
Si Si6 0.746044 0.039274 0.129458
O O1 0.975035 0.250000 0.130539
O O2 0.101930 0.345176 0.272403
O O3 0.888146 0.367879 0.250931
O O4 0.047840 0.372285 0.018326
O O5 0.124321 0.750000 0.399566
O O6 0.258555 0.842234 0.496625
O O7 0.395867 0.750000 0.628169
O O8 0.318280 0.631027 0.758403
O O9 0.453866 0.621435 0.503937
O O10 0.813552 0.478048 0.728366
O O11 0.799829 0.413903 0.995266
O O12 0.500000 0.500000 0.846184
O O13 0.665154 0.576319 0.753264
O O14 0.667857 0.511672 0.020163
#
# Coordination Sequence:
#
# PCOD9360345 Si02
#       6
#     8   8   8   8   8   8
#     4   9  16  28  49  75 104 141 183 225 274 329
#     4   8  15  27  45  73 106 141 178 218 268 322
#     4   9  18  34  56  83 114 142 178 234 287 329
#     4   9  17  32  53  76 107 145 186 227 272 323
#     4  10  19  34  58  81 104 138 180 221 274 344
#     4   9  19  33  53  78 102 141 187 223 267 331
#
# _framework density 24.541198999999999
#
# number of rings (size 3 to 8) (size 9 to 14) (size 15 to 20)
#    0.000    3.000    0.000    2.000    0.000    1.333 
#    0.000    4.167    0.000   54.000    0.000    0.000 
#    0.000    0.000    0.000    0.000    0.000    0.000 
#
# Total GULP energy -133680.604818 kJ/mol
# GULP energy per Si atom -5570.025201 kJ/mol
# Density = 2.448534 g / cm^3
# Si number density = 24.541199 Si / 1000 Ang^3
#
#
#
# Elastic Constant Matrix: (Units=GPa)
#
#
# Indices 1 2 3 4 5 6 
#
# 1 34.1007 -11.9184 10.8259 0.0000 0.0000 0.0000
# 2 -11.9184 49.6127 5.8999 0.0000 0.0000 0.0000
# 3 10.8259 5.8999 194.5465 0.0000 0.0000 0.0000
# 4 0.0000 0.0000 0.0000 22.3657 0.0000 0.0000
# 5 0.0000 0.0000 0.0000 0.0000 35.2764 0.0000
# 6 0.0000 0.0000 0.0000 0.0000 0.0000 22.9544
#
#
#
# Elastic Compliance Matrix: (Units=1/GPa)
#
#
# Indices 1 2 3 4 5 6 
#
# 1 0.032825 0.008132 -0.002073 0.000000 0.000000 0.000000
# 2 0.008132 0.022244 -0.001127 0.000000 0.000000 0.000000
# 3 -0.002073 -0.001127 0.005290 0.000000 0.000000 0.000000
# 4 0.000000 0.000000 0.000000 0.044711 0.000000 0.000000
# 5 0.000000 0.000000 0.000000 0.000000 0.028348 0.000000
# 6 0.000000 0.000000 0.000000 0.000000 0.000000 0.043565
#
#
# Mechanical properties :
#
#
# Convention : Reuss Voigt Hill
#
# Bulk Modulus (GPa) = 14.24049 31.98607 23.11328
# Shear Modulus (GPa) = 26.24311 34.34945 30.29628
#
# Velocity S-wave (km/s) = 3.27364 3.74527 3.51737
# Velocity P-wave (km/s) = 4.48377 5.63601 5.09259
#
# Compressibility (1/GPa) = 0.07022229
#
# Stress axis : x y z
#
# Youngs Moduli (GPa) = 30.46433 44.95648 189.04631
#
# Poissons Ratio (x) = -0.36559 0.39194
# Poissons Ratio (y) = -0.24774 0.21307
# Poissons Ratio (z) = 0.06316 0.05067
#
# Static dielectric constant tensor:
#      x y z
#    x 2.105810 0.000000 0.000000 
#    y 0.000000 2.022670 0.000000 
#    z 0.000000 0.000000 1.983440 
# 
# From -- ./inp_files/3302.got.cif
#   From: 2010.05.17/outbox.cif.g08.bks.cpg/sg39_2_cif.got.tgz:3302.got - 2010.06.03 18:22:40.
