data_PCOD9360864
_publ_section_title
;
Structure prediction by ZEFSAII (Michael W. Deem and Ramdas Pophale) SiO2 
 PCOD9360864
Probable space group: A B M 2
;
_chemical_formula_sum "Si O2"
_cell_formula_units_Z 48
_cell_length_a 15.614076
_cell_length_b 8.665548
_cell_length_c 19.217970
_cell_angle_alpha 90.000000
_cell_angle_beta 90.000000
_cell_angle_gamma 90.000000
_cell_volume 2600.278303
_symmetry_space_group_name_H-M "A B M 2"
_symmetry_group_IT_number 39
_symmetry_cell_setting 'orthorhombic'
loop_
_space_group_symop_operation_xyz
x,y,z
-x,-y,z
-x,1/2+y,z
x,1/2-y,z
x,1/2+y,1/2+z
-x,1/2-y,1/2+z
-x,y,1/2+z
x,-y,1/2+z
loop_
_atom_site_type_symbol
_atom_site_label
_atom_site_fract_x
_atom_site_fract_y
_atom_site_fract_z
Si Si1 0.247369 0.434983 0.121270
Si Si2 0.905757 0.065488 0.029995
Si Si3 0.244243 0.563597 0.784176
Si Si4 0.093737 0.065884 0.877161
Si Si5 0.406457 0.935480 0.035692
Si Si6 0.592547 0.064543 0.874179
O O1 0.243634 0.250000 0.114736
O O2 0.165135 0.507646 0.083668
O O3 0.248614 0.474673 0.202861
O O4 0.332170 0.496545 0.083349
O O5 0.908660 0.250000 0.028201
O O6 0.000000 0.000000 0.046924
O O7 0.883403 0.003170 0.952935
O O8 0.236927 0.750000 0.790672
O O9 0.163525 0.487294 0.821667
O O10 0.330401 0.514487 0.824528
O O11 0.089558 0.250000 0.882187
O O12 0.000000 0.000000 0.859313
O O13 0.406497 0.750000 0.039955
O O14 0.500000 0.000000 0.054841
O O15 0.390861 0.980119 0.954684
O O16 0.588386 0.250000 0.872077
O O17 0.500000 0.000000 0.853622
#
# Coordination Sequence:
#
# PCOD9360864 Si02
#       6
#     8   8   8   8   8   8
#     4  11  23  38  57  84 118 154 192 236 288 343
#     4  11  22  39  62  86 114 148 190 238 287 340
#     4  10  22  39  57  82 118 154 188 232 285 339
#     4  11  22  38  62  88 114 147 189 235 283 338
#     4  10  20  36  59  84 112 148 192 241 291 343
#     4   9  19  36  58  82 108 143 185 232 282 331
#
# _framework density 18.459561999999998
#
# number of rings (size 3 to 8) (size 9 to 14) (size 15 to 20)
#    0.000    1.667    0.000    6.000    0.000    5.333 
#    0.000    1.667    0.000    0.000    0.000    0.000 
#    0.000    0.000    0.000    0.000    0.000    0.000 
#
# Total GULP energy -134157.470995 kJ/mol
# GULP energy per Si atom -5589.894625 kJ/mol
# Density = 1.841755 g / cm^3
# Si number density = 18.459562 Si / 1000 Ang^3
#
#
#
# Elastic Constant Matrix: (Units=GPa)
#
#
# Indices 1 2 3 4 5 6 
#
# 1 154.3235 71.1665 131.7156 0.0000 0.0000 0.0000
# 2 71.1665 96.5410 74.8208 0.0000 0.0000 0.0000
# 3 131.7156 74.8208 141.4930 0.0000 0.0000 0.0000
# 4 0.0000 0.0000 0.0000 22.7321 0.0000 0.0000
# 5 0.0000 0.0000 0.0000 0.0000 -27.2526 0.0000
# 6 0.0000 0.0000 0.0000 0.0000 0.0000 37.9423
#
#
#
# Elastic Compliance Matrix: (Units=1/GPa)
#
#
# Indices 1 2 3 4 5 6 
#
# 1 0.031576 -0.000840 -0.028950 0.000000 0.000000 0.000000
# 2 -0.000840 0.017574 -0.008511 0.000000 0.000000 0.000000
# 3 -0.028950 -0.008511 0.038517 0.000000 0.000000 0.000000
# 4 0.000000 0.000000 0.000000 0.043991 0.000000 0.000000
# 5 0.000000 0.000000 0.000000 0.000000 -0.036694 0.000000
# 6 0.000000 0.000000 0.000000 0.000000 0.000000 0.026356
#
#
# Mechanical properties :
#
#
# Convention : Reuss Voigt Hill
#
# Bulk Modulus (GPa) = 90.37108 105.30701 97.83904
# Shear Modulus (GPa) = 24.80033 14.32801 19.56417
#
# Velocity S-wave (km/s) = 3.66935 2.78903 3.25905
# Velocity P-wave (km/s) = 8.18625 8.21844 8.20236
#
# Compressibility (1/GPa) = 0.01106549
#
# Stress axis : x y z
#
# Youngs Moduli (GPa) = 31.66935 56.90367 25.96225
#
# Poissons Ratio (x) = 0.04781 0.75161
# Poissons Ratio (y) = 0.02661 0.22096
# Poissons Ratio (z) = 0.91683 0.48429
#
# Static dielectric constant tensor:
#      x y z
#    x 1.606280 0.000000 0.000000 
#    y 0.000000 1.623450 0.000000 
#    z 0.000000 0.000000 1.614500 
# 
# From -- ./inp_files/12638.got.cif
#   From: 2010.05.17/outbox.cif.g08.bks.cpg/sg39_7_cif.got.tgz:12638.got - 2010.06.03 18:22:40.
