data_PCOD9360933
_publ_section_title
;
Structure prediction by ZEFSAII (Michael W. Deem and Ramdas Pophale) SiO2 
 PCOD9360933
Probable space group: A B M 2
;
_chemical_formula_sum "Si O2"
_cell_formula_units_Z 56
_cell_length_a 9.662982
_cell_length_b 24.980027
_cell_length_c 11.949964
_cell_angle_alpha 90.000000
_cell_angle_beta 90.000000
_cell_angle_gamma 90.000000
_cell_volume 2884.500848
_symmetry_space_group_name_H-M "A B M 2"
_symmetry_group_IT_number 39
_symmetry_cell_setting 'orthorhombic'
loop_
_space_group_symop_operation_xyz
x,y,z
-x,-y,z
-x,1/2+y,z
x,1/2-y,z
x,1/2+y,1/2+z
-x,1/2-y,1/2+z
-x,y,1/2+z
x,-y,1/2+z
loop_
_atom_site_type_symbol
_atom_site_label
_atom_site_fract_x
_atom_site_fract_y
_atom_site_fract_z
Si Si1 0.662458 0.487913 0.726380
Si Si2 0.280781 0.190697 0.017511
Si Si3 0.097300 0.811636 0.305710
Si Si4 0.772624 0.189173 0.782168
Si Si5 0.456281 0.093182 0.057558
Si Si6 0.261874 0.395954 0.655139
Si Si7 0.701322 0.088255 0.913186
O O1 0.500000 0.500000 0.752286
O O2 0.644267 0.447859 0.619994
O O3 0.736654 0.543653 0.701196
O O4 0.741005 0.456090 0.823583
O O5 0.342028 0.250000 0.999066
O O6 0.244346 0.186419 0.148406
O O7 0.380677 0.141387 0.997424
O O8 0.154367 0.185631 0.932031
O O9 0.119123 0.750000 0.266175
O O10 0.179372 0.853572 0.228413
O O11 0.934073 0.821706 0.305178
O O12 0.738985 0.250000 0.817674
O O13 0.687384 0.143720 0.846002
O O14 0.572577 0.116910 0.143551
O O15 0.557553 0.067213 0.966748
O O16 0.211984 0.399343 0.525444
#
# Coordination Sequence:
#
# PCOD9360933 Si02
#       7
#     8   8   8   8   8   8   8
#     4  10  20  37  57  88 123 157 194 237 295 371
#     4  10  21  36  58  88 118 154 194 246 305 352
#     4  10  23  41  62  85 117 160 206 249 293 359
#     4  10  22  41  62  84 118 163 204 246 298 355
#     4   9  21  35  57  90 120 153 190 246 299 357
#     4   9  23  36  60  91 114 155 199 240 301 355
#     4  10  22  36  62  90 120 155 199 242 303 356
#
# _framework density 19.414103999999998
#
# number of rings (size 3 to 8) (size 9 to 14) (size 15 to 20)
#    0.857    1.429    1.429    0.000    8.000    1.714 
#    0.000    3.571    0.000    1.714    0.000    0.000 
#    0.000    0.000    0.000    0.000    0.000    0.000 
#
# Total GULP energy -155870.648890 kJ/mol
# GULP energy per Si atom -5566.808889 kJ/mol
# Density = 1.936992 g / cm^3
# Si number density = 19.414104 Si / 1000 Ang^3
#
#
#
# Elastic Constant Matrix: (Units=GPa)
#
#
# Indices 1 2 3 4 5 6 
#
# 1 12.4995 6.9298 -1.4751 0.0000 0.0000 0.0000
# 2 6.9298 71.7033 34.4927 0.0000 0.0000 0.0000
# 3 -1.4751 34.4927 84.5208 0.0000 0.0000 0.0000
# 4 0.0000 0.0000 0.0000 25.2820 0.0000 0.0000
# 5 0.0000 0.0000 0.0000 0.0000 9.1528 0.0000
# 6 0.0000 0.0000 0.0000 0.0000 0.0000 2.7883
#
#
#
# Elastic Compliance Matrix: (Units=1/GPa)
#
#
# Indices 1 2 3 4 5 6 
#
# 1 0.087037 -0.011376 0.006161 0.000000 0.000000 0.000000
# 2 -0.011376 0.018840 -0.007887 0.000000 0.000000 0.000000
# 3 0.006161 -0.007887 0.015158 0.000000 0.000000 0.000000
# 4 0.000000 0.000000 0.000000 0.039554 0.000000 0.000000
# 5 0.000000 0.000000 0.000000 0.000000 0.109256 0.000000
# 6 0.000000 0.000000 0.000000 0.000000 0.000000 0.358647
#
#
# Mechanical properties :
#
#
# Convention : Reuss Voigt Hill
#
# Bulk Modulus (GPa) = 10.54493 27.62426 19.08460
# Shear Modulus (GPa) = 7.28539 16.02969 11.65754
#
# Velocity S-wave (km/s) = 1.93927 2.87657 2.45310
# Velocity P-wave (km/s) = 3.23384 5.02919 4.22791
#
# Compressibility (1/GPa) = 0.09483228
#
# Stress axis : x y z
#
# Youngs Moduli (GPa) = 11.48930 53.07907 65.97342
#
# Poissons Ratio (x) = 0.60382 -0.40649
# Poissons Ratio (y) = 0.13070 0.52033
# Poissons Ratio (z) = -0.07079 0.41864
#
# Static dielectric constant tensor:
#      x y z
#    x 1.662560 0.000000 0.000000 
#    y 0.000000 1.683280 0.000000 
#    z 0.000000 0.000000 1.714230 
# 
# From -- ./inp_files/6051.got.cif
#   From: 2010.05.17/outbox.cif.g08.bks.cpg/sg39_4_cif.got.tgz:6051.got - 2010.06.03 18:22:40.
