data_PCOD9360835
_publ_section_title
;
Structure prediction by ZEFSAII (Michael W. Deem and Ramdas Pophale) SiO2 
 PCOD9360835
Probable space group: A B M 2
;
_chemical_formula_sum "Si O2"
_cell_formula_units_Z 60
_cell_length_a 17.895983
_cell_length_b 16.910948
_cell_length_c 8.861716
_cell_angle_alpha 90.000000
_cell_angle_beta 90.000000
_cell_angle_gamma 90.000000
_cell_volume 2681.892343
_symmetry_space_group_name_H-M "A B M 2"
_symmetry_group_IT_number 39
_symmetry_cell_setting 'orthorhombic'
loop_
_space_group_symop_operation_xyz
x,y,z
-x,-y,z
-x,1/2+y,z
x,1/2-y,z
x,1/2+y,1/2+z
-x,1/2-y,1/2+z
-x,y,1/2+z
x,-y,1/2+z
loop_
_atom_site_type_symbol
_atom_site_label
_atom_site_fract_x
_atom_site_fract_y
_atom_site_fract_z
Si Si1 0.500000 0.000000 0.816320
Si Si2 0.282903 0.130128 0.902137
Si Si3 0.020699 0.844293 0.787698
Si Si4 0.170643 0.338275 0.142356
Si Si5 0.717460 0.045766 0.811596
Si Si6 0.277993 0.340476 0.563752
Si Si7 0.404578 0.428952 0.081103
Si Si8 0.105900 0.653199 0.086722
O O1 0.528152 0.069469 0.702779
O O2 0.436954 0.030948 0.930973
O O3 0.304451 0.157897 0.736147
O O4 0.263808 0.037182 0.885606
O O5 0.209006 0.164859 0.978925
O O6 0.353178 0.141647 0.015776
O O7 0.010461 0.750000 0.810616
O O8 0.082663 0.853785 0.655047
O O9 0.941613 0.875712 0.730095
O O10 0.060889 0.873630 0.938258
O O11 0.180692 0.250000 0.211350
O O12 0.215797 0.404506 0.235044
O O13 0.657993 0.026934 0.680717
O O14 0.684479 0.104565 0.938691
O O15 0.279578 0.250000 0.511965
O O16 0.191928 0.370442 0.577384
O O17 0.106612 0.750000 0.088990
#
# Coordination Sequence:
#
# PCOD9360835 Si02
#       8
#     4   8   8   8   8   8   8   8
#     4  10  20  38  62  94 126 148 196 250 278 342
#     4  11  23  36  57  91 127 155 194 242 305 353
#     4   9  17  31  51  76 108 148 204 263 303 344
#     4  10  20  36  57  83 114 156 204 250 302 355
#     4  11  21  38  59  88 126 155 192 243 306 351
#     4  11  22  37  60  90 123 162 206 252 302 360
#     4  10  21  35  61  91 126 148 191 241 298 335
#     4   9  18  31  51  79 109 150 206 259 302 344
#
# _framework density 22.372264000000001
#
# number of rings (size 3 to 8) (size 9 to 14) (size 15 to 20)
#    0.000    1.867    2.667    2.400    1.867    0.000 
#    0.000    0.000    0.000    4.800    0.000   46.667 
#    0.000    0.000    0.000    0.000    0.000    0.000 
#
# Total GULP energy -167208.284105 kJ/mol
# GULP energy per Si atom -5573.609470 kJ/mol
# Density = 2.232134 g / cm^3
# Si number density = 22.372264 Si / 1000 Ang^3
#
#
#
# Elastic Constant Matrix: (Units=GPa)
#
#
# Indices 1 2 3 4 5 6 
#
# 1 68.9771 5.4212 24.9203 0.0000 0.0000 0.0000
# 2 5.4212 70.8720 9.1908 0.0000 0.0000 0.0000
# 3 24.9203 9.1908 110.2465 0.0000 0.0000 0.0000
# 4 0.0000 0.0000 0.0000 23.8575 0.0000 0.0000
# 5 0.0000 0.0000 0.0000 0.0000 45.6077 0.0000
# 6 0.0000 0.0000 0.0000 0.0000 0.0000 11.8118
#
#
#
# Elastic Compliance Matrix: (Units=1/GPa)
#
#
# Indices 1 2 3 4 5 6 
#
# 1 0.015827 -0.000755 -0.003515 0.000000 0.000000 0.000000
# 2 -0.000755 0.014300 -0.001022 0.000000 0.000000 0.000000
# 3 -0.003515 -0.001022 0.009950 0.000000 0.000000 0.000000
# 4 0.000000 0.000000 0.000000 0.041916 0.000000 0.000000
# 5 0.000000 0.000000 0.000000 0.000000 0.021926 0.000000
# 6 0.000000 0.000000 0.000000 0.000000 0.000000 0.084661
#
#
# Mechanical properties :
#
#
# Convention : Reuss Voigt Hill
#
# Bulk Modulus (GPa) = 33.90390 36.57335 35.23863
# Shear Modulus (GPa) = 23.92418 30.29294 27.10856
#
# Velocity S-wave (km/s) = 3.27367 3.68372 3.48473
# Velocity P-wave (km/s) = 5.42923 5.87164 5.65476
#
# Compressibility (1/GPa) = 0.02949513
#
# Stress axis : x y z
#
# Youngs Moduli (GPa) = 63.18463 69.92932 100.50074
#
# Poissons Ratio (x) = 0.05279 0.35321
# Poissons Ratio (y) = 0.04770 0.10266
# Poissons Ratio (z) = 0.22207 0.07143
#
# Static dielectric constant tensor:
#      x y z
#    x 1.889160 0.000000 0.000000 
#    y 0.000000 1.809550 0.000000 
#    z 0.000000 0.000000 1.898640 
# 
# From -- ./inp_files/3811.got.cif
#   From: 2010.05.17/outbox.cif.g08.bks.cpg/sg39_2_cif.got.tgz:3811.got - 2010.06.03 18:22:40.
