data_PCOD9360832
_publ_section_title
;
Structure prediction by ZEFSAII (Michael W. Deem and Ramdas Pophale) SiO2 
 PCOD9360832
Probable space group: A B M 2
;
_chemical_formula_sum "Si O2"
_cell_formula_units_Z 48
_cell_length_a 9.439057
_cell_length_b 8.643013
_cell_length_c 31.758562
_cell_angle_alpha 90.000000
_cell_angle_beta 90.000000
_cell_angle_gamma 90.000000
_cell_volume 2590.923587
_symmetry_space_group_name_H-M "A B M 2"
_symmetry_group_IT_number 39
_symmetry_cell_setting 'orthorhombic'
loop_
_space_group_symop_operation_xyz
x,y,z
-x,-y,z
-x,1/2+y,z
x,1/2-y,z
x,1/2+y,1/2+z
-x,1/2-y,1/2+z
-x,y,1/2+z
x,-y,1/2+z
loop_
_atom_site_type_symbol
_atom_site_label
_atom_site_fract_x
_atom_site_fract_y
_atom_site_fract_z
Si Si1 0.840245 0.435026 0.958260
Si Si2 0.657959 0.935400 0.129345
Si Si3 0.841489 0.936516 0.799408
Si Si4 0.659319 0.935861 0.718697
Si Si5 0.341045 0.936255 0.381145
Si Si6 0.157767 0.435840 0.048160
O O1 0.845269 0.250000 0.957319
O O2 0.739357 0.498829 0.921919
O O3 0.000000 0.500000 0.952365
O O4 0.789934 0.492708 0.004164
O O5 0.653368 0.750000 0.132745
O O6 0.749456 0.977677 0.088648
O O7 0.500000 0.000000 0.124018
O O8 0.712404 0.003644 0.173516
O O9 0.848137 0.750000 0.799262
O O10 0.760041 0.985392 0.756947
O O11 0.748919 0.983258 0.839916
O O12 0.000000 0.000000 0.801592
O O13 0.652141 0.750000 0.717836
O O14 0.500000 0.000000 0.724761
O O15 0.344704 0.750000 0.383021
O O16 0.500000 0.000000 0.378619
O O17 0.153957 0.250000 0.044123
O O18 0.000000 0.500000 0.054316
#
# Coordination Sequence:
#
# PCOD9360832 Si02
#       6
#     8   8   8   8   8   8
#     4  11  22  38  60  85 114 149 188 232 282 334
#     4  10  21  36  56  82 111 146 186 228 276 330
#     4  10  23  39  58  84 113 147 186 228 275 330
#     4  10  20  36  57  82 111 145 185 228 276 328
#     4  11  23  40  60  85 115 148 188 231 280 334
#     4  10  21  37  57  82 112 147 188 231 278 332
#
# _framework density 18.526212999999998
#
# number of rings (size 3 to 8) (size 9 to 14) (size 15 to 20)
#    0.000    1.667    0.000    6.500    0.000    8.000 
#    0.000    5.000    0.000    0.000    0.000    0.000 
#    0.000    0.000    0.000    0.000    0.000    0.000 
#
# Total GULP energy -134121.542912 kJ/mol
# GULP energy per Si atom -5588.397621 kJ/mol
# Density = 1.848405 g / cm^3
# Si number density = 18.526213 Si / 1000 Ang^3
#
#
#
# Elastic Constant Matrix: (Units=GPa)
#
#
# Indices 1 2 3 4 5 6 
#
# 1 116.9934 45.5829 120.8920 0.0000 0.0000 0.0000
# 2 45.5829 79.5243 70.5934 0.0000 0.0000 0.0000
# 3 120.8920 70.5934 223.6000 0.0000 0.0000 0.0000
# 4 0.0000 0.0000 0.0000 27.5382 0.0000 0.0000
# 5 0.0000 0.0000 0.0000 0.0000 9.6079 0.0000
# 6 0.0000 0.0000 0.0000 0.0000 0.0000 34.2304
#
#
#
# Elastic Compliance Matrix: (Units=1/GPa)
#
#
# Indices 1 2 3 4 5 6 
#
# 1 0.019735 -0.002557 -0.009863 0.000000 0.000000 0.000000
# 2 -0.002557 0.017802 -0.004238 0.000000 0.000000 0.000000
# 3 -0.009863 -0.004238 0.011143 0.000000 0.000000 0.000000
# 4 0.000000 0.000000 0.000000 0.036313 0.000000 0.000000
# 5 0.000000 0.000000 0.000000 0.000000 0.104081 0.000000
# 6 0.000000 0.000000 0.000000 0.000000 0.000000 0.029214
#
#
# Mechanical properties :
#
#
# Convention : Reuss Voigt Hill
#
# Bulk Modulus (GPa) = 65.08367 99.36159 82.22263
# Shear Modulus (GPa) = 19.47609 26.47861 22.97735
#
# Velocity S-wave (km/s) = 3.24585 3.78464 3.52556
# Velocity P-wave (km/s) = 7.01814 8.53507 7.81350
#
# Compressibility (1/GPa) = 0.01536484
#
# Stress axis : x y z
#
# Youngs Moduli (GPa) = 50.67091 56.17194 89.74473
#
# Poissons Ratio (x) = 0.14363 0.88513
# Poissons Ratio (y) = 0.12956 0.38034
# Poissons Ratio (z) = 0.49976 0.23806
#
# Static dielectric constant tensor:
#      x y z
#    x 1.614200 0.000000 0.000000 
#    y 0.000000 1.626220 0.000000 
#    z 0.000000 0.000000 1.640320 
# 
# From -- ./inp_files/17611.got.cif
#   From: 2010.05.17/outbox.cif.g08.bks.cpg/sg39_9_cif.got.tgz:17611.got - 2010.06.03 18:22:40.
