data_PCOD9360615
_publ_section_title
;
Structure prediction by ZEFSAII (Michael W. Deem and Ramdas Pophale) SiO2 
 PCOD9360615
Probable space group: A B M 2
;
_chemical_formula_sum "Si O2"
_cell_formula_units_Z 64
_cell_length_a 21.495340
_cell_length_b 9.169303
_cell_length_c 14.615534
_cell_angle_alpha 90.000000
_cell_angle_beta 90.000000
_cell_angle_gamma 90.000000
_cell_volume 2880.682078
_symmetry_space_group_name_H-M "A B M 2"
_symmetry_group_IT_number 39
_symmetry_cell_setting 'orthorhombic'
loop_
_space_group_symop_operation_xyz
x,y,z
-x,-y,z
-x,1/2+y,z
x,1/2-y,z
x,1/2+y,1/2+z
-x,1/2-y,1/2+z
-x,y,1/2+z
x,-y,1/2+z
loop_
_atom_site_type_symbol
_atom_site_label
_atom_site_fract_x
_atom_site_fract_y
_atom_site_fract_z
Si Si1 0.817756 0.574917 0.675580
Si Si2 0.562571 0.082741 0.473030
Si Si3 0.682878 0.585152 0.697797
Si Si4 0.940683 0.586818 0.441007
Si Si5 0.438493 0.414272 0.196873
Si Si6 0.059169 0.085640 0.225946
Si Si7 0.312047 0.918393 0.973584
Si Si8 0.813239 0.076277 0.480890
O O1 0.820247 0.750000 0.656093
O O2 0.752979 0.550369 0.728752
O O3 0.880598 0.517141 0.719800
O O4 0.812745 0.474259 0.586315
O O5 0.563023 0.250000 0.442284
O O6 0.562242 0.084539 0.585007
O O7 0.500000 0.000000 0.444847
O O8 0.624865 0.998539 0.444886
O O9 0.667733 0.750000 0.724890
O O10 0.626788 0.482908 0.726154
O O11 0.686339 0.582440 0.585845
O O12 0.933500 0.750000 0.481363
O O13 0.952935 0.604591 0.333440
O O14 0.877224 0.495788 0.447441
O O15 0.000000 0.500000 0.479330
O O16 0.500000 0.500000 0.224994
O O17 0.443133 0.250000 0.228864
O O18 0.068235 0.250000 0.187049
O O19 0.000000 0.000000 0.186395
O O20 0.309929 0.750000 0.944626
O O21 0.250196 0.003977 0.943818
O O22 0.812986 0.250000 0.468937
#
# Coordination Sequence:
#
# PCOD9360615 Si02
#       8
#     8   8   8   8   8   8   8   8
#     4  10  20  34  52  74 102 133 165 203 247 294
#     4   9  15  22  33  52  79 115 157 197 238 286
#     4   8  15  26  39  57  84 118 153 191 235 281
#     4  10  21  38  57  77 101 129 162 201 246 293
#     4   9  15  21  32  50  76 112 152 192 231 277
#     4  10  21  37  57  78 101 129 162 201 244 293
#     4   9  16  27  41  59  87 122 158 198 244 290
#     4  11  21  33  51  75 102 132 167 205 247 296
#
# _framework density 22.216961000000001
#
# number of rings (size 3 to 8) (size 9 to 14) (size 15 to 20)
#    0.000    2.500    0.000    4.125    0.000    8.500 
#    0.000    2.500    0.000    0.000    0.000    0.000 
#    0.000    1.000    0.000    6.750    0.000   13.500 
#
# Total GULP energy -178698.840820 kJ/mol
# GULP energy per Si atom -5584.338776 kJ/mol
# Density = 2.216639 g / cm^3
# Si number density = 22.216961 Si / 1000 Ang^3
#
#
#
# Elastic Constant Matrix: (Units=GPa)
#
#
# Indices 1 2 3 4 5 6 
#
# 1 244.8628 151.7691 4.6432 0.0000 0.0000 0.0000
# 2 151.7691 227.9152 9.8516 0.0000 0.0000 0.0000
# 3 4.6432 9.8516 43.1892 0.0000 0.0000 0.0000
# 4 0.0000 0.0000 0.0000 8.1374 0.0000 0.0000
# 5 0.0000 0.0000 0.0000 0.0000 19.5776 0.0000
# 6 0.0000 0.0000 0.0000 0.0000 0.0000 35.9963
#
#
#
# Elastic Compliance Matrix: (Units=1/GPa)
#
#
# Indices 1 2 3 4 5 6 
#
# 1 0.006958 -0.004647 0.000312 0.000000 0.000000 0.000000
# 2 -0.004647 0.007535 -0.001219 0.000000 0.000000 0.000000
# 3 0.000312 -0.001219 0.023399 0.000000 0.000000 0.000000
# 4 0.000000 0.000000 0.000000 0.122890 0.000000 0.000000
# 5 0.000000 0.000000 0.000000 0.000000 0.051079 0.000000
# 6 0.000000 0.000000 0.000000 0.000000 0.000000 0.027781
#
#
# Mechanical properties :
#
#
# Convention : Reuss Voigt Hill
#
# Bulk Modulus (GPa) = 37.33691 94.27721 65.80706
# Shear Modulus (GPa) = 19.25468 36.05580 27.65524
#
# Velocity S-wave (km/s) = 2.94711 4.03289 3.53197
# Velocity P-wave (km/s) = 5.33129 8.01327 6.80570
#
# Compressibility (1/GPa) = 0.02678315
#
# Stress axis : x y z
#
# Youngs Moduli (GPa) = 143.71357 132.71846 42.73777
#
# Poissons Ratio (x) = 0.61674 -0.01333
# Poissons Ratio (y) = 0.66784 0.05210
# Poissons Ratio (z) = -0.04483 0.16180
#
# Static dielectric constant tensor:
#      x y z
#    x 1.801770 0.000000 0.000000 
#    y 0.000000 1.782190 0.000000 
#    z 0.000000 0.000000 1.856250 
# 
# From -- ./inp_files/16343.got.cif
#   From: 2010.05.17/outbox.cif.g08.bks.cpg/sg39_9_cif.got.tgz:16343.got - 2010.06.03 18:22:40.
