data_PCOD9360944
_publ_section_title
;
Structure prediction by ZEFSAII (Michael W. Deem and Ramdas Pophale) SiO2 
 PCOD9360944
Probable space group: A B M 2
;
_chemical_formula_sum "Si O2"
_cell_formula_units_Z 64
_cell_length_a 25.100852
_cell_length_b 9.102849
_cell_length_c 14.724487
_cell_angle_alpha 90.000000
_cell_angle_beta 90.000000
_cell_angle_gamma 90.000000
_cell_volume 3364.387220
_symmetry_space_group_name_H-M "A B M 2"
_symmetry_group_IT_number 39
_symmetry_cell_setting 'orthorhombic'
loop_
_space_group_symop_operation_xyz
x,y,z
-x,-y,z
-x,1/2+y,z
x,1/2-y,z
x,1/2+y,1/2+z
-x,1/2-y,1/2+z
-x,y,1/2+z
x,-y,1/2+z
loop_
_atom_site_type_symbol
_atom_site_label
_atom_site_fract_x
_atom_site_fract_y
_atom_site_fract_z
Si Si1 0.553901 0.418973 0.477190
Si Si2 0.664065 0.425020 0.978986
Si Si3 0.553121 0.916494 0.199049
Si Si4 0.138537 0.572981 0.844622
Si Si5 0.339044 0.577033 0.193954
Si Si6 0.056240 0.573953 0.479073
Si Si7 0.054690 0.576330 0.693173
Si Si8 0.253834 0.926228 0.344929
O O1 0.500000 0.500000 0.447871
O O2 0.556067 0.250000 0.446285
O O3 0.606931 0.507357 0.451637
O O4 0.552728 0.416829 0.588098
O O5 0.665262 0.250000 0.962598
O O6 0.710510 0.507359 0.925596
O O7 0.669985 0.450515 0.087210
O O8 0.551593 0.750000 0.230884
O O9 0.500000 0.000000 0.228331
O O10 0.608393 0.991773 0.225319
O O11 0.141477 0.750000 0.853046
O O12 0.105075 0.534805 0.753885
O O13 0.196704 0.502708 0.842636
O O14 0.103654 0.502783 0.925007
O O15 0.350077 0.750000 0.204350
O O16 0.287761 0.541144 0.253927
O O17 0.054853 0.750000 0.463767
O O18 0.063167 0.546357 0.586729
O O19 0.000000 0.500000 0.452472
O O20 0.046920 0.750000 0.703659
O O21 0.000000 0.500000 0.722683
O O22 0.248630 0.750000 0.353891
#
# Coordination Sequence:
#
# PCOD9360944 Si02
#       8
#     8   8   8   8   8   8   8   8
#     4   9  16  28  49  79 110 142 179 223 276 336
#     4  10  20  37  59  82 109 144 183 229 281 335
#     4   9  16  27  49  79 109 140 177 221 275 334
#     4  11  23  39  58  83 114 151 191 233 277 325
#     4   9  20  38  58  79 108 144 183 227 280 335
#     4  10  20  37  60  89 121 153 187 227 275 328
#     4   9  20  37  59  87 119 151 185 225 273 326
#     4  11  24  41  58  80 110 147 190 235 278 329
#
# _framework density 19.022780000000001
#
# number of rings (size 3 to 8) (size 9 to 14) (size 15 to 20)
#    0.000    2.250    0.000    2.625    0.000    8.000 
#    0.000    3.125    0.000    3.000    0.000    0.000 
#    0.000    0.000    0.000    0.000    0.000    0.000 
#
# Total GULP energy -178791.103414 kJ/mol
# GULP energy per Si atom -5587.221982 kJ/mol
# Density = 1.897948 g / cm^3
# Si number density = 19.022780 Si / 1000 Ang^3
#
#
#
# Elastic Constant Matrix: (Units=GPa)
#
#
# Indices 1 2 3 4 5 6 
#
# 1 225.3624 109.4387 76.4452 0.0000 0.0000 0.0000
# 2 109.4387 106.9434 64.1540 0.0000 0.0000 0.0000
# 3 76.4452 64.1540 72.1405 0.0000 0.0000 0.0000
# 4 0.0000 0.0000 0.0000 17.7004 0.0000 0.0000
# 5 0.0000 0.0000 0.0000 0.0000 97.0563 0.0000
# 6 0.0000 0.0000 0.0000 0.0000 0.0000 42.7025
#
#
#
# Elastic Compliance Matrix: (Units=1/GPa)
#
#
# Indices 1 2 3 4 5 6 
#
# 1 0.009099 -0.007560 -0.002918 0.000000 0.000000 0.000000
# 2 -0.007560 0.026325 -0.015400 0.000000 0.000000 0.000000
# 3 -0.002918 -0.015400 0.030649 0.000000 0.000000 0.000000
# 4 0.000000 0.000000 0.000000 0.056496 0.000000 0.000000
# 5 0.000000 0.000000 0.000000 0.000000 0.010303 0.000000
# 6 0.000000 0.000000 0.000000 0.000000 0.000000 0.023418
#
#
# Mechanical properties :
#
#
# Convention : Reuss Voigt Hill
#
# Bulk Modulus (GPa) = 69.84811 100.50245 85.17528
# Shear Modulus (GPa) = 23.49422 41.78572 32.63997
#
# Velocity S-wave (km/s) = 3.51815 4.69189 4.14676
# Velocity P-wave (km/s) = 7.30076 9.07189 8.23408
#
# Compressibility (1/GPa) = 0.01431678
#
# Stress axis : x y z
#
# Youngs Moduli (GPa) = 109.90798 37.98606 32.62753
#
# Poissons Ratio (x) = 0.28718 0.09521
# Poissons Ratio (y) = 0.83093 0.50245
# Poissons Ratio (z) = 0.32073 0.58497
#
# Static dielectric constant tensor:
#      x y z
#    x 1.611080 0.000000 0.000000 
#    y 0.000000 1.637250 0.000000 
#    z 0.000000 0.000000 1.698160 
# 
# From -- ./inp_files/10624.got.cif
#   From: 2010.05.17/outbox.cif.g08.bks.cpg/sg39_6_cif.got.tgz:10624.got - 2010.06.03 18:22:40.
