data_PCOD9360670
_publ_section_title
;
Structure prediction by ZEFSAII (Michael W. Deem and Ramdas Pophale) SiO2 
 PCOD9360670
Probable space group: A B M 2
;
_chemical_formula_sum "Si O2"
_cell_formula_units_Z 56
_cell_length_a 14.500504
_cell_length_b 8.417722
_cell_length_c 22.033137
_cell_angle_alpha 90.000000
_cell_angle_beta 90.000000
_cell_angle_gamma 90.000000
_cell_volume 2689.391396
_symmetry_space_group_name_H-M "A B M 2"
_symmetry_group_IT_number 39
_symmetry_cell_setting 'orthorhombic'
loop_
_space_group_symop_operation_xyz
x,y,z
-x,-y,z
-x,1/2+y,z
x,1/2-y,z
x,1/2+y,1/2+z
-x,1/2-y,1/2+z
-x,y,1/2+z
x,-y,1/2+z
loop_
_atom_site_type_symbol
_atom_site_label
_atom_site_fract_x
_atom_site_fract_y
_atom_site_fract_z
Si Si1 0.104317 0.940081 0.922780
Si Si2 0.105717 0.440520 0.557295
Si Si3 0.896044 0.938569 0.185630
Si Si4 0.286871 0.941992 0.741968
Si Si5 0.715026 0.939247 0.870196
Si Si6 0.394639 0.442397 0.988563
Si Si7 0.394786 0.557826 0.622160
O O1 0.102270 0.750000 0.921062
O O2 0.179531 0.004392 0.876780
O O3 0.138653 0.990029 0.990589
O O4 0.000000 0.000000 0.913603
O O5 0.108857 0.250000 0.562126
O O6 0.142833 0.515380 0.618937
O O7 0.000000 0.500000 0.557204
O O8 0.901458 0.750000 0.188358
O O9 0.819352 0.995426 0.232812
O O10 0.000000 0.000000 0.193681
O O11 0.288056 0.750000 0.742381
O O12 0.341915 0.997262 0.682333
O O13 0.323696 0.001126 0.806188
O O14 0.712046 0.750000 0.871073
O O15 0.660741 0.000278 0.929673
O O16 0.500000 0.500000 0.984354
O O17 0.393232 0.250000 0.987885
O O18 0.358480 0.494254 0.055396
O O19 0.500000 0.500000 0.625532
O O20 0.392609 0.750000 0.622572
#
# Coordination Sequence:
#
# PCOD9360670 Si02
#       7
#     8   8   8   8   8   8   8
#     4  10  21  37  57  83 117 157 200 244 294 348
#     4   9  17  30  50  78 108 141 184 236 286 335
#     4  10  20  34  55  80 111 154 195 239 288 338
#     4  10  23  40  58  82 117 160 197 237 294 351
#     4  11  24  39  59  87 120 158 199 245 293 351
#     4   9  20  39  64  91 117 150 193 240 297 354
#     4   9  19  39  64  89 115 148 190 239 294 353
#
# _framework density 20.822555999999999
#
# number of rings (size 3 to 8) (size 9 to 14) (size 15 to 20)
#    0.000    2.286    0.000    2.571    2.000    5.714 
#    0.000    4.286    0.000    0.000    0.000    0.000 
#    0.000    0.000    0.000    0.000    0.000    0.000 
#
# Total GULP energy -156250.461332 kJ/mol
# GULP energy per Si atom -5580.373619 kJ/mol
# Density = 2.077516 g / cm^3
# Si number density = 20.822556 Si / 1000 Ang^3
#
#
#
# Elastic Constant Matrix: (Units=GPa)
#
#
# Indices 1 2 3 4 5 6 
#
# 1 73.9970 6.4340 71.1673 0.0000 0.0000 0.0000
# 2 6.4340 18.7735 21.2438 0.0000 0.0000 0.0000
# 3 71.1673 21.2438 184.6857 0.0000 0.0000 0.0000
# 4 0.0000 0.0000 0.0000 26.5907 0.0000 0.0000
# 5 0.0000 0.0000 0.0000 0.0000 24.5261 0.0000
# 6 0.0000 0.0000 0.0000 0.0000 0.0000 19.5904
#
#
#
# Elastic Compliance Matrix: (Units=1/GPa)
#
#
# Indices 1 2 3 4 5 6 
#
# 1 0.021559 0.002313 -0.008574 0.000000 0.000000 0.000000
# 2 0.002313 0.061486 -0.007964 0.000000 0.000000 0.000000
# 3 -0.008574 -0.007964 0.009634 0.000000 0.000000 0.000000
# 4 0.000000 0.000000 0.000000 0.037607 0.000000 0.000000
# 5 0.000000 0.000000 0.000000 0.000000 0.040773 0.000000
# 6 0.000000 0.000000 0.000000 0.000000 0.000000 0.051045
#
#
# Mechanical properties :
#
#
# Convention : Reuss Voigt Hill
#
# Bulk Modulus (GPa) = 15.56899 52.79404 34.18151
# Shear Modulus (GPa) = 18.38488 26.04885 22.21687
#
# Velocity S-wave (km/s) = 2.97464 3.54077 3.26998
# Velocity P-wave (km/s) = 4.39217 6.49041 5.54151
#
# Compressibility (1/GPa) = 0.06423025
#
# Stress axis : x y z
#
# Youngs Moduli (GPa) = 46.38516 16.26395 103.79461
#
# Poissons Ratio (x) = -0.03762 0.88989
# Poissons Ratio (y) = -0.10730 0.82661
# Poissons Ratio (z) = 0.39768 0.12952
#
# Static dielectric constant tensor:
#      x y z
#    x 1.728790 0.000000 0.000000 
#    y 0.000000 1.713490 0.000000 
#    z 0.000000 0.000000 1.802410 
# 
# From -- ./inp_files/14741.got.cif
#   From: 2010.05.17/outbox.cif.g08.bks.cpg/sg39_8_cif.got.tgz:14741.got - 2010.06.03 18:22:40.
