data_PCOD9360215
_publ_section_title
;
Structure prediction by ZEFSAII (Michael W. Deem and Ramdas Pophale) SiO2 
 PCOD9360215
Probable space group: A B M 2
;
_chemical_formula_sum "Si O2"
_cell_formula_units_Z 64
_cell_length_a 14.981144
_cell_length_b 8.799142
_cell_length_c 25.492083
_cell_angle_alpha 90.000000
_cell_angle_beta 90.000000
_cell_angle_gamma 90.000000
_cell_volume 3360.397313
_symmetry_space_group_name_H-M "A B M 2"
_symmetry_group_IT_number 39
_symmetry_cell_setting 'orthorhombic'
loop_
_space_group_symop_operation_xyz
x,y,z
-x,-y,z
-x,1/2+y,z
x,1/2-y,z
x,1/2+y,1/2+z
-x,1/2-y,1/2+z
-x,y,1/2+z
x,-y,1/2+z
loop_
_atom_site_type_symbol
_atom_site_label
_atom_site_fract_x
_atom_site_fract_y
_atom_site_fract_z
Si Si1 0.410136 0.570906 0.463600
Si Si2 0.341228 0.923225 0.864140
Si Si3 0.907163 0.068529 0.281971
Si Si4 0.719050 0.566145 0.250948
Si Si5 0.133675 0.574731 0.894213
Si Si6 0.399890 0.933812 0.649770
Si Si7 0.721988 0.934694 0.052074
Si Si8 0.093427 0.067163 0.007841
O O1 0.500000 0.500000 0.485487
O O2 0.415449 0.750000 0.467529
O O3 0.397099 0.523028 0.403797
O O4 0.327803 0.517790 0.498840
O O5 0.375024 0.750000 0.864665
O O6 0.331927 0.977792 0.804593
O O7 0.240354 0.922243 0.886417
O O8 0.909024 0.250000 0.280187
O O9 0.817659 0.006658 0.253495
O O10 0.900174 0.011980 0.342513
O O11 0.000000 0.000000 0.260664
O O12 0.730695 0.750000 0.252724
O O13 0.657402 0.527077 0.201634
O O14 0.101434 0.750000 0.894140
O O15 0.109789 0.494935 0.948771
O O16 0.407329 0.750000 0.647707
O O17 0.338686 0.985229 0.600649
O O18 0.500000 0.000000 0.649323
O O19 0.722794 0.750000 0.054230
O O20 0.824464 0.981571 0.045181
O O21 0.090616 0.250000 0.005757
O O22 0.000000 0.000000 0.026384
#
# Coordination Sequence:
#
# PCOD9360215 Si02
#       8
#     8   8   8   8   8   8   8   8
#     4  11  21  34  53  80 111 147 186 227 281 343
#     4   9  18  33  52  78 112 148 184 226 278 336
#     4  11  21  34  55  83 118 157 197 237 283 338
#     4   9  20  38  59  84 116 150 190 239 291 341
#     4  10  19  33  53  80 115 154 195 235 280 334
#     4  10  21  41  66  88 112 147 191 245 296 345
#     4   9  20  38  59  82 113 149 190 236 287 342
#     4  11  21  35  54  81 115 152 195 235 284 341
#
# _framework density 19.045368
#
# number of rings (size 3 to 8) (size 9 to 14) (size 15 to 20)
#    0.000    2.000    1.250    3.750    0.000    3.000 
#    0.000    3.750    0.000    1.500    0.000    0.000 
#    0.000    0.000    0.000    0.000    0.000    0.000 
#
# Total GULP energy -178583.961188 kJ/mol
# GULP energy per Si atom -5580.748787 kJ/mol
# Density = 1.900202 g / cm^3
# Si number density = 19.045368 Si / 1000 Ang^3
#
#
#
# Elastic Constant Matrix: (Units=GPa)
#
#
# Indices 1 2 3 4 5 6 
#
# 1 157.2186 44.7483 75.7118 0.0000 0.0000 0.0000
# 2 44.7483 64.1686 32.1700 0.0000 0.0000 0.0000
# 3 75.7118 32.1700 110.8247 0.0000 0.0000 0.0000
# 4 0.0000 0.0000 0.0000 16.3063 0.0000 0.0000
# 5 0.0000 0.0000 0.0000 0.0000 25.4496 0.0000
# 6 0.0000 0.0000 0.0000 0.0000 0.0000 32.8286
#
#
#
# Elastic Compliance Matrix: (Units=1/GPa)
#
#
# Indices 1 2 3 4 5 6 
#
# 1 0.010413 -0.004324 -0.005858 0.000000 0.000000 0.000000
# 2 -0.004324 0.020034 -0.002861 0.000000 0.000000 0.000000
# 3 -0.005858 -0.002861 0.013856 0.000000 0.000000 0.000000
# 4 0.000000 0.000000 0.000000 0.061326 0.000000 0.000000
# 5 0.000000 0.000000 0.000000 0.000000 0.039293 0.000000
# 6 0.000000 0.000000 0.000000 0.000000 0.000000 0.030461
#
#
# Mechanical properties :
#
#
# Convention : Reuss Voigt Hill
#
# Bulk Modulus (GPa) = 54.90000 70.83024 62.86512
# Shear Modulus (GPa) = 24.09147 26.88901 25.49024
#
# Velocity S-wave (km/s) = 3.56047 3.76152 3.66238
# Velocity P-wave (km/s) = 6.76691 7.49242 7.13889
#
# Compressibility (1/GPa) = 0.01821493
#
# Stress axis : x y z
#
# Youngs Moduli (GPa) = 96.03818 49.91535 72.17104
#
# Poissons Ratio (x) = 0.21585 0.42280
# Poissons Ratio (y) = 0.41530 0.20650
# Poissons Ratio (z) = 0.56262 0.14282
#
# Static dielectric constant tensor:
#      x y z
#    x 1.674720 0.000000 0.000000 
#    y 0.000000 1.652430 0.000000 
#    z 0.000000 0.000000 1.651620 
# 
# From -- ./inp_files/16210.got.cif
#   From: 2010.05.17/outbox.cif.g08.bks.cpg/sg39_9_cif.got.tgz:16210.got - 2010.06.03 18:22:40.
