data_PCOD9360782
_publ_section_title
;
Structure prediction by ZEFSAII (Michael W. Deem and Ramdas Pophale) SiO2 
 PCOD9360782
Probable space group: A B M 2
;
_chemical_formula_sum "Si O2"
_cell_formula_units_Z 64
_cell_length_a 24.520826
_cell_length_b 8.649362
_cell_length_c 15.653196
_cell_angle_alpha 90.000000
_cell_angle_beta 90.000000
_cell_angle_gamma 90.000000
_cell_volume 3319.878523
_symmetry_space_group_name_H-M "A B M 2"
_symmetry_group_IT_number 39
_symmetry_cell_setting 'orthorhombic'
loop_
_space_group_symop_operation_xyz
x,y,z
-x,-y,z
-x,1/2+y,z
x,1/2-y,z
x,1/2+y,1/2+z
-x,1/2-y,1/2+z
-x,y,1/2+z
x,-y,1/2+z
loop_
_atom_site_type_symbol
_atom_site_label
_atom_site_fract_x
_atom_site_fract_y
_atom_site_fract_z
Si Si1 0.135495 0.563323 0.228710
Si Si2 0.557840 0.434524 0.324465
Si Si3 0.556402 0.435101 0.632102
Si Si4 0.737869 0.435362 0.221355
Si Si5 0.674348 0.566150 0.059087
Si Si6 0.940189 0.936388 0.572854
Si Si7 0.939911 0.564602 0.376934
Si Si8 0.671374 0.067061 0.880224
O O1 0.133057 0.750000 0.232552
O O2 0.198759 0.518747 0.226256
O O3 0.103758 0.513114 0.142849
O O4 0.103934 0.497292 0.310224
O O5 0.500000 0.500000 0.355859
O O6 0.558303 0.250000 0.330121
O O7 0.562584 0.487192 0.225337
O O8 0.609761 0.504514 0.371680
O O9 0.500000 0.500000 0.594466
O O10 0.552092 0.250000 0.643268
O O11 0.610752 0.468545 0.579171
O O12 0.734307 0.250000 0.212826
O O13 0.708725 0.513033 0.140600
O O14 0.706676 0.487459 0.306478
O O15 0.679237 0.750000 0.046838
O O16 0.691995 0.478761 0.973787
O O17 0.942483 0.750000 0.574250
O O18 0.927618 0.983258 0.475091
O O19 0.000000 0.000000 0.594847
O O20 0.941565 0.750000 0.373481
O O21 0.000000 0.500000 0.355591
O O22 0.671938 0.250000 0.867426
#
# Coordination Sequence:
#
# PCOD9360782 Si02
#       8
#     8   8   8   8   8   8   8   8
#     4  10  22  39  60  87 119 155 199 248 297 355
#     4  11  21  36  61  90 123 157 197 245 304 368
#     4  10  20  35  59  89 122 155 193 241 300 365
#     4  11  24  43  64  88 121 161 205 257 312 363
#     4  11  24  42  64  90 121 158 204 253 306 369
#     4   9  19  36  57  85 121 156 192 236 288 347
#     4  10  20  35  58  88 123 160 198 241 293 350
#     4  12  25  42  64  89 120 160 207 255 307 365
#
# _framework density 19.277812999999998
#
# number of rings (size 3 to 8) (size 9 to 14) (size 15 to 20)
#    0.000    1.500    1.250    4.875    0.000    6.000 
#    0.000    2.500    0.000    0.000    0.000    0.000 
#    0.000    0.000    0.000    0.000    0.000    0.000 
#
# Total GULP energy -178916.018300 kJ/mol
# GULP energy per Si atom -5591.125572 kJ/mol
# Density = 1.923394 g / cm^3
# Si number density = 19.277813 Si / 1000 Ang^3
#
#
#
# Elastic Constant Matrix: (Units=GPa)
#
#
# Indices 1 2 3 4 5 6 
#
# 1 130.9233 22.1923 56.5518 0.0000 0.0000 0.0000
# 2 22.1923 38.7473 1.4388 0.0000 0.0000 0.0000
# 3 56.5518 1.4388 78.6722 0.0000 0.0000 0.0000
# 4 0.0000 0.0000 0.0000 22.0772 0.0000 0.0000
# 5 0.0000 0.0000 0.0000 0.0000 -13.8006 0.0000
# 6 0.0000 0.0000 0.0000 0.0000 0.0000 29.0666
#
#
#
# Elastic Compliance Matrix: (Units=1/GPa)
#
#
# Indices 1 2 3 4 5 6 
#
# 1 0.012705 -0.006942 -0.009006 0.000000 0.000000 0.000000
# 2 -0.006942 0.029619 0.004449 0.000000 0.000000 0.000000
# 3 -0.009006 0.004449 0.019103 0.000000 0.000000 0.000000
# 4 0.000000 0.000000 0.000000 0.045296 0.000000 0.000000
# 5 0.000000 0.000000 0.000000 0.000000 -0.072461 0.000000
# 6 0.000000 0.000000 0.000000 0.000000 0.000000 0.034404
#
#
# Mechanical properties :
#
#
# Convention : Reuss Voigt Hill
#
# Bulk Modulus (GPa) = 26.02232 45.41205 35.71718
# Shear Modulus (GPa) = 47.85920 18.67932 33.26926
#
# Velocity S-wave (km/s) = 4.98798 3.11618 4.15876
# Velocity P-wave (km/s) = 6.83382 6.04609 6.45199
#
# Compressibility (1/GPa) = 0.03842855
#
# Stress axis : x y z
#
# Youngs Moduli (GPa) = 78.71105 33.76199 52.34765
#
# Poissons Ratio (x) = 0.23438 0.47142
# Poissons Ratio (y) = 0.54642 -0.23287
# Poissons Ratio (z) = 0.70884 -0.15019
#
# Static dielectric constant tensor:
#      x y z
#    x 1.656080 0.000000 0.000000 
#    y 0.000000 1.645610 0.000000 
#    z 0.000000 0.000000 1.675490 
# 
# From -- ./inp_files/10697.got.cif
#   From: 2010.05.17/outbox.cif.g08.bks.cpg/sg39_6_cif.got.tgz:10697.got - 2010.06.03 18:22:40.
