data_PCOD9360503
_publ_section_title
;
Structure prediction by ZEFSAII (Michael W. Deem and Ramdas Pophale) SiO2 
 PCOD9360503
Probable space group: A B M 2
;
_chemical_formula_sum "Si O2"
_cell_formula_units_Z 64
_cell_length_a 9.401417
_cell_length_b 17.750359
_cell_length_c 19.086018
_cell_angle_alpha 90.000000
_cell_angle_beta 90.000000
_cell_angle_gamma 90.000000
_cell_volume 3185.046567
_symmetry_space_group_name_H-M "A B M 2"
_symmetry_group_IT_number 39
_symmetry_cell_setting 'orthorhombic'
loop_
_space_group_symop_operation_xyz
x,y,z
-x,-y,z
-x,1/2+y,z
x,1/2-y,z
x,1/2+y,1/2+z
-x,1/2-y,1/2+z
-x,y,1/2+z
x,-y,1/2+z
loop_
_atom_site_type_symbol
_atom_site_label
_atom_site_fract_x
_atom_site_fract_y
_atom_site_fract_z
Si Si1 0.641223 0.529361 0.522310
Si Si2 0.145548 0.047803 0.399308
Si Si3 0.972180 0.835015 0.819497
Si Si4 0.725293 0.057209 0.660296
Si Si5 0.296201 0.332871 0.608860
Si Si6 0.025553 0.164751 0.155060
Si Si7 0.710132 0.446384 0.290989
Si Si8 0.505344 0.163089 0.739515
O O1 0.500000 0.500000 0.484010
O O2 0.777933 0.538502 0.473284
O O3 0.660125 0.474213 0.588778
O O4 0.626609 0.610318 0.557902
O O5 0.089451 0.127814 0.370319
O O6 0.259152 0.013473 0.344919
O O7 0.000000 0.000000 0.398532
O O8 0.937253 0.750000 0.840985
O O9 0.831912 0.886243 0.811888
O O10 0.026521 0.833488 0.739585
O O11 0.871503 0.096376 0.637891
O O12 0.634484 0.122361 0.699294
O O13 0.732966 0.987704 0.715509
O O14 0.299132 0.250000 0.577496
O O15 0.379392 0.330874 0.682140
O O16 0.132218 0.350727 0.626103
O O17 0.066861 0.250000 0.131589
O O18 0.563065 0.399407 0.291589
O O19 0.535240 0.250000 0.762935
#
# Coordination Sequence:
#
# PCOD9360503 Si02
#       8
#     8   8   8   8   8   8   8   8
#     4  12  24  42  61  89 126 170 211 260 321 383
#     4  10  25  41  61  88 125 165 215 265 313 378
#     4  10  19  38  64  91 122 164 206 256 313 370
#     4  12  22  36  63  96 129 163 210 266 326 381
#     4  10  21  38  62  90 119 160 208 254 316 383
#     4  10  20  35  61  96 125 153 202 262 321 377
#     4  11  20  38  64  94 122 162 209 266 317 386
#     4  11  21  37  62  93 128 164 205 263 322 386
#
# _framework density 20.093899
#
# number of rings (size 3 to 8) (size 9 to 14) (size 15 to 20)
#    0.000    1.250    5.000    1.125    1.750    2.500 
#    0.000    0.000    0.000    6.000    0.000    0.000 
#    0.000    0.000    0.000    0.000    0.000    0.000 
#
# Total GULP energy -178427.135760 kJ/mol
# GULP energy per Si atom -5575.847992 kJ/mol
# Density = 2.004816 g / cm^3
# Si number density = 20.093899 Si / 1000 Ang^3
#
#
#
# Elastic Constant Matrix: (Units=GPa)
#
#
# Indices 1 2 3 4 5 6 
#
# 1 78.6980 50.8648 14.1668 0.0000 0.0000 0.0000
# 2 50.8648 119.3920 7.4836 0.0000 0.0000 0.0000
# 3 14.1668 7.4836 47.3353 0.0000 0.0000 0.0000
# 4 0.0000 0.0000 0.0000 40.3103 0.0000 0.0000
# 5 0.0000 0.0000 0.0000 0.0000 30.8486 0.0000
# 6 0.0000 0.0000 0.0000 0.0000 0.0000 30.2648
#
#
#
# Elastic Compliance Matrix: (Units=1/GPa)
#
#
# Indices 1 2 3 4 5 6 
#
# 1 0.018363 -0.007554 -0.004302 0.000000 0.000000 0.000000
# 2 -0.007554 0.011567 0.000432 0.000000 0.000000 0.000000
# 3 -0.004302 0.000432 0.022345 0.000000 0.000000 0.000000
# 4 0.000000 0.000000 0.000000 0.024808 0.000000 0.000000
# 5 0.000000 0.000000 0.000000 0.000000 0.032416 0.000000
# 6 0.000000 0.000000 0.000000 0.000000 0.000000 0.033042
#
#
# Mechanical properties :
#
#
# Convention : Reuss Voigt Hill
#
# Bulk Modulus (GPa) = 33.98072 43.38397 38.68234
# Shear Modulus (GPa) = 28.53930 31.81208 30.17569
#
# Velocity S-wave (km/s) = 3.77277 3.98322 3.87943
# Velocity P-wave (km/s) = 5.99384 6.54158 6.27369
#
# Compressibility (1/GPa) = 0.02942845
#
# Stress axis : x y z
#
# Youngs Moduli (GPa) = 54.45630 86.45417 44.75271
#
# Poissons Ratio (x) = 0.65305 0.19251
# Poissons Ratio (y) = 0.41135 -0.01933
# Poissons Ratio (z) = 0.23425 -0.03735
#
# Static dielectric constant tensor:
#      x y z
#    x 1.733100 0.000000 0.000000 
#    y 0.000000 1.713190 0.000000 
#    z 0.000000 0.000000 1.736790 
# 
# From -- ./inp_files/14221.got.cif
#   From: 2010.05.17/outbox.cif.g08.bks.cpg/sg39_8_cif.got.tgz:14221.got - 2010.06.03 18:22:40.
