data_PCOD9360945
_publ_section_title
;
Structure prediction by ZEFSAII (Michael W. Deem and Ramdas Pophale) SiO2 
 PCOD9360945
Probable space group: A B M 2
;
_chemical_formula_sum "Si O2"
_cell_formula_units_Z 64
_cell_length_a 19.327758
_cell_length_b 8.899380
_cell_length_c 20.303760
_cell_angle_alpha 90.000000
_cell_angle_beta 90.000000
_cell_angle_gamma 90.000000
_cell_volume 3492.349518
_symmetry_space_group_name_H-M "A B M 2"
_symmetry_group_IT_number 39
_symmetry_cell_setting 'orthorhombic'
loop_
_space_group_symop_operation_xyz
x,y,z
-x,-y,z
-x,1/2+y,z
x,1/2-y,z
x,1/2+y,1/2+z
-x,1/2-y,1/2+z
-x,y,1/2+z
x,-y,1/2+z
loop_
_atom_site_type_symbol
_atom_site_label
_atom_site_fract_x
_atom_site_fract_y
_atom_site_fract_z
Si Si1 0.924338 0.431021 0.358560
Si Si2 0.812076 0.929533 0.606188
Si Si3 0.349195 0.068910 0.804451
Si Si4 0.429395 0.423375 0.185260
Si Si5 0.672086 0.075175 0.561767
Si Si6 0.576594 0.431542 0.439503
Si Si7 0.924377 0.069999 0.509999
Si Si8 0.196662 0.433056 0.759479
O O1 0.929779 0.250000 0.354515
O O2 0.903718 0.467699 0.434193
O O3 0.866610 0.481489 0.306183
O O4 0.000000 0.500000 0.346056
O O5 0.819709 0.750000 0.605160
O O6 0.811382 0.979020 0.683107
O O7 0.739885 0.977753 0.573295
O O8 0.872226 0.004524 0.563500
O O9 0.348724 0.250000 0.802326
O O10 0.380662 0.023536 0.874517
O O11 0.270829 0.017774 0.788755
O O12 0.399154 0.007560 0.748148
O O13 0.500000 0.500000 0.162806
O O14 0.442787 0.250000 0.201582
O O15 0.373197 0.430506 0.127750
O O16 0.692193 0.250000 0.549652
O O17 0.622679 0.025239 0.502417
O O18 0.500000 0.500000 0.440442
O O19 0.570028 0.250000 0.440070
O O20 0.927350 0.250000 0.515185
O O21 0.000000 0.000000 0.520113
O O22 0.196980 0.250000 0.760019
#
# Coordination Sequence:
#
# PCOD9360945 Si02
#       8
#     8   8   8   8   8   8   8   8
#     4   9  19  37  61  86 114 150 188 230 275 328
#     4  11  22  37  59  86 118 153 190 233 282 338
#     4  10  20  37  59  82 111 147 188 233 283 340
#     4  11  22  36  57  82 112 147 188 233 282 338
#     4  10  22  39  57  82 112 148 191 235 283 337
#     4  10  22  38  59  82 110 146 189 238 289 344
#     4  10  21  38  62  88 119 153 190 233 277 331
#     4   9  19  36  58  84 113 150 191 229 278 335
#
# _framework density 18.325772000000001
#
# number of rings (size 3 to 8) (size 9 to 14) (size 15 to 20)
#    0.000    2.000    1.250    1.875    1.750    3.500 
#    0.000    3.125    0.000    0.000    0.000    0.000 
#    0.000    0.000    0.000    0.000    0.000    0.000 
#
# Total GULP energy -178654.909800 kJ/mol
# GULP energy per Si atom -5582.965931 kJ/mol
# Density = 1.828406 g / cm^3
# Si number density = 18.325772 Si / 1000 Ang^3
#
#
#
# Elastic Constant Matrix: (Units=GPa)
#
#
# Indices 1 2 3 4 5 6 
#
# 1 122.6013 39.4947 72.0486 0.0000 0.0000 0.0000
# 2 39.4947 29.5645 37.0632 0.0000 0.0000 0.0000
# 3 72.0486 37.0632 133.2553 0.0000 0.0000 0.0000
# 4 0.0000 0.0000 0.0000 19.6203 0.0000 0.0000
# 5 0.0000 0.0000 0.0000 0.0000 29.3546 0.0000
# 6 0.0000 0.0000 0.0000 0.0000 0.0000 35.4526
#
#
#
# Elastic Compliance Matrix: (Units=1/GPa)
#
#
# Indices 1 2 3 4 5 6 
#
# 1 0.015628 -0.015790 -0.004058 0.000000 0.000000 0.000000
# 2 -0.015790 0.067885 -0.010344 0.000000 0.000000 0.000000
# 3 -0.004058 -0.010344 0.012576 0.000000 0.000000 0.000000
# 4 0.000000 0.000000 0.000000 0.050968 0.000000 0.000000
# 5 0.000000 0.000000 0.000000 0.000000 0.034066 0.000000
# 6 0.000000 0.000000 0.000000 0.000000 0.000000 0.028207
#
#
# Mechanical properties :
#
#
# Convention : Reuss Voigt Hill
#
# Bulk Modulus (GPa) = 28.00728 64.73713 46.37221
# Shear Modulus (GPa) = 17.75478 26.00646 21.88062
#
# Velocity S-wave (km/s) = 3.11600 3.77121 3.45915
# Velocity P-wave (km/s) = 5.31621 7.37327 6.42757
#
# Compressibility (1/GPa) = 0.03570500
#
# Stress axis : x y z
#
# Youngs Moduli (GPa) = 63.98909 14.73073 79.51921
#
# Poissons Ratio (x) = 0.23259 0.32268
# Poissons Ratio (y) = 1.01036 0.82257
# Poissons Ratio (z) = 0.25966 0.15238
#
# Static dielectric constant tensor:
#      x y z
#    x 1.606080 0.000000 0.000000 
#    y 0.000000 1.623970 0.000000 
#    z 0.000000 0.000000 1.623410 
# 
# From -- ./inp_files/13157.got.cif
#   From: 2010.05.17/outbox.cif.g08.bks.cpg/sg39_7_cif.got.tgz:13157.got - 2010.06.03 18:22:40.
