data_PCOD9360045
_publ_section_title
;
Structure prediction by ZEFSAII (Michael W. Deem and Ramdas Pophale) SiO2 
 PCOD9360045
Probable space group: A B M 2
;
_chemical_formula_sum "Si O2"
_cell_formula_units_Z 56
_cell_length_a 14.589194
_cell_length_b 9.653875
_cell_length_c 21.004326
_cell_angle_alpha 90.000000
_cell_angle_beta 90.000000
_cell_angle_gamma 90.000000
_cell_volume 2958.296643
_symmetry_space_group_name_H-M "A B M 2"
_symmetry_group_IT_number 39
_symmetry_cell_setting 'orthorhombic'
loop_
_space_group_symop_operation_xyz
x,y,z
-x,-y,z
-x,1/2+y,z
x,1/2-y,z
x,1/2+y,1/2+z
-x,1/2-y,1/2+z
-x,y,1/2+z
x,-y,1/2+z
loop_
_atom_site_type_symbol
_atom_site_label
_atom_site_fract_x
_atom_site_fract_y
_atom_site_fract_z
Si Si1 0.206969 0.594779 0.254170
Si Si2 0.591596 0.091943 0.583841
Si Si3 0.410791 0.095896 0.370497
Si Si4 0.095022 0.582283 0.657121
Si Si5 0.214457 0.083724 0.036129
Si Si6 0.759623 0.087545 0.399311
Si Si7 0.607575 0.532751 0.227819
O O1 0.174068 0.750000 0.238193
O O2 0.157461 0.475772 0.214432
O O3 0.195258 0.572187 0.329919
O O4 0.315590 0.585262 0.237315
O O5 0.572031 0.250000 0.563670
O O6 0.681093 0.034359 0.547809
O O7 0.500000 0.000000 0.577184
O O8 0.622919 0.096198 0.658275
O O9 0.425409 0.250000 0.396191
O O10 0.500000 0.000000 0.376058
O O11 0.327298 0.012534 0.400385
O O12 0.385729 0.108511 0.295389
O O13 0.085144 0.750000 0.659571
O O14 0.146374 0.539356 0.591662
O O15 0.000000 0.500000 0.660671
O O16 0.220452 0.250000 0.043180
O O17 0.184717 0.056027 0.963612
O O18 0.731028 0.250000 0.402635
O O19 0.500000 0.500000 0.225047
#
# Coordination Sequence:
#
# PCOD9360045 Si02
#       7
#     8   8   8   8   8   8   8
#     4  10  20  36  60  89 118 152 191 237 285 336
#     4  10  19  32  50  77 111 151 192 232 280 327
#     4  10  19  30  47  73 109 152 199 242 283 330
#     4  11  23  42  66  90 115 145 184 234 290 348
#     4   9  19  38  60  82 114 154 190 230 282 336
#     4   9  19  36  57  80 112 151 190 229 280 340
#     4   9  18  30  49  79 115 152 191 235 278 328
#
# _framework density 18.929812999999999
#
# number of rings (size 3 to 8) (size 9 to 14) (size 15 to 20)
#    0.000    2.286    1.429    1.286    0.000    8.571 
#    0.000    4.286    0.000    1.714    0.000    0.000 
#    0.000    0.000    0.000    0.000    0.000    0.000 
#
# Total GULP energy -155870.174112 kJ/mol
# GULP energy per Si atom -5566.791933 kJ/mol
# Density = 1.888673 g / cm^3
# Si number density = 18.929813 Si / 1000 Ang^3
#
#
#
# Elastic Constant Matrix: (Units=GPa)
#
#
# Indices 1 2 3 4 5 6 
#
# 1 68.8155 36.2227 34.5124 0.0000 0.0000 0.0000
# 2 36.2227 100.7809 34.3299 0.0000 0.0000 0.0000
# 3 34.5124 34.3299 108.8129 0.0000 0.0000 0.0000
# 4 0.0000 0.0000 0.0000 3.7439 0.0000 0.0000
# 5 0.0000 0.0000 0.0000 0.0000 -24.9923 0.0000
# 6 0.0000 0.0000 0.0000 0.0000 0.0000 23.6300
#
#
#
# Elastic Compliance Matrix: (Units=1/GPa)
#
#
# Indices 1 2 3 4 5 6 
#
# 1 0.019711 -0.005551 -0.004500 0.000000 0.000000 0.000000
# 2 -0.005551 0.012681 -0.002240 0.000000 0.000000 0.000000
# 3 -0.004500 -0.002240 0.011324 0.000000 0.000000 0.000000
# 4 0.000000 0.000000 0.000000 0.267101 0.000000 0.000000
# 5 0.000000 0.000000 0.000000 0.000000 -0.040012 0.000000
# 6 0.000000 0.000000 0.000000 0.000000 0.000000 0.042319
#
#
# Mechanical properties :
#
#
# Convention : Reuss Voigt Hill
#
# Bulk Modulus (GPa) = 52.26749 54.28216 53.27483
# Shear Modulus (GPa) = 14.53135 12.03262 13.28199
#
# Velocity S-wave (km/s) = 2.77364 2.52393 2.65173
# Velocity P-wave (km/s) = 6.15862 6.10175 6.13025
#
# Compressibility (1/GPa) = 0.01913235
#
# Stress axis : x y z
#
# Youngs Moduli (GPa) = 50.73380 78.85906 88.30705
#
# Poissons Ratio (x) = 0.43779 0.39740
# Poissons Ratio (y) = 0.28165 0.19781
# Poissons Ratio (z) = 0.22831 0.17664
#
# Static dielectric constant tensor:
#      x y z
#    x 1.695460 0.000000 0.000000 
#    y 0.000000 1.953820 0.000000 
#    z 0.000000 0.000000 1.700150 
# 
# From -- ./inp_files/14779.got.cif
#   From: 2010.05.17/outbox.cif.g08.bks.cpg/sg39_8_cif.got.tgz:14779.got - 2010.06.03 18:22:40.
