data_PCOD9360312
_publ_section_title
;
Structure prediction by ZEFSAII (Michael W. Deem and Ramdas Pophale) SiO2 
 PCOD9360312
Probable space group: A B M 2
;
_chemical_formula_sum "Si O2"
_cell_formula_units_Z 48
_cell_length_a 15.797114
_cell_length_b 8.430744
_cell_length_c 19.380804
_cell_angle_alpha 90.000000
_cell_angle_beta 90.000000
_cell_angle_gamma 90.000000
_cell_volume 2581.163076
_symmetry_space_group_name_H-M "A B M 2"
_symmetry_group_IT_number 39
_symmetry_cell_setting 'orthorhombic'
loop_
_space_group_symop_operation_xyz
x,y,z
-x,-y,z
-x,1/2+y,z
x,1/2-y,z
x,1/2+y,1/2+z
-x,1/2-y,1/2+z
-x,y,1/2+z
x,-y,1/2+z
loop_
_atom_site_type_symbol
_atom_site_label
_atom_site_fract_x
_atom_site_fract_y
_atom_site_fract_z
Si Si1 0.249944 0.943910 0.431860
Si Si2 0.406961 0.941373 0.524779
Si Si3 0.093266 0.559725 0.525524
Si Si4 0.749409 0.558286 0.773506
Si Si5 0.906533 0.440253 0.180500
Si Si6 0.406610 0.559946 0.683650
O O1 0.250349 0.750000 0.431801
O O2 0.332849 0.996049 0.474057
O O3 0.166023 0.993592 0.473089
O O4 0.250449 0.996672 0.352699
O O5 0.407359 0.750000 0.524421
O O6 0.391159 0.992615 0.604110
O O7 0.500000 0.000000 0.504410
O O8 0.092228 0.750000 0.527174
O O9 0.111290 0.499909 0.602967
O O10 0.000000 0.500000 0.505919
O O11 0.750212 0.750000 0.773970
O O12 0.833031 0.505067 0.732131
O O13 0.666333 0.503311 0.733033
O O14 0.908010 0.250000 0.179483
O O15 0.000000 0.500000 0.200101
O O16 0.500000 0.500000 0.703414
O O17 0.406148 0.750000 0.684868
#
# Coordination Sequence:
#
# PCOD9360312 Si02
#       6
#     8   8   8   8   8   8
#     4   9  19  35  53  74 104 139 169 204 256 309
#     4   9  18  34  55  76  99 130 169 210 251 298
#     4  10  19  34  56  78 102 134 173 216 259 306
#     4  10  21  36  53  76 107 140 173 212 259 310
#     4  10  20  34  54  78 104 136 174 217 261 307
#     4  10  20  35  56  80 104 135 174 215 259 306
#
# _framework density 18.596268999999999
#
# number of rings (size 3 to 8) (size 9 to 14) (size 15 to 20)
#    0.000    2.333    0.000    3.500    0.000    4.667 
#    0.000    5.833    0.000    0.000    0.000    0.000 
#    0.000    0.000    0.000    0.000    0.000    0.000 
#
# Total GULP energy -133988.414125 kJ/mol
# GULP energy per Si atom -5582.850589 kJ/mol
# Density = 1.855394 g / cm^3
# Si number density = 18.596269 Si / 1000 Ang^3
#
#
#
# Elastic Constant Matrix: (Units=GPa)
#
#
# Indices 1 2 3 4 5 6 
#
# 1 199.9926 26.0381 151.9127 0.0000 0.0000 0.0000
# 2 26.0381 22.6094 24.1944 0.0000 0.0000 0.0000
# 3 151.9127 24.1944 151.3641 0.0000 0.0000 0.0000
# 4 0.0000 0.0000 0.0000 16.9437 0.0000 0.0000
# 5 0.0000 0.0000 0.0000 0.0000 14.3534 0.0000
# 6 0.0000 0.0000 0.0000 0.0000 0.0000 23.0589
#
#
#
# Elastic Compliance Matrix: (Units=1/GPa)
#
#
# Indices 1 2 3 4 5 6 
#
# 1 0.021113 -0.001978 -0.020873 0.000000 0.000000 0.000000
# 2 -0.001978 0.053541 -0.006573 0.000000 0.000000 0.000000
# 3 -0.020873 -0.006573 0.028606 0.000000 0.000000 0.000000
# 4 0.000000 0.000000 0.000000 0.059019 0.000000 0.000000
# 5 0.000000 0.000000 0.000000 0.000000 0.069670 0.000000
# 6 0.000000 0.000000 0.000000 0.000000 0.000000 0.043367
#
#
# Mechanical properties :
#
#
# Convention : Reuss Voigt Hill
#
# Bulk Modulus (GPa) = 22.51654 86.47293 54.49474
# Shear Modulus (GPa) = 14.32796 22.32593 18.32695
#
# Velocity S-wave (km/s) = 2.77875 3.46867 3.14270
# Velocity P-wave (km/s) = 4.73600 7.91475 6.52200
#
# Compressibility (1/GPa) = 0.04441179
#
# Stress axis : x y z
#
# Youngs Moduli (GPa) = 47.36475 18.67719 34.95778
#
# Poissons Ratio (x) = 0.03695 0.72968
# Poissons Ratio (y) = 0.09369 0.22977
# Poissons Ratio (z) = 0.98865 0.12276
#
# Static dielectric constant tensor:
#      x y z
#    x 1.618900 0.000000 0.000000 
#    y 0.000000 1.638400 0.000000 
#    z 0.000000 0.000000 1.626220 
# 
# From -- ./inp_files/12651.got.cif
#   From: 2010.05.17/outbox.cif.g08.bks.cpg/sg39_7_cif.got.tgz:12651.got - 2010.06.03 18:22:40.
