data_PCOD9360535
_publ_section_title
;
Structure prediction by ZEFSAII (Michael W. Deem and Ramdas Pophale) SiO2 
 PCOD9360535
Probable space group: A B M 2
;
_chemical_formula_sum "Si O2"
_cell_formula_units_Z 56
_cell_length_a 15.485882
_cell_length_b 8.915374
_cell_length_c 25.776884
_cell_angle_alpha 90.000000
_cell_angle_beta 90.000000
_cell_angle_gamma 90.000000
_cell_volume 3558.819236
_symmetry_space_group_name_H-M "A B M 2"
_symmetry_group_IT_number 39
_symmetry_cell_setting 'orthorhombic'
loop_
_space_group_symop_operation_xyz
x,y,z
-x,-y,z
-x,1/2+y,z
x,1/2-y,z
x,1/2+y,1/2+z
-x,1/2-y,1/2+z
-x,y,1/2+z
x,-y,1/2+z
loop_
_atom_site_type_symbol
_atom_site_label
_atom_site_fract_x
_atom_site_fract_y
_atom_site_fract_z
Si Si1 0.904696 0.928898 0.083690
Si Si2 0.411149 0.577047 0.786003
Si Si3 0.903900 0.070385 0.862706
Si Si4 0.229575 0.071104 0.784011
Si Si5 0.095793 0.070391 0.967944
Si Si6 0.768825 0.428301 0.161057
Si Si7 0.411758 0.922265 0.659847
O O1 0.912455 0.750000 0.088876
O O2 0.842115 0.994704 0.126943
O O3 0.868204 0.959494 0.025479
O O4 0.000000 0.000000 0.087832
O O5 0.500000 0.500000 0.803869
O O6 0.405987 0.750000 0.802817
O O7 0.324615 0.487211 0.799956
O O8 0.414146 0.577117 0.722928
O O9 0.910059 0.250000 0.864112
O O10 0.843068 0.013622 0.816657
O O11 0.865486 0.007486 0.917134
O O12 0.000000 0.000000 0.856965
O O13 0.223318 0.250000 0.791686
O O14 0.219397 0.039980 0.722466
O O15 0.091502 0.250000 0.960298
O O16 0.000000 0.000000 0.970244
O O17 0.771732 0.250000 0.154316
O O18 0.674839 0.490172 0.145296
O O19 0.407477 0.750000 0.642912
O O20 0.500000 0.000000 0.641937
#
# Coordination Sequence:
#
# PCOD9360535 Si02
#       7
#     8   8   8   8   8   8   8
#     4  10  20  33  50  70  94 124 157 194 235 277
#     4   9  16  27  44  66  91 121 155 192 232 274
#     4  11  21  33  50  70  93 123 157 195 236 278
#     4  10  20  33  47  67  96 128 160 194 232 278
#     4   9  17  31  50  70  90 115 151 195 237 275
#     4  10  20  32  47  68  96 128 160 193 232 278
#     4   9  16  27  44  65  91 121 155 193 232 274
#
# _framework density 15.735556000000001
#
# number of rings (size 3 to 8) (size 9 to 14) (size 15 to 20)
#    0.000    2.286    0.000    4.714    0.000    7.429 
#    0.000    0.000    0.000    0.000    0.000    1.000 
#    0.000    6.857    0.000    0.000    0.000    0.000 
#
# Total GULP energy -156061.046149 kJ/mol
# GULP energy per Si atom -5573.608791 kJ/mol
# Density = 1.569974 g / cm^3
# Si number density = 15.735556 Si / 1000 Ang^3
#
#
#
# Elastic Constant Matrix: (Units=GPa)
#
#
# Indices 1 2 3 4 5 6 
#
# 1 105.9148 60.7526 56.2855 0.0000 0.0000 0.0000
# 2 60.7526 120.6622 60.7729 0.0000 0.0000 0.0000
# 3 56.2855 60.7729 68.0103 0.0000 0.0000 0.0000
# 4 0.0000 0.0000 0.0000 20.0029 0.0000 0.0000
# 5 0.0000 0.0000 0.0000 0.0000 -2.5069 0.0000
# 6 0.0000 0.0000 0.0000 0.0000 0.0000 31.5222
#
#
#
# Elastic Compliance Matrix: (Units=1/GPa)
#
#
# Indices 1 2 3 4 5 6 
#
# 1 0.017336 -0.002732 -0.011906 0.000000 0.000000 0.000000
# 2 -0.002732 0.015501 -0.011590 0.000000 0.000000 0.000000
# 3 -0.011906 -0.011590 0.034914 0.000000 0.000000 0.000000
# 4 0.000000 0.000000 0.000000 0.049993 0.000000 0.000000
# 5 0.000000 0.000000 0.000000 0.000000 -0.398897 0.000000
# 6 0.000000 0.000000 0.000000 0.000000 0.000000 0.031724
#
#
# Mechanical properties :
#
#
# Convention : Reuss Voigt Hill
#
# Bulk Modulus (GPa) = 65.38437 72.24549 68.81493
# Shear Modulus (GPa) = -26.05837 17.58871 -4.23483
#
# Velocity S-wave (km/s) = -4.07384 3.34693 -1.64228
# Velocity P-wave (km/s) = 4.41747 7.80691 6.34279
#
# Compressibility (1/GPa) = 0.01529418
#
# Stress axis : x y z
#
# Youngs Moduli (GPa) = 57.68488 64.51370 28.64200
#
# Poissons Ratio (x) = 0.17624 0.34101
# Poissons Ratio (y) = 0.15758 0.33197
# Poissons Ratio (z) = 0.68679 0.74773
#
# Static dielectric constant tensor:
#      x y z
#    x 1.509270 0.000000 0.000000 
#    y 0.000000 1.525560 0.000000 
#    z 0.000000 0.000000 1.533680 
# 
# From -- ./inp_files/14744.got.cif
#   From: 2010.05.17/outbox.cif.g08.bks.cpg/sg39_8_cif.got.tgz:14744.got - 2010.06.03 18:22:40.
