data_PCOD9360471
_publ_section_title
;
Structure prediction by ZEFSAII (Michael W. Deem and Ramdas Pophale) SiO2 
 PCOD9360471
Probable space group: A B M 2
;
_chemical_formula_sum "Si O2"
_cell_formula_units_Z 64
_cell_length_a 7.305705
_cell_length_b 15.380422
_cell_length_c 22.959500
_cell_angle_alpha 90.000000
_cell_angle_beta 90.000000
_cell_angle_gamma 90.000000
_cell_volume 2579.840220
_symmetry_space_group_name_H-M "A B M 2"
_symmetry_group_IT_number 39
_symmetry_cell_setting 'orthorhombic'
loop_
_space_group_symop_operation_xyz
x,y,z
-x,-y,z
-x,1/2+y,z
x,1/2-y,z
x,1/2+y,1/2+z
-x,1/2-y,1/2+z
-x,y,1/2+z
x,-y,1/2+z
loop_
_atom_site_type_symbol
_atom_site_label
_atom_site_fract_x
_atom_site_fract_y
_atom_site_fract_z
Si Si1 0.266790 0.404029 0.183900
Si Si2 0.547329 0.143695 0.384367
Si Si3 0.196850 0.150155 0.531170
Si Si4 0.224057 0.855778 0.811722
Si Si5 0.155994 0.854351 0.477655
Si Si6 0.857532 0.103545 0.164100
Si Si7 0.561281 0.400539 0.566362
Si Si8 0.815540 0.650533 0.788350
O O1 0.314312 0.383195 0.250128
O O2 0.206718 0.504694 0.176788
O O3 0.415650 0.379106 0.134961
O O4 0.067827 0.363671 0.170498
O O5 0.536897 0.250000 0.390199
O O6 0.339041 0.116736 0.368829
O O7 0.691167 0.111040 0.432936
O O8 0.653044 0.114038 0.326111
O O9 0.145021 0.250000 0.536206
O O10 0.182321 0.113157 0.596239
O O11 0.414941 0.146443 0.524168
O O12 0.054438 0.113488 0.483909
O O13 0.221525 0.750000 0.811926
O O14 0.014411 0.888333 0.804791
O O15 0.152276 0.750000 0.467596
O O16 0.241782 0.879482 0.539892
O O17 0.772709 0.149615 0.220193
O O18 0.500000 0.500000 0.562498
O O19 0.829986 0.750000 0.807712
#
# Coordination Sequence:
#
# PCOD9360471 Si02
#       8
#     8   8   8   8   8   8   8   8
#     4  10  21  36  58  87 126 168 201 250 313 379
#     4   9  19  37  61  85 115 158 203 252 311 363
#     4  11  23  38  62  91 119 161 213 261 316 379
#     4   9  19  34  57  88 119 155 201 252 307 370
#     4  10  23  43  62  86 122 163 212 269 314 368
#     4  10  19  37  58  86 125 168 200 250 314 376
#     4  12  24  39  60  88 125 165 206 256 318 377
#     4   9  18  33  55  85 118 152 196 251 304 366
#
# _framework density 24.807736999999999
#
# number of rings (size 3 to 8) (size 9 to 14) (size 15 to 20)
#    0.000    2.000    2.500    0.750    1.750    3.000 
#    0.000    5.000    0.000    3.000    0.000    0.000 
#    0.000    0.000    0.000    0.000    0.000    0.000 
#
# Total GULP energy -178264.793542 kJ/mol
# GULP energy per Si atom -5570.774798 kJ/mol
# Density = 2.475127 g / cm^3
# Si number density = 24.807737 Si / 1000 Ang^3
#
#
#
# Elastic Constant Matrix: (Units=GPa)
#
#
# Indices 1 2 3 4 5 6 
#
# 1 115.6460 -3.6468 45.0478 0.0000 0.0000 0.0000
# 2 -3.6468 24.9245 -1.5247 0.0000 0.0000 0.0000
# 3 45.0478 -1.5247 67.3436 0.0000 0.0000 0.0000
# 4 0.0000 0.0000 0.0000 31.1351 0.0000 0.0000
# 5 0.0000 0.0000 0.0000 0.0000 2882.4164 0.0000
# 6 0.0000 0.0000 0.0000 0.0000 0.0000 7.5131
#
#
#
# Elastic Compliance Matrix: (Units=1/GPa)
#
#
# Indices 1 2 3 4 5 6 
#
# 1 0.011732 0.001238 -0.007820 0.000000 0.000000 0.000000
# 2 0.001238 0.040308 0.000084 0.000000 0.000000 0.000000
# 3 -0.007820 0.000084 0.020082 0.000000 0.000000 0.000000
# 4 0.000000 0.000000 0.000000 0.032118 0.000000 0.000000
# 5 0.000000 0.000000 0.000000 0.000000 0.000347 0.000000
# 6 0.000000 0.000000 0.000000 0.000000 0.000000 0.133101
#
#
# Mechanical properties :
#
#
# Convention : Reuss Voigt Hill
#
# Bulk Modulus (GPa) = 16.91273 31.96295 24.43784
# Shear Modulus (GPa) = 18.49172 595.41544 306.95358
#
# Velocity S-wave (km/s) = 2.73317 15.50913 11.13560
# Velocity P-wave (km/s) = 4.09788 18.26535 13.23661
#
# Compressibility (1/GPa) = 0.05912707
#
# Stress axis : x y z
#
# Youngs Moduli (GPa) = 85.23517 24.80925 49.79561
#
# Poissons Ratio (x) = -0.03072 0.38940
# Poissons Ratio (y) = -0.10554 -0.00420
# Poissons Ratio (z) = 0.66653 -0.00209
#
# Static dielectric constant tensor:
#      x y z
#    x 1.621550 0.000000 0.000000 
#    y 0.000000 1.984110 0.000000 
#    z 0.000000 0.000000 1.986640 
# 
# From -- ./inp_files/14235.got.cif
#   From: 2010.05.17/outbox.cif.g08.bks.cpg/sg39_8_cif.got.tgz:14235.got - 2010.06.03 18:22:40.
