data_PCOD9360988
_publ_section_title
;
Structure prediction by ZEFSAII (Michael W. Deem and Ramdas Pophale) SiO2 
 PCOD9360988
Probable space group: A B M 2
;
_chemical_formula_sum "Si O2"
_cell_formula_units_Z 64
_cell_length_a 21.163992
_cell_length_b 9.345840
_cell_length_c 16.556653
_cell_angle_alpha 90.000000
_cell_angle_beta 90.000000
_cell_angle_gamma 90.000000
_cell_volume 3274.827866
_symmetry_space_group_name_H-M "A B M 2"
_symmetry_group_IT_number 39
_symmetry_cell_setting 'orthorhombic'
loop_
_space_group_symop_operation_xyz
x,y,z
-x,-y,z
-x,1/2+y,z
x,1/2-y,z
x,1/2+y,1/2+z
-x,1/2-y,1/2+z
-x,y,1/2+z
x,-y,1/2+z
loop_
_atom_site_type_symbol
_atom_site_label
_atom_site_fract_x
_atom_site_fract_y
_atom_site_fract_z
Si Si1 0.064727 0.080487 0.615750
Si Si2 0.601511 0.087232 0.209440
Si Si3 0.815710 0.916603 0.042503
Si Si4 0.635271 0.080853 0.863463
Si Si5 0.255863 0.401542 0.655175
Si Si6 0.782660 0.916694 0.385555
Si Si7 0.137677 0.592413 0.274533
Si Si8 0.564707 0.923317 0.527238
O O1 0.062115 0.250000 0.598100
O O2 0.081777 0.066250 0.711094
O O3 0.122725 0.006517 0.569094
O O4 0.000000 0.000000 0.597222
O O5 0.577468 0.250000 0.220803
O O6 0.676596 0.094014 0.194817
O O7 0.578148 0.033137 0.121092
O O8 0.596209 0.998749 0.292515
O O9 0.829400 0.750000 0.044063
O O10 0.759897 0.960597 0.103375
O O11 0.791667 0.974331 0.958161
O O12 0.623519 0.250000 0.855080
O O13 0.711148 0.060018 0.853014
O O14 0.614899 0.041040 0.955686
O O15 0.252882 0.250000 0.606693
O O16 0.200306 0.393883 0.719676
O O17 0.786764 0.750000 0.407721
O O18 0.841879 0.960501 0.329333
O O19 0.128270 0.750000 0.314124
O O20 0.560110 0.750000 0.528642
O O21 0.500000 0.000000 0.503405
#
# Coordination Sequence:
#
# PCOD9360988 Si02
#       8
#     8   8   8   8   8   8   8   8
#     4  10  21  39  60  82 112 150 194 239 285 341
#     4  10  20  37  62  87 116 154 195 243 304 364
#     4  11  22  34  54  82 114 151 192 236 286 346
#     4  10  22  39  61  89 122 157 199 250 305 364
#     4   9  17  33  55  80 112 144 179 227 288 349
#     4  11  21  35  56  84 118 149 185 237 297 353
#     4   9  18  33  55  82 113 145 180 226 281 343
#     4  10  23  42  60  82 117 160 204 252 302 360
#
# _framework density 19.543012000000001
#
# number of rings (size 3 to 8) (size 9 to 14) (size 15 to 20)
#    0.000    2.000    1.250    3.375    0.000    7.000 
#    0.000    4.375    0.000    1.500    0.000    0.000 
#    0.000    0.000    0.000    0.000    0.000    0.000 
#
# Total GULP energy -178199.939723 kJ/mol
# GULP energy per Si atom -5568.748116 kJ/mol
# Density = 1.949853 g / cm^3
# Si number density = 19.543012 Si / 1000 Ang^3
#
#
#
# Elastic Constant Matrix: (Units=GPa)
#
#
# Indices 1 2 3 4 5 6 
#
# 1 36.6285 19.5013 0.6392 0.0000 0.0000 0.0000
# 2 19.5013 97.5429 39.2633 0.0000 0.0000 0.0000
# 3 0.6392 39.2633 64.3737 0.0000 0.0000 0.0000
# 4 0.0000 0.0000 0.0000 31.2470 0.0000 0.0000
# 5 0.0000 0.0000 0.0000 0.0000 14.7993 0.0000
# 6 0.0000 0.0000 0.0000 0.0000 0.0000 25.0197
#
#
#
# Elastic Compliance Matrix: (Units=1/GPa)
#
#
# Indices 1 2 3 4 5 6 
#
# 1 0.031586 -0.008202 0.004689 0.000000 0.000000 0.000000
# 2 -0.008202 0.015718 -0.009505 0.000000 0.000000 0.000000
# 3 0.004689 -0.009505 0.021285 0.000000 0.000000 0.000000
# 4 0.000000 0.000000 0.000000 0.032003 0.000000 0.000000
# 5 0.000000 0.000000 0.000000 0.000000 0.067571 0.000000
# 6 0.000000 0.000000 0.000000 0.000000 0.000000 0.039969
#
#
# Mechanical properties :
#
#
# Convention : Reuss Voigt Hill
#
# Bulk Modulus (GPa) = 23.50037 35.26141 29.38089
# Shear Modulus (GPa) = 20.13263 23.48930 21.81096
#
# Velocity S-wave (km/s) = 3.21311 3.47064 3.34436
# Velocity P-wave (km/s) = 5.08099 5.84317 5.47536
#
# Compressibility (1/GPa) = 0.04255252
#
# Stress axis : x y z
#
# Youngs Moduli (GPa) = 31.65924 63.62169 46.98078
#
# Poissons Ratio (x) = 0.52186 -0.22031
# Poissons Ratio (y) = 0.25968 0.44657
# Poissons Ratio (z) = -0.14846 0.60475
#
# Static dielectric constant tensor:
#      x y z
#    x 1.684070 0.000000 0.000000 
#    y 0.000000 1.703960 0.000000 
#    z 0.000000 0.000000 1.802580 
# 
# From -- ./inp_files/13087.got.cif
#   From: 2010.05.17/outbox.cif.g08.bks.cpg/sg39_7_cif.got.tgz:13087.got - 2010.06.03 18:22:40.
