data_PCOD9360904
_publ_section_title
;
Structure prediction by ZEFSAII (Michael W. Deem and Ramdas Pophale) SiO2 
 PCOD9360904
Probable space group: A B M 2
;
_chemical_formula_sum "Si O2"
_cell_formula_units_Z 56
_cell_length_a 15.595375
_cell_length_b 8.931235
_cell_length_c 20.493782
_cell_angle_alpha 90.000000
_cell_angle_beta 90.000000
_cell_angle_gamma 90.000000
_cell_volume 2854.496080
_symmetry_space_group_name_H-M "A B M 2"
_symmetry_group_IT_number 39
_symmetry_cell_setting 'orthorhombic'
loop_
_space_group_symop_operation_xyz
x,y,z
-x,-y,z
-x,1/2+y,z
x,1/2-y,z
x,1/2+y,1/2+z
-x,1/2-y,1/2+z
-x,y,1/2+z
x,-y,1/2+z
loop_
_atom_site_type_symbol
_atom_site_label
_atom_site_fract_x
_atom_site_fract_y
_atom_site_fract_z
Si Si1 0.911780 0.571199 0.942120
Si Si2 0.678217 0.073108 0.753213
Si Si3 0.086215 0.075678 0.654365
Si Si4 0.147792 0.074089 0.798301
Si Si5 0.722756 0.430100 0.485669
Si Si6 0.590470 0.929230 0.385148
Si Si7 0.278474 0.930039 0.120739
O O1 0.918740 0.750000 0.947858
O O2 0.898488 0.533772 0.865345
O O3 0.822683 0.524737 0.975934
O O4 0.000000 0.500000 0.966071
O O5 0.678458 0.250000 0.739990
O O6 0.608770 0.039211 0.808757
O O7 0.768535 0.024641 0.785630
O O8 0.672571 0.984560 0.685387
O O9 0.081895 0.250000 0.638151
O O10 0.091609 0.061011 0.733087
O O11 0.178701 0.019659 0.630103
O O12 0.000000 0.000000 0.629934
O O13 0.174012 0.250000 0.803239
O O14 0.718504 0.250000 0.484338
O O15 0.665793 0.497689 0.427873
O O16 0.690619 0.495562 0.554220
O O17 0.590903 0.750000 0.394041
O O18 0.500000 0.000000 0.404462
O O19 0.280388 0.750000 0.117322
#
# Coordination Sequence:
#
# PCOD9360904 Si02
#       7
#     8   8   8   8   8   8   8
#     4  10  21  34  53  82 119 164 209 255 306 360
#     4  10  20  36  61  92 119 150 196 247 301 362
#     4   9  18  30  48  74 108 151 200 252 300 356
#     4   9  17  32  51  77 114 155 198 246 306 358
#     4  11  23  41  63  89 125 166 209 257 307 365
#     4  11  24  42  68  99 127 158 198 247 306 369
#     4  10  22  39  59  83 118 162 204 250 308 366
#
# _framework density 19.618174
#
# number of rings (size 3 to 8) (size 9 to 14) (size 15 to 20)
#    0.000    2.000    1.429    3.000    0.000    6.857 
#    0.000    3.571    0.000    1.714    0.000    0.000 
#    0.000    0.000    0.000    0.000    0.000    0.000 
#
# Total GULP energy -156335.200129 kJ/mol
# GULP energy per Si atom -5583.400005 kJ/mol
# Density = 1.957352 g / cm^3
# Si number density = 19.618174 Si / 1000 Ang^3
#
#
#
# Elastic Constant Matrix: (Units=GPa)
#
#
# Indices 1 2 3 4 5 6 
#
# 1 72.0468 34.3897 26.1294 0.0000 0.0000 0.0000
# 2 34.3897 47.5989 44.7104 0.0000 0.0000 0.0000
# 3 26.1294 44.7104 115.4787 0.0000 0.0000 0.0000
# 4 0.0000 0.0000 0.0000 21.2983 0.0000 0.0000
# 5 0.0000 0.0000 0.0000 0.0000 -4.5899 0.0000
# 6 0.0000 0.0000 0.0000 0.0000 0.0000 28.0897
#
#
#
# Elastic Compliance Matrix: (Units=1/GPa)
#
#
# Indices 1 2 3 4 5 6 
#
# 1 0.021422 -0.017167 0.001800 0.000000 0.000000 0.000000
# 2 -0.017167 0.046774 -0.014225 0.000000 0.000000 0.000000
# 3 0.001800 -0.014225 0.013760 0.000000 0.000000 0.000000
# 4 0.000000 0.000000 0.000000 0.046952 0.000000 0.000000
# 5 0.000000 0.000000 0.000000 0.000000 -0.217868 0.000000
# 6 0.000000 0.000000 0.000000 0.000000 0.000000 0.035600
#
#
# Mechanical properties :
#
#
# Convention : Reuss Voigt Hill
#
# Bulk Modulus (GPa) = 43.91762 49.50925 46.71343
# Shear Modulus (GPa) = 372.69384 17.61928 195.15656
#
# Velocity S-wave (km/s) = 13.79805 3.00010 9.98466
# Velocity P-wave (km/s) = 16.62176 6.10672 12.52148
#
# Compressibility (1/GPa) = 0.02276990
#
# Stress axis : x y z
#
# Youngs Moduli (GPa) = 46.68194 21.37930 72.67408
#
# Poissons Ratio (x) = 0.36703 -0.13079
# Poissons Ratio (y) = 0.80141 1.03381
# Poissons Ratio (z) = -0.08401 0.30413
#
# Static dielectric constant tensor:
#      x y z
#    x 1.682540 0.000000 0.000000 
#    y 0.000000 1.662880 0.000000 
#    z 0.000000 0.000000 1.700020 
# 
# From -- ./inp_files/14791.got.cif
#   From: 2010.05.17/outbox.cif.g08.bks.cpg/sg39_8_cif.got.tgz:14791.got - 2010.06.03 18:22:40.
