data_PCOD9360367
_publ_section_title
;
Structure prediction by ZEFSAII (Michael W. Deem and Ramdas Pophale) SiO2 
 PCOD9360367
Probable space group: A B M 2
;
_chemical_formula_sum "Si O2"
_cell_formula_units_Z 40
_cell_length_a 8.452081
_cell_length_b 25.728896
_cell_length_c 8.222143
_cell_angle_alpha 90.000000
_cell_angle_beta 90.000000
_cell_angle_gamma 90.000000
_cell_volume 1788.009524
_symmetry_space_group_name_H-M "A B M 2"
_symmetry_group_IT_number 39
_symmetry_cell_setting 'orthorhombic'
loop_
_space_group_symop_operation_xyz
x,y,z
-x,-y,z
-x,1/2+y,z
x,1/2-y,z
x,1/2+y,1/2+z
-x,1/2-y,1/2+z
-x,y,1/2+z
x,-y,1/2+z
loop_
_atom_site_type_symbol
_atom_site_label
_atom_site_fract_x
_atom_site_fract_y
_atom_site_fract_z
Si Si1 0.256710 0.750000 0.545351
Si Si2 0.353223 0.967342 0.111161
Si Si3 0.857423 0.039880 0.407170
Si Si4 0.420257 0.634888 0.901234
Si Si5 0.419268 0.750000 0.896655
Si Si6 0.247192 0.137536 0.049254
O O1 0.359854 0.750000 0.711628
O O2 0.390525 0.750000 0.406545
O O3 0.171752 0.694862 0.545033
O O4 0.210146 0.952345 0.229040
O O5 0.500000 0.000000 0.189621
O O6 0.385565 0.915275 0.009914
O O7 0.286176 0.011331 0.994818
O O8 0.877219 0.093197 0.504935
O O9 0.000000 0.000000 0.405594
O O10 0.371249 0.692944 0.964540
O O11 0.337574 0.629297 0.723403
O O12 0.612320 0.635874 0.913316
#
# Coordination Sequence:
#
# PCOD9360367 Si02
#       6
#     4   8   8   8   4   8
#     4   8  16  30  54  87 127 162 199 247 307 376
#     4  12  24  40  63  90 120 168 213 265 312 377
#     4  12  26  42  60  88 128 169 212 264 323 375
#     4  10  19  34  61  94 128 162 207 259 309 371
#     4   8  16  30  52  91 131 156 191 257 317 358
#     4  10  19  35  59  93 128 166 206 254 313 372
#
# _framework density 22.371244999999998
#
# number of rings (size 3 to 8) (size 9 to 14) (size 15 to 20)
#    0.000    1.600    2.000    3.600    0.000    1.600 
#    0.000    1.000    0.000    1.200    0.000    5.600 
#    0.000    0.000    0.000    0.000    0.000    0.000 
#
# Total GULP energy -111461.207366 kJ/mol
# GULP energy per Si atom -5573.060368 kJ/mol
# Density = 2.232033 g / cm^3
# Si number density = 22.371245 Si / 1000 Ang^3
#
#
#
# Elastic Constant Matrix: (Units=GPa)
#
#
# Indices 1 2 3 4 5 6 
#
# 1 46.9222 42.7939 19.0163 0.0000 0.0000 0.0000
# 2 42.7939 241.0892 53.1461 0.0000 0.0000 0.0000
# 3 19.0163 53.1461 51.7826 0.0000 0.0000 0.0000
# 4 0.0000 0.0000 0.0000 20.9070 0.0000 0.0000
# 5 0.0000 0.0000 0.0000 0.0000 4.3159 0.0000
# 6 0.0000 0.0000 0.0000 0.0000 0.0000 29.7532
#
#
#
# Elastic Compliance Matrix: (Units=1/GPa)
#
#
# Indices 1 2 3 4 5 6 
#
# 1 0.027002 -0.003369 -0.006458 0.000000 0.000000 0.000000
# 2 -0.003369 0.005781 -0.004696 0.000000 0.000000 0.000000
# 3 -0.006458 -0.004696 0.026503 0.000000 0.000000 0.000000
# 4 0.000000 0.000000 0.000000 0.047831 0.000000 0.000000
# 5 0.000000 0.000000 0.000000 0.000000 0.231704 0.000000
# 6 0.000000 0.000000 0.000000 0.000000 0.000000 0.033610
#
#
# Mechanical properties :
#
#
# Convention : Reuss Voigt Hill
#
# Bulk Modulus (GPa) = 33.06961 63.30074 48.18518
# Shear Modulus (GPa) = 12.14900 25.98439 19.06670
#
# Velocity S-wave (km/s) = 2.33290 3.41179 2.92256
# Velocity P-wave (km/s) = 4.69796 6.62400 5.74231
#
# Compressibility (1/GPa) = 0.03023924
#
# Stress axis : x y z
#
# Youngs Moduli (GPa) = 37.03430 172.97751 37.73189
#
# Poissons Ratio (x) = 0.58281 0.24367
# Poissons Ratio (y) = 0.12478 0.17719
# Poissons Ratio (z) = 0.23917 0.81230
#
# Static dielectric constant tensor:
#      x y z
#    x 1.879000 0.000000 0.000000 
#    y 0.000000 1.926470 0.000000 
#    z 0.000000 0.000000 1.865220 
# 
# From -- ./inp_files/2225.got.cif
#   From: 2010.05.17/outbox.cif.g08.bks.cpg/sg39_2_cif.got.tgz:2225.got - 2010.06.03 18:22:40.
