data_PCOD9360336
_publ_section_title
;
Structure prediction by ZEFSAII (Michael W. Deem and Ramdas Pophale) SiO2 
 PCOD9360336
Probable space group: A B M 2
;
_chemical_formula_sum "Si O2"
_cell_formula_units_Z 64
_cell_length_a 24.489658
_cell_length_b 8.646595
_cell_length_c 15.875053
_cell_angle_alpha 90.000000
_cell_angle_beta 90.000000
_cell_angle_gamma 90.000000
_cell_volume 3361.576674
_symmetry_space_group_name_H-M "A B M 2"
_symmetry_group_IT_number 39
_symmetry_cell_setting 'orthorhombic'
loop_
_space_group_symop_operation_xyz
x,y,z
-x,-y,z
-x,1/2+y,z
x,1/2-y,z
x,1/2+y,1/2+z
-x,1/2-y,1/2+z
-x,y,1/2+z
x,-y,1/2+z
loop_
_atom_site_type_symbol
_atom_site_label
_atom_site_fract_x
_atom_site_fract_y
_atom_site_fract_z
Si Si1 0.558193 0.065335 0.544470
Si Si2 0.939104 0.063966 0.109153
Si Si3 0.442477 0.565471 0.343838
Si Si4 0.672898 0.434940 0.095859
Si Si5 0.674770 0.438678 0.282400
Si Si6 0.743877 0.435233 0.443159
Si Si7 0.134440 0.936585 0.950295
Si Si8 0.939123 0.564024 0.291300
O O1 0.560363 0.250000 0.555391
O O2 0.562100 0.031773 0.443905
O O3 0.500000 0.000000 0.573956
O O4 0.610025 0.985927 0.586743
O O5 0.941533 0.250000 0.112561
O O6 0.899060 0.016759 0.033722
O O7 0.000000 0.000000 0.093253
O O8 0.921455 0.000377 0.200316
O O9 0.500000 0.500000 0.312615
O O10 0.444392 0.750000 0.334734
O O11 0.387223 0.507724 0.300344
O O12 0.676487 0.250000 0.089030
O O13 0.692503 0.483423 0.188851
O O14 0.707914 0.509787 0.021893
O O15 0.673461 0.250000 0.284850
O O16 0.714223 0.490080 0.357364
O O17 0.744410 0.250000 0.442032
O O18 0.805033 0.496926 0.449411
O O19 0.137505 0.750000 0.950692
O O20 0.100786 0.982883 0.866939
O O21 0.941595 0.750000 0.287625
O O22 0.000000 0.500000 0.307246
#
# Coordination Sequence:
#
# PCOD9360336 Si02
#       8
#     8   8   8   8   8   8   8   8
#     4  10  19  34  57  84 116 149 186 230 283 345
#     4  10  20  36  59  87 122 156 191 233 283 338
#     4   9  17  33  55  79 110 142 179 223 273 336
#     4  11  22  38  61  85 113 148 188 235 290 344
#     4   9  20  39  59  80 110 148 185 231 285 340
#     4  11  23  42  62  81 111 151 195 241 286 337
#     4  10  23  40  58  84 117 153 193 239 285 337
#     4  10  20  36  59  88 123 155 191 236 283 337
#
# _framework density 19.038685999999998
#
# number of rings (size 3 to 8) (size 9 to 14) (size 15 to 20)
#    0.000    2.000    1.250    3.000    0.000    4.000 
#    0.000    8.750    0.000    0.000    0.000    0.000 
#    0.000    0.000    0.000    0.000    0.000    0.000 
#
# Total GULP energy -178741.410792 kJ/mol
# GULP energy per Si atom -5585.669087 kJ/mol
# Density = 1.899535 g / cm^3
# Si number density = 19.038686 Si / 1000 Ang^3
#
#
#
# Elastic Constant Matrix: (Units=GPa)
#
#
# Indices 1 2 3 4 5 6 
#
# 1 133.7644 25.4201 97.5544 0.0000 0.0000 0.0000
# 2 25.4201 22.8050 32.4934 0.0000 0.0000 0.0000
# 3 97.5544 32.4934 147.6100 0.0000 0.0000 0.0000
# 4 0.0000 0.0000 0.0000 21.9929 0.0000 0.0000
# 5 0.0000 0.0000 0.0000 0.0000 -6.1006 0.0000
# 6 0.0000 0.0000 0.0000 0.0000 0.0000 35.9232
#
#
#
# Elastic Compliance Matrix: (Units=1/GPa)
#
#
# Indices 1 2 3 4 5 6 
#
# 1 0.014642 -0.003691 -0.008864 0.000000 0.000000 0.000000
# 2 -0.003691 0.064819 -0.011829 0.000000 0.000000 0.000000
# 3 -0.008864 -0.011829 0.015237 0.000000 0.000000 0.000000
# 4 0.000000 0.000000 0.000000 0.045469 0.000000 0.000000
# 5 0.000000 0.000000 0.000000 0.000000 -0.163919 0.000000
# 6 0.000000 0.000000 0.000000 0.000000 0.000000 0.027837
#
#
# Mechanical properties :
#
#
# Convention : Reuss Voigt Hill
#
# Bulk Modulus (GPa) = 21.77277 68.34616 45.05947
# Shear Modulus (GPa) = 73.35258 20.27721 46.81490
#
# Velocity S-wave (km/s) = 6.21384 3.26706 4.96414
# Velocity P-wave (km/s) = 7.93368 7.08576 7.52168
#
# Compressibility (1/GPa) = 0.04592893
#
# Stress axis : x y z
#
# Youngs Moduli (GPa) = 68.29687 15.42758 65.62974
#
# Poissons Ratio (x) = 0.05694 0.58176
# Poissons Ratio (y) = 0.25207 0.77636
# Poissons Ratio (z) = 0.60541 0.18250
#
# Static dielectric constant tensor:
#      x y z
#    x 1.626940 0.000000 0.000000 
#    y 0.000000 1.645840 0.000000 
#    z 0.000000 0.000000 1.675390 
# 
# From -- ./inp_files/10682.got.cif
#   From: 2010.05.17/outbox.cif.g08.bks.cpg/sg39_6_cif.got.tgz:10682.got - 2010.06.03 18:22:40.
