data_PCOD9360113
_publ_section_title
;
Structure prediction by ZEFSAII (Michael W. Deem and Ramdas Pophale) SiO2 
 PCOD9360113
Probable space group: A B M 2
;
_chemical_formula_sum "Si O2"
_cell_formula_units_Z 64
_cell_length_a 14.570705
_cell_length_b 8.631829
_cell_length_c 32.242233
_cell_angle_alpha 90.000000
_cell_angle_beta 90.000000
_cell_angle_gamma 90.000000
_cell_volume 4055.164776
_symmetry_space_group_name_H-M "A B M 2"
_symmetry_group_IT_number 39
_symmetry_cell_setting 'orthorhombic'
loop_
_space_group_symop_operation_xyz
x,y,z
-x,-y,z
-x,1/2+y,z
x,1/2-y,z
x,1/2+y,1/2+z
-x,1/2-y,1/2+z
-x,y,1/2+z
x,-y,1/2+z
loop_
_atom_site_type_symbol
_atom_site_label
_atom_site_fract_x
_atom_site_fract_y
_atom_site_fract_z
Si Si1 0.400280 0.064509 0.708380
Si Si2 0.103421 0.563538 0.408096
Si Si3 0.400467 0.564732 0.110590
Si Si4 0.787155 0.436151 0.580317
Si Si5 0.895749 0.563183 0.816893
Si Si6 0.896330 0.437257 0.498691
Si Si7 0.896984 0.064654 0.159311
Si Si8 0.787591 0.065261 0.738530
O O1 0.398662 0.250000 0.712151
O O2 0.386492 0.025518 0.659474
O O3 0.500000 0.000000 0.720328
O O4 0.316861 0.991240 0.733581
O O5 0.101276 0.750000 0.408044
O O6 0.141081 0.517671 0.362931
O O7 0.141473 0.514979 0.453105
O O8 0.000000 0.500000 0.408257
O O9 0.500000 0.500000 0.098568
O O10 0.399329 0.750000 0.107030
O O11 0.316986 0.492269 0.085280
O O12 0.790541 0.250000 0.582958
O O13 0.833658 0.486201 0.537122
O O14 0.844522 0.506116 0.618466
O O15 0.898285 0.750000 0.813934
O O16 0.834172 0.495350 0.780454
O O17 0.000000 0.500000 0.812958
O O18 0.901226 0.250000 0.499421
O O19 0.000000 0.500000 0.503376
O O20 0.898135 0.250000 0.159766
O O21 0.843640 0.004147 0.199693
O O22 0.000000 0.000000 0.159419
O O23 0.792007 0.250000 0.736767
#
# Coordination Sequence:
#
# PCOD9360113 Si02
#       8
#     8   8   8   8   8   8   8   8
#     4  10  20  35  54  75  98 127 162 205 248 292
#     4   8  15  29  48  69  95 127 163 203 246 288
#     4  10  20  34  53  73  97 127 163 207 249 293
#     4  11  21  33  50  73 101 132 166 203 244 292
#     4  10  19  32  50  72 100 132 167 206 247 294
#     4   9  18  31  48  72 100 132 167 203 243 289
#     4  12  24  37  49  66  96 134 172 205 240 287
#     4  12  23  35  51  72  99 131 166 204 245 293
#
# _framework density 15.782342999999999
#
# number of rings (size 3 to 8) (size 9 to 14) (size 15 to 20)
#    0.000    1.750    1.250    4.500    0.000    3.500 
#    0.000    0.000    0.000    0.000    0.000    0.875 
#    0.000    4.000    0.000    0.000    0.000    0.000 
#
# Total GULP energy -178559.478777 kJ/mol
# GULP energy per Si atom -5579.983712 kJ/mol
# Density = 1.574642 g / cm^3
# Si number density = 15.782343 Si / 1000 Ang^3
#
#
#
# Elastic Constant Matrix: (Units=GPa)
#
#
# Indices 1 2 3 4 5 6 
#
# 1 119.6257 42.7547 78.7342 0.0000 0.0000 0.0000
# 2 42.7547 70.8052 47.3533 0.0000 0.0000 0.0000
# 3 78.7342 47.3533 158.3235 0.0000 0.0000 0.0000
# 4 0.0000 0.0000 0.0000 17.8835 0.0000 0.0000
# 5 0.0000 0.0000 0.0000 0.0000 2.6165 0.0000
# 6 0.0000 0.0000 0.0000 0.0000 0.0000 28.0415
#
#
#
# Elastic Compliance Matrix: (Units=1/GPa)
#
#
# Indices 1 2 3 4 5 6 
#
# 1 0.013521 -0.004585 -0.005353 0.000000 0.000000 0.000000
# 2 -0.004585 0.019209 -0.003465 0.000000 0.000000 0.000000
# 3 -0.005353 -0.003465 0.010015 0.000000 0.000000 0.000000
# 4 0.000000 0.000000 0.000000 0.055918 0.000000 0.000000
# 5 0.000000 0.000000 0.000000 0.000000 0.382195 0.000000
# 6 0.000000 0.000000 0.000000 0.000000 0.000000 0.035661
#
#
# Mechanical properties :
#
#
# Convention : Reuss Voigt Hill
#
# Bulk Modulus (GPa) = 62.73824 76.27096 69.50460
# Shear Modulus (GPa) = 9.11349 21.70242 15.40796
#
# Velocity S-wave (km/s) = 2.40562 3.71227 3.12793
# Velocity P-wave (km/s) = 6.89598 8.17351 7.56177
#
# Compressibility (1/GPa) = 0.01593924
#
# Stress axis : x y z
#
# Youngs Moduli (GPa) = 73.95894 52.05835 99.85441
#
# Poissons Ratio (x) = 0.23867 0.53450
# Poissons Ratio (y) = 0.33907 0.34603
# Poissons Ratio (z) = 0.39589 0.18040
#
# Static dielectric constant tensor:
#      x y z
#    x 1.496120 0.000000 0.000000 
#    y 0.000000 1.531130 0.000000 
#    z 0.000000 0.000000 1.547370 
# 
# From -- ./inp_files/17997.got.cif
#   From: 2010.05.17/outbox.cif.g08.bks.cpg/sg39_9_cif.got.tgz:17997.got - 2010.06.03 18:22:40.
