data_PCOD9360102
_publ_section_title
;
Structure prediction by ZEFSAII (Michael W. Deem and Ramdas Pophale) SiO2 
 PCOD9360102
Probable space group: A B M 2
;
_chemical_formula_sum "Si O2"
_cell_formula_units_Z 48
_cell_length_a 7.271763
_cell_length_b 17.089316
_cell_length_c 16.347533
_cell_angle_alpha 90.000000
_cell_angle_beta 90.000000
_cell_angle_gamma 90.000000
_cell_volume 2031.499029
_symmetry_space_group_name_H-M "A B M 2"
_symmetry_group_IT_number 39
_symmetry_cell_setting 'orthorhombic'
loop_
_space_group_symop_operation_xyz
x,y,z
-x,-y,z
-x,1/2+y,z
x,1/2-y,z
x,1/2+y,1/2+z
-x,1/2-y,1/2+z
-x,y,1/2+z
x,-y,1/2+z
loop_
_atom_site_type_symbol
_atom_site_label
_atom_site_fract_x
_atom_site_fract_y
_atom_site_fract_z
Si Si1 0.635945 0.161597 0.079900
Si Si2 0.057747 0.661744 0.636838
Si Si3 0.142454 0.657714 0.463451
Si Si4 0.959313 0.409418 0.300506
Si Si5 0.465238 0.092226 0.415726
Si Si6 0.553254 0.344859 0.254814
O O1 0.579051 0.250000 0.056167
O O2 0.840280 0.166953 0.116579
O O3 0.514662 0.136525 0.158994
O O4 0.645507 0.109605 0.998745
O O5 0.132078 0.750000 0.645003
O O6 0.073983 0.621372 0.723594
O O7 0.129141 0.622197 0.554098
O O8 0.108752 0.750000 0.471325
O O9 0.014529 0.627654 0.390176
O O10 0.347477 0.638796 0.435957
O O11 0.747466 0.387784 0.276342
O O12 0.000000 0.500000 0.309020
O O13 0.416252 0.125650 0.326030
O O14 0.500000 0.000000 0.408274
O O15 0.575546 0.250000 0.259993
#
# Coordination Sequence:
#
# PCOD9360102 Si02
#       6
#     8   8   8   8   8   8
#     4   9  18  36  60  81 104 142 188 226 265 323
#     4   9  19  36  58  81 106 141 184 224 266 323
#     4  10  21  39  59  78 109 151 186 219 268 331
#     4  10  19  31  54  82 109 142 178 222 271 321
#     4  11  22  34  54  82 111 143 180 228 277 322
#     4   9  19  38  59  76 106 151 187 217 267 334
#
# _framework density 23.627873999999998
#
# number of rings (size 3 to 8) (size 9 to 14) (size 15 to 20)
#    0.000    2.333    0.000    5.000    0.000    6.667 
#    0.000    3.333    0.000    4.000    0.000    0.000 
#    0.000    0.000    0.000    0.000    0.000    0.000 
#
# Total GULP energy -133958.199554 kJ/mol
# GULP energy per Si atom -5581.591648 kJ/mol
# Density = 2.357410 g / cm^3
# Si number density = 23.627874 Si / 1000 Ang^3
#
#
#
# Elastic Constant Matrix: (Units=GPa)
#
#
# Indices 1 2 3 4 5 6 
#
# 1 37.8885 5.3533 51.3734 0.0000 0.0000 0.0000
# 2 5.3533 101.1783 55.7517 0.0000 0.0000 0.0000
# 3 51.3734 55.7517 197.5516 0.0000 0.0000 0.0000
# 4 0.0000 0.0000 0.0000 248.0943 0.0000 0.0000
# 5 0.0000 0.0000 0.0000 0.0000 -10.3846 0.0000
# 6 0.0000 0.0000 0.0000 0.0000 0.0000 34.5702
#
#
#
# Elastic Compliance Matrix: (Units=1/GPa)
#
#
# Indices 1 2 3 4 5 6 
#
# 1 0.042463 0.004545 -0.012325 0.000000 0.000000 0.000000
# 2 0.004545 0.012190 -0.004622 0.000000 0.000000 0.000000
# 3 -0.012325 -0.004622 0.009571 0.000000 0.000000 0.000000
# 4 0.000000 0.000000 0.000000 0.004031 0.000000 0.000000
# 5 0.000000 0.000000 0.000000 0.000000 -0.096296 0.000000
# 6 0.000000 0.000000 0.000000 0.000000 0.000000 0.028927
#
#
# Mechanical properties :
#
#
# Convention : Reuss Voigt Hill
#
# Bulk Modulus (GPa) = 25.36820 62.39726 43.88273
# Shear Modulus (GPa) = 128.76714 69.39863 99.08288
#
# Velocity S-wave (km/s) = 7.39028 5.42543 6.48273
# Velocity P-wave (km/s) = 9.14230 8.10634 8.63986
#
# Compressibility (1/GPa) = 0.03941944
#
# Stress axis : x y z
#
# Youngs Moduli (GPa) = 23.55007 82.03496 104.47688
#
# Poissons Ratio (x) = -0.37282 1.28768
# Poissons Ratio (y) = -0.10703 0.48289
# Poissons Ratio (z) = 0.29026 0.37917
#
# Static dielectric constant tensor:
#      x y z
#    x 2.114980 0.000000 0.000000 
#    y 0.000000 1.799340 0.000000 
#    z 0.000000 0.000000 2.025990 
# 
# From -- ./inp_files/8362.got.cif
#   From: 2010.05.17/outbox.cif.g08.bks.cpg/sg39_5_cif.got.tgz:8362.got - 2010.06.03 18:22:40.
