data_PCOD9360977
_publ_section_title
;
Structure prediction by ZEFSAII (Michael W. Deem and Ramdas Pophale) SiO2 
 PCOD9360977
Probable space group: A B M 2
;
_chemical_formula_sum "Si O2"
_cell_formula_units_Z 64
_cell_length_a 24.512703
_cell_length_b 8.666100
_cell_length_c 15.721499
_cell_angle_alpha 90.000000
_cell_angle_beta 90.000000
_cell_angle_gamma 90.000000
_cell_volume 3339.710729
_symmetry_space_group_name_H-M "A B M 2"
_symmetry_group_IT_number 39
_symmetry_cell_setting 'orthorhombic'
loop_
_space_group_symop_operation_xyz
x,y,z
-x,-y,z
-x,1/2+y,z
x,1/2-y,z
x,1/2+y,1/2+z
-x,1/2-y,1/2+z
-x,y,1/2+z
x,-y,1/2+z
loop_
_atom_site_type_symbol
_atom_site_label
_atom_site_fract_x
_atom_site_fract_y
_atom_site_fract_z
Si Si1 0.442321 0.565534 0.455750
Si Si2 0.671740 0.433554 0.011106
Si Si3 0.556170 0.933575 0.264181
Si Si4 0.135325 0.564820 0.858744
Si Si5 0.332875 0.565353 0.201305
Si Si6 0.060386 0.935376 0.507475
Si Si7 0.059997 0.564138 0.702559
Si Si8 0.256778 0.565408 0.358932
O O1 0.500000 0.500000 0.488158
O O2 0.442114 0.750000 0.460024
O O3 0.389672 0.496283 0.501355
O O4 0.438058 0.511447 0.357286
O O5 0.671503 0.250000 0.996367
O O6 0.709698 0.512663 0.941481
O O7 0.690226 0.463932 0.107541
O O8 0.551925 0.750000 0.273946
O O9 0.500000 0.000000 0.226403
O O10 0.609802 0.979672 0.212999
O O11 0.134414 0.750000 0.861744
O O12 0.103287 0.513813 0.773322
O O13 0.197094 0.507108 0.857840
O O14 0.103085 0.500217 0.940073
O O15 0.342804 0.750000 0.208973
O O16 0.291890 0.518654 0.276128
O O17 0.059252 0.750000 0.502771
O O18 0.073560 0.981236 0.605273
O O19 0.000000 0.000000 0.488367
O O20 0.057328 0.750000 0.704414
O O21 0.000000 0.500000 0.722835
O O22 0.252196 0.750000 0.358551
#
# Coordination Sequence:
#
# PCOD9360977 Si02
#       8
#     8   8   8   8   8   8   8   8
#     4  11  21  36  59  88 121 156 194 242 298 358
#     4  11  23  41  64  90 118 155 197 246 301 360
#     4  11  21  35  60  89 120 156 194 240 298 358
#     4  11  23  39  60  87 119 158 202 248 293 349
#     4  10  23  42  63  87 119 154 196 246 301 361
#     4  10  20  37  60  90 125 160 197 241 293 351
#     4   9  20  37  59  88 123 159 195 240 291 347
#     4  11  24  43  63  85 117 158 200 251 300 352
#
# _framework density 19.163336999999999
#
# number of rings (size 3 to 8) (size 9 to 14) (size 15 to 20)
#    0.000    1.500    1.250    4.875    0.000    5.500 
#    0.000    2.500    0.000    0.000    0.000    0.000 
#    0.000    0.000    0.000    0.000    0.000    0.000 
#
# Total GULP energy -178893.730607 kJ/mol
# GULP energy per Si atom -5590.429081 kJ/mol
# Density = 1.911972 g / cm^3
# Si number density = 19.163337 Si / 1000 Ang^3
#
#
#
# Elastic Constant Matrix: (Units=GPa)
#
#
# Indices 1 2 3 4 5 6 
#
# 1 145.6628 34.4464 82.1640 0.0000 0.0000 0.0000
# 2 34.4464 56.7473 36.1714 0.0000 0.0000 0.0000
# 3 82.1640 36.1714 112.7540 0.0000 0.0000 0.0000
# 4 0.0000 0.0000 0.0000 23.9041 0.0000 0.0000
# 5 0.0000 0.0000 0.0000 0.0000 -12.8222 0.0000
# 6 0.0000 0.0000 0.0000 0.0000 0.0000 37.7783
#
#
#
# Elastic Compliance Matrix: (Units=1/GPa)
#
#
# Indices 1 2 3 4 5 6 
#
# 1 0.011857 -0.002124 -0.007958 0.000000 0.000000 0.000000
# 2 -0.002124 0.022532 -0.005680 0.000000 0.000000 0.000000
# 3 -0.007958 -0.005680 0.016490 0.000000 0.000000 0.000000
# 4 0.000000 0.000000 0.000000 0.041834 0.000000 0.000000
# 5 0.000000 0.000000 0.000000 0.000000 -0.077989 0.000000
# 6 0.000000 0.000000 0.000000 0.000000 0.000000 0.026470
#
#
# Mechanical properties :
#
#
# Convention : Reuss Voigt Hill
#
# Bulk Modulus (GPa) = 51.67141 68.96973 60.32057
# Shear Modulus (GPa) = 63.15443 20.59754 41.87598
#
# Velocity S-wave (km/s) = 5.74695 3.28203 4.67970
# Velocity P-wave (km/s) = 8.42964 7.10147 7.79390
#
# Compressibility (1/GPa) = 0.01935306
#
# Stress axis : x y z
#
# Youngs Moduli (GPa) = 84.34068 44.38105 60.64114
#
# Poissons Ratio (x) = 0.09428 0.48261
# Poissons Ratio (y) = 0.17917 0.34446
# Poissons Ratio (z) = 0.67122 0.25210
#
# Static dielectric constant tensor:
#      x y z
#    x 1.630520 0.000000 0.000000 
#    y 0.000000 1.643670 0.000000 
#    z 0.000000 0.000000 1.686990 
# 
# From -- ./inp_files/10661.got.cif
#   From: 2010.05.17/outbox.cif.g08.bks.cpg/sg39_6_cif.got.tgz:10661.got - 2010.06.03 18:22:40.
