data_PCOD9360840
_publ_section_title
;
Structure prediction by ZEFSAII (Michael W. Deem and Ramdas Pophale) SiO2 
 PCOD9360840
Probable space group: A B M 2
;
_chemical_formula_sum "Si O2"
_cell_formula_units_Z 56
_cell_length_a 16.316352
_cell_length_b 14.653121
_cell_length_c 13.004798
_cell_angle_alpha 90.000000
_cell_angle_beta 90.000000
_cell_angle_gamma 90.000000
_cell_volume 3109.258374
_symmetry_space_group_name_H-M "A B M 2"
_symmetry_group_IT_number 39
_symmetry_cell_setting 'orthorhombic'
loop_
_space_group_symop_operation_xyz
x,y,z
-x,-y,z
-x,1/2+y,z
x,1/2-y,z
x,1/2+y,1/2+z
-x,1/2-y,1/2+z
-x,y,1/2+z
x,-y,1/2+z
loop_
_atom_site_type_symbol
_atom_site_label
_atom_site_fract_x
_atom_site_fract_y
_atom_site_fract_z
Si Si1 0.884818 0.356276 0.023250
Si Si2 0.500000 0.000000 0.791561
Si Si3 0.479955 0.644648 0.971667
Si Si4 0.000000 0.000000 0.144120
Si Si5 0.299472 0.582640 0.999660
Si Si6 0.280462 0.350047 0.285633
Si Si7 0.614234 0.062648 0.625742
Si Si8 0.906298 0.147956 0.777493
O O1 0.901472 0.250000 0.053668
O O2 0.938541 0.434489 0.078859
O O3 0.786809 0.374989 0.035910
O O4 0.904393 0.362879 0.901122
O O5 0.510604 0.086016 0.867136
O O6 0.575925 0.996275 0.712795
O O7 0.498929 0.750000 0.954277
O O8 0.386386 0.635108 0.011624
O O9 0.542849 0.600882 0.053157
O O10 0.047709 0.069874 0.217438
O O11 0.291300 0.576718 0.875953
O O12 0.318779 0.488668 0.057097
O O13 0.289781 0.250000 0.336088
O O14 0.343257 0.360545 0.193914
O O15 0.188706 0.355610 0.245056
O O16 0.938363 0.250000 0.754934
#
# Coordination Sequence:
#
# PCOD9360840 Si02
#       8
#     8   4   8   4   8   8   8   8
#     4  10  22  38  59  86 115 147 186 230 281 343
#     4  12  22  40  50  82 112 152 184 234 278 330
#     4  12  23  37  56  81 112 150 193 236 276 323
#     4  12  20  36  60  88 112 146 180 232 286 332
#     4  11  20  37  56  82 111 146 185 235 276 329
#     4  10  20  36  58  79 106 147 189 227 274 334
#     4  12  21  37  56  82 113 146 191 238 278 321
#     4   9  20  37  56  83 113 145 186 226 275 343
#
# _framework density 18.010726999999999
#
# number of rings (size 3 to 8) (size 9 to 14) (size 15 to 20)
#    0.000    1.143    4.286    4.286    0.000    0.571 
#    0.000    0.000    0.000    0.000    0.000    8.000 
#    0.000    0.000    0.000    0.000    0.000    0.000 
#
# Total GULP energy -156056.441682 kJ/mol
# GULP energy per Si atom -5573.444346 kJ/mol
# Density = 1.796973 g / cm^3
# Si number density = 18.010727 Si / 1000 Ang^3
#
#
#
# Elastic Constant Matrix: (Units=GPa)
#
#
# Indices 1 2 3 4 5 6 
#
# 1 101.8543 60.7158 54.8815 0.0000 0.0000 0.0000
# 2 60.7158 122.6274 56.8698 0.0000 0.0000 0.0000
# 3 54.8815 56.8698 81.4166 0.0000 0.0000 0.0000
# 4 0.0000 0.0000 0.0000 25.2910 0.0000 0.0000
# 5 0.0000 0.0000 0.0000 0.0000 22.1400 0.0000
# 6 0.0000 0.0000 0.0000 0.0000 0.0000 26.4659
#
#
#
# Elastic Compliance Matrix: (Units=1/GPa)
#
#
# Indices 1 2 3 4 5 6 
#
# 1 0.017002 -0.004590 -0.008255 0.000000 0.000000 0.000000
# 2 -0.004590 0.013301 -0.006197 0.000000 0.000000 0.000000
# 3 -0.008255 -0.006197 0.022175 0.000000 0.000000 0.000000
# 4 0.000000 0.000000 0.000000 0.039540 0.000000 0.000000
# 5 0.000000 0.000000 0.000000 0.000000 0.045167 0.000000
# 6 0.000000 0.000000 0.000000 0.000000 0.000000 0.037785
#
#
# Mechanical properties :
#
#
# Convention : Reuss Voigt Hill
#
# Bulk Modulus (GPa) = 69.46599 72.31473 70.89036
# Shear Modulus (GPa) = 22.95145 23.67479 23.31312
#
# Velocity S-wave (km/s) = 3.57364 3.62951 3.60168
# Velocity P-wave (km/s) = 7.46196 7.60280 7.53271
#
# Compressibility (1/GPa) = 0.01439553
#
# Stress axis : x y z
#
# Youngs Moduli (GPa) = 58.81766 75.18082 45.09500
#
# Poissons Ratio (x) = 0.34507 0.37224
# Poissons Ratio (y) = 0.26996 0.27946
# Poissons Ratio (z) = 0.48551 0.46590
#
# Static dielectric constant tensor:
#      x y z
#    x 1.638090 0.000000 0.000000 
#    y 0.000000 1.621020 0.000000 
#    z 0.000000 0.000000 1.606340 
# 
# From -- ./inp_files/6541.got.cif
#   From: 2010.05.17/outbox.cif.g08.bks.cpg/sg39_4_cif.got.tgz:6541.got - 2010.06.03 18:22:40.
