data_PCOD9360860
_publ_section_title
;
Structure prediction by ZEFSAII (Michael W. Deem and Ramdas Pophale) SiO2 
 PCOD9360860
Probable space group: A B M 2
;
_chemical_formula_sum "Si O2"
_cell_formula_units_Z 36
_cell_length_a 13.965416
_cell_length_b 21.713111
_cell_length_c 5.324049
_cell_angle_alpha 90.000000
_cell_angle_beta 90.000000
_cell_angle_gamma 90.000000
_cell_volume 1614.425369
_symmetry_space_group_name_H-M "A B M 2"
_symmetry_group_IT_number 39
_symmetry_cell_setting 'orthorhombic'
loop_
_space_group_symop_operation_xyz
x,y,z
-x,-y,z
-x,1/2+y,z
x,1/2-y,z
x,1/2+y,1/2+z
-x,1/2-y,1/2+z
-x,y,1/2+z
x,-y,1/2+z
loop_
_atom_site_type_symbol
_atom_site_label
_atom_site_fract_x
_atom_site_fract_y
_atom_site_fract_z
Si Si1 0.541950 0.430601 0.165990
Si Si2 0.440816 0.750000 0.531809
Si Si3 0.960675 0.068891 0.027476
Si Si4 0.256910 0.681261 0.659480
Si Si5 0.242411 0.894629 0.169598
O O1 0.500000 0.500000 0.152771
O O2 0.490708 0.401102 0.405334
O O3 0.656271 0.429587 0.190276
O O4 0.478942 0.750000 0.247823
O O5 0.367412 0.694058 0.583209
O O6 0.849197 0.065431 0.093713
O O7 0.016215 0.099558 0.260516
O O8 0.000000 0.000000 0.994917
O O9 0.212489 0.750000 0.655822
O O10 0.220781 0.637741 0.435826
O O11 0.252028 0.653130 0.937276
#
# Coordination Sequence:
#
# PCOD9360860 Si02
#       5
#     8   4   8   8   8
#     4  10  23  38  56  89 129 168 214 250 311 402
#     4  10  20  36  58  88 128 164 218 274 298 358
#     4  10  23  41  66  98 125 161 223 270 328 401
#     4  10  24  39  61  93 121 173 217 260 322 384
#     4  12  22  41  67  89 132 176 204 276 331 375
#
# _framework density 22.298956
#
# number of rings (size 3 to 8) (size 9 to 14) (size 15 to 20)
#    0.667    0.889    0.000    4.667    0.000   12.444 
#    0.000    0.000    0.000   13.333    0.000    0.000 
#    0.000    0.000    0.000    0.000    0.000    0.000 
#
# Total GULP energy -100498.164039 kJ/mol
# GULP energy per Si atom -5583.231335 kJ/mol
# Density = 2.224820 g / cm^3
# Si number density = 22.298956 Si / 1000 Ang^3
#
#
#
# Elastic Constant Matrix: (Units=GPa)
#
#
# Indices 1 2 3 4 5 6 
#
# 1 115.0562 14.9228 2.6348 0.0000 0.0000 0.0000
# 2 14.9228 55.8563 -2.2112 0.0000 0.0000 0.0000
# 3 2.6348 -2.2112 150.0693 0.0000 0.0000 0.0000
# 4 0.0000 0.0000 0.0000 -44.7113 0.0000 0.0000
# 5 0.0000 0.0000 0.0000 0.0000 37.3861 0.0000
# 6 0.0000 0.0000 0.0000 0.0000 0.0000 18.4643
#
#
#
# Elastic Compliance Matrix: (Units=1/GPa)
#
#
# Indices 1 2 3 4 5 6 
#
# 1 0.009009 -0.002415 -0.000194 0.000000 0.000000 0.000000
# 2 -0.002415 0.018561 0.000316 0.000000 0.000000 0.000000
# 3 -0.000194 0.000316 0.006672 0.000000 0.000000 0.000000
# 4 0.000000 0.000000 0.000000 -0.022366 0.000000 0.000000
# 5 0.000000 0.000000 0.000000 0.000000 0.026748 0.000000
# 6 0.000000 0.000000 0.000000 0.000000 0.000000 0.054159
#
#
# Mechanical properties :
#
#
# Convention : Reuss Voigt Hill
#
# Bulk Modulus (GPa) = 33.71947 39.07498 36.39722
# Shear Modulus (GPa) = 46.61898 22.60351 34.61125
#
# Velocity S-wave (km/s) = 4.57731 3.18725 3.94400
# Velocity P-wave (km/s) = 6.56430 5.57728 6.09082
#
# Compressibility (1/GPa) = 0.02965646
#
# Stress axis : x y z
#
# Youngs Moduli (GPa) = 111.00000 53.87732 149.88812
#
# Poissons Ratio (x) = 0.13009 0.02904
# Poissons Ratio (y) = 0.26802 -0.04735
# Poissons Ratio (z) = 0.02151 -0.01702
#
# Static dielectric constant tensor:
#      x y z
#    x 1.806810 0.000000 0.000000 
#    y 0.000000 13.140040 0.000000 
#    z 0.000000 0.000000 1.917950 
# 
# From -- ./inp_files/304.got.cif
#   From: 2010.05.17/outbox.cif.g08.bks.cpg/sg39_1_cif.got.tgz:304.got - 2010.06.03 18:22:40.
