data_PCOD9360469
_publ_section_title
;
Structure prediction by ZEFSAII (Michael W. Deem and Ramdas Pophale) SiO2 
 PCOD9360469
Probable space group: A B M 2
;
_chemical_formula_sum "Si O2"
_cell_formula_units_Z 40
_cell_length_a 8.414540
_cell_length_b 18.292480
_cell_length_c 13.044068
_cell_angle_alpha 90.000000
_cell_angle_beta 90.000000
_cell_angle_gamma 90.000000
_cell_volume 2007.779531
_symmetry_space_group_name_H-M "A B M 2"
_symmetry_group_IT_number 39
_symmetry_cell_setting 'orthorhombic'
loop_
_space_group_symop_operation_xyz
x,y,z
-x,-y,z
-x,1/2+y,z
x,1/2-y,z
x,1/2+y,1/2+z
-x,1/2-y,1/2+z
-x,y,1/2+z
x,-y,1/2+z
loop_
_atom_site_type_symbol
_atom_site_label
_atom_site_fract_x
_atom_site_fract_y
_atom_site_fract_z
Si Si1 0.500000 0.000000 0.101241
Si Si2 0.291086 0.610256 0.237255
Si Si3 0.264025 0.250000 0.452028
Si Si4 0.261981 0.900393 0.471519
Si Si5 0.960846 0.664906 0.573518
Si Si6 0.592477 0.250000 0.535432
Si Si7 0.479156 0.750000 0.753765
O O1 0.393779 0.948011 0.173284
O O2 0.620890 0.955538 0.028919
O O3 0.241659 0.583352 0.350933
O O4 0.408169 0.679362 0.252240
O O5 0.140558 0.634648 0.168351
O O6 0.156522 0.320283 0.476385
O O7 0.401744 0.250000 0.536842
O O8 0.359895 0.250000 0.348614
O O9 0.345133 0.821162 0.479825
O O10 0.100202 0.887529 0.535363
O O11 0.012051 0.750000 0.595479
O O12 0.632334 0.250000 0.654182
#
# Coordination Sequence:
#
# PCOD9360469 Si02
#       7
#     4   8   4   8   8   4   4
#     4  12  28  48  68 102 142 192 244 280 344 444
#     4  12  24  45  71 104 138 188 236 288 353 423
#     4  10  19  36  65 109 135 171 219 297 353 396
#     4  12  25  45  72 102 142 186 233 295 359 414
#     4  10  23  43  67 109 145 169 230 303 354 412
#     4  12  19  38  69 105 127 175 239 294 330 410
#     4  12  20  36  76 100 136 174 244 295 341 406
#
# _framework density 19.922505999999998
#
# number of rings (size 3 to 8) (size 9 to 14) (size 15 to 20)
#    0.600    0.000    8.000    0.600    0.000    2.400 
#    0.000    2.000    0.000    0.000    0.000    0.000 
#    0.000    0.000    0.000    0.000    0.000    0.000 
#
# Total GULP energy -111622.042290 kJ/mol
# GULP energy per Si atom -5581.102114 kJ/mol
# Density = 1.987716 g / cm^3
# Si number density = 19.922506 Si / 1000 Ang^3
#
#
#
# Elastic Constant Matrix: (Units=GPa)
#
#
# Indices 1 2 3 4 5 6 
#
# 1 143.5399 53.9236 82.6075 0.0000 0.0000 0.0000
# 2 53.9236 92.0197 69.4411 0.0000 0.0000 0.0000
# 3 82.6075 69.4411 193.3147 0.0000 0.0000 0.0000
# 4 0.0000 0.0000 0.0000 -55.8188 0.0000 0.0000
# 5 0.0000 0.0000 0.0000 0.0000 37.6448 0.0000
# 6 0.0000 0.0000 0.0000 0.0000 0.0000 15.4129
#
#
#
# Elastic Compliance Matrix: (Units=1/GPa)
#
#
# Indices 1 2 3 4 5 6 
#
# 1 0.010053 -0.003634 -0.002990 0.000000 0.000000 0.000000
# 2 -0.003634 0.016223 -0.004274 0.000000 0.000000 0.000000
# 3 -0.002990 -0.004274 0.007986 0.000000 0.000000 0.000000
# 4 0.000000 0.000000 0.000000 -0.017915 0.000000 0.000000
# 5 0.000000 0.000000 0.000000 0.000000 0.026564 0.000000
# 6 0.000000 0.000000 0.000000 0.000000 0.000000 0.064881
#
#
# Mechanical properties :
#
#
# Convention : Reuss Voigt Hill
#
# Bulk Modulus (GPa) = 80.23389 93.42431 86.82910
# Shear Modulus (GPa) = 37.38491 14.30793 25.84642
#
# Velocity S-wave (km/s) = 4.33658 2.68279 3.60578
# Velocity P-wave (km/s) = 8.08919 7.52278 7.81112
#
# Compressibility (1/GPa) = 0.01246356
#
# Stress axis : x y z
#
# Youngs Moduli (GPa) = 99.47289 61.64261 125.21748
#
# Poissons Ratio (x) = 0.22404 0.37444
# Poissons Ratio (y) = 0.36153 0.53521
# Poissons Ratio (z) = 0.29745 0.26348
#
# Static dielectric constant tensor:
#      x y z
#    x 1.724270 0.000000 0.000000 
#    y 0.000000 1.707270 0.000000 
#    z 0.000000 0.000000 1.736820 
# 
# From -- ./inp_files/5103.got.cif
#   From: 2010.05.17/outbox.cif.g08.bks.cpg/sg39_3_cif.got.tgz:5103.got - 2010.06.03 18:22:40.
