data_PCOD9360811
_publ_section_title
;
Structure prediction by ZEFSAII (Michael W. Deem and Ramdas Pophale) SiO2 
 PCOD9360811
Probable space group: A B M 2
;
_chemical_formula_sum "Si O2"
_cell_formula_units_Z 40
_cell_length_a 5.277122
_cell_length_b 19.907135
_cell_length_c 18.448443
_cell_angle_alpha 90.000000
_cell_angle_beta 90.000000
_cell_angle_gamma 90.000000
_cell_volume 1938.052846
_symmetry_space_group_name_H-M "A B M 2"
_symmetry_group_IT_number 39
_symmetry_cell_setting 'orthorhombic'
loop_
_space_group_symop_operation_xyz
x,y,z
-x,-y,z
-x,1/2+y,z
x,1/2-y,z
x,1/2+y,1/2+z
-x,1/2-y,1/2+z
-x,y,1/2+z
x,-y,1/2+z
loop_
_atom_site_type_symbol
_atom_site_label
_atom_site_fract_x
_atom_site_fract_y
_atom_site_fract_z
Si Si1 0.055287 0.073033 0.032450
Si Si2 0.782385 0.631556 0.896504
Si Si3 0.282483 0.672029 0.644911
Si Si4 0.779267 0.328472 0.240428
Si Si5 0.273410 0.822478 0.969308
O O1 0.233939 0.120211 0.080319
O O2 0.173875 0.068809 0.951081
O O3 0.000000 0.000000 0.062336
O O4 0.799407 0.116807 0.022364
O O5 0.762551 0.624660 0.810973
O O6 0.531279 0.666906 0.926549
O O7 0.035868 0.673980 0.914003
O O8 0.276219 0.750000 0.619655
O O9 0.543887 0.660255 0.686910
O O10 0.044938 0.663468 0.699363
O O11 0.760915 0.250000 0.264608
O O12 0.272293 0.750000 0.006521
#
# Coordination Sequence:
#
# PCOD9360811 Si02
#       5
#     8   8   8   8   8
#     4  10  25  43  63  89 133 169 214 254 316 379
#     4  10  22  37  65  93 123 157 209 259 321 370
#     4  10  22  38  62  92 123 163 209 257 312 372
#     4  10  20  37  61  93 125 154 201 264 316 365
#     4  10  20  35  63  94 118 152 207 262 313 362
#
# _framework density 20.639272999999999
#
# number of rings (size 3 to 8) (size 9 to 14) (size 15 to 20)
#    1.200    0.800    0.000    3.600    2.800    2.400 
#    0.000    1.000    4.400    0.000    0.000    0.000 
#    0.000    0.000    0.000    0.000    0.000    0.000 
#
# Total GULP energy -111534.101042 kJ/mol
# GULP energy per Si atom -5576.705052 kJ/mol
# Density = 2.059230 g / cm^3
# Si number density = 20.639273 Si / 1000 Ang^3
#
#
#
# Elastic Constant Matrix: (Units=GPa)
#
#
# Indices 1 2 3 4 5 6 
#
# 1 144.9593 16.9128 29.1112 0.0000 0.0000 0.0000
# 2 16.9128 82.9412 30.8440 0.0000 0.0000 0.0000
# 3 29.1112 30.8440 97.3893 0.0000 0.0000 0.0000
# 4 0.0000 0.0000 0.0000 0.3927 0.0000 0.0000
# 5 0.0000 0.0000 0.0000 0.0000 28.5013 0.0000
# 6 0.0000 0.0000 0.0000 0.0000 0.0000 -52.1139
#
#
#
# Elastic Compliance Matrix: (Units=1/GPa)
#
#
# Indices 1 2 3 4 5 6 
#
# 1 0.007383 -0.000776 -0.001961 0.000000 0.000000 0.000000
# 2 -0.000776 0.013748 -0.004122 0.000000 0.000000 0.000000
# 3 -0.001961 -0.004122 0.012160 0.000000 0.000000 0.000000
# 4 0.000000 0.000000 0.000000 2.546212 0.000000 0.000000
# 5 0.000000 0.000000 0.000000 0.000000 0.035086 0.000000
# 6 0.000000 0.000000 0.000000 0.000000 0.000000 -0.019189
#
#
# Mechanical properties :
#
#
# Convention : Reuss Voigt Hill
#
# Bulk Modulus (GPa) = 51.09354 53.22510 52.15932
# Shear Modulus (GPa) = 1.91158 11.91748 6.91453
#
# Velocity S-wave (km/s) = 0.96343 2.40556 1.83234
# Velocity P-wave (km/s) = 5.10361 5.79309 5.45924
#
# Compressibility (1/GPa) = 0.01957194
#
# Stress axis : x y z
#
# Youngs Moduli (GPa) = 135.44868 72.73834 82.23859
#
# Poissons Ratio (x) = 0.05646 0.16127
# Poissons Ratio (y) = 0.10514 0.33899
# Poissons Ratio (z) = 0.26562 0.29983
#
# Static dielectric constant tensor:
#      x y z
#    x 1.740540 0.000000 0.000000 
#    y 0.000000 1.737220 0.000000 
#    z 0.000000 0.000000 1.768550 
# 
# From -- ./inp_files/10981.got.cif
#   From: 2010.05.17/outbox.cif.g08.bks.cpg/sg39_6_cif.got.tgz:10981.got - 2010.06.03 18:22:40.
