data_PCOD9360406
_publ_section_title
;
Structure prediction by ZEFSAII (Michael W. Deem and Ramdas Pophale) SiO2 
 PCOD9360406
Probable space group: A B M 2
;
_chemical_formula_sum "Si O2"
_cell_formula_units_Z 64
_cell_length_a 24.126578
_cell_length_b 9.052094
_cell_length_c 15.494491
_cell_angle_alpha 90.000000
_cell_angle_beta 90.000000
_cell_angle_gamma 90.000000
_cell_volume 3383.935661
_symmetry_space_group_name_H-M "A B M 2"
_symmetry_group_IT_number 39
_symmetry_cell_setting 'orthorhombic'
loop_
_space_group_symop_operation_xyz
x,y,z
-x,-y,z
-x,1/2+y,z
x,1/2-y,z
x,1/2+y,1/2+z
-x,1/2-y,1/2+z
-x,y,1/2+z
x,-y,1/2+z
loop_
_atom_site_type_symbol
_atom_site_label
_atom_site_fract_x
_atom_site_fract_y
_atom_site_fract_z
Si Si1 0.753980 0.573882 0.447330
Si Si2 0.440702 0.573376 0.312597
Si Si3 0.880778 0.074945 0.712115
Si Si4 0.941149 0.072333 0.536781
Si Si5 0.646878 0.572839 0.662162
Si Si6 0.140175 0.074240 0.882037
Si Si7 0.627274 0.073646 0.961741
Si Si8 0.240323 0.925239 0.633857
O O1 0.760740 0.750000 0.447786
O O2 0.799633 0.500872 0.386849
O O3 0.689646 0.541841 0.427839
O O4 0.763952 0.508096 0.542501
O O5 0.500000 0.500000 0.297028
O O6 0.445980 0.750000 0.316496
O O7 0.398501 0.537002 0.234350
O O8 0.415356 0.512588 0.401965
O O9 0.888044 0.250000 0.728564
O O10 0.918830 0.031664 0.631453
O O11 0.816854 0.052057 0.684060
O O12 0.890940 0.981795 0.797345
O O13 0.945979 0.250000 0.533952
O O14 0.895186 0.030294 0.466070
O O15 0.000000 0.000000 0.518727
O O16 0.656813 0.750000 0.663049
O O17 0.627357 0.535931 0.564041
O O18 0.704693 0.489441 0.678270
O O19 0.146597 0.250000 0.882004
O O20 0.617742 0.250000 0.954839
O O21 0.246598 0.750000 0.619166
#
# Coordination Sequence:
#
# PCOD9360406 Si02
#       8
#     8   8   8   8   8   8   8   8
#     4  10  20  36  60  89 124 160 197 243 303 362
#     4  11  24  41  61  86 118 156 202 247 294 353
#     4  10  22  40  59  87 124 159 198 246 300 355
#     4  10  23  44  64  85 120 160 203 252 299 354
#     4   9  21  40  59  86 120 156 197 244 296 355
#     4  11  23  39  60  90 123 158 202 249 299 359
#     4   9  20  39  60  85 119 155 194 242 296 352
#     4  10  19  35  60  88 123 159 196 244 300 358
#
# _framework density 18.912887999999999
#
# number of rings (size 3 to 8) (size 9 to 14) (size 15 to 20)
#    0.000    2.000    1.250    2.250    1.750    7.000 
#    0.000    3.750    0.000    0.000    0.000    0.000 
#    0.000    0.000    0.000    0.000    0.000    0.000 
#
# Total GULP energy -178739.853030 kJ/mol
# GULP energy per Si atom -5585.620407 kJ/mol
# Density = 1.886984 g / cm^3
# Si number density = 18.912888 Si / 1000 Ang^3
#
#
#
# Elastic Constant Matrix: (Units=GPa)
#
#
# Indices 1 2 3 4 5 6 
#
# 1 57.1775 25.2973 -0.4097 0.0000 0.0000 0.0000
# 2 25.2973 28.0910 11.7099 0.0000 0.0000 0.0000
# 3 -0.4097 11.7099 36.0626 0.0000 0.0000 0.0000
# 4 0.0000 0.0000 0.0000 26.9427 0.0000 0.0000
# 5 0.0000 0.0000 0.0000 0.0000 14.9305 0.0000
# 6 0.0000 0.0000 0.0000 0.0000 0.0000 32.5839
#
#
#
# Elastic Compliance Matrix: (Units=1/GPa)
#
#
# Indices 1 2 3 4 5 6 
#
# 1 0.032736 -0.034275 0.011501 0.000000 0.000000 0.000000
# 2 -0.034275 0.077057 -0.025411 0.000000 0.000000 0.000000
# 3 0.011501 -0.025411 0.036111 0.000000 0.000000 0.000000
# 4 0.000000 0.000000 0.000000 0.037116 0.000000 0.000000
# 5 0.000000 0.000000 0.000000 0.000000 0.066977 0.000000
# 6 0.000000 0.000000 0.000000 0.000000 0.000000 0.030690
#
#
# Mechanical properties :
#
#
# Convention : Reuss Voigt Hill
#
# Bulk Modulus (GPa) = 20.18720 21.61401 20.90061
# Shear Modulus (GPa) = 12.70426 20.54032 16.62229
#
# Velocity S-wave (km/s) = 2.59458 3.29910 2.96782
# Velocity P-wave (km/s) = 4.43540 5.09560 4.77691
#
# Compressibility (1/GPa) = 0.04953633
#
# Stress axis : x y z
#
# Youngs Moduli (GPa) = 30.54718 12.97733 27.69215
#
# Poissons Ratio (x) = 0.44480 -0.31850
# Poissons Ratio (y) = 1.04700 0.70368
# Poissons Ratio (z) = -0.35133 0.32976
#
# Static dielectric constant tensor:
#      x y z
#    x 1.638570 0.000000 0.000000 
#    y 0.000000 1.626600 0.000000 
#    z 0.000000 0.000000 1.664260 
# 
# From -- ./inp_files/10589.got.cif
#   From: 2010.05.17/outbox.cif.g08.bks.cpg/sg39_6_cif.got.tgz:10589.got - 2010.06.03 18:22:40.
