data_PCOD9360766
_publ_section_title
;
Structure prediction by ZEFSAII (Michael W. Deem and Ramdas Pophale) SiO2 
 PCOD9360766
Probable space group: A B M 2
;
_chemical_formula_sum "Si O2"
_cell_formula_units_Z 48
_cell_length_a 9.228666
_cell_length_b 8.663114
_cell_length_c 32.071604
_cell_angle_alpha 90.000000
_cell_angle_beta 90.000000
_cell_angle_gamma 90.000000
_cell_volume 2564.092207
_symmetry_space_group_name_H-M "A B M 2"
_symmetry_group_IT_number 39
_symmetry_cell_setting 'orthorhombic'
loop_
_space_group_symop_operation_xyz
x,y,z
-x,-y,z
-x,1/2+y,z
x,1/2-y,z
x,1/2+y,1/2+z
-x,1/2-y,1/2+z
-x,y,1/2+z
x,-y,1/2+z
loop_
_atom_site_type_symbol
_atom_site_label
_atom_site_fract_x
_atom_site_fract_y
_atom_site_fract_z
Si Si1 0.337963 0.564169 0.783130
Si Si2 0.163670 0.565101 0.947803
Si Si3 0.164009 0.934318 0.361653
Si Si4 0.161743 0.935989 0.700393
Si Si5 0.163618 0.564853 0.040313
Si Si6 0.661590 0.064601 0.618252
O O1 0.500000 0.500000 0.780912
O O2 0.340776 0.750000 0.785204
O O3 0.257058 0.498372 0.823552
O O4 0.249615 0.517350 0.741684
O O5 0.160320 0.750000 0.943032
O O6 0.227928 0.490600 0.906142
O O7 0.000000 0.500000 0.949119
O O8 0.223398 0.527704 0.993788
O O9 0.157781 0.750000 0.360832
O O10 0.000000 0.000000 0.358253
O O11 0.154942 0.750000 0.700071
O O12 0.246199 0.985484 0.658723
O O13 0.000000 0.000000 0.701075
O O14 0.157341 0.750000 0.043885
O O15 0.260496 0.495629 0.076726
O O16 0.000000 0.500000 0.043711
O O17 0.657338 0.250000 0.617583
O O18 0.500000 0.000000 0.621093
#
# Coordination Sequence:
#
# PCOD9360766 Si02
#       6
#     8   8   8   8   8   8
#     4  11  23  40  59  83 115 150 188 230 281 336
#     4   9  17  31  53  81 112 146 187 234 282 330
#     4  11  21  35  57  85 115 149 190 235 282 332
#     4  10  23  40  61  87 113 145 186 231 277 330
#     4  10  20  35  57  85 115 149 190 235 281 332
#     4  11  23  39  58  83 115 151 189 231 282 336
#
# _framework density 18.720075999999999
#
# number of rings (size 3 to 8) (size 9 to 14) (size 15 to 20)
#    0.000    1.667    0.000    6.000    0.000    7.333 
#    0.000    0.833    0.000    4.000    0.000    0.000 
#    0.000    0.000    0.000    0.000    0.000    0.000 
#
# Total GULP energy -134071.160772 kJ/mol
# GULP energy per Si atom -5586.298365 kJ/mol
# Density = 1.867747 g / cm^3
# Si number density = 18.720076 Si / 1000 Ang^3
#
#
#
# Elastic Constant Matrix: (Units=GPa)
#
#
# Indices 1 2 3 4 5 6 
#
# 1 132.1799 46.3060 105.0628 0.0000 0.0000 0.0000
# 2 46.3060 90.1116 74.0878 0.0000 0.0000 0.0000
# 3 105.0628 74.0878 227.6456 0.0000 0.0000 0.0000
# 4 0.0000 0.0000 0.0000 29.3508 0.0000 0.0000
# 5 0.0000 0.0000 0.0000 0.0000 -14.1960 0.0000
# 6 0.0000 0.0000 0.0000 0.0000 0.0000 33.9422
#
#
#
# Elastic Compliance Matrix: (Units=1/GPa)
#
#
# Indices 1 2 3 4 5 6 
#
# 1 0.012275 -0.002253 -0.004932 0.000000 0.000000 0.000000
# 2 -0.002253 0.015565 -0.004026 0.000000 0.000000 0.000000
# 3 -0.004932 -0.004026 0.007979 0.000000 0.000000 0.000000
# 4 0.000000 0.000000 0.000000 0.034071 0.000000 0.000000
# 5 0.000000 0.000000 0.000000 0.000000 -0.070443 0.000000
# 6 0.000000 0.000000 0.000000 0.000000 0.000000 0.029462
#
#
# Mechanical properties :
#
#
# Convention : Reuss Voigt Hill
#
# Bulk Modulus (GPa) = 74.63938 100.09447 87.36692
# Shear Modulus (GPa) = 89.61195 24.78477 57.19836
#
# Velocity S-wave (km/s) = 6.92628 3.64258 5.53361
# Velocity P-wave (km/s) = 10.19423 8.44253 9.35945
#
# Compressibility (1/GPa) = 0.01339775
#
# Stress axis : x y z
#
# Youngs Moduli (GPa) = 81.46830 64.24637 125.32598
#
# Poissons Ratio (x) = 0.14473 0.61809
# Poissons Ratio (y) = 0.18353 0.50456
# Poissons Ratio (z) = 0.40179 0.25865
#
# Static dielectric constant tensor:
#      x y z
#    x 1.601180 0.000000 0.000000 
#    y 0.000000 1.611630 0.000000 
#    z 0.000000 0.000000 1.670090 
# 
# From -- ./inp_files/17608.got.cif
#   From: 2010.05.17/outbox.cif.g08.bks.cpg/sg39_9_cif.got.tgz:17608.got - 2010.06.03 18:22:40.
