data_PCOD9360551
_publ_section_title
;
Structure prediction by ZEFSAII (Michael W. Deem and Ramdas Pophale) SiO2 
 PCOD9360551
Probable space group: A B M 2
;
_chemical_formula_sum "Si O2"
_cell_formula_units_Z 48
_cell_length_a 16.372678
_cell_length_b 9.519484
_cell_length_c 14.720812
_cell_angle_alpha 90.000000
_cell_angle_beta 90.000000
_cell_angle_gamma 90.000000
_cell_volume 2294.377607
_symmetry_space_group_name_H-M "A B M 2"
_symmetry_group_IT_number 39
_symmetry_cell_setting 'orthorhombic'
loop_
_space_group_symop_operation_xyz
x,y,z
-x,-y,z
-x,1/2+y,z
x,1/2-y,z
x,1/2+y,1/2+z
-x,1/2-y,1/2+z
-x,y,1/2+z
x,-y,1/2+z
loop_
_atom_site_type_symbol
_atom_site_label
_atom_site_fract_x
_atom_site_fract_y
_atom_site_fract_z
Si Si1 0.761037 0.088521 0.955980
Si Si2 0.076103 0.091542 0.982595
Si Si3 0.073198 0.592059 0.698060
Si Si4 0.422970 0.586456 0.740880
Si Si5 0.421205 0.586910 0.962457
Si Si6 0.752596 0.088420 0.737801
O O1 0.774970 0.250000 0.987447
O O2 0.670860 0.039436 0.988685
O O3 0.754050 0.094667 0.846692
O O4 0.837798 0.989297 0.974731
O O5 0.079617 0.250000 0.944308
O O6 0.060999 0.105581 0.090456
O O7 0.000000 0.000000 0.946425
O O8 0.074443 0.750000 0.738148
O O9 0.161986 0.522169 0.709904
O O10 0.000000 0.500000 0.735676
O O11 0.500000 0.500000 0.708157
O O12 0.428676 0.750000 0.715318
O O13 0.423377 0.582523 0.851521
O O14 0.334895 0.527460 0.710804
O O15 0.500000 0.500000 0.993824
O O16 0.429043 0.750000 0.988700
O O17 0.754159 0.250000 0.702899
#
# Coordination Sequence:
#
# PCOD9360551 Si02
#       6
#     8   8   8   8   8   8
#     4   9  17  30  48  70  95 120 148 186 229 267
#     4  10  20  33  49  67  88 118 153 187 225 271
#     4   9  18  33  50  66  86 116 152 185 220 266
#     4   8  13  23  40  62  88 116 144 175 214 259
#     4   8  14  24  40  63  90 119 147 178 218 261
#     4   8  15  29  48  68  91 119 148 181 224 266
#
# _framework density 20.920707
#
# number of rings (size 3 to 8) (size 9 to 14) (size 15 to 20)
#    0.000    3.333    0.000    2.500    0.000    2.000 
#    0.000    5.833    0.000    1.000    0.000    4.667 
#    0.000    0.000    0.000    0.000    0.000    0.000 
#
# Total GULP energy -133679.403473 kJ/mol
# GULP energy per Si atom -5569.975145 kJ/mol
# Density = 2.087309 g / cm^3
# Si number density = 20.920707 Si / 1000 Ang^3
#
#
#
# Elastic Constant Matrix: (Units=GPa)
#
#
# Indices 1 2 3 4 5 6 
#
# 1 257.1270 109.6139 0.4940 0.0000 0.0000 0.0000
# 2 109.6139 91.3565 3.0690 0.0000 0.0000 0.0000
# 3 0.4940 3.0690 33.8609 0.0000 0.0000 0.0000
# 4 0.0000 0.0000 0.0000 22.2726 0.0000 0.0000
# 5 0.0000 0.0000 0.0000 0.0000 33.0088 0.0000
# 6 0.0000 0.0000 0.0000 0.0000 0.0000 34.7662
#
#
#
# Elastic Compliance Matrix: (Units=1/GPa)
#
#
# Indices 1 2 3 4 5 6 
#
# 1 0.007980 -0.009601 0.000754 0.000000 0.000000 0.000000
# 2 -0.009601 0.022529 -0.001902 0.000000 0.000000 0.000000
# 3 0.000754 -0.001902 0.029694 0.000000 0.000000 0.000000
# 4 0.000000 0.000000 0.000000 0.044898 0.000000 0.000000
# 5 0.000000 0.000000 0.000000 0.000000 0.030295 0.000000
# 6 0.000000 0.000000 0.000000 0.000000 0.000000 0.028764
#
#
# Mechanical properties :
#
#
# Convention : Reuss Voigt Hill
#
# Bulk Modulus (GPa) = 25.83570 67.63311 46.73441
# Shear Modulus (GPa) = 25.18127 35.95402 30.56765
#
# Velocity S-wave (km/s) = 3.47313 4.15008 3.82661
# Velocity P-wave (km/s) = 5.33476 7.44061 6.47389
#
# Compressibility (1/GPa) = 0.03870613
#
# Stress axis : x y z
#
# Youngs Moduli (GPa) = 125.30591 44.38653 33.67690
#
# Poissons Ratio (x) = 0.42614 -0.02538
# Poissons Ratio (y) = 1.20302 0.06405
# Poissons Ratio (z) = -0.09445 0.08442
#
# Static dielectric constant tensor:
#      x y z
#    x 1.787360 0.000000 0.000000 
#    y 0.000000 1.754640 0.000000 
#    z 0.000000 0.000000 1.780680 
# 
# From -- ./inp_files/12201.got.cif
#   From: 2010.05.17/outbox.cif.g08.bks.cpg/sg39_7_cif.got.tgz:12201.got - 2010.06.03 18:22:40.
