data_PCOD9360531
_publ_section_title
;
Structure prediction by ZEFSAII (Michael W. Deem and Ramdas Pophale) SiO2 
 PCOD9360531
Probable space group: A B M 2
;
_chemical_formula_sum "Si O2"
_cell_formula_units_Z 64
_cell_length_a 18.027235
_cell_length_b 8.986991
_cell_length_c 23.707114
_cell_angle_alpha 90.000000
_cell_angle_beta 90.000000
_cell_angle_gamma 90.000000
_cell_volume 3840.803733
_symmetry_space_group_name_H-M "A B M 2"
_symmetry_group_IT_number 39
_symmetry_cell_setting 'orthorhombic'
loop_
_space_group_symop_operation_xyz
x,y,z
-x,-y,z
-x,1/2+y,z
x,1/2-y,z
x,1/2+y,1/2+z
-x,1/2-y,1/2+z
-x,y,1/2+z
x,-y,1/2+z
loop_
_atom_site_type_symbol
_atom_site_label
_atom_site_fract_x
_atom_site_fract_y
_atom_site_fract_z
Si Si1 0.297706 0.579773 0.781380
Si Si2 0.865008 0.421551 0.721604
Si Si3 0.646178 0.429830 0.665999
Si Si4 0.924812 0.427729 0.330226
Si Si5 0.425768 0.428817 0.562975
Si Si6 0.201733 0.928568 0.119642
Si Si7 0.768393 0.073044 0.385525
Si Si8 0.268416 0.072060 0.504297
O O1 0.311366 0.750000 0.798665
O O2 0.218124 0.577282 0.748794
O O3 0.356464 0.536940 0.732851
O O4 0.287161 0.480606 0.836259
O O5 0.888834 0.250000 0.718378
O O6 0.912379 0.513163 0.766595
O O7 0.858719 0.494956 0.659911
O O8 0.652189 0.250000 0.660231
O O9 0.585008 0.495692 0.624418
O O10 0.720327 0.510918 0.643788
O O11 0.930196 0.250000 0.330009
O O12 0.851381 0.471910 0.365313
O O13 0.000000 0.500000 0.352815
O O14 0.500000 0.500000 0.537485
O O15 0.431075 0.250000 0.567728
O O16 0.350960 0.464362 0.527703
O O17 0.198305 0.750000 0.125366
O O18 0.208745 0.966750 0.053437
O O19 0.766806 0.250000 0.388790
O O20 0.748539 0.004269 0.445450
O O21 0.266013 0.250000 0.497554
#
# Coordination Sequence:
#
# PCOD9360531 Si02
#       8
#     8   8   8   8   8   8   8   8
#     4   8  15  27  44  66  93 122 151 185 232 283
#     4   9  16  27  45  69  94 122 152 188 236 287
#     4   9  16  27  45  69  94 122 153 189 235 286
#     4  10  20  33  49  72  99 128 162 203 251 303
#     4  10  20  33  50  73  99 129 162 202 251 302
#     4   9  16  27  44  68  95 122 153 193 237 283
#     4  10  20  31  48  73  98 127 168 212 249 289
#     4   9  19  33  49  70  98 132 169 206 247 293
#
# _framework density 16.663179
#
# number of rings (size 3 to 8) (size 9 to 14) (size 15 to 20)
#    0.000    2.750    0.000    3.750    0.000    8.000 
#    0.000    0.000    0.000    1.500    0.000    5.250 
#    0.000    0.000    0.000    0.000    0.000    0.000 
#
# Total GULP energy -178152.075011 kJ/mol
# GULP energy per Si atom -5567.252344 kJ/mol
# Density = 1.662525 g / cm^3
# Si number density = 16.663179 Si / 1000 Ang^3
#
#
#
# Elastic Constant Matrix: (Units=GPa)
#
#
# Indices 1 2 3 4 5 6 
#
# 1 51.8838 26.2479 37.8883 0.0000 0.0000 0.0000
# 2 26.2479 56.7955 52.6176 0.0000 0.0000 0.0000
# 3 37.8883 52.6176 134.5273 0.0000 0.0000 0.0000
# 4 0.0000 0.0000 0.0000 31.7521 0.0000 0.0000
# 5 0.0000 0.0000 0.0000 0.0000 12.1901 0.0000
# 6 0.0000 0.0000 0.0000 0.0000 0.0000 22.0212
#
#
#
# Elastic Compliance Matrix: (Units=1/GPa)
#
#
# Indices 1 2 3 4 5 6 
#
# 1 0.026591 -0.008392 -0.004207 0.000000 0.000000 0.000000
# 2 -0.008392 0.030261 -0.009473 0.000000 0.000000 0.000000
# 3 -0.004207 -0.009473 0.012323 0.000000 0.000000 0.000000
# 4 0.000000 0.000000 0.000000 0.031494 0.000000 0.000000
# 5 0.000000 0.000000 0.000000 0.000000 0.082034 0.000000
# 6 0.000000 0.000000 0.000000 0.000000 0.000000 0.045411
#
#
# Mechanical properties :
#
#
# Convention : Reuss Voigt Hill
#
# Bulk Modulus (GPa) = 39.94682 52.96825 46.45753
# Shear Modulus (GPa) = 17.81894 21.62288 19.72091
#
# Velocity S-wave (km/s) = 3.27366 3.60619 3.44394
# Velocity P-wave (km/s) = 6.18985 7.01399 6.61477
#
# Compressibility (1/GPa) = 0.02503328
#
# Stress axis : x y z
#
# Youngs Moduli (GPa) = 37.60628 33.04597 81.14724
#
# Poissons Ratio (x) = 0.27731 0.34139
# Poissons Ratio (y) = 0.31558 0.76867
# Poissons Ratio (z) = 0.15821 0.31303
#
# Static dielectric constant tensor:
#      x y z
#    x 1.609000 0.000000 0.000000 
#    y 0.000000 1.553130 0.000000 
#    z 0.000000 0.000000 1.574710 
# 
# From -- ./inp_files/16337.got.cif
#   From: 2010.05.17/outbox.cif.g08.bks.cpg/sg39_9_cif.got.tgz:16337.got - 2010.06.03 18:22:40.
