data_PCOD9360662
_publ_section_title
;
Structure prediction by ZEFSAII (Michael W. Deem and Ramdas Pophale) SiO2 
 PCOD9360662
Probable space group: A B M 2
;
_chemical_formula_sum "Si O2"
_cell_formula_units_Z 56
_cell_length_a 25.002833
_cell_length_b 23.507240
_cell_length_c 4.955601
_cell_angle_alpha 90.000000
_cell_angle_beta 90.000000
_cell_angle_gamma 90.000000
_cell_volume 2912.642575
_symmetry_space_group_name_H-M "A B M 2"
_symmetry_group_IT_number 39
_symmetry_cell_setting 'orthorhombic'
loop_
_space_group_symop_operation_xyz
x,y,z
-x,-y,z
-x,1/2+y,z
x,1/2-y,z
x,1/2+y,1/2+z
-x,1/2-y,1/2+z
-x,y,1/2+z
x,-y,1/2+z
loop_
_atom_site_type_symbol
_atom_site_label
_atom_site_fract_x
_atom_site_fract_y
_atom_site_fract_z
Si Si1 0.313125 0.315003 0.392790
Si Si2 0.723287 0.537149 0.864449
Si Si3 0.639954 0.627009 0.889053
Si Si4 0.145447 0.317201 0.208679
Si Si5 0.536601 0.684333 0.091740
Si Si6 0.032067 0.680963 0.462244
Si Si7 0.208765 0.645077 0.196481
O O1 0.322714 0.250000 0.327328
O O2 0.354994 0.337502 0.614036
O O3 0.256776 0.322700 0.542331
O O4 0.319141 0.349796 0.117979
O O5 0.729019 0.482964 0.670562
O O6 0.664460 0.565294 0.826091
O O7 0.766789 0.583911 0.774164
O O8 0.582273 0.639614 0.013542
O O9 0.142200 0.250000 0.282029
O O10 0.089050 0.336192 0.081178
O O11 0.162058 0.352220 0.473220
O O12 0.188486 0.325397 0.969352
O O13 0.556456 0.750000 0.058940
O O14 0.486622 0.677869 0.889870
O O15 0.033701 0.750000 0.458339
O O16 0.015388 0.663157 0.164163
#
# Coordination Sequence:
#
# PCOD9360662 Si02
#       7
#     8   8   8   8   8   8   8
#     4  11  20  32  51  78 113 142 170 208 256 328
#     4  11  23  41  59  75 101 137 181 233 274 312
#     4  11  22  36  56  80 104 143 184 214 260 320
#     4  11  20  32  51  78 117 150 175 215 264 321
#     4  10  20  34  54  81 113 142 168 206 257 315
#     4   9  17  29  45  68 103 150 190 212 241 297
#     4  11  22  34  51  79 106 139 180 219 275 330
#
# _framework density 19.226524999999999
#
# number of rings (size 3 to 8) (size 9 to 14) (size 15 to 20)
#    0.000    1.429    0.000    8.571    0.000    3.429 
#    0.000    0.000    0.000    2.571    0.000    0.000 
#    0.000   40.000    0.000    0.000    0.000    0.000 
#
# Total GULP energy -156371.273324 kJ/mol
# GULP energy per Si atom -5584.688333 kJ/mol
# Density = 1.918276 g / cm^3
# Si number density = 19.226525 Si / 1000 Ang^3
#
#
#
# Elastic Constant Matrix: (Units=GPa)
#
#
# Indices 1 2 3 4 5 6 
#
# 1 61.7790 7.6031 -4.0461 0.0000 0.0000 0.0000
# 2 7.6031 41.6610 3.1282 0.0000 0.0000 0.0000
# 3 -4.0461 3.1282 77.4256 0.0000 0.0000 0.0000
# 4 0.0000 0.0000 0.0000 31.3077 0.0000 0.0000
# 5 0.0000 0.0000 0.0000 0.0000 33.4869 0.0000
# 6 0.0000 0.0000 0.0000 0.0000 0.0000 16.4570
#
#
#
# Elastic Compliance Matrix: (Units=1/GPa)
#
#
# Indices 1 2 3 4 5 6 
#
# 1 0.016635 -0.003111 0.000995 0.000000 0.000000 0.000000
# 2 -0.003111 0.024658 -0.001159 0.000000 0.000000 0.000000
# 3 0.000995 -0.001159 0.013014 0.000000 0.000000 0.000000
# 4 0.000000 0.000000 0.000000 0.031941 0.000000 0.000000
# 5 0.000000 0.000000 0.000000 0.000000 0.029862 0.000000
# 6 0.000000 0.000000 0.000000 0.000000 0.000000 0.060764
#
#
# Mechanical properties :
#
#
# Convention : Reuss Voigt Hill
#
# Bulk Modulus (GPa) = 20.93873 21.58177 21.26025
# Shear Modulus (GPa) = 25.08240 27.86235 26.47237
#
# Velocity S-wave (km/s) = 3.61581 3.81092 3.71464
# Velocity P-wave (km/s) = 5.32412 5.53294 5.42954
#
# Compressibility (1/GPa) = 0.04775840
#
# Stress axis : x y z
#
# Youngs Moduli (GPa) = 60.11526 40.55487 76.83770
#
# Poissons Ratio (x) = 0.12615 -0.07645
# Poissons Ratio (y) = 0.18699 0.08904
# Poissons Ratio (z) = -0.05981 0.04699
#
# Static dielectric constant tensor:
#      x y z
#    x 1.726300 0.000000 0.000000 
#    y 0.000000 1.641020 0.000000 
#    z 0.000000 0.000000 1.665900 
# 
# From -- ./inp_files/1278.got.cif
#   From: 2010.05.17/outbox.cif.g08.bks.cpg/sg39_1_cif.got.tgz:1278.got - 2010.06.03 18:22:40.
