data_PCOD9360077
_publ_section_title
;
Structure prediction by ZEFSAII (Michael W. Deem and Ramdas Pophale) SiO2 
 PCOD9360077
Probable space group: A B M 2
;
_chemical_formula_sum "Si O2"
_cell_formula_units_Z 64
_cell_length_a 16.855341
_cell_length_b 9.658704
_cell_length_c 21.253900
_cell_angle_alpha 90.000000
_cell_angle_beta 90.000000
_cell_angle_gamma 90.000000
_cell_volume 3460.150851
_symmetry_space_group_name_H-M "A B M 2"
_symmetry_group_IT_number 39
_symmetry_cell_setting 'orthorhombic'
loop_
_space_group_symop_operation_xyz
x,y,z
-x,-y,z
-x,1/2+y,z
x,1/2-y,z
x,1/2+y,1/2+z
-x,1/2-y,1/2+z
-x,y,1/2+z
x,-y,1/2+z
loop_
_atom_site_type_symbol
_atom_site_label
_atom_site_fract_x
_atom_site_fract_y
_atom_site_fract_z
Si Si1 0.574371 0.408854 0.094040
Si Si2 0.132180 0.906400 0.239400
Si Si3 0.746662 0.911425 0.555400
Si Si4 0.277410 0.590819 0.775662
Si Si5 0.077572 0.913127 0.098741
Si Si6 0.927063 0.907914 0.879786
Si Si7 0.427723 0.092600 0.744866
Si Si8 0.785192 0.096190 0.914212
O O1 0.500000 0.500000 0.070386
O O2 0.571137 0.250000 0.069346
O O3 0.663213 0.468242 0.081569
O O4 0.565419 0.400271 0.169296
O O5 0.168244 0.750000 0.238588
O O6 0.084580 0.920725 0.174807
O O7 0.081991 0.914192 0.303643
O O8 0.198725 0.023838 0.245403
O O9 0.748238 0.750000 0.576561
O O10 0.835099 0.963392 0.574359
O O11 0.741027 0.916497 0.480025
O O12 0.289250 0.750000 0.755489
O O13 0.348388 0.490190 0.759075
O O14 0.266219 0.590240 0.851109
O O15 0.069067 0.750000 0.081203
O O16 0.000000 0.000000 0.078461
O O17 0.936510 0.750000 0.898280
O O18 0.848907 0.976036 0.907980
O O19 0.000000 0.000000 0.899985
O O20 0.427768 0.250000 0.768959
O O21 0.500000 0.000000 0.769538
O O22 0.824167 0.250000 0.914060
#
# Coordination Sequence:
#
# PCOD9360077 Si02
#       8
#     8   8   8   8   8   8   8   8
#     4   9  18  34  57  82 105 132 167 208 255 307
#     4   9  18  32  50  72  99 131 165 205 256 310
#     4   9  18  35  56  74 100 139 175 209 254 305
#     4  10  19  31  50  75 101 131 167 206 251 300
#     4  10  20  34  52  75 103 136 173 212 259 311
#     4  10  19  31  49  72  98 128 165 210 257 302
#     4  10  19  32  52  78 107 133 160 198 247 304
#     4   9  19  35  52  70  96 132 172 208 244 295
#
# _framework density 18.496303000000001
#
# number of rings (size 3 to 8) (size 9 to 14) (size 15 to 20)
#    0.000    2.500    0.000    2.250    0.000    4.500 
#    0.000    3.750    0.000    1.500    0.000    0.000 
#    0.000    0.000    0.000    0.000    0.000    0.000 
#
# Total GULP energy -178290.075561 kJ/mol
# GULP energy per Si atom -5571.564861 kJ/mol
# Density = 1.845420 g / cm^3
# Si number density = 18.496303 Si / 1000 Ang^3
#
#
#
# Elastic Constant Matrix: (Units=GPa)
#
#
# Indices 1 2 3 4 5 6 
#
# 1 101.8299 55.6733 4.4444 0.0000 0.0000 0.0000
# 2 55.6733 124.4122 11.7785 0.0000 0.0000 0.0000
# 3 4.4444 11.7785 19.5312 0.0000 0.0000 0.0000
# 4 0.0000 0.0000 0.0000 9.2018 0.0000 0.0000
# 5 0.0000 0.0000 0.0000 0.0000 0.8237 0.0000
# 6 0.0000 0.0000 0.0000 0.0000 0.0000 35.5787
#
#
#
# Elastic Compliance Matrix: (Units=1/GPa)
#
#
# Indices 1 2 3 4 5 6 
#
# 1 0.013007 -0.005876 0.000584 0.000000 0.000000 0.000000
# 2 -0.005876 0.011179 -0.005404 0.000000 0.000000 0.000000
# 3 0.000584 -0.005404 0.054327 0.000000 0.000000 0.000000
# 4 0.000000 0.000000 0.000000 0.108675 0.000000 0.000000
# 5 0.000000 0.000000 0.000000 0.000000 1.214062 0.000000
# 6 0.000000 0.000000 0.000000 0.000000 0.000000 0.028107
#
#
# Mechanical properties :
#
#
# Convention : Reuss Voigt Hill
#
# Bulk Modulus (GPa) = 17.50722 43.28508 30.39615
# Shear Modulus (GPa) = 3.40185 20.71263 12.05724
#
# Velocity S-wave (km/s) = 1.35764 3.35001 2.55595
# Velocity P-wave (km/s) = 3.45592 6.19808 5.01795
#
# Compressibility (1/GPa) = 0.05711930
#
# Stress axis : x y z
#
# Youngs Moduli (GPa) = 76.87949 89.45441 18.40722
#
# Poissons Ratio (x) = 0.52563 -0.01074
# Poissons Ratio (y) = 0.45174 0.09948
# Poissons Ratio (z) = -0.04487 0.48345
#
# Static dielectric constant tensor:
#      x y z
#    x 1.655250 0.000000 0.000000 
#    y 0.000000 1.649260 0.000000 
#    z 0.000000 0.000000 1.638700 
# 
# From -- ./inp_files/16280.got.cif
#   From: 2010.05.17/outbox.cif.g08.bks.cpg/sg39_9_cif.got.tgz:16280.got - 2010.06.03 18:22:40.
