data_PCOD9360525
_publ_section_title
;
Structure prediction by ZEFSAII (Michael W. Deem and Ramdas Pophale) SiO2 
 PCOD9360525
Probable space group: A B M 2
;
_chemical_formula_sum "Si O2"
_cell_formula_units_Z 52
_cell_length_a 11.844163
_cell_length_b 26.636568
_cell_length_c 8.557049
_cell_angle_alpha 90.000000
_cell_angle_beta 90.000000
_cell_angle_gamma 90.000000
_cell_volume 2699.645018
_symmetry_space_group_name_H-M "A B M 2"
_symmetry_group_IT_number 39
_symmetry_cell_setting 'orthorhombic'
loop_
_space_group_symop_operation_xyz
x,y,z
-x,-y,z
-x,1/2+y,z
x,1/2-y,z
x,1/2+y,1/2+z
-x,1/2-y,1/2+z
-x,y,1/2+z
x,-y,1/2+z
loop_
_atom_site_type_symbol
_atom_site_label
_atom_site_fract_x
_atom_site_fract_y
_atom_site_fract_z
Si Si1 0.827151 0.190969 0.062010
Si Si2 0.500000 0.000000 0.957586
Si Si3 0.242608 0.643624 0.564992
Si Si4 0.345467 0.250000 0.147907
Si Si5 0.633787 0.852873 0.744693
Si Si6 0.519208 0.250000 0.363410
Si Si7 0.948178 0.809972 0.225651
Si Si8 0.581813 0.574083 0.208557
O O1 0.798636 0.250000 0.070796
O O2 0.716456 0.158344 0.099424
O O3 0.918531 0.182111 0.201281
O O4 0.891255 0.182886 0.896297
O O5 0.424264 0.962755 0.855088
O O6 0.573636 0.963578 0.063528
O O7 0.283241 0.700155 0.601618
O O8 0.288672 0.630578 0.392710
O O9 0.112262 0.651140 0.606958
O O10 0.309370 0.608260 0.685268
O O11 0.387816 0.250000 0.323203
O O12 0.459938 0.250000 0.047259
O O13 0.577222 0.800494 0.799566
O O14 0.531017 0.890966 0.711662
O O15 0.932529 0.750000 0.187162
#
# Coordination Sequence:
#
# PCOD9360525 Si02
#       8
#     8   4   8   4   8   4   8   8
#     4  10  21  35  53  79 117 159 194 227 266 322
#     4  10  24  42  56  80 114 142 192 246 296 342
#     4  11  21  34  54  83 114 155 187 227 274 342
#     4  10  20  30  45  76 119 148 181 217 265 329
#     4  11  21  34  54  83 114 155 187 227 274 342
#     4  10  20  30  45  76 119 148 181 217 265 329
#     4  10  21  35  53  79 117 159 194 227 266 322
#     4  11  22  39  60  84 112 149 188 237 294 344
#
# _framework density 19.261792
#
# number of rings (size 3 to 8) (size 9 to 14) (size 15 to 20)
#    0.000    1.538    4.615    0.923    2.154    2.462 
#    0.000    0.000    0.000    0.000    0.000    6.462 
#    0.000    0.000    0.000    0.000    0.000    0.000 
#
# Total GULP energy -145039.976562 kJ/mol
# GULP energy per Si atom -5578.460637 kJ/mol
# Density = 1.921795 g / cm^3
# Si number density = 19.261792 Si / 1000 Ang^3
#
#
#
# Elastic Constant Matrix: (Units=GPa)
#
#
# Indices 1 2 3 4 5 6 
#
# 1 68.8425 24.9962 14.1818 0.0000 0.0000 0.0000
# 2 24.9962 84.6038 18.6600 0.0000 0.0000 0.0000
# 3 14.1818 18.6600 49.3665 0.0000 0.0000 0.0000
# 4 0.0000 0.0000 0.0000 -44.2087 0.0000 0.0000
# 5 0.0000 0.0000 0.0000 0.0000 26.1967 0.0000
# 6 0.0000 0.0000 0.0000 0.0000 0.0000 -33.1122
#
#
#
# Elastic Compliance Matrix: (Units=1/GPa)
#
#
# Indices 1 2 3 4 5 6 
#
# 1 0.016723 -0.004234 -0.003204 0.000000 0.000000 0.000000
# 2 -0.004234 0.013967 -0.004063 0.000000 0.000000 0.000000
# 3 -0.003204 -0.004063 0.022713 0.000000 0.000000 0.000000
# 4 0.000000 0.000000 0.000000 -0.022620 0.000000 0.000000
# 5 0.000000 0.000000 0.000000 0.000000 0.038173 0.000000
# 6 0.000000 0.000000 0.000000 0.000000 0.000000 -0.030200
#
#
# Mechanical properties :
#
#
# Convention : Reuss Voigt Hill
#
# Bulk Modulus (GPa) = 32.89350 35.38765 34.14058
# Shear Modulus (GPa) = 69.54971 -0.55986 34.49493
#
# Velocity S-wave (km/s) = 6.01548 -0.53971 4.23643
# Velocity P-wave (km/s) = 8.08468 4.24540 6.45700
#
# Compressibility (1/GPa) = 0.03040114
#
# Stress axis : x y z
#
# Youngs Moduli (GPa) = 59.79671 71.59761 44.02817
#
# Poissons Ratio (x) = 0.30317 0.14105
# Poissons Ratio (y) = 0.25320 0.17888
# Poissons Ratio (z) = 0.19157 0.29090
#
# Static dielectric constant tensor:
#      x y z
#    x 1.728060 0.000000 0.000000 
#    y 0.000000 1.724850 0.000000 
#    z 0.000000 0.000000 1.764020 
# 
# From -- ./inp_files/2805.got.cif
#   From: 2010.05.17/outbox.cif.g08.bks.cpg/sg39_2_cif.got.tgz:2805.got - 2010.06.03 18:22:40.
