data_PCOD9360455
_publ_section_title
;
Structure prediction by ZEFSAII (Michael W. Deem and Ramdas Pophale) SiO2 
 PCOD9360455
Probable space group: A B M 2
;
_chemical_formula_sum "Si O2"
_cell_formula_units_Z 56
_cell_length_a 11.614921
_cell_length_b 15.085459
_cell_length_c 14.994843
_cell_angle_alpha 90.000000
_cell_angle_beta 90.000000
_cell_angle_gamma 90.000000
_cell_volume 2627.342627
_symmetry_space_group_name_H-M "A B M 2"
_symmetry_group_IT_number 39
_symmetry_cell_setting 'orthorhombic'
loop_
_space_group_symop_operation_xyz
x,y,z
-x,-y,z
-x,1/2+y,z
x,1/2-y,z
x,1/2+y,1/2+z
-x,1/2-y,1/2+z
-x,y,1/2+z
x,-y,1/2+z
loop_
_atom_site_type_symbol
_atom_site_label
_atom_site_fract_x
_atom_site_fract_y
_atom_site_fract_z
Si Si1 0.849799 0.153794 0.078120
Si Si2 0.586003 0.850373 0.643739
Si Si3 0.421572 0.576118 0.493694
Si Si4 0.672120 0.647378 0.821027
Si Si5 0.942600 0.148060 0.713258
Si Si6 0.160616 0.954709 0.550687
Si Si7 0.919703 0.857470 0.878862
O O1 0.870110 0.250000 0.031303
O O2 0.715890 0.152255 0.105511
O O3 0.933820 0.154318 0.163362
O O4 0.870432 0.057476 0.036185
O O5 0.542979 0.750000 0.654460
O O6 0.500301 0.893487 0.574779
O O7 0.600819 0.894270 0.740393
O O8 0.500000 0.500000 0.450301
O O9 0.393211 0.643315 0.414461
O O10 0.296783 0.551143 0.532089
O O11 0.689771 0.750000 0.795739
O O12 0.799695 0.609343 0.834497
O O13 0.896031 0.250000 0.713968
O O14 0.870256 0.082461 0.649453
O O15 0.973863 0.118399 0.814063
O O16 0.094074 0.893728 0.478839
O O17 0.917402 0.750000 0.881562
#
# Coordination Sequence:
#
# PCOD9360455 Si02
#       7
#     8   8   8   8   8   8   8
#     4  10  20  38  62  87 120 169 218 262 319 386
#     4  10  19  36  62  86 121 168 211 262 326 387
#     4  11  22  36  57  93 129 162 212 273 321 382
#     4   9  18  35  60  87 115 162 215 256 312 389
#     4  10  20  38  66  94 123 160 214 272 323 390
#     4  11  22  38  64  96 130 171 219 266 330 393
#     4   9  18  36  64  95 125 163 212 264 327 399
#
# _framework density 21.314312999999999
#
# number of rings (size 3 to 8) (size 9 to 14) (size 15 to 20)
#    0.000    2.000    2.857    1.286    0.000    2.286 
#    0.000    2.857    3.143    2.571    0.000    0.000 
#    0.000    0.000    0.000    0.000    0.000    0.000 
#
# Total GULP energy -156086.820382 kJ/mol
# GULP energy per Si atom -5574.529299 kJ/mol
# Density = 2.126580 g / cm^3
# Si number density = 21.314313 Si / 1000 Ang^3
#
#
#
# Elastic Constant Matrix: (Units=GPa)
#
#
# Indices 1 2 3 4 5 6 
#
# 1 87.6930 12.1567 19.6720 0.0000 0.0000 0.0000
# 2 12.1567 84.1761 22.0494 0.0000 0.0000 0.0000
# 3 19.6720 22.0494 84.0581 0.0000 0.0000 0.0000
# 4 0.0000 0.0000 0.0000 2.6349 0.0000 0.0000
# 5 0.0000 0.0000 0.0000 0.0000 34.1316 0.0000
# 6 0.0000 0.0000 0.0000 0.0000 0.0000 19.5081
#
#
#
# Elastic Compliance Matrix: (Units=1/GPa)
#
#
# Indices 1 2 3 4 5 6 
#
# 1 0.012126 -0.001082 -0.002554 0.000000 0.000000 0.000000
# 2 -0.001082 0.012853 -0.003118 0.000000 0.000000 0.000000
# 3 -0.002554 -0.003118 0.013312 0.000000 0.000000 0.000000
# 4 0.000000 0.000000 0.000000 0.379522 0.000000 0.000000
# 5 0.000000 0.000000 0.000000 0.000000 0.029298 0.000000
# 6 0.000000 0.000000 0.000000 0.000000 0.000000 0.051261
#
#
# Mechanical properties :
#
#
# Convention : Reuss Voigt Hill
#
# Bulk Modulus (GPa) = 40.35099 40.40926 40.38013
# Shear Modulus (GPa) = 9.61275 24.72486 17.16881
#
# Velocity S-wave (km/s) = 2.12598 3.40959 2.84122
# Velocity P-wave (km/s) = 4.99989 5.87370 5.45432
#
# Compressibility (1/GPa) = 0.02478254
#
# Stress axis : x y z
#
# Youngs Moduli (GPa) = 82.46477 77.80315 75.11916
#
# Poissons Ratio (x) = 0.08420 0.19186
# Poissons Ratio (y) = 0.08925 0.23424
# Poissons Ratio (z) = 0.21062 0.24261
#
# Static dielectric constant tensor:
#      x y z
#    x 1.760670 0.000000 0.000000 
#    y 0.000000 1.827530 0.000000 
#    z 0.000000 0.000000 1.815020 
# 
# From -- ./inp_files/9279.got.cif
#   From: 2010.05.17/outbox.cif.g08.bks.cpg/sg39_5_cif.got.tgz:9279.got - 2010.06.03 18:22:40.
