data_PCOD9360417
_publ_section_title
;
Structure prediction by ZEFSAII (Michael W. Deem and Ramdas Pophale) SiO2 
 PCOD9360417
Probable space group: A B M 2
;
_chemical_formula_sum "Si O2"
_cell_formula_units_Z 64
_cell_length_a 9.125645
_cell_length_b 18.620096
_cell_length_c 19.751706
_cell_angle_alpha 90.000000
_cell_angle_beta 90.000000
_cell_angle_gamma 90.000000
_cell_volume 3356.217507
_symmetry_space_group_name_H-M "A B M 2"
_symmetry_group_IT_number 39
_symmetry_cell_setting 'orthorhombic'
loop_
_space_group_symop_operation_xyz
x,y,z
-x,-y,z
-x,1/2+y,z
x,1/2-y,z
x,1/2+y,1/2+z
-x,1/2-y,1/2+z
-x,y,1/2+z
x,-y,1/2+z
loop_
_atom_site_type_symbol
_atom_site_label
_atom_site_fract_x
_atom_site_fract_y
_atom_site_fract_z
Si Si1 0.038852 0.417074 0.577860
Si Si2 0.115593 0.064392 0.431109
Si Si3 0.722361 0.166899 0.728326
Si Si4 0.729848 0.835957 0.075735
Si Si5 0.896784 0.334438 0.356849
Si Si6 0.402685 0.665683 0.438332
Si Si7 0.603087 0.433816 0.846430
Si Si8 0.924872 0.166292 0.209739
O O1 0.884322 0.376138 0.565415
O O2 0.000000 0.500000 0.591705
O O3 0.133872 0.412446 0.509270
O O4 0.108368 0.380572 0.643966
O O5 0.259092 0.040559 0.391269
O O6 0.036147 0.126447 0.388296
O O7 0.000000 0.000000 0.433625
O O8 0.685071 0.250000 0.745128
O O9 0.672783 0.150656 0.651465
O O10 0.659772 0.111885 0.782612
O O11 0.899485 0.162564 0.723023
O O12 0.758375 0.750000 0.070536
O O13 0.617925 0.855728 0.016500
O O14 0.930009 0.250000 0.350491
O O15 0.757982 0.342822 0.405148
O O16 0.858031 0.359663 0.280807
O O17 0.441776 0.750000 0.434742
O O18 0.513777 0.618811 0.395853
O O19 0.500000 0.500000 0.826765
O O20 0.887594 0.250000 0.197437
#
# Coordination Sequence:
#
# PCOD9360417 Si02
#       8
#     8   8   8   8   8   8   8   8
#     4  10  20  33  56  88 117 149 194 247 299 345
#     4  11  23  39  59  83 117 156 197 246 293 348
#     4   9  18  37  62  86 114 151 198 251 299 353
#     4   9  18  37  64  87 114 154 201 246 299 355
#     4  10  19  35  62  89 113 148 198 246 294 349
#     4  10  21  39  62  88 118 158 198 239 295 360
#     4  12  25  39  57  87 126 161 196 242 300 362
#     4   9  18  35  58  89 118 146 191 251 303 343
#
# _framework density 19.069085999999999
#
# number of rings (size 3 to 8) (size 9 to 14) (size 15 to 20)
#    0.000    2.000    2.500    2.250    1.750    1.500 
#    4.500    1.875    0.000    3.000    0.000    0.000 
#    0.000    0.000    0.000    0.000    0.000    0.000 
#
# Total GULP energy -178632.811614 kJ/mol
# GULP energy per Si atom -5582.275363 kJ/mol
# Density = 1.902568 g / cm^3
# Si number density = 19.069086 Si / 1000 Ang^3
#
#
#
# Elastic Constant Matrix: (Units=GPa)
#
#
# Indices 1 2 3 4 5 6 
#
# 1 30.0388 13.7318 16.1754 0.0000 0.0000 0.0000
# 2 13.7318 51.4250 48.8603 0.0000 0.0000 0.0000
# 3 16.1754 48.8603 153.4074 0.0000 0.0000 0.0000
# 4 0.0000 0.0000 0.0000 58.8013 0.0000 0.0000
# 5 0.0000 0.0000 0.0000 0.0000 15.4880 0.0000
# 6 0.0000 0.0000 0.0000 0.0000 0.0000 22.3883
#
#
#
# Elastic Compliance Matrix: (Units=1/GPa)
#
#
# Indices 1 2 3 4 5 6 
#
# 1 0.038051 -0.009103 -0.001113 0.000000 0.000000 0.000000
# 2 -0.009103 0.030062 -0.008615 0.000000 0.000000 0.000000
# 3 -0.001113 -0.008615 0.009380 0.000000 0.000000 0.000000
# 4 0.000000 0.000000 0.000000 0.017006 0.000000 0.000000
# 5 0.000000 0.000000 0.000000 0.000000 0.064566 0.000000
# 6 0.000000 0.000000 0.000000 0.000000 0.000000 0.044666
#
#
# Mechanical properties :
#
#
# Convention : Reuss Voigt Hill
#
# Bulk Modulus (GPa) = 25.10628 43.60070 34.35349
# Shear Modulus (GPa) = 19.63329 29.74245 24.68787
#
# Velocity S-wave (km/s) = 3.21220 3.95361 3.60203
# Velocity P-wave (km/s) = 5.19155 6.61481 5.94592
#
# Compressibility (1/GPa) = 0.03983067
#
# Stress axis : x y z
#
# Youngs Moduli (GPa) = 26.28063 33.26483 106.61278
#
# Poissons Ratio (x) = 0.30282 0.11863
# Poissons Ratio (y) = 0.23924 0.91845
# Poissons Ratio (z) = 0.02924 0.28657
#
# Static dielectric constant tensor:
#      x y z
#    x 1.645850 0.000000 0.000000 
#    y 0.000000 1.651670 0.000000 
#    z 0.000000 0.000000 1.699890 
# 
# From -- ./inp_files/14237.got.cif
#   From: 2010.05.17/outbox.cif.g08.bks.cpg/sg39_8_cif.got.tgz:14237.got - 2010.06.03 18:22:40.
