data_PCOD9360274
_publ_section_title
;
Structure prediction by ZEFSAII (Michael W. Deem and Ramdas Pophale) SiO2 
 PCOD9360274
Probable space group: A B M 2
;
_chemical_formula_sum "Si O2"
_cell_formula_units_Z 64
_cell_length_a 10.003744
_cell_length_b 15.883250
_cell_length_c 17.879073
_cell_angle_alpha 90.000000
_cell_angle_beta 90.000000
_cell_angle_gamma 90.000000
_cell_volume 2840.841075
_symmetry_space_group_name_H-M "A B M 2"
_symmetry_group_IT_number 39
_symmetry_cell_setting 'orthorhombic'
loop_
_space_group_symop_operation_xyz
x,y,z
-x,-y,z
-x,1/2+y,z
x,1/2-y,z
x,1/2+y,1/2+z
-x,1/2-y,1/2+z
-x,y,1/2+z
x,-y,1/2+z
loop_
_atom_site_type_symbol
_atom_site_label
_atom_site_fract_x
_atom_site_fract_y
_atom_site_fract_z
Si Si1 0.781906 0.350319 0.786090
Si Si2 0.808697 0.124258 0.104097
Si Si3 0.948810 0.091858 0.247486
Si Si4 0.516091 0.655511 0.649658
Si Si5 0.772513 0.649599 0.867976
Si Si6 0.037122 0.400684 0.002240
Si Si7 0.256882 0.072881 0.121567
Si Si8 0.494465 0.648707 0.825210
O O1 0.773520 0.250000 0.781042
O O2 0.761581 0.391606 0.704818
O O3 0.658075 0.381320 0.836754
O O4 0.934880 0.372200 0.800854
O O5 0.905979 0.143643 0.174475
O O6 0.662030 0.161207 0.113476
O O7 0.896798 0.139187 0.030085
O O8 0.774102 0.025340 0.114198
O O9 0.819028 0.092830 0.298574
O O10 0.000000 0.000000 0.224534
O O11 0.457580 0.750000 0.650339
O O12 0.411087 0.596580 0.606570
O O13 0.528426 0.628997 0.737515
O O14 0.776996 0.750000 0.848968
O O15 0.616887 0.624703 0.878815
O O16 0.878099 0.632776 0.932942
O O17 0.144681 0.387917 0.068692
O O18 0.000000 0.500000 0.992394
O O19 0.489989 0.750000 0.829999
#
# Coordination Sequence:
#
# PCOD9360274 Si02
#       8
#     8   8   8   8   8   8   8   8
#     4  10  19  33  58  88 119 153 199 262 312 363
#     4  11  20  37  61  90 125 160 208 258 316 369
#     4  12  21  37  58  88 121 160 201 253 313 377
#     4  10  20  34  57  91 125 156 200 262 315 366
#     4  11  23  39  59  85 120 163 206 251 314 375
#     4  10  22  41  61  86 124 167 210 254 305 377
#     4  10  19  37  59  88 119 157 206 257 312 374
#     4   8  17  34  53  80 116 151 193 245 302 358
#
# _framework density 22.528538999999999
#
# number of rings (size 3 to 8) (size 9 to 14) (size 15 to 20)
#    0.000    1.750    3.750    2.625    0.000    2.000 
#    0.000    1.875    0.000    4.500    0.000    0.000 
#    0.000    0.000    0.000    0.000    0.000    0.000 
#
# Total GULP energy -178351.521673 kJ/mol
# GULP energy per Si atom -5573.485052 kJ/mol
# Density = 2.247726 g / cm^3
# Si number density = 22.528539 Si / 1000 Ang^3
#
#
#
# Elastic Constant Matrix: (Units=GPa)
#
#
# Indices 1 2 3 4 5 6 
#
# 1 180.5254 29.1883 23.9278 0.0000 0.0000 0.0000
# 2 29.1883 43.1036 0.0156 0.0000 0.0000 0.0000
# 3 23.9278 0.0156 26.3988 0.0000 0.0000 0.0000
# 4 0.0000 0.0000 0.0000 -0.7086 0.0000 0.0000
# 5 0.0000 0.0000 0.0000 0.0000 37.3399 0.0000
# 6 0.0000 0.0000 0.0000 0.0000 0.0000 27.4189
#
#
#
# Elastic Compliance Matrix: (Units=1/GPa)
#
#
# Indices 1 2 3 4 5 6 
#
# 1 0.007190 -0.004866 -0.006514 0.000000 0.000000 0.000000
# 2 -0.004866 0.026493 0.004395 0.000000 0.000000 0.000000
# 3 -0.006514 0.004395 0.043782 0.000000 0.000000 0.000000
# 4 0.000000 0.000000 0.000000 -1.411248 0.000000 0.000000
# 5 0.000000 0.000000 0.000000 0.000000 0.026781 0.000000
# 6 0.000000 0.000000 0.000000 0.000000 0.000000 0.036471
#
#
# Mechanical properties :
#
#
# Convention : Reuss Voigt Hill
#
# Bulk Modulus (GPa) = 15.74919 39.58792 27.66855
# Shear Modulus (GPa) = -4.04728 25.93644 10.94458
#
# Velocity S-wave (km/s) = -1.34180 3.39672 2.20650
# Velocity P-wave (km/s) = 2.14602 5.74405 4.33587
#
# Compressibility (1/GPa) = 0.06349533
#
# Stress axis : x y z
#
# Youngs Moduli (GPa) = 139.09108 37.74511 22.84047
#
# Poissons Ratio (x) = 0.18367 0.14878
# Poissons Ratio (y) = 0.67684 -0.10038
# Poissons Ratio (z) = 0.90600 -0.16589
#
# Static dielectric constant tensor:
#      x y z
#    x 1.931140 0.000000 0.000000 
#    y 0.000000 1.950200 0.000000 
#    z 0.000000 0.000000 1.834090 
# 
# From -- ./inp_files/14196.got.cif
#   From: 2010.05.17/outbox.cif.g08.bks.cpg/sg39_8_cif.got.tgz:14196.got - 2010.06.03 18:22:40.
