data_PCOD9360321
_publ_section_title
;
Structure prediction by ZEFSAII (Michael W. Deem and Ramdas Pophale) SiO2 
 PCOD9360321
Probable space group: A B M 2
;
_chemical_formula_sum "Si O2"
_cell_formula_units_Z 60
_cell_length_a 18.254568
_cell_length_b 12.695200
_cell_length_c 12.141865
_cell_angle_alpha 90.000000
_cell_angle_beta 90.000000
_cell_angle_gamma 90.000000
_cell_volume 2813.821260
_symmetry_space_group_name_H-M "A B M 2"
_symmetry_group_IT_number 39
_symmetry_cell_setting 'orthorhombic'
loop_
_space_group_symop_operation_xyz
x,y,z
-x,-y,z
-x,1/2+y,z
x,1/2-y,z
x,1/2+y,1/2+z
-x,1/2-y,1/2+z
-x,y,1/2+z
x,-y,1/2+z
loop_
_atom_site_type_symbol
_atom_site_label
_atom_site_fract_x
_atom_site_fract_y
_atom_site_fract_z
Si Si1 0.726879 0.076792 0.715100
Si Si2 0.516463 0.371041 0.731735
Si Si3 0.373819 0.364397 0.023794
Si Si4 0.291766 0.637393 0.133976
Si Si5 0.371184 0.588789 0.914436
Si Si6 0.881930 0.375103 0.790293
Si Si7 0.873731 0.374157 0.042909
Si Si8 0.000000 0.500000 0.669586
O O1 0.698917 0.125837 0.601004
O O2 0.693206 0.120345 0.828100
O O3 0.813392 0.080208 0.723142
O O4 0.693577 0.959637 0.712117
O O5 0.500000 0.500000 0.728236
O O6 0.479311 0.250000 0.728692
O O7 0.564928 0.366822 0.619794
O O8 0.558678 0.369870 0.849344
O O9 0.375567 0.250000 0.969083
O O10 0.378475 0.464088 0.943224
O O11 0.293419 0.750000 0.189169
O O12 0.348262 0.633916 0.032727
O O13 0.209290 0.618697 0.088203
O O14 0.877421 0.250000 0.784179
O O15 0.872285 0.407999 0.916204
O O16 0.957958 0.415739 0.743920
O O17 0.893351 0.250000 0.049110
O O18 0.936434 0.441447 0.101738
#
# Coordination Sequence:
#
# PCOD9360321 Si02
#       8
#     8   8   8   8   8   8   8   4
#     4  10  19  35  56  83 110 146 189 238 292 348
#     4  10  22  41  63  91 125 166 205 245 294 357
#     4   9  20  37  58  87 122 154 195 245 295 349
#     4  10  19  34  56  82 112 146 187 239 289 341
#     4  10  20  36  63  88 116 151 199 244 292 345
#     4  11  22  36  56  78 105 146 189 231 290 353
#     4  10  21  36  55  78 107 145 188 234 287 345
#     4  12  22  38  54  78 112 146 190 238 288 342
#
# _framework density 21.323316999999999
#
# number of rings (size 3 to 8) (size 9 to 14) (size 15 to 20)
#    0.000    1.867    2.667    1.600    0.000    2.667 
#    0.000    7.333    0.000    0.800    0.000    0.000 
#    0.000    0.000    0.000    0.000    0.000    0.000 
#
# Total GULP energy -167121.357672 kJ/mol
# GULP energy per Si atom -5570.711922 kJ/mol
# Density = 2.127478 g / cm^3
# Si number density = 21.323317 Si / 1000 Ang^3
#
#
#
# Elastic Constant Matrix: (Units=GPa)
#
#
# Indices 1 2 3 4 5 6 
#
# 1 36.7059 19.8900 11.5068 0.0000 0.0000 0.0000
# 2 19.8900 125.9423 14.5350 0.0000 0.0000 0.0000
# 3 11.5068 14.5350 55.6807 0.0000 0.0000 0.0000
# 4 0.0000 0.0000 0.0000 18.5717 0.0000 0.0000
# 5 0.0000 0.0000 0.0000 0.0000 16.3511 0.0000
# 6 0.0000 0.0000 0.0000 0.0000 0.0000 12.9189
#
#
#
# Elastic Compliance Matrix: (Units=1/GPa)
#
#
# Indices 1 2 3 4 5 6 
#
# 1 0.031256 -0.004321 -0.005331 0.000000 0.000000 0.000000
# 2 -0.004321 0.008784 -0.001400 0.000000 0.000000 0.000000
# 3 -0.005331 -0.001400 0.019427 0.000000 0.000000 0.000000
# 4 0.000000 0.000000 0.000000 0.053845 0.000000 0.000000
# 5 0.000000 0.000000 0.000000 0.000000 0.061158 0.000000
# 6 0.000000 0.000000 0.000000 0.000000 0.000000 0.077406
#
#
# Mechanical properties :
#
#
# Convention : Reuss Voigt Hill
#
# Bulk Modulus (GPa) = 26.76488 34.46583 30.61536
# Shear Modulus (GPa) = 17.45595 21.06150 19.25872
#
# Velocity S-wave (km/s) = 2.86428 3.14621 3.00855
# Velocity P-wave (km/s) = 4.84953 5.42188 5.14367
#
# Compressibility (1/GPa) = 0.03736239
#
# Stress axis : x y z
#
# Youngs Moduli (GPa) = 31.99349 113.84150 51.47533
#
# Poissons Ratio (x) = 0.49191 0.27443
# Poissons Ratio (y) = 0.13824 0.07207
# Poissons Ratio (z) = 0.17057 0.15939
#
# Static dielectric constant tensor:
#      x y z
#    x 1.778880 0.000000 0.000000 
#    y 0.000000 1.745850 0.000000 
#    z 0.000000 0.000000 1.718450 
# 
# From -- ./inp_files/7013.got.cif
#   From: 2010.05.17/outbox.cif.g08.bks.cpg/sg39_4_cif.got.tgz:7013.got - 2010.06.03 18:22:40.
