data_PCOD9360918
_publ_section_title
;
Structure prediction by ZEFSAII (Michael W. Deem and Ramdas Pophale) SiO2 
 PCOD9360918
Probable space group: A B M 2
;
_chemical_formula_sum "Si O2"
_cell_formula_units_Z 64
_cell_length_a 13.444516
_cell_length_b 24.799235
_cell_length_c 8.392273
_cell_angle_alpha 90.000000
_cell_angle_beta 90.000000
_cell_angle_gamma 90.000000
_cell_volume 2798.098891
_symmetry_space_group_name_H-M "A B M 2"
_symmetry_group_IT_number 39
_symmetry_cell_setting 'orthorhombic'
loop_
_space_group_symop_operation_xyz
x,y,z
-x,-y,z
-x,1/2+y,z
x,1/2-y,z
x,1/2+y,1/2+z
-x,1/2-y,1/2+z
-x,y,1/2+z
x,-y,1/2+z
loop_
_atom_site_type_symbol
_atom_site_label
_atom_site_fract_x
_atom_site_fract_y
_atom_site_fract_z
Si Si1 0.637051 0.420526 0.793880
Si Si2 0.243943 0.474985 0.793776
Si Si3 0.062520 0.858331 0.654765
Si Si4 0.571537 0.418068 0.423382
Si Si5 0.124782 0.814805 0.310809
Si Si6 0.338234 0.310011 0.892623
Si Si7 0.261687 0.810784 0.761388
Si Si8 0.101594 0.974170 0.564554
O O1 0.723820 0.463120 0.823581
O O2 0.607798 0.425507 0.605572
O O3 0.540158 0.436354 0.894169
O O4 0.674626 0.360233 0.830552
O O5 0.348960 0.444923 0.803143
O O6 0.168534 0.480238 0.648117
O O7 0.175518 0.451525 0.932018
O O8 0.090144 0.840212 0.477127
O O9 0.145878 0.828346 0.761706
O O10 0.073181 0.922749 0.671788
O O11 0.951489 0.838940 0.686132
O O12 0.577748 0.354583 0.384730
O O13 0.115625 0.750000 0.319086
O O14 0.241786 0.825953 0.288571
O O15 0.371415 0.250000 0.850956
O O16 0.296283 0.309157 0.074617
O O17 0.274544 0.750000 0.825442
O O18 0.000000 0.000000 0.501669
#
# Coordination Sequence:
#
# PCOD9360918 Si02
#       8
#     8   8   8   8   8   8   8   8
#     4  11  24  42  65  98 125 168 221 274 329 398
#     4  12  24  47  65  92 132 169 220 272 328 399
#     4  11  22  39  61  92 131 167 224 267 326 394
#     4  11  24  41  67  93 126 169 220 272 335 392
#     4  10  20  36  63  93 125 171 216 264 321 392
#     4   8  17  36  61  89 124 165 209 260 324 393
#     4   9  17  37  63  88 124 168 208 262 325 394
#     4  12  28  42  67  97 132 174 221 271 337 393
#
# _framework density 22.872671
#
# number of rings (size 3 to 8) (size 9 to 14) (size 15 to 20)
#    0.000    1.500    2.500    4.125    7.000    1.500 
#    0.000    1.250    0.000    1.500    0.000    0.000 
#    0.000    0.000    0.000    0.000    0.000    0.000 
#
# Total GULP energy -178791.287651 kJ/mol
# GULP energy per Si atom -5587.227739 kJ/mol
# Density = 2.282061 g / cm^3
# Si number density = 22.872671 Si / 1000 Ang^3
#
#
#
# Elastic Constant Matrix: (Units=GPa)
#
#
# Indices 1 2 3 4 5 6 
#
# 1 74.6173 24.1043 2.1239 0.0000 0.0000 0.0000
# 2 24.1043 89.4889 7.0163 0.0000 0.0000 0.0000
# 3 2.1239 7.0163 18.3567 0.0000 0.0000 0.0000
# 4 0.0000 0.0000 0.0000 20.4532 0.0000 0.0000
# 5 0.0000 0.0000 0.0000 0.0000 25.5454 0.0000
# 6 0.0000 0.0000 0.0000 0.0000 0.0000 26.0114
#
#
#
# Elastic Compliance Matrix: (Units=1/GPa)
#
#
# Indices 1 2 3 4 5 6 
#
# 1 0.014680 -0.003939 -0.000193 0.000000 0.000000 0.000000
# 2 -0.003939 0.012577 -0.004351 0.000000 0.000000 0.000000
# 3 -0.000193 -0.004351 0.056161 0.000000 0.000000 0.000000
# 4 0.000000 0.000000 0.000000 0.048892 0.000000 0.000000
# 5 0.000000 0.000000 0.000000 0.000000 0.039146 0.000000
# 6 0.000000 0.000000 0.000000 0.000000 0.000000 0.038445
#
#
# Mechanical properties :
#
#
# Convention : Reuss Voigt Hill
#
# Bulk Modulus (GPa) = 15.04859 27.66132 21.35496
# Shear Modulus (GPa) = 20.07894 24.34990 22.21442
#
# Velocity S-wave (km/s) = 2.96608 3.26634 3.11982
# Velocity P-wave (km/s) = 4.28062 5.13275 4.72593
#
# Compressibility (1/GPa) = 0.06645142
#
# Stress axis : x y z
#
# Youngs Moduli (GPa) = 68.12164 79.51218 17.80584
#
# Poissons Ratio (x) = 0.31319 0.00343
# Poissons Ratio (y) = 0.26832 0.07748
# Poissons Ratio (z) = 0.01314 0.34598
#
# Static dielectric constant tensor:
#      x y z
#    x 1.806270 0.000000 0.000000 
#    y 0.000000 1.858750 0.000000 
#    z 0.000000 0.000000 1.890200 
# 
# From -- ./inp_files/3511.got.cif
#   From: 2010.05.17/outbox.cif.g08.bks.cpg/sg39_2_cif.got.tgz:3511.got - 2010.06.03 18:22:40.
