data_PCOD9360127
_publ_section_title
;
Structure prediction by ZEFSAII (Michael W. Deem and Ramdas Pophale) SiO2 
 PCOD9360127
Probable space group: A B M 2
;
_chemical_formula_sum "Si O2"
_cell_formula_units_Z 48
_cell_length_a 9.279498
_cell_length_b 8.435804
_cell_length_c 32.446390
_cell_angle_alpha 90.000000
_cell_angle_beta 90.000000
_cell_angle_gamma 90.000000
_cell_volume 2539.904264
_symmetry_space_group_name_H-M "A B M 2"
_symmetry_group_IT_number 39
_symmetry_cell_setting 'orthorhombic'
loop_
_space_group_symop_operation_xyz
x,y,z
-x,-y,z
-x,1/2+y,z
x,1/2-y,z
x,1/2+y,1/2+z
-x,1/2-y,1/2+z
-x,y,1/2+z
x,-y,1/2+z
loop_
_atom_site_type_symbol
_atom_site_label
_atom_site_fract_x
_atom_site_fract_y
_atom_site_fract_z
Si Si1 0.335519 0.560478 0.399790
Si Si2 0.836933 0.441717 0.480447
Si Si3 0.336792 0.558449 0.561510
Si Si4 0.334889 0.060197 0.313226
Si Si5 0.837118 0.941764 0.142554
Si Si6 0.335592 0.558422 0.722869
O O1 0.500000 0.500000 0.403431
O O2 0.340396 0.750000 0.400014
O O3 0.242654 0.504483 0.438703
O O4 0.272224 0.505963 0.355727
O O5 0.837136 0.250000 0.480370
O O6 0.748206 0.494860 0.520672
O O7 0.000000 0.500000 0.482178
O O8 0.500000 0.500000 0.561224
O O9 0.337809 0.750000 0.561484
O O10 0.253747 0.505439 0.602706
O O11 0.333885 0.250000 0.315532
O O12 0.277278 0.010509 0.268234
O O13 0.500000 0.000000 0.312951
O O14 0.837233 0.750000 0.142758
O O15 0.760162 0.996817 0.184632
O O16 0.000000 0.000000 0.140040
O O17 0.500000 0.500000 0.718539
O O18 0.339104 0.750000 0.722256
#
# Coordination Sequence:
#
# PCOD9360127 Si02
#       6
#     8   8   8   8   8   8
#     4  10  19  32  51  76 103 132 171 213 253 300
#     4  10  22  37  53  76 105 136 170 208 251 302
#     4  10  21  37  57  81 105 131 168 210 251 300
#     4   9  16  28  48  73 101 132 168 211 256 297
#     4  10  21  36  53  76 106 137 170 207 250 302
#     4   9  18  32  51  76 103 132 170 213 253 299
#
# _framework density 18.898351000000002
#
# number of rings (size 3 to 8) (size 9 to 14) (size 15 to 20)
#    0.000    2.333    0.000    3.500    0.000    4.000 
#    0.000    0.833    0.000    4.000    0.000    0.000 
#    0.000    0.000    0.000    0.000    0.000    0.000 
#
# Total GULP energy -133905.031799 kJ/mol
# GULP energy per Si atom -5579.376325 kJ/mol
# Density = 1.885534 g / cm^3
# Si number density = 18.898351 Si / 1000 Ang^3
#
#
#
# Elastic Constant Matrix: (Units=GPa)
#
#
# Indices 1 2 3 4 5 6 
#
# 1 128.2706 13.4633 108.7571 0.0000 0.0000 0.0000
# 2 13.4633 15.8061 31.6734 0.0000 0.0000 0.0000
# 3 108.7571 31.6734 240.7501 0.0000 0.0000 0.0000
# 4 0.0000 0.0000 0.0000 110.8942 0.0000 0.0000
# 5 0.0000 0.0000 0.0000 0.0000 -2.2845 0.0000
# 6 0.0000 0.0000 0.0000 0.0000 0.0000 29.0803
#
#
#
# Elastic Compliance Matrix: (Units=1/GPa)
#
#
# Indices 1 2 3 4 5 6 
#
# 1 0.012646 0.000918 -0.005833 0.000000 0.000000 0.000000
# 2 0.000918 0.085984 -0.011727 0.000000 0.000000 0.000000
# 3 -0.005833 -0.011727 0.008332 0.000000 0.000000 0.000000
# 4 0.000000 0.000000 0.000000 0.009018 0.000000 0.000000
# 5 0.000000 0.000000 0.000000 0.000000 -0.437724 0.000000
# 6 0.000000 0.000000 0.000000 0.000000 0.000000 0.034388
#
#
# Mechanical properties :
#
#
# Convention : Reuss Voigt Hill
#
# Bulk Modulus (GPa) = 13.57278 76.95715 45.26497
# Shear Modulus (GPa) = -21.78511 42.93353 10.57421
#
# Velocity S-wave (km/s) = -3.39890 4.77153 2.36801
# Velocity P-wave (km/s) = 2.86458 8.43603 5.61074
#
# Compressibility (1/GPa) = 0.07367685
#
# Stress axis : x y z
#
# Youngs Moduli (GPa) = 79.07911 11.63007 120.02423
#
# Poissons Ratio (x) = -0.01068 0.70014
# Poissons Ratio (y) = -0.07260 1.40751
# Poissons Ratio (z) = 0.46129 0.13638
#
# Static dielectric constant tensor:
#      x y z
#    x 1.593440 0.000000 0.000000 
#    y 0.000000 1.495000 0.000000 
#    z 0.000000 0.000000 1.702220 
# 
# From -- ./inp_files/17591.got.cif
#   From: 2010.05.17/outbox.cif.g08.bks.cpg/sg39_9_cif.got.tgz:17591.got - 2010.06.03 18:22:40.
