data_PCOD9360308
_publ_section_title
;
Structure prediction by ZEFSAII (Michael W. Deem and Ramdas Pophale) SiO2 
 PCOD9360308
Probable space group: A B M 2
;
_chemical_formula_sum "Si O2"
_cell_formula_units_Z 56
_cell_length_a 5.164601
_cell_length_b 14.398386
_cell_length_c 35.214560
_cell_angle_alpha 90.000000
_cell_angle_beta 90.000000
_cell_angle_gamma 90.000000
_cell_volume 2618.622249
_symmetry_space_group_name_H-M "A B M 2"
_symmetry_group_IT_number 39
_symmetry_cell_setting 'orthorhombic'
loop_
_space_group_symop_operation_xyz
x,y,z
-x,-y,z
-x,1/2+y,z
x,1/2-y,z
x,1/2+y,1/2+z
-x,1/2-y,1/2+z
-x,y,1/2+z
x,-y,1/2+z
loop_
_atom_site_type_symbol
_atom_site_label
_atom_site_fract_x
_atom_site_fract_y
_atom_site_fract_z
Si Si1 0.858069 0.640410 0.219310
Si Si2 0.709859 0.750000 0.985402
Si Si3 0.102324 0.097732 0.044036
Si Si4 0.746971 0.066367 0.885783
Si Si5 0.358126 0.364039 0.676705
Si Si6 0.251238 0.436153 0.299714
Si Si7 0.793327 0.750000 0.436447
Si Si8 0.590590 0.141470 0.090624
O O1 0.867602 0.750000 0.212416
O O2 0.629919 0.602922 0.193093
O O3 0.790296 0.627336 0.263277
O O4 0.132132 0.603379 0.204856
O O5 0.416041 0.750000 0.970735
O O6 0.912086 0.750000 0.950948
O O7 0.781378 0.837982 0.011355
O O8 0.339997 0.089091 0.073785
O O9 0.846770 0.137471 0.064662
O O10 0.000000 0.000000 0.028635
O O11 0.727196 0.103628 0.842222
O O12 0.751665 0.155483 0.912815
O O13 0.500000 0.000000 0.892626
O O14 0.000000 0.000000 0.889528
O O15 0.358102 0.250000 0.677365
O O16 0.331267 0.390180 0.632792
O O17 0.500000 0.500000 0.293247
O O18 0.000000 0.500000 0.300855
O O19 0.507488 0.250000 0.092649
#
# Coordination Sequence:
#
# PCOD9360308 Si02
#       8
#     8   4   8   8   8   8   4   8
#     4  10  19  34  55  86 120 160 216 258 304 371
#     4  12  26  46  68 104 131 168 209 264 328 400
#     4  12  25  43  67  97 130 167 214 266 321 387
#     4  10  23  44  68 100 137 173 219 272 321 387
#     4   9  19  33  56  87 119 163 210 261 316 359
#     4  10  21  38  59  85 123 168 207 256 321 369
#     4  12  26  44  76 100 133 172 221 254 336 410
#     4  11  20  41  67  88 126 175 219 268 323 380
#
# _framework density 21.385290999999999
#
# number of rings (size 3 to 8) (size 9 to 14) (size 15 to 20)
#    0.000    1.429    1.429    3.857    1.000    4.000 
#    0.000    7.143    0.000    0.000    0.000    0.000 
#    0.000    0.000    0.000    0.000    0.000    0.000 
#
# Total GULP energy -156516.665909 kJ/mol
# GULP energy per Si atom -5589.880925 kJ/mol
# Density = 2.133662 g / cm^3
# Si number density = 21.385291 Si / 1000 Ang^3
#
#
#
# Elastic Constant Matrix: (Units=GPa)
#
#
# Indices 1 2 3 4 5 6 
#
# 1 121.1947 12.3439 9.2249 0.0000 0.0000 0.0000
# 2 12.3439 73.5255 25.9063 0.0000 0.0000 0.0000
# 3 9.2249 25.9063 72.8081 0.0000 0.0000 0.0000
# 4 0.0000 0.0000 0.0000 -156.5569 0.0000 0.0000
# 5 0.0000 0.0000 0.0000 0.0000 37.9704 0.0000
# 6 0.0000 0.0000 0.0000 0.0000 0.0000 22.8014
#
#
#
# Elastic Compliance Matrix: (Units=1/GPa)
#
#
# Indices 1 2 3 4 5 6 
#
# 1 0.008421 -0.001187 -0.000645 0.000000 0.000000 0.000000
# 2 -0.001187 0.015717 -0.005442 0.000000 0.000000 0.000000
# 3 -0.000645 -0.005442 0.015753 0.000000 0.000000 0.000000
# 4 0.000000 0.000000 0.000000 -0.006387 0.000000 0.000000
# 5 0.000000 0.000000 0.000000 0.000000 0.026336 0.000000
# 6 0.000000 0.000000 0.000000 0.000000 0.000000 0.043857
#
#
# Mechanical properties :
#
#
# Convention : Reuss Voigt Hill
#
# Bulk Modulus (GPa) = 39.45656 40.27539 39.86597
# Shear Modulus (GPa) = 39.46565 -4.48681 17.48942
#
# Velocity S-wave (km/s) = 4.30054 -1.45005 2.86287
# Velocity P-wave (km/s) = 6.56886 4.00881 5.44153
#
# Compressibility (1/GPa) = 0.02534433
#
# Stress axis : x y z
#
# Youngs Moduli (GPa) = 118.74901 63.62352 63.48059
#
# Poissons Ratio (x) = 0.07550 0.04093
# Poissons Ratio (y) = 0.14091 0.34547
# Poissons Ratio (z) = 0.07656 0.34625
#
# Static dielectric constant tensor:
#      x y z
#    x 1.741430 0.000000 0.000000 
#    y 0.000000 1.829910 0.000000 
#    z 0.000000 0.000000 1.781060 
# 
# From -- ./inp_files/17338.got.cif
#   From: 2010.05.17/outbox.cif.g08.bks.cpg/sg39_9_cif.got.tgz:17338.got - 2010.06.03 18:22:40.
