data_PCOD9360282
_publ_section_title
;
Structure prediction by ZEFSAII (Michael W. Deem and Ramdas Pophale) SiO2 
 PCOD9360282
Probable space group: A B M 2
;
_chemical_formula_sum "Si O2"
_cell_formula_units_Z 48
_cell_length_a 8.951046
_cell_length_b 13.985793
_cell_length_c 18.552124
_cell_angle_alpha 90.000000
_cell_angle_beta 90.000000
_cell_angle_gamma 90.000000
_cell_volume 2322.493587
_symmetry_space_group_name_H-M "A B M 2"
_symmetry_group_IT_number 39
_symmetry_cell_setting 'orthorhombic'
loop_
_space_group_symop_operation_xyz
x,y,z
-x,-y,z
-x,1/2+y,z
x,1/2-y,z
x,1/2+y,1/2+z
-x,1/2-y,1/2+z
-x,y,1/2+z
x,-y,1/2+z
loop_
_atom_site_type_symbol
_atom_site_label
_atom_site_fract_x
_atom_site_fract_y
_atom_site_fract_z
Si Si1 0.376547 0.360822 0.385380
Si Si2 0.767042 0.859163 0.077140
Si Si3 0.320544 0.510917 0.168746
Si Si4 0.317379 0.140619 0.801230
Si Si5 0.165944 0.460603 0.923858
Si Si6 0.581831 0.852676 0.551744
O O1 0.321784 0.250000 0.373830
O O2 0.513046 0.377662 0.330517
O O3 0.263164 0.449308 0.392517
O O4 0.438918 0.363592 0.466835
O O5 0.825415 0.750000 0.076724
O O6 0.586389 0.853067 0.079767
O O7 0.785816 0.921263 0.150140
O O8 0.806913 0.916416 0.003914
O O9 0.500000 0.500000 0.182576
O O10 0.270791 0.572210 0.236473
O O11 0.323690 0.569667 0.093568
O O12 0.314602 0.250000 0.776855
O O13 0.209206 0.123175 0.868711
O O14 0.000000 0.500000 0.922184
O O15 0.653096 0.750000 0.565182
#
# Coordination Sequence:
#
# PCOD9360282 Si02
#       6
#     8   8   8   8   8   8
#     4  10  20  36  61  92 121 157 207 259 309 365
#     4  10  20  36  60  89 122 161 201 247 306 366
#     4  10  19  33  59  95 125 155 198 257 316 371
#     4  11  23  40  65  93 123 160 206 262 320 378
#     4  12  24  39  61  90 128 169 214 255 308 369
#     4   9  16  30  57  89 119 150 194 250 304 356
#
# _framework density 20.667441
#
# number of rings (size 3 to 8) (size 9 to 14) (size 15 to 20)
#    0.000    1.667    3.333    2.500    0.000    2.000 
#    0.000    1.667    0.000    2.000    0.000    0.000 
#    0.000    0.000    0.000    0.000    0.000    0.000 
#
# Total GULP energy -133619.982189 kJ/mol
# GULP energy per Si atom -5567.499258 kJ/mol
# Density = 2.062040 g / cm^3
# Si number density = 20.667441 Si / 1000 Ang^3
#
#
#
# Elastic Constant Matrix: (Units=GPa)
#
#
# Indices 1 2 3 4 5 6 
#
# 1 33.5839 32.5614 14.7455 0.0000 0.0000 0.0000
# 2 32.5614 120.4098 58.2417 0.0000 0.0000 0.0000
# 3 14.7455 58.2417 103.7286 0.0000 0.0000 0.0000
# 4 0.0000 0.0000 0.0000 35.2572 0.0000 0.0000
# 5 0.0000 0.0000 0.0000 0.0000 -2.0707 0.0000
# 6 0.0000 0.0000 0.0000 0.0000 0.0000 10.4867
#
#
#
# Elastic Compliance Matrix: (Units=1/GPa)
#
#
# Indices 1 2 3 4 5 6 
#
# 1 0.040379 -0.011179 0.000537 0.000000 0.000000 0.000000
# 2 -0.011179 0.014496 -0.006550 0.000000 0.000000 0.000000
# 3 0.000537 -0.006550 0.013242 0.000000 0.000000 0.000000
# 4 0.000000 0.000000 0.000000 0.028363 0.000000 0.000000
# 5 0.000000 0.000000 0.000000 0.000000 -0.482938 0.000000
# 6 0.000000 0.000000 0.000000 0.000000 0.000000 0.095359
#
#
# Mechanical properties :
#
#
# Convention : Reuss Voigt Hill
#
# Bulk Modulus (GPa) = 29.64502 52.09106 40.86804
# Shear Modulus (GPa) = -20.36922 18.87956 -0.74483
#
# Velocity S-wave (km/s) = -3.14279 3.02568 -0.60097
# Velocity P-wave (km/s) = 1.09795 6.12090 4.39721
#
# Compressibility (1/GPa) = 0.03373248
#
# Stress axis : x y z
#
# Youngs Moduli (GPa) = 24.76524 68.98274 75.51666
#
# Poissons Ratio (x) = 0.77116 -0.04053
# Poissons Ratio (y) = 0.27685 0.49466
# Poissons Ratio (z) = -0.01329 0.45186
#
# Static dielectric constant tensor:
#      x y z
#    x 1.711200 0.000000 0.000000 
#    y 0.000000 1.889430 0.000000 
#    z 0.000000 0.000000 1.742220 
# 
# From -- ./inp_files/11626.got.cif
#   From: 2010.05.17/outbox.cif.g08.bks.cpg/sg39_6_cif.got.tgz:11626.got - 2010.06.03 18:22:40.
