data_PCOD9360376
_publ_section_title
;
Structure prediction by ZEFSAII (Michael W. Deem and Ramdas Pophale) SiO2 
 PCOD9360376
Probable space group: A B M 2
;
_chemical_formula_sum "Si O2"
_cell_formula_units_Z 60
_cell_length_a 12.811328
_cell_length_b 21.515623
_cell_length_c 12.542289
_cell_angle_alpha 90.000000
_cell_angle_beta 90.000000
_cell_angle_gamma 90.000000
_cell_volume 3457.202989
_symmetry_space_group_name_H-M "A B M 2"
_symmetry_group_IT_number 39
_symmetry_cell_setting 'orthorhombic'
loop_
_space_group_symop_operation_xyz
x,y,z
-x,-y,z
-x,1/2+y,z
x,1/2-y,z
x,1/2+y,1/2+z
-x,1/2-y,1/2+z
-x,y,1/2+z
x,-y,1/2+z
loop_
_atom_site_type_symbol
_atom_site_label
_atom_site_fract_x
_atom_site_fract_y
_atom_site_fract_z
Si Si1 0.201602 0.581732 0.324390
Si Si2 0.500000 0.500000 0.111045
Si Si3 0.865891 0.554152 0.587162
Si Si4 0.281202 0.175965 0.104099
Si Si5 0.910511 0.409438 0.535191
Si Si6 0.319342 0.029899 0.445320
Si Si7 0.565534 0.609717 0.266792
Si Si8 0.630306 0.822949 0.869392
O O1 0.163698 0.561354 0.209740
O O2 0.109646 0.595359 0.408483
O O3 0.269703 0.528023 0.381608
O O4 0.274971 0.641291 0.313462
O O5 0.513560 0.560154 0.185718
O O6 0.399605 0.506107 0.034923
O O7 0.885534 0.480539 0.568356
O O8 0.771116 0.567339 0.506750
O O9 0.967784 0.595312 0.562657
O O10 0.261861 0.250000 0.113790
O O11 0.173472 0.137040 0.088951
O O12 0.350175 0.149659 0.200789
O O13 0.348688 0.165814 0.995492
O O14 0.378045 0.071201 0.359296
O O15 0.476525 0.650130 0.323395
O O16 0.634839 0.750000 0.851130
#
# Coordination Sequence:
#
# PCOD9360376 Si02
#       8
#     8   4   8   8   8   8   8   8
#     4  10  19  35  54  76 108 143 176 220 278 332
#     4  12  22  34  54  84 118 152 180 222 286 348
#     4  10  20  34  56  83 109 136 175 231 284 329
#     4  10  21  38  57  77 108 150 192 229 275 342
#     4   9  20  35  54  80 106 139 182 224 273 335
#     4  11  21  33  53  84 112 140 179 224 277 341
#     4  12  21  33  55  82 112 143 180 230 282 331
#     4  10  21  36  53  75 105 145 187 221 264 333
#
# _framework density 17.355070000000001
#
# number of rings (size 3 to 8) (size 9 to 14) (size 15 to 20)
#    0.000    1.600    0.000    8.000    0.000    5.333 
#    0.000    0.667    0.000    5.600    0.000    0.000 
#    0.000    0.000    0.000    0.000    0.000    0.000 
#
# Total GULP energy -167475.436050 kJ/mol
# GULP energy per Si atom -5582.514535 kJ/mol
# Density = 1.731557 g / cm^3
# Si number density = 17.355070 Si / 1000 Ang^3
#
#
#
# Elastic Constant Matrix: (Units=GPa)
#
#
# Indices 1 2 3 4 5 6 
#
# 1 125.9699 54.4999 69.9769 0.0000 0.0000 0.0000
# 2 54.4999 84.9408 43.4796 0.0000 0.0000 0.0000
# 3 69.9769 43.4796 97.6742 0.0000 0.0000 0.0000
# 4 0.0000 0.0000 0.0000 15.5627 0.0000 0.0000
# 5 0.0000 0.0000 0.0000 0.0000 22.9212 0.0000
# 6 0.0000 0.0000 0.0000 0.0000 0.0000 20.7473
#
#
#
# Elastic Compliance Matrix: (Units=1/GPa)
#
#
# Indices 1 2 3 4 5 6 
#
# 1 0.014810 -0.005273 -0.008263 0.000000 0.000000 0.000000
# 2 -0.005273 0.017124 -0.003845 0.000000 0.000000 0.000000
# 3 -0.008263 -0.003845 0.017870 0.000000 0.000000 0.000000
# 4 0.000000 0.000000 0.000000 0.064256 0.000000 0.000000
# 5 0.000000 0.000000 0.000000 0.000000 0.043628 0.000000
# 6 0.000000 0.000000 0.000000 0.000000 0.000000 0.048199
#
#
# Mechanical properties :
#
#
# Convention : Reuss Voigt Hill
#
# Bulk Modulus (GPa) = 66.48178 71.61088 69.04633
# Shear Modulus (GPa) = 20.35312 21.22149 20.78731
#
# Velocity S-wave (km/s) = 3.42826 3.50063 3.46463
# Velocity P-wave (km/s) = 7.35259 7.59546 7.47501
#
# Compressibility (1/GPa) = 0.01504172
#
# Stress axis : x y z
#
# Youngs Moduli (GPa) = 67.52322 58.39662 55.96012
#
# Poissons Ratio (x) = 0.30790 0.46240
# Poissons Ratio (y) = 0.35602 0.21519
# Poissons Ratio (z) = 0.55795 0.22456
#
# Static dielectric constant tensor:
#      x y z
#    x 1.619400 0.000000 0.000000 
#    y 0.000000 1.585750 0.000000 
#    z 0.000000 0.000000 1.577730 
# 
# From -- ./inp_files/6022.got.cif
#   From: 2010.05.17/outbox.cif.g08.bks.cpg/sg39_4_cif.got.tgz:6022.got - 2010.06.03 18:22:40.
