data_PCOD9360805
_publ_section_title
;
Structure prediction by ZEFSAII (Michael W. Deem and Ramdas Pophale) SiO2 
 PCOD9360805
Probable space group: A B M 2
;
_chemical_formula_sum "Si O2"
_cell_formula_units_Z 64
_cell_length_a 24.090636
_cell_length_b 8.719462
_cell_length_c 15.555462
_cell_angle_alpha 90.000000
_cell_angle_beta 90.000000
_cell_angle_gamma 90.000000
_cell_volume 3267.539673
_symmetry_space_group_name_H-M "A B M 2"
_symmetry_group_IT_number 39
_symmetry_cell_setting 'orthorhombic'
loop_
_space_group_symop_operation_xyz
x,y,z
-x,-y,z
-x,1/2+y,z
x,1/2-y,z
x,1/2+y,1/2+z
-x,1/2-y,1/2+z
-x,y,1/2+z
x,-y,1/2+z
loop_
_atom_site_type_symbol
_atom_site_label
_atom_site_fract_x
_atom_site_fract_y
_atom_site_fract_z
Si Si1 0.561391 0.933114 0.344820
Si Si2 0.939620 0.067687 0.614493
Si Si3 0.119744 0.069559 0.453649
Si Si4 0.234064 0.931068 0.509363
Si Si5 0.638894 0.065709 0.494714
Si Si6 0.858365 0.434307 0.766435
Si Si7 0.753476 0.430547 0.195707
Si Si8 0.625826 0.432203 0.185621
O O1 0.560269 0.750000 0.348192
O O2 0.500000 0.000000 0.356547
O O3 0.600734 0.997288 0.420377
O O4 0.585233 0.988218 0.252976
O O5 0.942501 0.250000 0.620431
O O6 0.894454 0.014926 0.684776
O O7 0.917567 0.019932 0.521212
O O8 0.000000 0.000000 0.630990
O O9 0.111612 0.250000 0.467628
O O10 0.109335 0.032346 0.354245
O O11 0.183934 0.026399 0.470046
O O12 0.224301 0.750000 0.496433
O O13 0.296029 0.970511 0.477771
O O14 0.234866 0.969716 0.610758
O O15 0.633759 0.250000 0.496957
O O16 0.623872 0.999132 0.588961
O O17 0.849603 0.250000 0.762364
O O18 0.799024 0.517425 0.763973
O O19 0.760089 0.250000 0.175933
O O20 0.689200 0.454795 0.218785
O O21 0.615128 0.250000 0.182708
#
# Coordination Sequence:
#
# PCOD9360805 Si02
#       8
#     8   8   8   8   8   8   8   8
#     4  12  26  44  66  92 125 168 215 264 317 377
#     4  11  24  44  66  88 121 166 209 261 313 367
#     4  11  23  39  61  93 126 163 207 255 307 368
#     4  10  20  36  60  90 128 166 203 253 311 368
#     4  10  22  41  64  93 128 167 211 261 316 376
#     4  10  23  40  60  90 127 163 204 253 308 367
#     4  10  20  35  61  92 126 164 205 252 307 369
#     4  10  22  41  63  94 129 165 211 261 314 377
#
# _framework density 19.586601000000002
#
# number of rings (size 3 to 8) (size 9 to 14) (size 15 to 20)
#    0.000    1.500    1.250    3.375    1.750    5.500 
#    0.000    3.750    0.000    0.000    0.000    0.000 
#    0.000    0.000    0.000    0.000    0.000    0.000 
#
# Total GULP energy -178878.920512 kJ/mol
# GULP energy per Si atom -5589.966266 kJ/mol
# Density = 1.954202 g / cm^3
# Si number density = 19.586601 Si / 1000 Ang^3
#
#
#
# Elastic Constant Matrix: (Units=GPa)
#
#
# Indices 1 2 3 4 5 6 
#
# 1 55.0261 19.1823 -0.6584 0.0000 0.0000 0.0000
# 2 19.1823 58.1851 6.8657 0.0000 0.0000 0.0000
# 3 -0.6584 6.8657 26.6978 0.0000 0.0000 0.0000
# 4 0.0000 0.0000 0.0000 32.2605 0.0000 0.0000
# 5 0.0000 0.0000 0.0000 0.0000 11.4698 0.0000
# 6 0.0000 0.0000 0.0000 0.0000 0.0000 33.2355
#
#
#
# Elastic Compliance Matrix: (Units=1/GPa)
#
#
# Indices 1 2 3 4 5 6 
#
# 1 0.020673 -0.007091 0.002333 0.000000 0.000000 0.000000
# 2 -0.007091 0.020156 -0.005358 0.000000 0.000000 0.000000
# 3 0.002333 -0.005358 0.038892 0.000000 0.000000 0.000000
# 4 0.000000 0.000000 0.000000 0.030998 0.000000 0.000000
# 5 0.000000 0.000000 0.000000 0.000000 0.087186 0.000000
# 6 0.000000 0.000000 0.000000 0.000000 0.000000 0.030088
#
#
# Mechanical properties :
#
#
# Convention : Reuss Voigt Hill
#
# Bulk Modulus (GPa) = 16.80969 21.18760 18.99864
# Shear Modulus (GPa) = 18.65296 23.02780 20.84038
#
# Velocity S-wave (km/s) = 3.08934 3.43256 3.26546
# Velocity P-wave (km/s) = 4.61803 5.15275 4.89270
#
# Compressibility (1/GPa) = 0.05948951
#
# Stress axis : x y z
#
# Youngs Moduli (GPa) = 48.37238 49.61195 25.71243
#
# Poissons Ratio (x) = 0.35178 -0.05999
# Poissons Ratio (y) = 0.34300 0.13778
# Poissons Ratio (z) = -0.11287 0.26584
#
# Static dielectric constant tensor:
#      x y z
#    x 1.669240 0.000000 0.000000 
#    y 0.000000 1.652920 0.000000 
#    z 0.000000 0.000000 1.684760 
# 
# From -- ./inp_files/10615.got.cif
#   From: 2010.05.17/outbox.cif.g08.bks.cpg/sg39_6_cif.got.tgz:10615.got - 2010.06.03 18:22:40.
