data_PCOD9360740
_publ_section_title
;
Structure prediction by ZEFSAII (Michael W. Deem and Ramdas Pophale) SiO2 
 PCOD9360740
Probable space group: A B M 2
;
_chemical_formula_sum "Si O2"
_cell_formula_units_Z 64
_cell_length_a 14.474671
_cell_length_b 8.393171
_cell_length_c 26.909770
_cell_angle_alpha 90.000000
_cell_angle_beta 90.000000
_cell_angle_gamma 90.000000
_cell_volume 3269.224602
_symmetry_space_group_name_H-M "A B M 2"
_symmetry_group_IT_number 39
_symmetry_cell_setting 'orthorhombic'
loop_
_space_group_symop_operation_xyz
x,y,z
-x,-y,z
-x,1/2+y,z
x,1/2-y,z
x,1/2+y,1/2+z
-x,1/2-y,1/2+z
-x,y,1/2+z
x,-y,1/2+z
loop_
_atom_site_type_symbol
_atom_site_label
_atom_site_fract_x
_atom_site_fract_y
_atom_site_fract_z
Si Si1 0.790259 0.942571 0.616650
Si Si2 0.395568 0.942337 0.855735
Si Si3 0.604410 0.057611 0.074600
Si Si4 0.605833 0.442032 0.965212
Si Si5 0.105869 0.439730 0.018590
Si Si6 0.895256 0.940536 0.714980
Si Si7 0.894404 0.441116 0.912374
Si Si8 0.210530 0.442763 0.312009
O O1 0.791106 0.750000 0.617594
O O2 0.683216 0.994409 0.612892
O O3 0.843437 0.000970 0.665406
O O4 0.841137 0.995257 0.566420
O O5 0.398330 0.750000 0.856063
O O6 0.360479 0.994371 0.910928
O O7 0.317566 0.993352 0.816902
O O8 0.500000 0.000000 0.847587
O O9 0.601180 0.250000 0.074248
O O10 0.500000 0.000000 0.083053
O O11 0.638867 0.003573 0.019428
O O12 0.500000 0.500000 0.964958
O O13 0.611529 0.250000 0.965423
O O14 0.106280 0.250000 0.019036
O O15 0.000000 0.500000 0.021214
O O16 0.144096 0.498631 0.965263
O O17 0.896726 0.750000 0.713108
O O18 0.840910 0.992926 0.764030
O O19 0.000000 0.000000 0.716414
O O20 0.893011 0.250000 0.914175
O O21 0.840883 0.492734 0.862892
O O22 0.000000 0.500000 0.908800
O O23 0.207630 0.250000 0.310523
#
# Coordination Sequence:
#
# PCOD9360740 Si02
#       8
#     8   8   8   8   8   8   8   8
#     4  10  22  39  60  85 114 153 195 238 290 345
#     4   9  18  33  53  81 114 151 193 233 282 335
#     4   9  18  33  55  81 115 152 191 235 281 334
#     4   8  14  26  47  73 105 144 181 222 268 320
#     4  11  22  36  56  84 116 150 187 233 289 350
#     4  11  24  42  64  87 113 147 193 244 296 349
#     4  10  20  35  56  81 114 150 185 230 288 353
#     4  10  22  38  60  86 114 151 195 239 291 346
#
# _framework density 19.576508
#
# number of rings (size 3 to 8) (size 9 to 14) (size 15 to 20)
#    0.000    2.250    0.000    3.375    1.750    5.000 
#    0.000    0.625    0.000    3.000    0.000    0.000 
#    0.000    0.000    0.000    0.000    0.000    0.000 
#
# Total GULP energy -178539.717445 kJ/mol
# GULP energy per Si atom -5579.366170 kJ/mol
# Density = 1.953195 g / cm^3
# Si number density = 19.576508 Si / 1000 Ang^3
#
#
#
# Elastic Constant Matrix: (Units=GPa)
#
#
# Indices 1 2 3 4 5 6 
#
# 1 145.6059 21.4587 101.9282 0.0000 0.0000 0.0000
# 2 21.4587 21.1293 25.9922 0.0000 0.0000 0.0000
# 3 101.9282 25.9922 159.0338 0.0000 0.0000 0.0000
# 4 0.0000 0.0000 0.0000 19.1448 0.0000 0.0000
# 5 0.0000 0.0000 0.0000 0.0000 35.0496 0.0000
# 6 0.0000 0.0000 0.0000 0.0000 0.0000 19.7868
#
#
#
# Elastic Compliance Matrix: (Units=1/GPa)
#
#
# Indices 1 2 3 4 5 6 
#
# 1 0.012672 -0.003603 -0.007533 0.000000 0.000000 0.000000
# 2 -0.003603 0.060262 -0.007540 0.000000 0.000000 0.000000
# 3 -0.007533 -0.007540 0.012348 0.000000 0.000000 0.000000
# 4 0.000000 0.000000 0.000000 0.052233 0.000000 0.000000
# 5 0.000000 0.000000 0.000000 0.000000 0.028531 0.000000
# 6 0.000000 0.000000 0.000000 0.000000 0.000000 0.050539
#
#
# Mechanical properties :
#
#
# Convention : Reuss Voigt Hill
#
# Bulk Modulus (GPa) = 20.86345 69.39193 45.12769
# Shear Modulus (GPa) = 18.52440 26.55557 22.53998
#
# Velocity S-wave (km/s) = 3.07947 3.68707 3.39688
# Velocity P-wave (km/s) = 4.82956 7.32458 6.20379
#
# Compressibility (1/GPa) = 0.04793072
#
# Stress axis : x y z
#
# Youngs Moduli (GPa) = 78.91323 16.59421 80.98258
#
# Poissons Ratio (x) = 0.05979 0.61004
# Poissons Ratio (y) = 0.28432 0.61060
# Poissons Ratio (z) = 0.59445 0.12512
#
# Static dielectric constant tensor:
#      x y z
#    x 1.691880 0.000000 0.000000 
#    y 0.000000 1.697950 0.000000 
#    z 0.000000 0.000000 1.694850 
# 
# From -- ./inp_files/16228.got.cif
#   From: 2010.05.17/outbox.cif.g08.bks.cpg/sg39_9_cif.got.tgz:16228.got - 2010.06.03 18:22:40.
