data_PCOD9360260
_publ_section_title
;
Structure prediction by ZEFSAII (Michael W. Deem and Ramdas Pophale) SiO2 
 PCOD9360260
Probable space group: A B M 2
;
_chemical_formula_sum "Si O2"
_cell_formula_units_Z 48
_cell_length_a 14.523723
_cell_length_b 8.749409
_cell_length_c 21.056857
_cell_angle_alpha 90.000000
_cell_angle_beta 90.000000
_cell_angle_gamma 90.000000
_cell_volume 2675.778893
_symmetry_space_group_name_H-M "A B M 2"
_symmetry_group_IT_number 39
_symmetry_cell_setting 'orthorhombic'
loop_
_space_group_symop_operation_xyz
x,y,z
-x,-y,z
-x,1/2+y,z
x,1/2-y,z
x,1/2+y,1/2+z
-x,1/2-y,1/2+z
-x,y,1/2+z
x,-y,1/2+z
loop_
_atom_site_type_symbol
_atom_site_label
_atom_site_fract_x
_atom_site_fract_y
_atom_site_fract_z
Si Si1 0.098806 0.932837 0.365770
Si Si2 0.283408 0.934156 0.914311
Si Si3 0.901723 0.066332 0.217547
Si Si4 0.602968 0.434787 0.038844
Si Si5 0.601881 0.933264 0.288873
Si Si6 0.293017 0.565077 0.167534
O O1 0.096252 0.750000 0.368154
O O2 0.114226 0.978984 0.291530
O O3 0.182532 0.995185 0.407300
O O4 0.000000 0.000000 0.384719
O O5 0.275118 0.750000 0.915682
O O6 0.340377 0.977159 0.851318
O O7 0.340161 0.982285 0.976417
O O8 0.907372 0.250000 0.216053
O O9 0.813606 0.018253 0.176347
O O10 0.000000 0.000000 0.197427
O O11 0.500000 0.500000 0.038980
O O12 0.597029 0.250000 0.038414
O O13 0.658938 0.481142 0.101905
O O14 0.598003 0.750000 0.285547
O O15 0.500000 0.000000 0.293460
O O16 0.651055 0.998004 0.226559
O O17 0.295899 0.750000 0.171201
#
# Coordination Sequence:
#
# PCOD9360260 Si02
#       6
#     8   8   8   8   8   8
#     4  10  19  33  56  84 113 145 181 225 275 328
#     4  10  21  37  55  80 110 145 185 226 274 326
#     4   9  18  32  53  81 110 140 176 220 271 321
#     4  10  22  39  58  78 109 149 187 228 274 328
#     4  11  22  34  53  79 108 139 180 231 277 325
#     4  10  20  37  57  80 110 144 183 226 275 326
#
# _framework density 17.938701999999999
#
# number of rings (size 3 to 8) (size 9 to 14) (size 15 to 20)
#    0.000    2.000    1.667    2.000    0.000    4.667 
#    0.000    0.833    0.000    2.000    0.000    0.000 
#    0.000    0.000    0.000    0.000    0.000    0.000 
#
# Total GULP energy -134005.324789 kJ/mol
# GULP energy per Si atom -5583.555200 kJ/mol
# Density = 1.789787 g / cm^3
# Si number density = 17.938702 Si / 1000 Ang^3
#
#
#
# Elastic Constant Matrix: (Units=GPa)
#
#
# Indices 1 2 3 4 5 6 
#
# 1 207.7093 40.3740 100.0799 0.0000 0.0000 0.0000
# 2 40.3740 12.3175 34.7203 0.0000 0.0000 0.0000
# 3 100.0799 34.7203 146.7443 0.0000 0.0000 0.0000
# 4 0.0000 0.0000 0.0000 20.0530 0.0000 0.0000
# 5 0.0000 0.0000 0.0000 0.0000 32.4976 0.0000
# 6 0.0000 0.0000 0.0000 0.0000 0.0000 36.7616
#
#
#
# Elastic Compliance Matrix: (Units=1/GPa)
#
#
# Indices 1 2 3 4 5 6 
#
# 1 0.013983 -0.056900 0.003927 0.000000 0.000000 0.000000
# 2 -0.056900 0.475303 -0.073652 0.000000 0.000000 0.000000
# 3 0.003927 -0.073652 0.021563 0.000000 0.000000 0.000000
# 4 0.000000 0.000000 0.000000 0.049868 0.000000 0.000000
# 5 0.000000 0.000000 0.000000 0.000000 0.030771 0.000000
# 6 0.000000 0.000000 0.000000 0.000000 0.000000 0.027202
#
#
# Mechanical properties :
#
#
# Convention : Reuss Voigt Hill
#
# Bulk Modulus (GPa) = 3.88205 79.67994 41.78100
# Shear Modulus (GPa) = 5.22026 30.63555 17.92790
#
# Velocity S-wave (km/s) = 1.70774 4.13703 3.16476
# Velocity P-wave (km/s) = 2.46115 8.20575 6.05770
#
# Compressibility (1/GPa) = 0.25759594
#
# Stress axis : x y z
#
# Youngs Moduli (GPa) = 71.51750 2.10392 46.37573
#
# Poissons Ratio (x) = 0.11971 -0.18211
# Poissons Ratio (y) = 4.06938 3.41568
# Poissons Ratio (z) = -0.28083 0.15496
#
# Static dielectric constant tensor:
#      x y z
#    x 1.593820 0.000000 0.000000 
#    y 0.000000 1.607780 0.000000 
#    z 0.000000 0.000000 1.601400 
# 
# From -- ./inp_files/12629.got.cif
#   From: 2010.05.17/outbox.cif.g08.bks.cpg/sg39_7_cif.got.tgz:12629.got - 2010.06.03 18:22:40.
