data_PCOD9360389
_publ_section_title
;
Structure prediction by ZEFSAII (Michael W. Deem and Ramdas Pophale) SiO2 
 PCOD9360389
Probable space group: A B M 2
;
_chemical_formula_sum "Si O2"
_cell_formula_units_Z 48
_cell_length_a 8.155372
_cell_length_b 17.820318
_cell_length_c 16.387032
_cell_angle_alpha 90.000000
_cell_angle_beta 90.000000
_cell_angle_gamma 90.000000
_cell_volume 2381.549032
_symmetry_space_group_name_H-M "A B M 2"
_symmetry_group_IT_number 39
_symmetry_cell_setting 'orthorhombic'
loop_
_space_group_symop_operation_xyz
x,y,z
-x,-y,z
-x,1/2+y,z
x,1/2-y,z
x,1/2+y,1/2+z
-x,1/2-y,1/2+z
-x,y,1/2+z
x,-y,1/2+z
loop_
_atom_site_type_symbol
_atom_site_label
_atom_site_fract_x
_atom_site_fract_y
_atom_site_fract_z
Si Si1 0.937762 0.414665 0.339970
Si Si2 0.947002 0.163973 0.176911
Si Si3 0.545474 0.336200 0.177782
Si Si4 0.052325 0.587037 0.011720
Si Si5 0.452234 0.414476 0.841288
Si Si6 0.595994 0.839864 0.499926
O O1 0.005109 0.372943 0.260692
O O2 0.743004 0.412800 0.336239
O O3 0.000000 0.500000 0.337764
O O4 0.984967 0.380215 0.427016
O O5 0.994779 0.250000 0.174128
O O6 0.746286 0.160585 0.176383
O O7 0.007332 0.123198 0.095708
O O8 0.500674 0.250000 0.195182
O O9 0.485003 0.387147 0.252382
O O10 0.496633 0.354435 0.084381
O O11 0.000000 0.500000 0.013470
O O12 0.244869 0.606590 0.006021
O O13 0.500000 0.500000 0.857940
O O14 0.509321 0.361950 0.915708
O O15 0.637465 0.750000 0.501310
#
# Coordination Sequence:
#
# PCOD9360389 Si02
#       6
#     8   8   8   8   8   8
#     4  10  21  37  55  79 112 148 187 229 278 334
#     4   9  18  33  55  80 108 145 184 226 278 333
#     4   8  17  35  56  78 108 147 186 226 279 337
#     4  10  19  35  58  83 112 149 189 229 278 336
#     4  11  21  35  57  84 113 146 188 235 281 334
#     4  10  21  39  61  84 114 151 189 233 285 338
#
# _framework density 20.154948999999998
#
# number of rings (size 3 to 8) (size 9 to 14) (size 15 to 20)
#    0.000    2.333    0.000    4.500    0.000    2.667 
#    0.000    6.667    0.000    4.000    0.000    0.000 
#    0.000    0.000    0.000    0.000    0.000    0.000 
#
# Total GULP energy -133828.915514 kJ/mol
# GULP energy per Si atom -5576.204813 kJ/mol
# Density = 2.010908 g / cm^3
# Si number density = 20.154949 Si / 1000 Ang^3
#
#
#
# Elastic Constant Matrix: (Units=GPa)
#
#
# Indices 1 2 3 4 5 6 
#
# 1 27.1881 15.0374 20.7403 0.0000 0.0000 0.0000
# 2 15.0374 89.9035 75.9037 0.0000 0.0000 0.0000
# 3 20.7403 75.9037 210.9259 0.0000 0.0000 0.0000
# 4 0.0000 0.0000 0.0000 -11.8429 0.0000 0.0000
# 5 0.0000 0.0000 0.0000 0.0000 40.8818 0.0000
# 6 0.0000 0.0000 0.0000 0.0000 0.0000 6.8929
#
#
#
# Elastic Compliance Matrix: (Units=1/GPa)
#
#
# Indices 1 2 3 4 5 6 
#
# 1 0.041267 -0.004994 -0.002261 0.000000 0.000000 0.000000
# 2 -0.004994 0.016582 -0.005476 0.000000 0.000000 0.000000
# 3 -0.002261 -0.005476 0.006934 0.000000 0.000000 0.000000
# 4 0.000000 0.000000 0.000000 -0.084439 0.000000 0.000000
# 5 0.000000 0.000000 0.000000 0.000000 0.024461 0.000000
# 6 0.000000 0.000000 0.000000 0.000000 0.000000 0.145077
#
#
# Mechanical properties :
#
#
# Convention : Reuss Voigt Hill
#
# Bulk Modulus (GPa) = 25.43116 61.26448 43.34782
# Shear Modulus (GPa) = 26.53214 21.60875 24.07045
#
# Velocity S-wave (km/s) = 3.63217 3.27789 3.45957
# Velocity P-wave (km/s) = 5.49868 6.69245 6.12472
#
# Compressibility (1/GPa) = 0.03932184
#
# Stress axis : x y z
#
# Youngs Moduli (GPa) = 24.23223 60.30787 144.21893
#
# Poissons Ratio (x) = 0.30116 0.32605
# Poissons Ratio (y) = 0.12101 0.78975
# Poissons Ratio (z) = 0.05478 0.33025
#
# Static dielectric constant tensor:
#      x y z
#    x 1.687370 0.000000 0.000000 
#    y 0.000000 1.690980 0.000000 
#    z 0.000000 0.000000 1.758470 
# 
# From -- ./inp_files/8342.got.cif
#   From: 2010.05.17/outbox.cif.g08.bks.cpg/sg39_5_cif.got.tgz:8342.got - 2010.06.03 18:22:40.
