data_PCOD9360092
_publ_section_title
;
Structure prediction by ZEFSAII (Michael W. Deem and Ramdas Pophale) SiO2 
 PCOD9360092
Probable space group: A B M 2
;
_chemical_formula_sum "Si O2"
_cell_formula_units_Z 60
_cell_length_a 15.966204
_cell_length_b 9.135604
_cell_length_c 21.915770
_cell_angle_alpha 90.000000
_cell_angle_beta 90.000000
_cell_angle_gamma 90.000000
_cell_volume 3196.654312
_symmetry_space_group_name_H-M "A B M 2"
_symmetry_group_IT_number 39
_symmetry_cell_setting 'orthorhombic'
loop_
_space_group_symop_operation_xyz
x,y,z
-x,-y,z
-x,1/2+y,z
x,1/2-y,z
x,1/2+y,1/2+z
-x,1/2-y,1/2+z
-x,y,1/2+z
x,-y,1/2+z
loop_
_atom_site_type_symbol
_atom_site_label
_atom_site_fract_x
_atom_site_fract_y
_atom_site_fract_z
Si Si1 0.912094 0.577239 0.506010
Si Si2 0.583306 0.578079 0.742294
Si Si3 0.606684 0.408260 0.624465
Si Si4 0.759967 0.918751 0.045811
Si Si5 0.263679 0.574050 0.326063
Si Si6 0.500000 0.500000 0.011029
Si Si7 0.339613 0.583360 0.941123
Si Si8 0.908483 0.575218 0.361186
O O1 0.913591 0.750000 0.517628
O O2 0.849387 0.491845 0.549858
O O3 0.890259 0.556622 0.433962
O O4 0.000000 0.500000 0.513578
O O5 0.500000 0.500000 0.768326
O O6 0.574869 0.750000 0.751689
O O7 0.585615 0.536360 0.670818
O O8 0.672596 0.533367 0.771226
O O9 0.590186 0.250000 0.653974
O O10 0.703368 0.419555 0.605700
O O11 0.556768 0.412653 0.560223
O O12 0.764963 0.750000 0.024450
O O13 0.713787 0.021339 0.997091
O O14 0.252600 0.750000 0.327308
O O15 0.316320 0.519852 0.384932
O O16 0.172058 0.497723 0.328011
O O17 0.434455 0.578458 0.966410
O O18 0.316463 0.750000 0.926137
O O19 0.913577 0.750000 0.349209
O O20 0.000000 0.500000 0.349329
#
# Coordination Sequence:
#
# PCOD9360092 Si02
#       8
#     8   8   8   8   8   4   8   8
#     4  10  19  31  51  81 116 153 188 224 276 337
#     4  11  25  42  61  84 112 152 197 243 289 337
#     4  10  21  38  60  83 109 147 193 239 283 330
#     4  10  20  34  54  82 115 147 182 230 282 332
#     4  11  24  40  57  83 119 155 192 239 290 342
#     4  10  22  36  56  84 112 148 190 238 280 336
#     4  11  22  35  54  81 113 149 188 228 281 341
#     4  10  20  35  58  86 115 151 190 232 284 345
#
# _framework density 18.769622999999999
#
# number of rings (size 3 to 8) (size 9 to 14) (size 15 to 20)
#    0.000    1.600    2.000    2.800    0.933    7.467 
#    0.000    0.000    0.000    0.800    0.000    5.600 
#    0.000    0.000    0.000    0.000    0.000    0.000 
#
# Total GULP energy -167233.076769 kJ/mol
# GULP energy per Si atom -5574.435892 kJ/mol
# Density = 1.872690 g / cm^3
# Si number density = 18.769623 Si / 1000 Ang^3
#
#
#
# Elastic Constant Matrix: (Units=GPa)
#
#
# Indices 1 2 3 4 5 6 
#
# 1 149.2925 61.4602 28.7076 0.0000 0.0000 0.0000
# 2 61.4602 89.0834 4.8068 0.0000 0.0000 0.0000
# 3 28.7076 4.8068 31.9284 0.0000 0.0000 0.0000
# 4 0.0000 0.0000 0.0000 -27.2147 0.0000 0.0000
# 5 0.0000 0.0000 0.0000 0.0000 24.3149 0.0000
# 6 0.0000 0.0000 0.0000 0.0000 0.0000 29.7219
#
#
#
# Elastic Compliance Matrix: (Units=1/GPa)
#
#
# Indices 1 2 3 4 5 6 
#
# 1 0.011556 -0.007473 -0.009266 0.000000 0.000000 0.000000
# 2 -0.007473 0.016150 0.004288 0.000000 0.000000 0.000000
# 3 -0.009266 0.004288 0.039005 0.000000 0.000000 0.000000
# 4 0.000000 0.000000 0.000000 -0.036745 0.000000 0.000000
# 5 0.000000 0.000000 0.000000 0.000000 0.041127 0.000000
# 6 0.000000 0.000000 0.000000 0.000000 0.000000 0.033645
#
#
# Mechanical properties :
#
#
# Convention : Reuss Voigt Hill
#
# Bulk Modulus (GPa) = 23.91768 51.13929 37.52848
# Shear Modulus (GPa) = 34.82446 17.05308 25.93877
#
# Velocity S-wave (km/s) = 4.31207 3.01748 3.72150
# Velocity P-wave (km/s) = 6.12881 6.28054 6.20514
#
# Compressibility (1/GPa) = 0.04181008
#
# Stress axis : x y z
#
# Youngs Moduli (GPa) = 86.53214 61.92020 25.63747
#
# Poissons Ratio (x) = 0.46273 0.23755
# Poissons Ratio (y) = 0.64665 -0.10993
# Poissons Ratio (z) = 0.80177 -0.26550
#
# Static dielectric constant tensor:
#      x y z
#    x 1.658290 0.000000 0.000000 
#    y 0.000000 1.660310 0.000000 
#    z 0.000000 0.000000 1.634290 
# 
# From -- ./inp_files/16058.got.cif
#   From: 2010.05.17/outbox.cif.g08.bks.cpg/sg39_9_cif.got.tgz:16058.got - 2010.06.03 18:22:40.
