data_PCOD9360101
_publ_section_title
;
Structure prediction by ZEFSAII (Michael W. Deem and Ramdas Pophale) SiO2 
 PCOD9360101
Probable space group: A B M 2
;
_chemical_formula_sum "Si O2"
_cell_formula_units_Z 56
_cell_length_a 16.573569
_cell_length_b 18.543074
_cell_length_c 9.659521
_cell_angle_alpha 90.000000
_cell_angle_beta 90.000000
_cell_angle_gamma 90.000000
_cell_volume 2968.611484
_symmetry_space_group_name_H-M "A B M 2"
_symmetry_group_IT_number 39
_symmetry_cell_setting 'orthorhombic'
loop_
_space_group_symop_operation_xyz
x,y,z
-x,-y,z
-x,1/2+y,z
x,1/2-y,z
x,1/2+y,1/2+z
-x,1/2-y,1/2+z
-x,y,1/2+z
x,-y,1/2+z
loop_
_atom_site_type_symbol
_atom_site_label
_atom_site_fract_x
_atom_site_fract_y
_atom_site_fract_z
Si Si1 0.463979 0.577047 0.029510
Si Si2 0.429991 0.836820 0.750982
Si Si3 0.720605 0.445223 0.084641
Si Si4 0.260767 0.330174 0.347475
Si Si5 0.186547 0.464620 0.865389
Si Si6 0.098333 0.385985 0.287304
Si Si7 0.971425 0.915923 0.999233
O O1 0.500000 0.500000 0.984393
O O2 0.520254 0.617928 0.139310
O O3 0.376040 0.557416 0.091893
O O4 0.453779 0.631288 0.900797
O O5 0.443006 0.750000 0.738970
O O6 0.333685 0.853085 0.746686
O O7 0.760645 0.439497 0.235125
O O8 0.742856 0.379364 0.982983
O O9 0.757834 0.512103 0.996189
O O10 0.281613 0.250000 0.391993
O O11 0.174133 0.333881 0.276922
O O12 0.140034 0.535732 0.808667
O O13 0.113933 0.414634 0.918574
O O14 0.040953 0.374226 0.418221
O O15 0.043903 0.388580 0.152378
O O16 0.000000 0.000000 0.006652
#
# Coordination Sequence:
#
# PCOD9360101 Si02
#       7
#     8   8   8   8   8   8   8
#     4  11  24  36  60  95 127 150 203 268 314 346
#     4  10  22  43  64  84 119 172 210 242 305 388
#     4  10  22  35  59  86 120 152 192 239 307 353
#     4   9  21  41  61  79 112 161 202 237 296 364
#     4  10  19  34  55  86 118 151 186 236 299 361
#     4  10  20  32  55  83 111 151 190 241 287 350
#     4  10  19  31  53  84 119 147 191 234 295 357
#
# _framework density 18.864038000000001
#
# number of rings (size 3 to 8) (size 9 to 14) (size 15 to 20)
#    0.000    2.000    1.429    2.143   12.000    0.571 
#    0.000    0.714    0.000    0.857    0.000    0.000 
#    0.000    0.000    0.000    0.000    0.000    0.000 
#
# Total GULP energy -156150.239948 kJ/mol
# GULP energy per Si atom -5576.794284 kJ/mol
# Density = 1.882110 g / cm^3
# Si number density = 18.864038 Si / 1000 Ang^3
#
#
#
# Elastic Constant Matrix: (Units=GPa)
#
#
# Indices 1 2 3 4 5 6 
#
# 1 121.2472 29.9778 55.5384 0.0000 0.0000 0.0000
# 2 29.9778 35.9674 5.2640 0.0000 0.0000 0.0000
# 3 55.5384 5.2640 76.2262 0.0000 0.0000 0.0000
# 4 0.0000 0.0000 0.0000 9.9838 0.0000 0.0000
# 5 0.0000 0.0000 0.0000 0.0000 36.6801 0.0000
# 6 0.0000 0.0000 0.0000 0.0000 0.0000 16.1226
#
#
#
# Elastic Compliance Matrix: (Units=1/GPa)
#
#
# Indices 1 2 3 4 5 6 
#
# 1 0.016237 -0.011922 -0.011007 0.000000 0.000000 0.000000
# 2 -0.011922 0.036841 0.006143 0.000000 0.000000 0.000000
# 3 -0.011007 0.006143 0.020715 0.000000 0.000000 0.000000
# 4 0.000000 0.000000 0.000000 0.100162 0.000000 0.000000
# 5 0.000000 0.000000 0.000000 0.000000 0.027263 0.000000
# 6 0.000000 0.000000 0.000000 0.000000 0.000000 0.062025
#
#
# Mechanical properties :
#
#
# Convention : Reuss Voigt Hill
#
# Bulk Modulus (GPa) = 24.86405 46.11124 35.48765
# Shear Modulus (GPa) = 16.11746 22.06801 19.09273
#
# Velocity S-wave (km/s) = 2.92619 3.42401 3.18484
# Velocity P-wave (km/s) = 4.96246 6.33473 5.69012
#
# Compressibility (1/GPa) = 0.04021871
#
# Stress axis : x y z
#
# Youngs Moduli (GPa) = 61.58643 27.14366 48.27533
#
# Poissons Ratio (x) = 0.32362 0.53138
# Poissons Ratio (y) = 0.73426 -0.29653
# Poissons Ratio (z) = 0.67789 -0.16673
#
# Static dielectric constant tensor:
#      x y z
#    x 1.698630 0.000000 0.000000 
#    y 0.000000 1.694320 0.000000 
#    z 0.000000 0.000000 1.632000 
# 
# From -- ./inp_files/3413.got.cif
#   From: 2010.05.17/outbox.cif.g08.bks.cpg/sg39_2_cif.got.tgz:3413.got - 2010.06.03 18:22:40.
