data_PCOD9360697
_publ_section_title
;
Structure prediction by ZEFSAII (Michael W. Deem and Ramdas Pophale) SiO2 
 PCOD9360697
Probable space group: A B M 2
;
_chemical_formula_sum "Si O2"
_cell_formula_units_Z 44
_cell_length_a 5.617652
_cell_length_b 20.469489
_cell_length_c 18.063649
_cell_angle_alpha 90.000000
_cell_angle_beta 90.000000
_cell_angle_gamma 90.000000
_cell_volume 2077.147413
_symmetry_space_group_name_H-M "A B M 2"
_symmetry_group_IT_number 39
_symmetry_cell_setting 'orthorhombic'
loop_
_space_group_symop_operation_xyz
x,y,z
-x,-y,z
-x,1/2+y,z
x,1/2-y,z
x,1/2+y,1/2+z
-x,1/2-y,1/2+z
-x,y,1/2+z
x,-y,1/2+z
loop_
_atom_site_type_symbol
_atom_site_label
_atom_site_fract_x
_atom_site_fract_y
_atom_site_fract_z
Si Si1 0.941570 0.675792 0.616380
Si Si2 0.806709 0.172288 0.763240
Si Si3 0.000000 0.500000 0.985590
Si Si4 0.773193 0.127066 0.481239
Si Si5 0.312408 0.826322 0.325107
Si Si6 0.392583 0.564240 0.092595
O O1 0.853174 0.750000 0.624184
O O2 0.154106 0.666225 0.675231
O O3 0.037069 0.664096 0.533281
O O4 0.744948 0.621438 0.634822
O O5 0.799442 0.250000 0.780707
O O6 0.556481 0.144358 0.791820
O O7 0.054085 0.147354 0.799204
O O8 0.198249 0.531170 0.038718
O O9 0.112790 0.438363 0.945332
O O10 0.674637 0.168522 0.413927
O O11 0.578833 0.100318 0.538906
O O12 0.308190 0.750000 0.302720
O O13 0.500000 0.500000 0.132813
#
# Coordination Sequence:
#
# PCOD9360697 Si02
#       6
#     8   8   4   8   8   8
#     4  10  21  35  58  92 124 159 212 268 311 370
#     4   9  21  38  55  82 126 169 195 239 320 382
#     4   8  18  36  54  84 110 150 198 248 312 370
#     4  10  20  34  60  88 113 156 209 261 308 367
#     4  10  21  37  57  86 125 163 198 245 314 382
#     4   9  19  36  59  87 116 160 202 256 315 373
#
# _framework density 21.182898999999999
#
# number of rings (size 3 to 8) (size 9 to 14) (size 15 to 20)
#    0.000    2.545    0.000    0.545    7.636    1.455 
#    0.000    0.000    0.000    9.818    0.000    0.000 
#    0.000    0.000    0.000    0.000    0.000    0.000 
#
# Total GULP energy -122552.122175 kJ/mol
# GULP energy per Si atom -5570.551008 kJ/mol
# Density = 2.113469 g / cm^3
# Si number density = 21.182899 Si / 1000 Ang^3
#
#
#
# Elastic Constant Matrix: (Units=GPa)
#
#
# Indices 1 2 3 4 5 6 
#
# 1 119.3905 38.3139 30.7511 0.0000 0.0000 0.0000
# 2 38.3139 81.8103 22.1712 0.0000 0.0000 0.0000
# 3 30.7511 22.1712 68.6411 0.0000 0.0000 0.0000
# 4 0.0000 0.0000 0.0000 1.6490 0.0000 0.0000
# 5 0.0000 0.0000 0.0000 0.0000 13.5631 0.0000
# 6 0.0000 0.0000 0.0000 0.0000 0.0000 25.5515
#
#
#
# Elastic Compliance Matrix: (Units=1/GPa)
#
#
# Indices 1 2 3 4 5 6 
#
# 1 0.010546 -0.004010 -0.003429 0.000000 0.000000 0.000000
# 2 -0.004010 0.014920 -0.003023 0.000000 0.000000 0.000000
# 3 -0.003429 -0.003023 0.017081 0.000000 0.000000 0.000000
# 4 0.000000 0.000000 0.000000 0.606446 0.000000 0.000000
# 5 0.000000 0.000000 0.000000 0.000000 0.073730 0.000000
# 6 0.000000 0.000000 0.000000 0.000000 0.000000 0.039137
#
#
# Mechanical properties :
#
#
# Convention : Reuss Voigt Hill
#
# Bulk Modulus (GPa) = 46.24574 50.25715 48.25144
# Shear Modulus (GPa) = 6.32918 20.05976 13.19447
#
# Velocity S-wave (km/s) = 1.73042 3.08064 2.49847
# Velocity P-wave (km/s) = 5.08640 6.03578 5.58131
#
# Compressibility (1/GPa) = 0.02162361
#
# Stress axis : x y z
#
# Youngs Moduli (GPa) = 94.82361 67.02224 58.54325
#
# Poissons Ratio (x) = 0.26873 0.20077
# Poissons Ratio (y) = 0.38020 0.17698
# Poissons Ratio (z) = 0.32520 0.20261
#
# Static dielectric constant tensor:
#      x y z
#    x 1.832820 0.000000 0.000000 
#    y 0.000000 1.787870 0.000000 
#    z 0.000000 0.000000 1.747650 
# 
# From -- ./inp_files/11024.got.cif
#   From: 2010.05.17/outbox.cif.g08.bks.cpg/sg39_6_cif.got.tgz:11024.got - 2010.06.03 18:22:40.
