data_PCOD9360063
_publ_section_title
;
Structure prediction by ZEFSAII (Michael W. Deem and Ramdas Pophale) SiO2 
 PCOD9360063
Probable space group: A B M 2
;
_chemical_formula_sum "Si O2"
_cell_formula_units_Z 64
_cell_length_a 14.645333
_cell_length_b 8.747103
_cell_length_c 31.996582
_cell_angle_alpha 90.000000
_cell_angle_beta 90.000000
_cell_angle_gamma 90.000000
_cell_volume 4098.897699
_symmetry_space_group_name_H-M "A B M 2"
_symmetry_group_IT_number 39
_symmetry_cell_setting 'orthorhombic'
loop_
_space_group_symop_operation_xyz
x,y,z
-x,-y,z
-x,1/2+y,z
x,1/2-y,z
x,1/2+y,1/2+z
-x,1/2-y,1/2+z
-x,y,1/2+z
x,-y,1/2+z
loop_
_atom_site_type_symbol
_atom_site_label
_atom_site_fract_x
_atom_site_fract_y
_atom_site_fract_z
Si Si1 0.902696 0.432844 0.877060
Si Si2 0.282193 0.566076 0.407749
Si Si3 0.708886 0.433994 0.746068
Si Si4 0.397653 0.067204 0.574731
Si Si5 0.601534 0.433865 0.325524
Si Si6 0.096833 0.933667 0.779642
Si Si7 0.602707 0.066702 0.167867
Si Si8 0.397530 0.566538 0.489033
O O1 0.905655 0.250000 0.878378
O O2 0.817221 0.493629 0.902969
O O3 0.889345 0.480548 0.828267
O O4 0.000000 0.500000 0.890649
O O5 0.273449 0.750000 0.407855
O O6 0.341648 0.523548 0.366987
O O7 0.336130 0.520993 0.449556
O O8 0.703751 0.250000 0.746439
O O9 0.651312 0.498604 0.784979
O O10 0.814302 0.480218 0.753528
O O11 0.665774 0.497688 0.703700
O O12 0.400997 0.250000 0.570074
O O13 0.360676 0.031530 0.621006
O O14 0.500000 0.000000 0.575760
O O15 0.356875 0.994279 0.532880
O O16 0.500000 0.500000 0.328308
O O17 0.598203 0.250000 0.322575
O O18 0.091401 0.750000 0.778976
O O19 0.000000 0.000000 0.765431
O O20 0.597228 0.250000 0.172006
O O21 0.500000 0.000000 0.171836
O O22 0.500000 0.500000 0.484235
O O23 0.404030 0.750000 0.490520
#
# Coordination Sequence:
#
# PCOD9360063 Si02
#       8
#     8   8   8   8   8   8   8   8
#     4  10  19  33  52  72  95 124 160 203 246 287
#     4  10  21  34  48  70  97 129 165 200 239 286
#     4  11  21  34  49  70  97 126 163 199 238 287
#     4   9  17  30  48  69  94 123 160 200 242 287
#     4  11  22  34  47  64  94 133 167 198 233 275
#     4   9  19  33  50  71  93 121 157 199 242 283
#     4  10  20  33  49  71  97 129 164 200 241 285
#     4  10  19  31  48  71  99 129 164 201 241 286
#
# _framework density 15.613955000000001
#
# number of rings (size 3 to 8) (size 9 to 14) (size 15 to 20)
#    0.000    2.000    1.250    3.750    0.000    4.500 
#    0.000    0.000    0.000    0.000    0.000    0.875 
#    0.000    4.000    0.000    0.000    0.000    0.000 
#
# Total GULP energy -178521.065433 kJ/mol
# GULP energy per Si atom -5578.783295 kJ/mol
# Density = 1.557842 g / cm^3
# Si number density = 15.613955 Si / 1000 Ang^3
#
#
#
# Elastic Constant Matrix: (Units=GPa)
#
#
# Indices 1 2 3 4 5 6 
#
# 1 124.2629 40.0229 74.0318 0.0000 0.0000 0.0000
# 2 40.0229 48.7615 48.8763 0.0000 0.0000 0.0000
# 3 74.0318 48.8763 145.5247 0.0000 0.0000 0.0000
# 4 0.0000 0.0000 0.0000 21.8236 0.0000 0.0000
# 5 0.0000 0.0000 0.0000 0.0000 6.7464 0.0000
# 6 0.0000 0.0000 0.0000 0.0000 0.0000 26.6416
#
#
#
# Elastic Compliance Matrix: (Units=1/GPa)
#
#
# Indices 1 2 3 4 5 6 
#
# 1 0.012579 -0.005895 -0.004419 0.000000 0.000000 0.000000
# 2 -0.005895 0.033679 -0.008312 0.000000 0.000000 0.000000
# 3 -0.004419 -0.008312 0.011912 0.000000 0.000000 0.000000
# 4 0.000000 0.000000 0.000000 0.045822 0.000000 0.000000
# 5 0.000000 0.000000 0.000000 0.000000 0.148227 0.000000
# 6 0.000000 0.000000 0.000000 0.000000 0.000000 0.037535
#
#
# Mechanical properties :
#
#
# Convention : Reuss Voigt Hill
#
# Bulk Modulus (GPa) = 47.81076 71.60122 59.70599
# Shear Modulus (GPa) = 14.97101 21.41686 18.19393
#
# Velocity S-wave (km/s) = 3.09985 3.70760 3.41726
# Velocity P-wave (km/s) = 6.59538 8.01780 7.34112
#
# Compressibility (1/GPa) = 0.02091579
#
# Stress axis : x y z
#
# Youngs Moduli (GPa) = 79.49737 29.69247 83.95070
#
# Poissons Ratio (x) = 0.17504 0.37101
# Poissons Ratio (y) = 0.46864 0.69784
# Poissons Ratio (z) = 0.35133 0.24682
#
# Static dielectric constant tensor:
#      x y z
#    x 1.491130 0.000000 0.000000 
#    y 0.000000 1.525050 0.000000 
#    z 0.000000 0.000000 1.533480 
# 
# From -- ./inp_files/17975.got.cif
#   From: 2010.05.17/outbox.cif.g08.bks.cpg/sg39_9_cif.got.tgz:17975.got - 2010.06.03 18:22:40.
