data_PCOD9360552
_publ_section_title
;
Structure prediction by ZEFSAII (Michael W. Deem and Ramdas Pophale) SiO2 
 PCOD9360552
Probable space group: A B M 2
;
_chemical_formula_sum "Si O2"
_cell_formula_units_Z 64
_cell_length_a 21.563243
_cell_length_b 9.511934
_cell_length_c 14.337367
_cell_angle_alpha 90.000000
_cell_angle_beta 90.000000
_cell_angle_gamma 90.000000
_cell_volume 2940.710739
_symmetry_space_group_name_H-M "A B M 2"
_symmetry_group_IT_number 39
_symmetry_cell_setting 'orthorhombic'
loop_
_space_group_symop_operation_xyz
x,y,z
-x,-y,z
-x,1/2+y,z
x,1/2-y,z
x,1/2+y,1/2+z
-x,1/2-y,1/2+z
-x,y,1/2+z
x,-y,1/2+z
loop_
_atom_site_type_symbol
_atom_site_label
_atom_site_fract_x
_atom_site_fract_y
_atom_site_fract_z
Si Si1 0.819905 0.409776 0.398460
Si Si2 0.559210 0.409533 0.686855
Si Si3 0.680786 0.912524 0.910297
Si Si4 0.560799 0.588981 0.414773
Si Si5 0.055674 0.092366 0.640229
Si Si6 0.811394 0.410284 0.175108
Si Si7 0.676859 0.913422 0.682977
Si Si8 0.057210 0.907305 0.920023
O O1 0.832868 0.250000 0.431994
O O2 0.751676 0.454817 0.434299
O O3 0.812647 0.401545 0.286782
O O4 0.877302 0.512528 0.414044
O O5 0.500000 0.500000 0.659408
O O6 0.555583 0.250000 0.653848
O O7 0.560136 0.406769 0.800714
O O8 0.620940 0.487871 0.654863
O O9 0.671398 0.750000 0.939470
O O10 0.677486 0.912296 0.796541
O O11 0.625050 0.012733 0.941567
O O12 0.500000 0.500000 0.441831
O O13 0.557960 0.750000 0.447704
O O14 0.057669 0.250000 0.682504
O O15 0.123399 0.021873 0.649079
O O16 0.045040 0.108021 0.530316
O O17 0.000000 0.000000 0.678267
O O18 0.813280 0.250000 0.136806
O O19 0.744055 0.468395 0.150394
O O20 0.669118 0.750000 0.654749
O O21 0.060033 0.750000 0.879215
O O22 0.000000 0.000000 0.883215
#
# Coordination Sequence:
#
# PCOD9360552 Si02
#       8
#     8   8   8   8   8   8   8   8
#     4   9  17  30  48  68  91 118 147 182 223 266
#     4   9  15  21  30  47  73 106 142 176 209 248
#     4   8  14  24  37  54  78 108 139 172 213 257
#     4   9  15  21  31  48  73 107 144 179 212 250
#     4   9  18  33  50  67  88 115 147 181 218 261
#     4   8  15  29  48  67  88 116 148 181 220 265
#     4   8  13  23  38  54  75 105 138 172 212 255
#     4  10  20  33  49  67  89 117 147 181 219 262
#
# _framework density 21.763445999999998
#
# number of rings (size 3 to 8) (size 9 to 14) (size 15 to 20)
#    0.000    3.250    0.000    2.625    0.000    4.500 
#    0.000    4.375    0.000    0.000    0.000    0.000 
#    0.000    1.000    0.000    8.750    0.000   12.375 
#
# Total GULP energy -178478.722375 kJ/mol
# GULP energy per Si atom -5577.460074 kJ/mol
# Density = 2.171391 g / cm^3
# Si number density = 21.763446 Si / 1000 Ang^3
#
#
#
# Elastic Constant Matrix: (Units=GPa)
#
#
# Indices 1 2 3 4 5 6 
#
# 1 254.9115 140.9138 -1.2947 0.0000 0.0000 0.0000
# 2 140.9138 153.9317 7.5622 0.0000 0.0000 0.0000
# 3 -1.2947 7.5622 51.3308 0.0000 0.0000 0.0000
# 4 0.0000 0.0000 0.0000 5.3599 0.0000 0.0000
# 5 0.0000 0.0000 0.0000 0.0000 36.4912 0.0000
# 6 0.0000 0.0000 0.0000 0.0000 0.0000 35.5900
#
#
#
# Elastic Compliance Matrix: (Units=1/GPa)
#
#
# Indices 1 2 3 4 5 6 
#
# 1 0.008026 -0.007411 0.001294 0.000000 0.000000 0.000000
# 2 -0.007411 0.013387 -0.002159 0.000000 0.000000 0.000000
# 3 0.001294 -0.002159 0.019832 0.000000 0.000000 0.000000
# 4 0.000000 0.000000 0.000000 0.186571 0.000000 0.000000
# 5 0.000000 0.000000 0.000000 0.000000 0.027404 0.000000
# 6 0.000000 0.000000 0.000000 0.000000 0.000000 0.028098
#
#
# Mechanical properties :
#
#
# Convention : Reuss Voigt Hill
#
# Bulk Modulus (GPa) = 40.49662 83.83740 62.16701
# Shear Modulus (GPa) = 16.22843 36.35441 26.29142
#
# Velocity S-wave (km/s) = 2.73367 4.09153 3.47948
# Velocity P-wave (km/s) = 5.34901 7.80555 6.69098
#
# Compressibility (1/GPa) = 0.02469342
#
# Stress axis : x y z
#
# Youngs Moduli (GPa) = 124.58961 74.70015 50.42303
#
# Poissons Ratio (x) = 0.55361 -0.06526
# Poissons Ratio (y) = 0.92335 0.10887
# Poissons Ratio (z) = -0.16125 0.16129
#
# Static dielectric constant tensor:
#      x y z
#    x 1.795680 0.000000 0.000000 
#    y 0.000000 1.786410 0.000000 
#    z 0.000000 0.000000 1.829010 
# 
# From -- ./inp_files/13140.got.cif
#   From: 2010.05.17/outbox.cif.g08.bks.cpg/sg39_7_cif.got.tgz:13140.got - 2010.06.03 18:22:40.
