data_PCOD9360163
_publ_section_title
;
Structure prediction by ZEFSAII (Michael W. Deem and Ramdas Pophale) SiO2 
 PCOD9360163
Probable space group: A B M 2
;
_chemical_formula_sum "Si O2"
_cell_formula_units_Z 64
_cell_length_a 14.987193
_cell_length_b 8.682470
_cell_length_c 25.071394
_cell_angle_alpha 90.000000
_cell_angle_beta 90.000000
_cell_angle_gamma 90.000000
_cell_volume 3262.436545
_symmetry_space_group_name_H-M "A B M 2"
_symmetry_group_IT_number 39
_symmetry_cell_setting 'orthorhombic'
loop_
_space_group_symop_operation_xyz
x,y,z
-x,-y,z
-x,1/2+y,z
x,1/2-y,z
x,1/2+y,1/2+z
-x,1/2-y,1/2+z
-x,y,1/2+z
x,-y,1/2+z
loop_
_atom_site_type_symbol
_atom_site_label
_atom_site_fract_x
_atom_site_fract_y
_atom_site_fract_z
Si Si1 0.408653 0.569872 0.506780
Si Si2 0.905537 0.066639 0.459886
Si Si3 0.658844 0.568967 0.607315
Si Si4 0.276665 0.066252 0.424475
Si Si5 0.849113 0.934921 0.080117
Si Si6 0.709071 0.434448 0.226537
Si Si7 0.399656 0.934212 0.825476
Si Si8 0.908760 0.564092 0.690819
O O1 0.500000 0.500000 0.484946
O O2 0.404274 0.750000 0.497381
O O3 0.402554 0.532347 0.569396
O O4 0.327139 0.487967 0.477578
O O5 0.906102 0.250000 0.456181
O O6 0.891037 0.026793 0.522760
O O7 0.822093 0.002527 0.426778
O O8 0.000000 0.000000 0.442311
O O9 0.639510 0.750000 0.600141
O O10 0.758144 0.529283 0.587254
O O11 0.661481 0.531874 0.669874
O O12 0.270783 0.250000 0.423131
O O13 0.339590 0.013483 0.375820
O O14 0.832800 0.750000 0.081375
O O15 0.903240 0.985465 0.132389
O O16 0.705506 0.250000 0.234372
O O17 0.655677 0.516055 0.273354
O O18 0.814483 0.475190 0.219835
O O19 0.406475 0.750000 0.827584
O O20 0.500000 0.000000 0.826109
O O21 0.911991 0.750000 0.685731
O O22 0.000000 0.500000 0.716475
#
# Coordination Sequence:
#
# PCOD9360163 Si02
#       8
#     8   8   8   8   8   8   8   8
#     4  12  24  38  59  89 122 161 203 246 306 369
#     4  11  23  37  58  89 124 165 208 250 302 360
#     4  10  20  36  58  86 123 163 200 246 303 360
#     4  11  24  43  65  90 122 158 202 255 308 365
#     4  10  19  32  53  84 121 163 208 247 295 354
#     4   9  21  40  62  89 122 160 202 250 304 358
#     4  11  25  44  69  95 117 153 201 254 311 366
#     4  10  20  34  55  86 123 165 208 250 301 356
#
# _framework density 19.617241
#
# number of rings (size 3 to 8) (size 9 to 14) (size 15 to 20)
#    0.000    1.500    1.250    4.875    0.000    9.000 
#    0.000    0.625    0.000    1.500    0.000    0.000 
#    0.000    0.000    0.000    0.000    0.000    0.000 
#
# Total GULP energy -178745.586101 kJ/mol
# GULP energy per Si atom -5585.799566 kJ/mol
# Density = 1.957259 g / cm^3
# Si number density = 19.617241 Si / 1000 Ang^3
#
#
#
# Elastic Constant Matrix: (Units=GPa)
#
#
# Indices 1 2 3 4 5 6 
#
# 1 139.2271 29.2013 53.2174 0.0000 0.0000 0.0000
# 2 29.2013 42.1239 30.2888 0.0000 0.0000 0.0000
# 3 53.2174 30.2888 87.9271 0.0000 0.0000 0.0000
# 4 0.0000 0.0000 0.0000 27.4840 0.0000 0.0000
# 5 0.0000 0.0000 0.0000 0.0000 17.7008 0.0000
# 6 0.0000 0.0000 0.0000 0.0000 0.0000 35.8534
#
#
#
# Elastic Compliance Matrix: (Units=1/GPa)
#
#
# Indices 1 2 3 4 5 6 
#
# 1 0.009682 -0.003321 -0.004716 0.000000 0.000000 0.000000
# 2 -0.003321 0.032695 -0.009253 0.000000 0.000000 0.000000
# 3 -0.004716 -0.009253 0.017415 0.000000 0.000000 0.000000
# 4 0.000000 0.000000 0.000000 0.036385 0.000000 0.000000
# 5 0.000000 0.000000 0.000000 0.000000 0.056495 0.000000
# 6 0.000000 0.000000 0.000000 0.000000 0.000000 0.027891
#
#
# Mechanical properties :
#
#
# Convention : Reuss Voigt Hill
#
# Bulk Modulus (GPa) = 39.66305 54.96590 47.31448
# Shear Modulus (GPa) = 22.36697 26.64566 24.50631
#
# Velocity S-wave (km/s) = 3.38030 3.68948 3.53827
# Velocity P-wave (km/s) = 5.95799 6.79924 6.39247
#
# Compressibility (1/GPa) = 0.02521238
#
# Stress axis : x y z
#
# Youngs Moduli (GPa) = 103.28960 30.58616 57.42302
#
# Poissons Ratio (x) = 0.10156 0.27080
# Poissons Ratio (y) = 0.34298 0.53132
# Poissons Ratio (z) = 0.48709 0.28301
#
# Static dielectric constant tensor:
#      x y z
#    x 1.716430 0.000000 0.000000 
#    y 0.000000 1.651040 0.000000 
#    z 0.000000 0.000000 1.700770 
# 
# From -- ./inp_files/16172.got.cif
#   From: 2010.05.17/outbox.cif.g08.bks.cpg/sg39_9_cif.got.tgz:16172.got - 2010.06.03 18:22:40.
