data_PCOD9360997
_publ_section_title
;
Structure prediction by ZEFSAII (Michael W. Deem and Ramdas Pophale) SiO2 
 PCOD9360997
Probable space group: A B M 2
;
_chemical_formula_sum "Si O2"
_cell_formula_units_Z 44
_cell_length_a 7.436772
_cell_length_b 13.784517
_cell_length_c 18.350853
_cell_angle_alpha 90.000000
_cell_angle_beta 90.000000
_cell_angle_gamma 90.000000
_cell_volume 1881.188333
_symmetry_space_group_name_H-M "A B M 2"
_symmetry_group_IT_number 39
_symmetry_cell_setting 'orthorhombic'
loop_
_space_group_symop_operation_xyz
x,y,z
-x,-y,z
-x,1/2+y,z
x,1/2-y,z
x,1/2+y,1/2+z
-x,1/2-y,1/2+z
-x,y,1/2+z
x,-y,1/2+z
loop_
_atom_site_type_symbol
_atom_site_label
_atom_site_fract_x
_atom_site_fract_y
_atom_site_fract_z
Si Si1 0.846665 0.863815 0.449790
Si Si2 0.638274 0.134990 0.561352
Si Si3 0.036159 0.364307 0.606890
Si Si4 0.252223 0.073981 0.910447
Si Si5 0.821871 0.947064 0.758051
Si Si6 0.500000 0.500000 0.172959
O O1 0.798685 0.750000 0.435104
O O2 0.840667 0.883711 0.536518
O O3 0.058369 0.879780 0.431757
O O4 0.752166 0.955848 0.411664
O O5 0.632399 0.250000 0.565774
O O6 0.835684 0.096565 0.588330
O O7 0.620191 0.106887 0.476455
O O8 0.498375 0.089839 0.617701
O O9 0.014077 0.250000 0.607269
O O10 0.106708 0.392805 0.686077
O O11 0.271819 0.105610 0.826432
O O12 0.669138 0.014703 0.724913
O O13 0.000000 0.000000 0.787305
#
# Coordination Sequence:
#
# PCOD9360997 Si02
#       6
#     8   8   8   8   8   4
#     4   9  17  32  58  95 125 167 230 276 328 410
#     4  10  22  43  68  97 130 175 232 285 334 408
#     4   9  19  36  64  92 123 167 223 277 331 404
#     4  10  20  37  62  91 132 177 217 284 350 397
#     4  12  23  41  63 100 136 178 223 279 355 416
#     4  12  26  42  70  94 138 182 226 288 340 406
#
# _framework density 23.389471
#
# number of rings (size 3 to 8) (size 9 to 14) (size 15 to 20)
#    0.000    1.818    3.636    2.727    2.545    2.909 
#    0.000    1.818    0.000    0.000    0.000    0.000 
#    0.000    0.000    0.000    0.000    0.000    0.000 
#
# Total GULP energy -122738.620450 kJ/mol
# GULP energy per Si atom -5579.028202 kJ/mol
# Density = 2.333624 g / cm^3
# Si number density = 23.389471 Si / 1000 Ang^3
#
#
#
# Elastic Constant Matrix: (Units=GPa)
#
#
# Indices 1 2 3 4 5 6 
#
# 1 60.4085 2.6859 18.3632 0.0000 0.0000 0.0000
# 2 2.6859 107.8262 21.9995 0.0000 0.0000 0.0000
# 3 18.3632 21.9995 182.2687 0.0000 0.0000 0.0000
# 4 0.0000 0.0000 0.0000 4.6368 0.0000 0.0000
# 5 0.0000 0.0000 0.0000 0.0000 21.1250 0.0000
# 6 0.0000 0.0000 0.0000 0.0000 0.0000 19.7567
#
#
#
# Elastic Compliance Matrix: (Units=1/GPa)
#
#
# Indices 1 2 3 4 5 6 
#
# 1 0.017078 -0.000076 -0.001711 0.000000 0.000000 0.000000
# 2 -0.000076 0.009509 -0.001140 0.000000 0.000000 0.000000
# 3 -0.001711 -0.001140 0.005796 0.000000 0.000000 0.000000
# 4 0.000000 0.000000 0.000000 0.215666 0.000000 0.000000
# 5 0.000000 0.000000 0.000000 0.000000 0.047337 0.000000
# 6 0.000000 0.000000 0.000000 0.000000 0.000000 0.050616
#
#
# Mechanical properties :
#
#
# Convention : Reuss Voigt Hill
#
# Bulk Modulus (GPa) = 37.69671 48.51117 43.10394
# Shear Modulus (GPa) = 13.86195 29.60069 21.73132
#
# Velocity S-wave (km/s) = 2.43710 3.56132 3.05143
# Velocity P-wave (km/s) = 4.90624 6.13973 5.55732
#
# Compressibility (1/GPa) = 0.02652751
#
# Stress axis : x y z
#
# Youngs Moduli (GPa) = 58.55639 105.16710 172.52044
#
# Poissons Ratio (x) = 0.00802 0.29524
# Poissons Ratio (y) = 0.00446 0.19667
# Poissons Ratio (z) = 0.10021 0.11989
#
# Static dielectric constant tensor:
#      x y z
#    x 1.988070 0.000000 0.000000 
#    y 0.000000 1.864210 0.000000 
#    z 0.000000 0.000000 1.889210 
# 
# From -- ./inp_files/11539.got.cif
#   From: 2010.05.17/outbox.cif.g08.bks.cpg/sg39_6_cif.got.tgz:11539.got - 2010.06.03 18:22:40.
