data_PCOD9360851
_publ_section_title
;
Structure prediction by ZEFSAII (Michael W. Deem and Ramdas Pophale) SiO2 
 PCOD9360851
Probable space group: A B M 2
;
_chemical_formula_sum "Si O2"
_cell_formula_units_Z 48
_cell_length_a 9.769630
_cell_length_b 8.607530
_cell_length_c 30.791718
_cell_angle_alpha 90.000000
_cell_angle_beta 90.000000
_cell_angle_gamma 90.000000
_cell_volume 2589.348953
_symmetry_space_group_name_H-M "A B M 2"
_symmetry_group_IT_number 39
_symmetry_cell_setting 'orthorhombic'
loop_
_space_group_symop_operation_xyz
x,y,z
-x,-y,z
-x,1/2+y,z
x,1/2-y,z
x,1/2+y,1/2+z
-x,1/2-y,1/2+z
-x,y,1/2+z
x,-y,1/2+z
loop_
_atom_site_type_symbol
_atom_site_label
_atom_site_fract_x
_atom_site_fract_y
_atom_site_fract_z
Si Si1 0.151030 0.564137 0.230530
Si Si2 0.149520 0.062945 0.134258
Si Si3 0.149467 0.062899 0.979299
Si Si4 0.347287 0.437362 0.055771
Si Si5 0.150999 0.436886 0.878894
Si Si6 0.653641 0.435550 0.804963
O O1 0.147931 0.750000 0.231783
O O2 0.180197 0.506247 0.181663
O O3 0.262439 0.499867 0.263783
O O4 0.000000 0.500000 0.242168
O O5 0.143594 0.250000 0.137306
O O6 0.260964 0.017825 0.098422
O O7 0.000000 0.000000 0.121274
O O8 0.144167 0.250000 0.980862
O O9 0.176908 0.018758 0.929244
O O10 0.263671 0.009290 0.013218
O O11 0.000000 0.000000 0.991461
O O12 0.500000 0.500000 0.056671
O O13 0.351736 0.250000 0.054795
O O14 0.151023 0.250000 0.875381
O O15 0.263652 0.506968 0.847184
O O16 0.000000 0.500000 0.867323
O O17 0.500000 0.500000 0.805175
O O18 0.651364 0.250000 0.803690
#
# Coordination Sequence:
#
# PCOD9360851 Si02
#       6
#     8   8   8   8   8   8
#     4  11  22  39  62  87 114 147 188 232 280 332
#     4  10  20  36  58  84 112 144 187 234 279 329
#     4   9  19  36  58  84 112 145 187 232 276 326
#     4  10  22  37  54  80 114 150 187 228 276 332
#     4  10  20  37  60  86 115 148 189 234 280 331
#     4  12  25  41  59  83 115 150 188 230 282 338
#
# _framework density 18.537478
#
# number of rings (size 3 to 8) (size 9 to 14) (size 15 to 20)
#    0.000    1.667    0.000    6.000    0.000    4.000 
#    0.000    3.333    0.000    0.000    0.000    0.000 
#    0.000    0.000    0.000    0.000    0.000    0.000 
#
# Total GULP energy -134149.103335 kJ/mol
# GULP energy per Si atom -5589.545972 kJ/mol
# Density = 1.849529 g / cm^3
# Si number density = 18.537478 Si / 1000 Ang^3
#
#
#
# Elastic Constant Matrix: (Units=GPa)
#
#
# Indices 1 2 3 4 5 6 
#
# 1 201.5302 64.8764 135.8644 0.0000 0.0000 0.0000
# 2 64.8764 101.5490 55.2741 0.0000 0.0000 0.0000
# 3 135.8644 55.2741 129.8124 0.0000 0.0000 0.0000
# 4 0.0000 0.0000 0.0000 24.7131 0.0000 0.0000
# 5 0.0000 0.0000 0.0000 0.0000 -25.5835 0.0000
# 6 0.0000 0.0000 0.0000 0.0000 0.0000 38.2476
#
#
#
# Elastic Compliance Matrix: (Units=1/GPa)
#
#
# Indices 1 2 3 4 5 6 
#
# 1 0.017036 -0.001534 -0.017177 0.000000 0.000000 0.000000
# 2 -0.001534 0.012956 -0.003911 0.000000 0.000000 0.000000
# 3 -0.017177 -0.003911 0.027347 0.000000 0.000000 0.000000
# 4 0.000000 0.000000 0.000000 0.040464 0.000000 0.000000
# 5 0.000000 0.000000 0.000000 0.000000 -0.039088 0.000000
# 6 0.000000 0.000000 0.000000 0.000000 0.000000 0.026145
#
#
# Mechanical properties :
#
#
# Convention : Reuss Voigt Hill
#
# Bulk Modulus (GPa) = 82.68275 104.99126 93.83700
# Shear Modulus (GPa) = 37.27513 19.26723 28.27118
#
# Velocity S-wave (km/s) = 4.48906 3.22742 3.90947
# Velocity P-wave (km/s) = 8.45983 8.40527 8.43259
#
# Compressibility (1/GPa) = 0.01209442
#
# Stress axis : x y z
#
# Youngs Moduli (GPa) = 58.69891 77.18150 36.56746
#
# Poissons Ratio (x) = 0.11841 0.62812
# Poissons Ratio (y) = 0.09005 0.14302
# Poissons Ratio (z) = 1.00828 0.30187
#
# Static dielectric constant tensor:
#      x y z
#    x 1.596330 0.000000 0.000000 
#    y 0.000000 1.627320 0.000000 
#    z 0.000000 0.000000 1.641760 
# 
# From -- ./inp_files/17589.got.cif
#   From: 2010.05.17/outbox.cif.g08.bks.cpg/sg39_9_cif.got.tgz:17589.got - 2010.06.03 18:22:40.
