data_PCOD9360996
_publ_section_title
;
Structure prediction by ZEFSAII (Michael W. Deem and Ramdas Pophale) SiO2 
 PCOD9360996
Probable space group: A B M 2
;
_chemical_formula_sum "Si O2"
_cell_formula_units_Z 52
_cell_length_a 7.820763
_cell_length_b 13.907946
_cell_length_c 22.586296
_cell_angle_alpha 90.000000
_cell_angle_beta 90.000000
_cell_angle_gamma 90.000000
_cell_volume 2456.728344
_symmetry_space_group_name_H-M "A B M 2"
_symmetry_group_IT_number 39
_symmetry_cell_setting 'orthorhombic'
loop_
_space_group_symop_operation_xyz
x,y,z
-x,-y,z
-x,1/2+y,z
x,1/2-y,z
x,1/2+y,1/2+z
-x,1/2-y,1/2+z
-x,y,1/2+z
x,-y,1/2+z
loop_
_atom_site_type_symbol
_atom_site_label
_atom_site_fract_x
_atom_site_fract_y
_atom_site_fract_z
Si Si1 0.594859 0.366402 0.518170
Si Si2 0.114690 0.134294 0.923459
Si Si3 0.500000 0.000000 0.620763
Si Si4 0.175898 0.048602 0.801230
Si Si5 0.320651 0.644138 0.207622
Si Si6 0.280427 0.362733 0.436362
Si Si7 0.628003 0.142627 0.800551
O O1 0.590486 0.250000 0.526346
O O2 0.759634 0.388485 0.477709
O O3 0.598426 0.424390 0.579089
O O4 0.419009 0.397024 0.484219
O O5 0.104551 0.250000 0.918113
O O6 0.210882 0.099690 0.863691
O O7 0.916068 0.100176 0.932126
O O8 0.376913 0.064633 0.661317
O O9 0.153588 0.117806 0.744935
O O10 0.288553 0.957567 0.781470
O O11 0.000000 0.000000 0.815544
O O12 0.317254 0.750000 0.180838
O O13 0.453393 0.644814 0.263440
O O14 0.260761 0.250000 0.449651
O O15 0.368528 0.368959 0.371645
O O16 0.707371 0.250000 0.790258
#
# Coordination Sequence:
#
# PCOD9360996 Si02
#       7
#     8   8   4   8   8   8   8
#     4  10  23  40  62  90 123 167 216 265 316 372
#     4  10  21  38  62  96 133 167 203 255 323 391
#     4  12  24  42  66  86 114 166 226 268 308 368
#     4  12  22  35  63  98 131 163 201 252 323 396
#     4  11  24  44  66  90 124 165 214 270 319 376
#     4   9  18  36  61  93 129 161 197 255 323 384
#     4  10  20  37  62  91 125 159 201 253 317 384
#
# _framework density 21.166360999999998
#
# number of rings (size 3 to 8) (size 9 to 14) (size 15 to 20)
#    0.000    1.538    3.077    1.846    2.154    3.077 
#    0.000    1.538    0.000    1.846    0.000    0.000 
#    0.000    0.000    0.000    0.000    0.000    0.000 
#
# Total GULP energy -144919.232400 kJ/mol
# GULP energy per Si atom -5573.816631 kJ/mol
# Density = 2.111819 g / cm^3
# Si number density = 21.166361 Si / 1000 Ang^3
#
#
#
# Elastic Constant Matrix: (Units=GPa)
#
#
# Indices 1 2 3 4 5 6 
#
# 1 71.9346 25.2993 35.7869 0.0000 0.0000 0.0000
# 2 25.2993 106.2173 52.4046 0.0000 0.0000 0.0000
# 3 35.7869 52.4046 121.3215 0.0000 0.0000 0.0000
# 4 0.0000 0.0000 0.0000 630.0825 0.0000 0.0000
# 5 0.0000 0.0000 0.0000 0.0000 12.0230 0.0000
# 6 0.0000 0.0000 0.0000 0.0000 0.0000 21.4780
#
#
#
# Elastic Compliance Matrix: (Units=1/GPa)
#
#
# Indices 1 2 3 4 5 6 
#
# 1 0.016606 -0.001955 -0.004054 0.000000 0.000000 0.000000
# 2 -0.001955 0.012195 -0.004691 0.000000 0.000000 0.000000
# 3 -0.004054 -0.004691 0.011464 0.000000 0.000000 0.000000
# 4 0.000000 0.000000 0.000000 0.001587 0.000000 0.000000
# 5 0.000000 0.000000 0.000000 0.000000 0.083174 0.000000
# 6 0.000000 0.000000 0.000000 0.000000 0.000000 0.046559
#
#
# Mechanical properties :
#
#
# Convention : Reuss Voigt Hill
#
# Bulk Modulus (GPa) = 53.00665 58.49500 55.75082
# Shear Modulus (GPa) = 25.09114 145.11552 85.10333
#
# Velocity S-wave (km/s) = 3.44674 8.28905 6.34777
# Velocity P-wave (km/s) = 6.39822 10.92277 8.95109
#
# Compressibility (1/GPa) = 0.01886556
#
# Stress axis : x y z
#
# Youngs Moduli (GPa) = 60.21959 82.00330 87.22603
#
# Poissons Ratio (x) = 0.16034 0.35359
# Poissons Ratio (y) = 0.11774 0.40915
# Poissons Ratio (z) = 0.24412 0.38465
#
# Static dielectric constant tensor:
#      x y z
#    x 2.509390 0.000000 0.000000 
#    y 0.000000 1.646800 0.000000 
#    z 0.000000 0.000000 1.731070 
# 
# From -- ./inp_files/14024.got.cif
#   From: 2010.05.17/outbox.cif.g08.bks.cpg/sg39_8_cif.got.tgz:14024.got - 2010.06.03 18:22:40.
