data_PCOD9360216
_publ_section_title
;
Structure prediction by ZEFSAII (Michael W. Deem and Ramdas Pophale) SiO2 
 PCOD9360216
Probable space group: A B M 2
;
_chemical_formula_sum "Si O2"
_cell_formula_units_Z 64
_cell_length_a 14.968101
_cell_length_b 8.908309
_cell_length_c 25.146523
_cell_angle_alpha 90.000000
_cell_angle_beta 90.000000
_cell_angle_gamma 90.000000
_cell_volume 3353.049167
_symmetry_space_group_name_H-M "A B M 2"
_symmetry_group_IT_number 39
_symmetry_cell_setting 'orthorhombic'
loop_
_space_group_symop_operation_xyz
x,y,z
-x,-y,z
-x,1/2+y,z
x,1/2-y,z
x,1/2+y,1/2+z
-x,1/2-y,1/2+z
-x,y,1/2+z
x,-y,1/2+z
loop_
_atom_site_type_symbol
_atom_site_label
_atom_site_fract_x
_atom_site_fract_y
_atom_site_fract_z
Si Si1 0.410447 0.428714 0.682810
Si Si2 0.901177 0.569702 0.542576
Si Si3 0.163868 0.428054 0.826431
Si Si4 0.792721 0.068156 0.936497
Si Si5 0.408383 0.074203 0.412523
Si Si6 0.215827 0.928550 0.145797
Si Si7 0.650855 0.427742 0.792709
Si Si8 0.912970 0.426896 0.726802
O O1 0.500000 0.500000 0.659371
O O2 0.420620 0.250000 0.690537
O O3 0.321968 0.454072 0.647420
O O4 0.394708 0.507454 0.740107
O O5 0.911212 0.750000 0.542335
O O6 0.847185 0.527484 0.489181
O O7 0.837436 0.531475 0.592412
O O8 0.000000 0.500000 0.545583
O O9 0.153835 0.250000 0.826846
O O10 0.160581 0.496145 0.885206
O O11 0.260410 0.476731 0.803700
O O12 0.097081 0.503557 0.785129
O O13 0.792658 0.250000 0.930741
O O14 0.687830 0.019955 0.935113
O O15 0.413228 0.250000 0.424592
O O16 0.402414 0.058366 0.348213
O O17 0.500000 0.000000 0.431483
O O18 0.202110 0.750000 0.156055
O O19 0.172025 0.022775 0.192958
O O20 0.671591 0.250000 0.785905
O O21 0.921263 0.250000 0.729080
O O22 0.000000 0.500000 0.700291
#
# Coordination Sequence:
#
# PCOD9360216 Si02
#       8
#     8   8   8   8   8   8   8   8
#     4  11  22  35  55  83 120 160 203 246 294 353
#     4  10  22  42  67  89 113 148 196 249 303 359
#     4  11  21  35  56  85 121 157 194 241 295 354
#     4   9  20  39  59  82 116 157 196 241 297 357
#     4   9  18  31  50  78 113 152 194 236 282 340
#     4  10  22  41  62  87 118 154 197 247 300 357
#     4  10  19  33  53  80 116 159 202 241 292 349
#     4  12  24  38  59  86 119 157 195 240 297 363
#
# _framework density 19.087105000000001
#
# number of rings (size 3 to 8) (size 9 to 14) (size 15 to 20)
#    0.000    1.750    1.250    4.500    0.000    6.500 
#    0.000    1.875    0.000    0.000    0.000    0.000 
#    0.000    0.000    0.000    0.000    0.000    0.000 
#
# Total GULP energy -178655.943331 kJ/mol
# GULP energy per Si atom -5582.998229 kJ/mol
# Density = 1.904366 g / cm^3
# Si number density = 19.087105 Si / 1000 Ang^3
#
#
#
# Elastic Constant Matrix: (Units=GPa)
#
#
# Indices 1 2 3 4 5 6 
#
# 1 128.4145 56.0987 58.2550 0.0000 0.0000 0.0000
# 2 56.0987 80.5634 47.4479 0.0000 0.0000 0.0000
# 3 58.2550 47.4479 105.3545 0.0000 0.0000 0.0000
# 4 0.0000 0.0000 0.0000 -20.0568 0.0000 0.0000
# 5 0.0000 0.0000 0.0000 0.0000 10.1717 0.0000
# 6 0.0000 0.0000 0.0000 0.0000 0.0000 33.1377
#
#
#
# Elastic Compliance Matrix: (Units=1/GPa)
#
#
# Indices 1 2 3 4 5 6 
#
# 1 0.012325 -0.006218 -0.004015 0.000000 0.000000 0.000000
# 2 -0.006218 0.020030 -0.005583 0.000000 0.000000 0.000000
# 3 -0.004015 -0.005583 0.014226 0.000000 0.000000 0.000000
# 4 0.000000 0.000000 0.000000 -0.049858 0.000000 0.000000
# 5 0.000000 0.000000 0.000000 0.000000 0.098312 0.000000
# 6 0.000000 0.000000 0.000000 0.000000 0.000000 0.030177
#
#
# Mechanical properties :
#
#
# Convention : Reuss Voigt Hill
#
# Bulk Modulus (GPa) = 66.88737 70.88174 68.88455
# Shear Modulus (GPa) = 30.89757 14.81924 22.85841
#
# Velocity S-wave (km/s) = 4.02776 2.78942 3.46437
# Velocity P-wave (km/s) = 7.53324 6.89863 7.22291
#
# Compressibility (1/GPa) = 0.01495051
#
# Stress axis : x y z
#
# Youngs Moduli (GPa) = 81.13756 49.92481 70.29403
#
# Poissons Ratio (x) = 0.31041 0.28221
# Poissons Ratio (y) = 0.50448 0.39244
# Poissons Ratio (z) = 0.32574 0.27872
#
# Static dielectric constant tensor:
#      x y z
#    x 1.864830 0.000000 0.000000 
#    y 0.000000 1.637040 0.000000 
#    z 0.000000 0.000000 1.672440 
# 
# From -- ./inp_files/16261.got.cif
#   From: 2010.05.17/outbox.cif.g08.bks.cpg/sg39_9_cif.got.tgz:16261.got - 2010.06.03 18:22:40.
