data_PCOD9360233
_publ_section_title
;
Structure prediction by ZEFSAII (Michael W. Deem and Ramdas Pophale) SiO2 
 PCOD9360233
Probable space group: A B M 2
;
_chemical_formula_sum "Si O2"
_cell_formula_units_Z 48
_cell_length_a 9.297219
_cell_length_b 15.023407
_cell_length_c 15.964709
_cell_angle_alpha 90.000000
_cell_angle_beta 90.000000
_cell_angle_gamma 90.000000
_cell_volume 2229.885178
_symmetry_space_group_name_H-M "A B M 2"
_symmetry_group_IT_number 39
_symmetry_cell_setting 'orthorhombic'
loop_
_space_group_symop_operation_xyz
x,y,z
-x,-y,z
-x,1/2+y,z
x,1/2-y,z
x,1/2+y,1/2+z
-x,1/2-y,1/2+z
-x,y,1/2+z
x,-y,1/2+z
loop_
_atom_site_type_symbol
_atom_site_label
_atom_site_fract_x
_atom_site_fract_y
_atom_site_fract_z
Si Si1 0.190949 0.849048 0.893480
Si Si2 0.841283 0.142096 0.076463
Si Si3 0.650659 0.858657 0.229960
Si Si4 0.892689 0.585167 0.888450
Si Si5 0.827407 0.357990 0.568168
Si Si6 0.318020 0.141771 0.743950
O O1 0.254941 0.750000 0.898802
O O2 0.259342 0.890427 0.810688
O O3 0.019518 0.842038 0.882393
O O4 0.210060 0.891165 0.985409
O O5 0.838236 0.250000 0.071518
O O6 0.745088 0.115662 0.153871
O O7 0.007684 0.118842 0.092048
O O8 0.659679 0.750000 0.227196
O O9 0.720688 0.887515 0.141928
O O10 0.485392 0.882506 0.244280
O O11 0.779711 0.597743 0.814883
O O12 0.000000 0.500000 0.885767
O O13 0.812143 0.599453 0.976575
O O14 0.817246 0.250000 0.560070
O O15 0.307360 0.250000 0.752767
#
# Coordination Sequence:
#
# PCOD9360233 Si02
#       6
#     8   8   8   8   8   8
#     4   9  17  34  56  78 104 141 185 235 287 341
#     4   8  15  28  51  77 103 133 172 220 275 331
#     4   9  18  31  55  85 110 138 181 234 293 348
#     4  11  22  35  53  78 110 152 195 232 274 338
#     4   9  17  33  55  80 107 141 185 238 288 338
#     4  10  19  33  54  84 113 141 181 237 293 342
#
# _framework density 21.525770999999999
#
# number of rings (size 3 to 8) (size 9 to 14) (size 15 to 20)
#    0.000    2.667    0.000    3.500    0.000    4.000 
#    0.000   13.333    0.000    0.000    0.000    0.000 
#    0.000    0.000    0.000    0.000    0.000    0.000 
#
# Total GULP energy -133877.437418 kJ/mol
# GULP energy per Si atom -5578.226559 kJ/mol
# Density = 2.147678 g / cm^3
# Si number density = 21.525771 Si / 1000 Ang^3
#
#
#
# Elastic Constant Matrix: (Units=GPa)
#
#
# Indices 1 2 3 4 5 6 
#
# 1 110.6749 19.7704 139.9304 0.0000 0.0000 0.0000
# 2 19.7704 83.1043 29.2884 0.0000 0.0000 0.0000
# 3 139.9304 29.2884 244.4837 0.0000 0.0000 0.0000
# 4 0.0000 0.0000 0.0000 -24.5962 0.0000 0.0000
# 5 0.0000 0.0000 0.0000 0.0000 -11.0310 0.0000
# 6 0.0000 0.0000 0.0000 0.0000 0.0000 14.0686
#
#
#
# Elastic Compliance Matrix: (Units=1/GPa)
#
#
# Indices 1 2 3 4 5 6 
#
# 1 0.032817 -0.001240 -0.018634 0.000000 0.000000 0.000000
# 2 -0.001240 0.012610 -0.000801 0.000000 0.000000 0.000000
# 3 -0.018634 -0.000801 0.014852 0.000000 0.000000 0.000000
# 4 0.000000 0.000000 0.000000 -0.040657 0.000000 0.000000
# 5 0.000000 0.000000 0.000000 0.000000 -0.090654 0.000000
# 6 0.000000 0.000000 0.000000 0.000000 0.000000 0.071080
#
#
# Mechanical properties :
#
#
# Convention : Reuss Voigt Hill
#
# Bulk Modulus (GPa) = 52.83043 90.69349 71.76196
# Shear Modulus (GPa) = 104.80353 12.30653 58.55503
#
# Velocity S-wave (km/s) = 6.98521 2.39364 5.22124
# Velocity P-wave (km/s) = 9.46856 7.06140 8.35216
#
# Compressibility (1/GPa) = 0.01892849
#
# Stress axis : x y z
#
# Youngs Moduli (GPa) = 30.47212 79.30001 67.33313
#
# Poissons Ratio (x) = 0.09832 1.25470
# Poissons Ratio (y) = 0.03778 0.05394
# Poissons Ratio (z) = 0.56782 0.06352
#
# Static dielectric constant tensor:
#      x y z
#    x 1.721230 0.000000 0.000000 
#    y 0.000000 1.956650 0.000000 
#    z 0.000000 0.000000 1.777580 
# 
# From -- ./inp_files/8326.got.cif
#   From: 2010.05.17/outbox.cif.g08.bks.cpg/sg39_5_cif.got.tgz:8326.got - 2010.06.03 18:22:40.
