data_PCOD9360279
_publ_section_title
;
Structure prediction by ZEFSAII (Michael W. Deem and Ramdas Pophale) SiO2 
 PCOD9360279
Probable space group: A B M 2
;
_chemical_formula_sum "Si O2"
_cell_formula_units_Z 64
_cell_length_a 24.401159
_cell_length_b 8.577876
_cell_length_c 15.862805
_cell_angle_alpha 90.000000
_cell_angle_beta 90.000000
_cell_angle_gamma 90.000000
_cell_volume 3320.245557
_symmetry_space_group_name_H-M "A B M 2"
_symmetry_group_IT_number 39
_symmetry_cell_setting 'orthorhombic'
loop_
_space_group_symop_operation_xyz
x,y,z
-x,-y,z
-x,1/2+y,z
x,1/2-y,z
x,1/2+y,1/2+z
-x,1/2-y,1/2+z
-x,y,1/2+z
x,-y,1/2+z
loop_
_atom_site_type_symbol
_atom_site_label
_atom_site_fract_x
_atom_site_fract_y
_atom_site_fract_z
Si Si1 0.138937 0.938012 0.399100
Si Si2 0.061473 0.560952 0.552670
Si Si3 0.132213 0.563016 0.711626
Si Si4 0.257475 0.435590 0.209292
Si Si5 0.263559 0.435095 0.895311
Si Si6 0.438995 0.435382 0.792353
Si Si7 0.376633 0.065871 0.451971
Si Si8 0.635953 0.938377 0.636807
O O1 0.138846 0.750000 0.397127
O O2 0.097544 0.989786 0.472024
O O3 0.201800 0.985366 0.418784
O O4 0.124192 0.995909 0.305341
O O5 0.061201 0.750000 0.552812
O O6 0.090588 0.508603 0.639548
O O7 0.000000 0.500000 0.547099
O O8 0.127607 0.750000 0.717833
O O9 0.194922 0.528603 0.684101
O O10 0.261010 0.250000 0.225012
O O11 0.268596 0.527780 0.295869
O O12 0.304106 0.486578 0.144926
O O13 0.269279 0.250000 0.909765
O O14 0.312746 0.524463 0.939556
O O15 0.500000 0.500000 0.786334
O O16 0.441192 0.250000 0.786331
O O17 0.411106 0.481383 0.880264
O O18 0.400550 0.491928 0.715648
O O19 0.384468 0.250000 0.441464
O O20 0.391021 0.021118 0.547514
O O21 0.641714 0.750000 0.640047
#
# Coordination Sequence:
#
# PCOD9360279 Si02
#       8
#     8   8   8   8   8   8   8   8
#     4   9  20  37  58  82 114 152 193 239 294 350
#     4  10  22  40  58  81 114 154 197 243 290 350
#     4   9  20  37  57  83 116 150 191 241 292 346
#     4  10  19  33  59  88 118 155 195 239 293 355
#     4  10  19  34  58  86 120 157 193 240 298 355
#     4  11  24  44  66  87 119 162 202 248 297 347
#     4  11  23  39  60  91 124 158 198 245 294 349
#     4  10  23  40  59  88 125 158 194 243 295 347
#
# _framework density 19.275683000000001
#
# number of rings (size 3 to 8) (size 9 to 14) (size 15 to 20)
#    0.000    2.000    1.250    1.500    1.750    4.500 
#    0.000    3.750    0.000    0.000    0.000    0.000 
#    0.000    0.000    0.000    0.000    0.000    0.000 
#
# Total GULP energy -178700.950183 kJ/mol
# GULP energy per Si atom -5584.404693 kJ/mol
# Density = 1.923181 g / cm^3
# Si number density = 19.275683 Si / 1000 Ang^3
#
#
#
# Elastic Constant Matrix: (Units=GPa)
#
#
# Indices 1 2 3 4 5 6 
#
# 1 82.6350 8.4871 30.7591 0.0000 0.0000 0.0000
# 2 8.4871 12.7029 7.6180 0.0000 0.0000 0.0000
# 3 30.7591 7.6180 60.1226 0.0000 0.0000 0.0000
# 4 0.0000 0.0000 0.0000 24.9128 0.0000 0.0000
# 5 0.0000 0.0000 0.0000 0.0000 1.0113 0.0000
# 6 0.0000 0.0000 0.0000 0.0000 0.0000 33.1258
#
#
#
# Elastic Compliance Matrix: (Units=1/GPa)
#
#
# Indices 1 2 3 4 5 6 
#
# 1 0.015360 -0.006006 -0.007097 0.000000 0.000000 0.000000
# 2 -0.006006 0.087545 -0.008020 0.000000 0.000000 0.000000
# 3 -0.007097 -0.008020 0.021280 0.000000 0.000000 0.000000
# 4 0.000000 0.000000 0.000000 0.040140 0.000000 0.000000
# 5 0.000000 0.000000 0.000000 0.000000 0.988812 0.000000
# 6 0.000000 0.000000 0.000000 0.000000 0.000000 0.030188
#
#
# Mechanical properties :
#
#
# Convention : Reuss Voigt Hill
#
# Bulk Modulus (GPa) = 12.20432 27.68766 19.94599
# Shear Modulus (GPa) = 3.99079 19.04973 11.52026
#
# Velocity S-wave (km/s) = 1.44044 3.14710 2.44736
# Velocity P-wave (km/s) = 3.01856 5.25365 4.28442
#
# Compressibility (1/GPa) = 0.08193819
#
# Stress axis : x y z
#
# Youngs Moduli (GPa) = 65.10369 11.42273 46.99274
#
# Poissons Ratio (x) = 0.06861 0.33352
# Poissons Ratio (y) = 0.39103 0.37687
# Poissons Ratio (z) = 0.46206 0.09161
#
# Static dielectric constant tensor:
#      x y z
#    x 1.655330 0.000000 0.000000 
#    y 0.000000 1.655480 0.000000 
#    z 0.000000 0.000000 1.677740 
# 
# From -- ./inp_files/10625.got.cif
#   From: 2010.05.17/outbox.cif.g08.bks.cpg/sg39_6_cif.got.tgz:10625.got - 2010.06.03 18:22:40.
