data_PCOD9360440
_publ_section_title
;
Structure prediction by ZEFSAII (Michael W. Deem and Ramdas Pophale) SiO2 
 PCOD9360440
Probable space group: A B M 2
;
_chemical_formula_sum "Si O2"
_cell_formula_units_Z 64
_cell_length_a 15.705765
_cell_length_b 22.841302
_cell_length_c 9.435822
_cell_angle_alpha 90.000000
_cell_angle_beta 90.000000
_cell_angle_gamma 90.000000
_cell_volume 3385.007931
_symmetry_space_group_name_H-M "A B M 2"
_symmetry_group_IT_number 39
_symmetry_cell_setting 'orthorhombic'
loop_
_space_group_symop_operation_xyz
x,y,z
-x,-y,z
-x,1/2+y,z
x,1/2-y,z
x,1/2+y,1/2+z
-x,1/2-y,1/2+z
-x,y,1/2+z
x,-y,1/2+z
loop_
_atom_site_type_symbol
_atom_site_label
_atom_site_fract_x
_atom_site_fract_y
_atom_site_fract_z
Si Si1 0.523442 0.135058 0.398810
Si Si2 0.723630 0.902033 0.579390
Si Si3 0.550370 0.941785 0.640394
Si Si4 0.093097 0.547247 0.019797
Si Si5 0.345373 0.183641 0.341021
Si Si6 0.807103 0.182454 0.624777
Si Si7 0.293135 0.683158 0.342790
Si Si8 0.068014 0.426500 0.185876
O O1 0.488505 0.111072 0.547196
O O2 0.540896 0.078508 0.301559
O O3 0.445520 0.170310 0.326989
O O4 0.611945 0.169836 0.402958
O O5 0.649273 0.949271 0.603003
O O6 0.813528 0.927703 0.540115
O O7 0.691221 0.861054 0.454196
O O8 0.724836 0.862454 0.719095
O O9 0.500000 0.000000 0.612057
O O10 0.095599 0.481221 0.084431
O O11 0.026563 0.582277 0.120762
O O12 0.068929 0.553649 0.852190
O O13 0.336841 0.250000 0.392044
O O14 0.282877 0.176871 0.207727
O O15 0.837731 0.250000 0.650072
O O16 0.778789 0.176845 0.462160
O O17 0.872603 0.131002 0.668058
O O18 0.292596 0.750000 0.291046
#
# Coordination Sequence:
#
# PCOD9360440 Si02
#       8
#     8   8   8   8   8   8   8   8
#     4  10  20  34  56  80 114 159 208 252 300 364
#     4  10  22  38  59  88 121 161 206 249 319 363
#     4  10  21  37  52  81 120 160 199 252 305 365
#     4  11  24  43  69  97 123 164 198 267 303 375
#     4  10  19  36  59  84 118 160 206 256 307 369
#     4  10  22  40  63  91 128 164 203 261 317 378
#     4  10  21  36  57  88 122 163 208 258 305 366
#     4  11  24  44  69  97 126 157 211 249 318 370
#
# _framework density 18.906898999999999
#
# number of rings (size 3 to 8) (size 9 to 14) (size 15 to 20)
#    0.000    1.750    1.250    3.375    3.500    2.000 
#    2.250    5.625    0.000    0.000    0.000    0.000 
#    0.000    0.000    0.000    0.000    0.000    0.000 
#
# Total GULP energy -178431.923135 kJ/mol
# GULP energy per Si atom -5575.997598 kJ/mol
# Density = 1.886387 g / cm^3
# Si number density = 18.906899 Si / 1000 Ang^3
#
#
#
# Elastic Constant Matrix: (Units=GPa)
#
#
# Indices 1 2 3 4 5 6 
#
# 1 116.8938 50.3827 37.9284 0.0000 0.0000 0.0000
# 2 50.3827 81.4696 25.7073 0.0000 0.0000 0.0000
# 3 37.9284 25.7073 96.6564 0.0000 0.0000 0.0000
# 4 0.0000 0.0000 0.0000 -32.8932 0.0000 0.0000
# 5 0.0000 0.0000 0.0000 0.0000 21.6363 0.0000
# 6 0.0000 0.0000 0.0000 0.0000 0.0000 34.0252
#
#
#
# Elastic Compliance Matrix: (Units=1/GPa)
#
#
# Indices 1 2 3 4 5 6 
#
# 1 0.012460 -0.006728 -0.003100 0.000000 0.000000 0.000000
# 2 -0.006728 0.017031 -0.001890 0.000000 0.000000 0.000000
# 3 -0.003100 -0.001890 0.012065 0.000000 0.000000 0.000000
# 4 0.000000 0.000000 0.000000 -0.030401 0.000000 0.000000
# 5 0.000000 0.000000 0.000000 0.000000 0.046219 0.000000
# 6 0.000000 0.000000 0.000000 0.000000 0.000000 0.029390
#
#
# Mechanical properties :
#
#
# Convention : Reuss Voigt Hill
#
# Bulk Modulus (GPa) = 55.18272 58.11740 56.65006
# Shear Modulus (GPa) = 43.01462 16.62043 29.81752
#
# Velocity S-wave (km/s) = 4.77495 2.96812 3.97554
# Velocity P-wave (km/s) = 7.72335 6.52317 7.14849
#
# Compressibility (1/GPa) = 0.01812162
#
# Stress axis : x y z
#
# Youngs Moduli (GPa) = 80.25464 58.71542 82.88372
#
# Poissons Ratio (x) = 0.39501 0.25696
# Poissons Ratio (y) = 0.53991 0.15664
# Poissons Ratio (z) = 0.24881 0.11096
#
# Static dielectric constant tensor:
#      x y z
#    x 1.674640 0.000000 0.000000 
#    y 0.000000 1.770150 0.000000 
#    z 0.000000 0.000000 1.672280 
# 
# From -- ./inp_files/3529.got.cif
#   From: 2010.05.17/outbox.cif.g08.bks.cpg/sg39_2_cif.got.tgz:3529.got - 2010.06.03 18:22:40.
