data_PCOD9360211
_publ_section_title
;
Structure prediction by ZEFSAII (Michael W. Deem and Ramdas Pophale) SiO2 
 PCOD9360211
Probable space group: A B M 2
;
_chemical_formula_sum "Si O2"
_cell_formula_units_Z 64
_cell_length_a 9.623022
_cell_length_b 14.353683
_cell_length_c 20.839883
_cell_angle_alpha 90.000000
_cell_angle_beta 90.000000
_cell_angle_gamma 90.000000
_cell_volume 2878.525663
_symmetry_space_group_name_H-M "A B M 2"
_symmetry_group_IT_number 39
_symmetry_cell_setting 'orthorhombic'
loop_
_space_group_symop_operation_xyz
x,y,z
-x,-y,z
-x,1/2+y,z
x,1/2-y,z
x,1/2+y,1/2+z
-x,1/2-y,1/2+z
-x,y,1/2+z
x,-y,1/2+z
loop_
_atom_site_type_symbol
_atom_site_label
_atom_site_fract_x
_atom_site_fract_y
_atom_site_fract_z
Si Si1 0.400001 0.635769 0.632340
Si Si2 0.595552 0.642280 0.519581
Si Si3 0.914718 0.863717 0.127902
Si Si4 0.094645 0.636123 0.009045
Si Si5 0.404819 0.856269 0.246912
Si Si6 0.906254 0.136123 0.250969
Si Si7 0.430748 0.900162 0.872271
Si Si8 0.887971 0.136758 0.863872
O O1 0.391593 0.750000 0.633569
O O2 0.476562 0.606268 0.566719
O O3 0.242042 0.602263 0.636727
O O4 0.493495 0.605243 0.692445
O O5 0.610610 0.750000 0.538770
O O6 0.750309 0.601057 0.526529
O O7 0.559634 0.640487 0.444131
O O8 0.911010 0.750000 0.128374
O O9 0.980853 0.892454 0.060407
O O10 0.016368 0.890394 0.185652
O O11 0.099415 0.750000 0.010188
O O12 0.065223 0.610655 0.935600
O O13 0.379258 0.750000 0.225952
O O14 0.251821 0.899477 0.253064
O O15 0.483757 0.854159 0.314641
O O16 0.902980 0.250000 0.253733
O O17 0.001376 0.107833 0.310852
O O18 0.268126 0.900249 0.854253
O O19 0.500000 0.000000 0.877344
O O20 0.874965 0.250000 0.861500
#
# Coordination Sequence:
#
# PCOD9360211 Si02
#       8
#     8   8   8   8   8   8   8   8
#     4   9  17  28  49  78 106 132 163 207 260 308
#     4   9  17  32  52  74  99 131 168 212 259 305
#     4   9  15  24  41  72 105 127 153 200 255 309
#     4   8  14  24  41  64  94 126 158 196 244 295
#     4  10  19  33  53  79 106 133 168 215 262 311
#     4   9  17  28  48  75 102 130 164 206 257 308
#     4  11  22  35  51  74 103 140 179 214 258 310
#     4   9  17  32  52  74 100 135 173 214 259 306
#
# _framework density 22.233602999999999
#
# number of rings (size 3 to 8) (size 9 to 14) (size 15 to 20)
#    0.000    2.750    0.000    3.375    0.000    6.000 
#    0.000    5.000    0.000    0.000    0.000    3.500 
#    0.000    0.000    0.000    0.000    0.000    0.000 
#
# Total GULP energy -178736.616871 kJ/mol
# GULP energy per Si atom -5585.519277 kJ/mol
# Density = 2.218300 g / cm^3
# Si number density = 22.233603 Si / 1000 Ang^3
#
#
#
# Elastic Constant Matrix: (Units=GPa)
#
#
# Indices 1 2 3 4 5 6 
#
# 1 245.3420 3.3846 173.3370 0.0000 0.0000 0.0000
# 2 3.3846 56.4859 -12.0892 0.0000 0.0000 0.0000
# 3 173.3370 -12.0892 203.0613 0.0000 0.0000 0.0000
# 4 0.0000 0.0000 0.0000 -1.9935 0.0000 0.0000
# 5 0.0000 0.0000 0.0000 0.0000 40.5978 0.0000
# 6 0.0000 0.0000 0.0000 0.0000 0.0000 -0.0500
#
#
#
# Elastic Compliance Matrix: (Units=1/GPa)
#
#
# Indices 1 2 3 4 5 6 
#
# 1 0.010637 -0.002614 -0.009236 0.000000 0.000000 0.000000
# 2 -0.002614 0.018574 0.003337 0.000000 0.000000 0.000000
# 3 -0.009236 0.003337 0.013007 0.000000 0.000000 0.000000
# 4 0.000000 0.000000 0.000000 -0.501632 0.000000 0.000000
# 5 0.000000 0.000000 0.000000 0.000000 0.024632 0.000000
# 6 0.000000 0.000000 0.000000 0.000000 0.000000-19.985651
#
#
# Mechanical properties :
#
#
# Convention : Reuss Voigt Hill
#
# Bulk Modulus (GPa) = 39.69270 92.68380 66.18825
# Shear Modulus (GPa) = -0.24516 30.39463 15.07474
#
# Velocity S-wave (km/s) = -0.33242 3.70139 2.60670
# Velocity P-wave (km/s) = 4.21236 7.74880 6.23650
#
# Compressibility (1/GPa) = 0.02519355
#
# Stress axis : x y z
#
# Youngs Moduli (GPa) = 94.01053 53.83761 76.88149
#
# Poissons Ratio (x) = 0.14073 0.71005
# Poissons Ratio (y) = 0.24574 -0.25657
# Poissons Ratio (z) = 0.86825 -0.17967
#
# Static dielectric constant tensor:
#      x y z
#    x 1.778200 0.000000 0.000000 
#    y 0.000000 1.901550 0.000000 
#    z 0.000000 0.000000 1.785340 
# 
# From -- ./inp_files/11930.got.cif
#   From: 2010.05.17/outbox.cif.g08.bks.cpg/sg39_6_cif.got.tgz:11930.got - 2010.06.03 18:22:40.
