data_PCOD9360180
_publ_section_title
;
Structure prediction by ZEFSAII (Michael W. Deem and Ramdas Pophale) SiO2 
 PCOD9360180
Probable space group: A B M 2
;
_chemical_formula_sum "Si O2"
_cell_formula_units_Z 56
_cell_length_a 9.627762
_cell_length_b 18.713101
_cell_length_c 18.659143
_cell_angle_alpha 90.000000
_cell_angle_beta 90.000000
_cell_angle_gamma 90.000000
_cell_volume 3361.729774
_symmetry_space_group_name_H-M "A B M 2"
_symmetry_group_IT_number 39
_symmetry_cell_setting 'orthorhombic'
loop_
_space_group_symop_operation_xyz
x,y,z
-x,-y,z
-x,1/2+y,z
x,1/2-y,z
x,1/2+y,1/2+z
-x,1/2-y,1/2+z
-x,y,1/2+z
x,-y,1/2+z
loop_
_atom_site_type_symbol
_atom_site_label
_atom_site_fract_x
_atom_site_fract_y
_atom_site_fract_z
Si Si1 0.557411 0.164320 0.474650
Si Si2 0.102507 0.067924 0.172060
Si Si3 0.066329 0.421991 0.333543
Si Si4 0.266869 0.911754 0.969348
Si Si5 0.157868 0.665458 0.411984
Si Si6 0.023179 0.835339 0.051731
Si Si7 0.641391 0.538393 0.071864
O O1 0.554630 0.250000 0.486559
O O2 0.407031 0.132956 0.455847
O O3 0.678859 0.148711 0.416622
O O4 0.603787 0.117138 0.542908
O O5 0.123257 0.091173 0.254066
O O6 0.243115 0.044757 0.132437
O O7 0.030740 0.129012 0.124162
O O8 0.000000 0.000000 0.171612
O O9 0.181167 0.417860 0.395849
O O10 0.000000 0.500000 0.335981
O O11 0.937783 0.370774 0.353020
O O12 0.167242 0.869777 0.024967
O O13 0.303886 0.987813 0.006312
O O14 0.145049 0.750000 0.404323
O O15 0.088037 0.646595 0.488837
O O16 0.034417 0.750000 0.056852
O O17 0.500000 0.500000 0.096810
#
# Coordination Sequence:
#
# PCOD9360180 Si02
#       7
#     8   8   8   8   8   8   8
#     4  10  19  33  56  84 110 139 188 233 272 324
#     4  11  21  36  54  81 114 145 183 228 286 333
#     4  10  22  35  54  82 108 145 184 231 276 331
#     4  10  20  35  58  80 111 142 187 233 277 328
#     4   9  18  33  54  79 107 140 180 224 268 321
#     4  10  19  32  56  82 106 142 184 228 275 327
#     4  10  20  34  56  82 109 150 183 232 282 328
#
# _framework density 16.658090999999999
#
# number of rings (size 3 to 8) (size 9 to 14) (size 15 to 20)
#    0.000    2.000    2.857    1.286    2.000    1.143 
#    0.000    5.000    0.000    0.000    0.000    0.000 
#    0.000    0.000    0.000    0.000    0.000    0.000 
#
# Total GULP energy -156104.386944 kJ/mol
# GULP energy per Si atom -5575.156677 kJ/mol
# Density = 1.662018 g / cm^3
# Si number density = 16.658091 Si / 1000 Ang^3
#
#
#
# Elastic Constant Matrix: (Units=GPa)
#
#
# Indices 1 2 3 4 5 6 
#
# 1 140.4059 42.8979 64.3753 0.0000 0.0000 0.0000
# 2 42.8979 72.0042 42.9459 0.0000 0.0000 0.0000
# 3 64.3753 42.9459 114.9703 0.0000 0.0000 0.0000
# 4 0.0000 0.0000 0.0000 -0.3583 0.0000 0.0000
# 5 0.0000 0.0000 0.0000 0.0000 13.8859 0.0000
# 6 0.0000 0.0000 0.0000 0.0000 0.0000 25.8962
#
#
#
# Elastic Compliance Matrix: (Units=1/GPa)
#
#
# Indices 1 2 3 4 5 6 
#
# 1 0.010203 -0.003437 -0.004429 0.000000 0.000000 0.000000
# 2 -0.003437 0.019027 -0.005183 0.000000 0.000000 0.000000
# 3 -0.004429 -0.005183 0.013114 0.000000 0.000000 0.000000
# 4 0.000000 0.000000 0.000000 -2.791040 0.000000 0.000000
# 5 0.000000 0.000000 0.000000 0.000000 0.072015 0.000000
# 6 0.000000 0.000000 0.000000 0.000000 0.000000 0.038616
#
#
# Mechanical properties :
#
#
# Convention : Reuss Voigt Hill
#
# Bulk Modulus (GPa) = 61.55366 69.75761 65.65564
# Shear Modulus (GPa) = -1.91824 19.69552 8.88864
#
# Velocity S-wave (km/s) = -1.07426 3.44225 2.31247
# Velocity P-wave (km/s) = 5.95758 7.60038 6.82856
#
# Compressibility (1/GPa) = 0.01624599
#
# Stress axis : x y z
#
# Youngs Moduli (GPa) = 98.01014 52.55701 76.25493
#
# Poissons Ratio (x) = 0.18064 0.33774
# Poissons Ratio (y) = 0.33686 0.39522
# Poissons Ratio (z) = 0.43410 0.27240
#
# Static dielectric constant tensor:
#      x y z
#    x 1.579170 0.000000 0.000000 
#    y 0.000000 1.564790 0.000000 
#    z 0.000000 0.000000 1.542660 
# 
# From -- ./inp_files/11858.got.cif
#   From: 2010.05.17/outbox.cif.g08.bks.cpg/sg39_6_cif.got.tgz:11858.got - 2010.06.03 18:22:40.
