data_PCOD9360348
_publ_section_title
;
Structure prediction by ZEFSAII (Michael W. Deem and Ramdas Pophale) SiO2 
 PCOD9360348
Probable space group: A B M 2
;
_chemical_formula_sum "Si O2"
_cell_formula_units_Z 60
_cell_length_a 17.063645
_cell_length_b 14.847954
_cell_length_c 10.754206
_cell_angle_alpha 90.000000
_cell_angle_beta 90.000000
_cell_angle_gamma 90.000000
_cell_volume 2724.687955
_symmetry_space_group_name_H-M "A B M 2"
_symmetry_group_IT_number 39
_symmetry_cell_setting 'orthorhombic'
loop_
_space_group_symop_operation_xyz
x,y,z
-x,-y,z
-x,1/2+y,z
x,1/2-y,z
x,1/2+y,1/2+z
-x,1/2-y,1/2+z
-x,y,1/2+z
x,-y,1/2+z
loop_
_atom_site_type_symbol
_atom_site_label
_atom_site_fract_x
_atom_site_fract_y
_atom_site_fract_z
Si Si1 0.057377 0.085895 0.812770
Si Si2 0.752937 0.347300 0.913988
Si Si3 0.605051 0.347534 0.728640
Si Si4 0.500000 0.500000 0.836750
Si Si5 0.158153 0.846935 0.676027
Si Si6 0.994982 0.891816 0.563586
Si Si7 0.374677 0.645244 0.436813
Si Si8 0.779875 0.044945 0.457238
O O1 0.140695 0.058750 0.875555
O O2 0.070441 0.123392 0.671350
O O3 0.010632 0.141091 0.921690
O O4 0.000000 0.000000 0.792068
O O5 0.752957 0.250000 0.979260
O O6 0.678993 0.348769 0.820683
O O7 0.827078 0.352179 0.821340
O O8 0.754605 0.442215 0.979260
O O9 0.564570 0.250000 0.750364
O O10 0.553906 0.434120 0.756873
O O11 0.629007 0.349719 0.585947
O O12 0.556659 0.572534 0.906414
O O13 0.189438 0.750000 0.634075
O O14 0.068925 0.854976 0.639067
O O15 0.201054 0.919997 0.594524
O O16 0.000000 0.000000 0.544940
O O17 0.385296 0.750000 0.393061
O O18 0.291546 0.601336 0.397709
#
# Coordination Sequence:
#
# PCOD9360348 Si02
#       8
#     8   8   8   4   8   8   8   8
#     4   9  18  32  55  86 121 163 211 261 321 386
#     4  10  19  34  58  87 116 152 202 255 303 368
#     4  10  21  38  59  87 122 159 202 249 308 387
#     4  12  22  40  62  92 124 162 204 258 326 370
#     4  10  20  36  61  86 115 160 211 252 306 385
#     4   9  17  32  53  83 118 159 205 256 318 381
#     4  11  23  40  63  92 125 162 211 261 315 386
#     4  11  20  36  62  89 119 163 213 263 315 376
#
# _framework density 22.020871
#
# number of rings (size 3 to 8) (size 9 to 14) (size 15 to 20)
#    0.000    1.867    2.667    2.800    0.000    0.000 
#    0.000    3.333    0.000   17.600    0.000    0.000 
#    0.000    0.000    0.000    0.000    0.000    0.000 
#
# Total GULP energy -167049.255673 kJ/mol
# GULP energy per Si atom -5568.308522 kJ/mol
# Density = 2.197075 g / cm^3
# Si number density = 22.020871 Si / 1000 Ang^3
#
#
#
# Elastic Constant Matrix: (Units=GPa)
#
#
# Indices 1 2 3 4 5 6 
#
# 1 94.7972 42.3583 -0.4833 0.0000 0.0000 0.0000
# 2 42.3583 177.3652 23.5297 0.0000 0.0000 0.0000
# 3 -0.4833 23.5297 48.3685 0.0000 0.0000 0.0000
# 4 0.0000 0.0000 0.0000 26.0538 0.0000 0.0000
# 5 0.0000 0.0000 0.0000 0.0000 24.2303 0.0000
# 6 0.0000 0.0000 0.0000 0.0000 0.0000 18.9781
#
#
#
# Elastic Compliance Matrix: (Units=1/GPa)
#
#
# Indices 1 2 3 4 5 6 
#
# 1 0.011925 -0.003061 0.001608 0.000000 0.000000 0.000000
# 2 -0.003061 0.006813 -0.003345 0.000000 0.000000 0.000000
# 3 0.001608 -0.003345 0.022318 0.000000 0.000000 0.000000
# 4 0.000000 0.000000 0.000000 0.038382 0.000000 0.000000
# 5 0.000000 0.000000 0.000000 0.000000 0.041271 0.000000
# 6 0.000000 0.000000 0.000000 0.000000 0.000000 0.052692
#
#
# Mechanical properties :
#
#
# Convention : Reuss Voigt Hill
#
# Bulk Modulus (GPa) = 31.78625 50.14892 40.96758
# Shear Modulus (GPa) = 25.84207 30.86085 28.35146
#
# Velocity S-wave (km/s) = 3.42939 3.74764 3.59204
# Velocity P-wave (km/s) = 5.49062 6.44587 5.98732
#
# Compressibility (1/GPa) = 0.03146014
#
# Stress axis : x y z
#
# Youngs Moduli (GPa) = 83.85807 146.78008 44.80721
#
# Poissons Ratio (x) = 0.44933 -0.07207
# Poissons Ratio (y) = 0.25671 0.14987
# Poissons Ratio (z) = -0.13487 0.49096
#
# Static dielectric constant tensor:
#      x y z
#    x 1.858490 0.000000 0.000000 
#    y 0.000000 1.912930 0.000000 
#    z 0.000000 0.000000 1.854680 
# 
# From -- ./inp_files/6862.got.cif
#   From: 2010.05.17/outbox.cif.g08.bks.cpg/sg39_4_cif.got.tgz:6862.got - 2010.06.03 18:22:40.
