data_PCOD9360044
_publ_section_title
;
Structure prediction by ZEFSAII (Michael W. Deem and Ramdas Pophale) SiO2 
 PCOD9360044
Probable space group: A B M 2
;
_chemical_formula_sum "Si O2"
_cell_formula_units_Z 56
_cell_length_a 15.839564
_cell_length_b 8.835999
_cell_length_c 20.800586
_cell_angle_alpha 90.000000
_cell_angle_beta 90.000000
_cell_angle_gamma 90.000000
_cell_volume 2911.216146
_symmetry_space_group_name_H-M "A B M 2"
_symmetry_group_IT_number 39
_symmetry_cell_setting 'orthorhombic'
loop_
_space_group_symop_operation_xyz
x,y,z
-x,-y,z
-x,1/2+y,z
x,1/2-y,z
x,1/2+y,1/2+z
-x,1/2-y,1/2+z
-x,y,1/2+z
x,-y,1/2+z
loop_
_atom_site_type_symbol
_atom_site_label
_atom_site_fract_x
_atom_site_fract_y
_atom_site_fract_z
Si Si1 0.228194 0.934201 0.586050
Si Si2 0.412660 0.569306 0.629157
Si Si3 0.910703 0.931143 0.189747
Si Si4 0.647330 0.926283 0.270382
Si Si5 0.587117 0.926054 0.413386
Si Si6 0.822112 0.929653 0.807078
Si Si7 0.233571 0.432320 0.944738
O O1 0.230041 0.750000 0.588651
O O2 0.324699 0.984684 0.597955
O O3 0.163974 0.982871 0.641530
O O4 0.200091 0.979095 0.514485
O O5 0.500000 0.500000 0.605179
O O6 0.417201 0.750000 0.621124
O O7 0.401481 0.536285 0.705316
O O8 0.914343 0.750000 0.188373
O O9 0.887361 0.986907 0.261086
O O10 0.000000 0.000000 0.169963
O O11 0.676007 0.750000 0.264271
O O12 0.593781 0.937151 0.335503
O O13 0.729251 0.029572 0.279744
O O14 0.589598 0.750000 0.430722
O O15 0.500000 0.000000 0.435070
O O16 0.670893 0.008033 0.438349
O O17 0.836179 0.750000 0.804667
O O18 0.817954 0.981605 0.881552
O O19 0.236530 0.250000 0.942550
#
# Coordination Sequence:
#
# PCOD9360044 Si02
#       7
#     8   8   8   8   8   8   8
#     4   9  19  38  60  80 113 155 189 230 283 335
#     4  10  19  32  50  76 108 149 192 233 282 327
#     4  11  22  40  65  90 116 146 184 230 283 341
#     4   9  17  31  50  73 106 146 188 235 286 331
#     4  10  19  30  47  73 107 147 193 241 286 333
#     4  10  19  33  57  87 114 142 181 229 280 335
#     4   9  19  36  57  79 108 149 191 228 278 338
#
# _framework density 19.235946999999999
#
# number of rings (size 3 to 8) (size 9 to 14) (size 15 to 20)
#    0.000    2.286    1.429    1.714    0.000    2.286 
#    0.000    4.286    0.000    1.714    0.000    0.000 
#    0.000    0.000    0.000    0.000    0.000    0.000 
#
# Total GULP energy -156238.935400 kJ/mol
# GULP energy per Si atom -5579.961979 kJ/mol
# Density = 1.919217 g / cm^3
# Si number density = 19.235947 Si / 1000 Ang^3
#
#
#
# Elastic Constant Matrix: (Units=GPa)
#
#
# Indices 1 2 3 4 5 6 
#
# 1 89.6016 19.2420 44.0862 0.0000 0.0000 0.0000
# 2 19.2420 21.5891 23.4501 0.0000 0.0000 0.0000
# 3 44.0862 23.4501 118.6860 0.0000 0.0000 0.0000
# 4 0.0000 0.0000 0.0000 15.7098 0.0000 0.0000
# 5 0.0000 0.0000 0.0000 0.0000 1.5855 0.0000
# 6 0.0000 0.0000 0.0000 0.0000 0.0000 30.5506
#
#
#
# Elastic Compliance Matrix: (Units=1/GPa)
#
#
# Indices 1 2 3 4 5 6 
#
# 1 0.014996 -0.009314 -0.003730 0.000000 0.000000 0.000000
# 2 -0.009314 0.064762 -0.009336 0.000000 0.000000 0.000000
# 3 -0.003730 -0.009336 0.011656 0.000000 0.000000 0.000000
# 4 0.000000 0.000000 0.000000 0.063655 0.000000 0.000000
# 5 0.000000 0.000000 0.000000 0.000000 0.630720 0.000000
# 6 0.000000 0.000000 0.000000 0.000000 0.000000 0.032733
#
#
# Mechanical properties :
#
#
# Convention : Reuss Voigt Hill
#
# Bulk Modulus (GPa) = 21.43469 44.82592 33.13030
# Shear Modulus (GPa) = 5.68937 19.10907 12.39922
#
# Velocity S-wave (km/s) = 1.72166 3.15525 2.54162
# Velocity P-wave (km/s) = 3.88836 6.05210 5.08661
#
# Compressibility (1/GPa) = 0.04665336
#
# Stress axis : x y z
#
# Youngs Moduli (GPa) = 66.68454 15.44121 85.79478
#
# Poissons Ratio (x) = 0.14382 0.32002
# Poissons Ratio (y) = 0.62111 0.80098
# Poissons Ratio (z) = 0.24873 0.14416
#
# Static dielectric constant tensor:
#      x y z
#    x 1.647700 0.000000 0.000000 
#    y 0.000000 1.652870 0.000000 
#    z 0.000000 0.000000 1.708690 
# 
# From -- ./inp_files/14768.got.cif
#   From: 2010.05.17/outbox.cif.g08.bks.cpg/sg39_8_cif.got.tgz:14768.got - 2010.06.03 18:22:40.
