data_PCOD9360635
_publ_section_title
;
Structure prediction by ZEFSAII (Michael W. Deem and Ramdas Pophale) SiO2 
 PCOD9360635
Probable space group: A B M 2
;
_chemical_formula_sum "Si O2"
_cell_formula_units_Z 64
_cell_length_a 20.744785
_cell_length_b 8.620706
_cell_length_c 20.313368
_cell_angle_alpha 90.000000
_cell_angle_beta 90.000000
_cell_angle_gamma 90.000000
_cell_volume 3632.734920
_symmetry_space_group_name_H-M "A B M 2"
_symmetry_group_IT_number 39
_symmetry_cell_setting 'orthorhombic'
loop_
_space_group_symop_operation_xyz
x,y,z
-x,-y,z
-x,1/2+y,z
x,1/2-y,z
x,1/2+y,1/2+z
-x,1/2-y,1/2+z
-x,y,1/2+z
x,-y,1/2+z
loop_
_atom_site_type_symbol
_atom_site_label
_atom_site_fract_x
_atom_site_fract_y
_atom_site_fract_z
Si Si1 0.929383 0.063733 0.371550
Si Si2 0.929157 0.934957 0.516729
Si Si3 0.821554 0.563699 0.764919
Si Si4 0.173993 0.063536 0.118943
Si Si5 0.429378 0.063834 0.864321
Si Si6 0.570237 0.937315 0.016768
Si Si7 0.320894 0.561674 0.617509
Si Si8 0.319870 0.563563 0.768776
O O1 0.932533 0.250000 0.375697
O O2 0.875442 0.020341 0.318363
O O3 0.913545 0.997808 0.443737
O O4 0.000000 0.000000 0.353257
O O5 0.931730 0.750000 0.515228
O O6 0.877009 0.992576 0.568966
O O7 0.000000 0.000000 0.533718
O O8 0.819838 0.750000 0.759759
O O9 0.837221 0.492573 0.693562
O O10 0.750827 0.502960 0.784710
O O11 0.170478 0.250000 0.116813
O O12 0.247500 0.015474 0.101540
O O13 0.429908 0.250000 0.860619
O O14 0.500000 0.000000 0.846041
O O15 0.374219 0.997725 0.817555
O O16 0.417538 0.018066 0.940698
O O17 0.568535 0.750000 0.019106
O O18 0.626000 0.993511 0.065795
O O19 0.500000 0.000000 0.035711
O O20 0.321962 0.750000 0.615976
O O21 0.334503 0.516089 0.693026
O O22 0.317193 0.750000 0.770974
#
# Coordination Sequence:
#
# PCOD9360635 Si02
#       8
#     8   8   8   8   8   8   8   8
#     4  10  21  37  57  80 108 141 178 222 270 321
#     4  11  22  37  57  81 110 142 179 222 268 322
#     4  10  21  37  56  80 110 144 183 224 269 323
#     4  10  20  36  57  80 109 144 181 223 271 320
#     4  10  20  34  53  76 104 138 174 217 265 318
#     4   9  18  34  53  74 101 133 171 212 257 308
#     4   8  17  34  54  75 101 135 172 212 259 309
#     4  10  20  35  55  78 106 139 176 220 268 319
#
# _framework density 17.617578999999999
#
# number of rings (size 3 to 8) (size 9 to 14) (size 15 to 20)
#    0.000    2.250    0.000    4.500    0.000    4.500 
#    0.000    8.750    0.000    0.000    0.000    0.000 
#    0.000    0.000    0.000    0.000    0.000    0.000 
#
# Total GULP energy -178615.298792 kJ/mol
# GULP energy per Si atom -5581.728087 kJ/mol
# Density = 1.757748 g / cm^3
# Si number density = 17.617579 Si / 1000 Ang^3
#
#
#
# Elastic Constant Matrix: (Units=GPa)
#
#
# Indices 1 2 3 4 5 6 
#
# 1 179.3585 55.8254 139.2621 0.0000 0.0000 0.0000
# 2 55.8254 65.4452 46.4450 0.0000 0.0000 0.0000
# 3 139.2621 46.4450 123.7041 0.0000 0.0000 0.0000
# 4 0.0000 0.0000 0.0000 27.2900 0.0000 0.0000
# 5 0.0000 0.0000 0.0000 0.0000 44.5501 0.0000
# 6 0.0000 0.0000 0.0000 0.0000 0.0000 32.9436
#
#
#
# Elastic Compliance Matrix: (Units=1/GPa)
#
#
# Indices 1 2 3 4 5 6 
#
# 1 0.044801 -0.003303 -0.049196 0.000000 0.000000 0.000000
# 2 -0.003303 0.021074 -0.004194 0.000000 0.000000 0.000000
# 3 -0.049196 -0.004194 0.065042 0.000000 0.000000 0.000000
# 4 0.000000 0.000000 0.000000 0.036643 0.000000 0.000000
# 5 0.000000 0.000000 0.000000 0.000000 0.022447 0.000000
# 6 0.000000 0.000000 0.000000 0.000000 0.000000 0.030355
#
#
# Mechanical properties :
#
#
# Convention : Reuss Voigt Hill
#
# Bulk Modulus (GPa) = 57.04083 94.61917 75.83000
# Shear Modulus (GPa) = 14.72359 29.42177 22.07268
#
# Velocity S-wave (km/s) = 2.89404 4.09103 3.54344
# Velocity P-wave (km/s) = 6.60415 8.72578 7.73802
#
# Compressibility (1/GPa) = 0.01753130
#
# Stress axis : x y z
#
# Youngs Moduli (GPa) = 22.32072 47.45263 15.37474
#
# Poissons Ratio (x) = 0.15673 0.75638
# Poissons Ratio (y) = 0.07372 0.06448
# Poissons Ratio (z) = 1.09809 0.19902
#
# Static dielectric constant tensor:
#      x y z
#    x 1.576140 0.000000 0.000000 
#    y 0.000000 1.596330 0.000000 
#    z 0.000000 0.000000 1.583270 
# 
# From -- ./inp_files/15053.got.cif
#   From: 2010.05.17/outbox.cif.g08.bks.cpg/sg39_8_cif.got.tgz:15053.got - 2010.06.03 18:22:40.
