data_PCOD9360951
_publ_section_title
;
Structure prediction by ZEFSAII (Michael W. Deem and Ramdas Pophale) SiO2 
 PCOD9360951
Probable space group: A B M 2
;
_chemical_formula_sum "Si O2"
_cell_formula_units_Z 48
_cell_length_a 19.492763
_cell_length_b 8.589257
_cell_length_c 15.312588
_cell_angle_alpha 90.000000
_cell_angle_beta 90.000000
_cell_angle_gamma 90.000000
_cell_volume 2563.761359
_symmetry_space_group_name_H-M "A B M 2"
_symmetry_group_IT_number 39
_symmetry_cell_setting 'orthorhombic'
loop_
_space_group_symop_operation_xyz
x,y,z
-x,-y,z
-x,1/2+y,z
x,1/2-y,z
x,1/2+y,1/2+z
-x,1/2-y,1/2+z
-x,y,1/2+z
x,-y,1/2+z
loop_
_atom_site_type_symbol
_atom_site_label
_atom_site_fract_x
_atom_site_fract_y
_atom_site_fract_z
Si Si1 0.574602 0.937067 0.239030
Si Si2 0.323283 0.937196 0.891294
Si Si3 0.924675 0.936419 0.545072
Si Si4 0.169753 0.435777 0.892243
Si Si5 0.575493 0.937402 0.036946
Si Si6 0.075341 0.436446 0.239433
O O1 0.571484 0.750000 0.241425
O O2 0.633464 0.987116 0.305713
O O3 0.587326 0.982871 0.138373
O O4 0.500000 0.000000 0.265458
O O5 0.317155 0.750000 0.890684
O O6 0.248456 0.011561 0.892275
O O7 0.367671 0.990748 0.974235
O O8 0.926494 0.750000 0.546510
O O9 0.869172 0.996470 0.476590
O O10 0.910455 0.000285 0.642194
O O11 0.000000 0.000000 0.519747
O O12 0.164688 0.250000 0.892538
O O13 0.130873 0.503250 0.807810
O O14 0.576234 0.750000 0.030592
O O15 0.500000 0.000000 0.012534
O O16 0.073658 0.250000 0.238279
O O17 0.000000 0.500000 0.264663
#
# Coordination Sequence:
#
# PCOD9360951 Si02
#       6
#     8   8   8   8   8   8
#     4   9  20  37  59  83 112 146 187 233 283 338
#     4  11  23  39  57  83 116 153 192 238 292 350
#     4  11  22  40  64  91 119 153 196 244 294 349
#     4  12  25  41  59  85 120 160 199 242 295 353
#     4  10  20  37  59  85 113 148 190 237 288 345
#     4  11  22  40  64  91 120 154 196 244 292 347
#
# _framework density 18.722491999999999
#
# number of rings (size 3 to 8) (size 9 to 14) (size 15 to 20)
#    0.000    1.333    0.000    7.500    0.000    4.667 
#    0.000    5.000    0.000    0.000    0.000    0.000 
#    0.000    0.000    0.000    0.000    0.000    0.000 
#
# Total GULP energy -134231.669134 kJ/mol
# GULP energy per Si atom -5592.986214 kJ/mol
# Density = 1.867988 g / cm^3
# Si number density = 18.722492 Si / 1000 Ang^3
#
#
#
# Elastic Constant Matrix: (Units=GPa)
#
#
# Indices 1 2 3 4 5 6 
#
# 1 183.1859 70.9467 114.5995 0.0000 0.0000 0.0000
# 2 70.9467 149.5072 55.4893 0.0000 0.0000 0.0000
# 3 114.5995 55.4893 111.7876 0.0000 0.0000 0.0000
# 4 0.0000 0.0000 0.0000 50.6787 0.0000 0.0000
# 5 0.0000 0.0000 0.0000 0.0000 -8.8939 0.0000
# 6 0.0000 0.0000 0.0000 0.0000 0.0000 37.8339
#
#
#
# Elastic Compliance Matrix: (Units=1/GPa)
#
#
# Indices 1 2 3 4 5 6 
#
# 1 0.015605 -0.001799 -0.015104 0.000000 0.000000 0.000000
# 2 -0.001799 0.008407 -0.002328 0.000000 0.000000 0.000000
# 3 -0.015104 -0.002328 0.025586 0.000000 0.000000 0.000000
# 4 0.000000 0.000000 0.000000 0.019732 0.000000 0.000000
# 5 0.000000 0.000000 0.000000 0.000000 -0.112437 0.000000
# 6 0.000000 0.000000 0.000000 0.000000 0.000000 0.026431
#
#
# Mechanical properties :
#
#
# Convention : Reuss Voigt Hill
#
# Bulk Modulus (GPa) = 89.82163 102.95019 96.38591
# Shear Modulus (GPa) = 196.08888 29.48675 112.78782
#
# Velocity S-wave (km/s) = 10.24508 3.97285 7.76998
# Velocity P-wave (km/s) = 13.71235 8.72649 11.49304
#
# Compressibility (1/GPa) = 0.01113318
#
# Stress axis : x y z
#
# Youngs Moduli (GPa) = 64.08261 118.95393 39.08451
#
# Poissons Ratio (x) = 0.21402 0.59034
# Poissons Ratio (y) = 0.11529 0.09101
# Poissons Ratio (z) = 0.96792 0.27698
#
# Static dielectric constant tensor:
#      x y z
#    x 1.605320 0.000000 0.000000 
#    y 0.000000 1.627330 0.000000 
#    z 0.000000 0.000000 1.644360 
# 
# From -- ./inp_files/10044.got.cif
#   From: 2010.05.17/outbox.cif.g08.bks.cpg/sg39_6_cif.got.tgz:10044.got - 2010.06.03 18:22:40.
