data_PCOD9360384
_publ_section_title
;
Structure prediction by ZEFSAII (Michael W. Deem and Ramdas Pophale) SiO2 
 PCOD9360384
Probable space group: A B M 2
;
_chemical_formula_sum "Si O2"
_cell_formula_units_Z 64
_cell_length_a 12.343562
_cell_length_b 25.962335
_cell_length_c 11.464797
_cell_angle_alpha 90.000000
_cell_angle_beta 90.000000
_cell_angle_gamma 90.000000
_cell_volume 3674.097031
_symmetry_space_group_name_H-M "A B M 2"
_symmetry_group_IT_number 39
_symmetry_cell_setting 'orthorhombic'
loop_
_space_group_symop_operation_xyz
x,y,z
-x,-y,z
-x,1/2+y,z
x,1/2-y,z
x,1/2+y,1/2+z
-x,1/2-y,1/2+z
-x,y,1/2+z
x,-y,1/2+z
loop_
_atom_site_type_symbol
_atom_site_label
_atom_site_fract_x
_atom_site_fract_y
_atom_site_fract_z
Si Si1 0.929477 0.812202 0.508000
Si Si2 0.356048 0.362297 0.881947
Si Si3 0.823179 0.811132 0.036139
Si Si4 0.406983 0.146818 0.460086
Si Si5 0.235777 0.810587 0.805677
Si Si6 0.616258 0.970424 0.539924
Si Si7 0.265579 0.309066 0.655648
Si Si8 0.375860 0.519732 0.305908
O O1 0.931514 0.750000 0.518568
O O2 0.865740 0.823725 0.388998
O O3 0.849743 0.831101 0.611064
O O4 0.053523 0.828192 0.511929
O O5 0.469379 0.341604 0.931602
O O6 0.320171 0.336919 0.761982
O O7 0.373060 0.422000 0.852169
O O8 0.261323 0.347112 0.970156
O O9 0.811587 0.750000 0.002824
O O10 0.798578 0.814967 0.172780
O O11 0.335390 0.153120 0.343014
O O12 0.399869 0.090638 0.520235
O O13 0.347509 0.185645 0.547599
O O14 0.263668 0.750000 0.826139
O O15 0.665147 0.981238 0.670145
O O16 0.500000 0.000000 0.540543
O O17 0.672486 0.988659 0.417865
O O18 0.248336 0.250000 0.687049
O O19 0.500000 0.500000 0.296135
#
# Coordination Sequence:
#
# PCOD9360384 Si02
#       8
#     8   8   8   8   8   8   8   8
#     4   8  17  37  58  76 107 155 206 246 283 335
#     4  12  23  34  55  88 118 149 193 241 295 352
#     4  10  22  35  55  85 116 153 202 253 289 334
#     4  11  21  36  55  79 118 156 190 231 291 364
#     4   9  20  36  54  79 115 160 199 233 287 349
#     4  10  19  35  57  79 108 150 195 240 285 340
#     4  10  22  37  55  80 117 163 196 227 286 350
#     4  10  20  36  56  80 114 146 190 244 290 351
#
# _framework density 17.419245
#
# number of rings (size 3 to 8) (size 9 to 14) (size 15 to 20)
#    0.000    2.000    3.750    1.500    3.500    3.000 
#    0.000    0.000    0.000    0.000    0.000    3.500 
#    0.000    0.000    0.000    0.000    0.000    0.000 
#
# Total GULP energy -178161.421661 kJ/mol
# GULP energy per Si atom -5567.544427 kJ/mol
# Density = 1.737960 g / cm^3
# Si number density = 17.419245 Si / 1000 Ang^3
#
#
#
# Elastic Constant Matrix: (Units=GPa)
#
#
# Indices 1 2 3 4 5 6 
#
# 1 121.9906 25.7623 41.6852 0.0000 0.0000 0.0000
# 2 25.7623 49.5070 17.8239 0.0000 0.0000 0.0000
# 3 41.6852 17.8239 106.9697 0.0000 0.0000 0.0000
# 4 0.0000 0.0000 0.0000 26.3732 0.0000 0.0000
# 5 0.0000 0.0000 0.0000 0.0000 9.1907 0.0000
# 6 0.0000 0.0000 0.0000 0.0000 0.0000 -64.1253
#
#
#
# Elastic Compliance Matrix: (Units=1/GPa)
#
#
# Indices 1 2 3 4 5 6 
#
# 1 0.010190 -0.004120 -0.003284 0.000000 0.000000 0.000000
# 2 -0.004120 0.023154 -0.002253 0.000000 0.000000 0.000000
# 3 -0.003284 -0.002253 0.011004 0.000000 0.000000 0.000000
# 4 0.000000 0.000000 0.000000 0.037917 0.000000 0.000000
# 5 0.000000 0.000000 0.000000 0.000000 0.108806 0.000000
# 6 0.000000 0.000000 0.000000 0.000000 0.000000 -0.015594
#
#
# Mechanical properties :
#
#
# Convention : Reuss Voigt Hill
#
# Bulk Modulus (GPa) = 39.94620 49.89000 44.91810
# Shear Modulus (GPa) = 24.61422 7.16744 15.89083
#
# Velocity S-wave (km/s) = 3.76313 2.03067 3.02364
# Velocity P-wave (km/s) = 6.47020 5.84817 6.16703
#
# Compressibility (1/GPa) = 0.02503367
#
# Stress axis : x y z
#
# Youngs Moduli (GPa) = 98.13807 43.18891 90.87896
#
# Poissons Ratio (x) = 0.17794 0.29848
# Poissons Ratio (y) = 0.40433 0.20471
# Poissons Ratio (z) = 0.32232 0.09728
#
# Static dielectric constant tensor:
#      x y z
#    x 1.583920 0.000000 0.000000 
#    y 0.000000 1.548320 0.000000 
#    z 0.000000 0.000000 1.662810 
# 
# From -- ./inp_files/6090.got.cif
#   From: 2010.05.17/outbox.cif.g08.bks.cpg/sg39_4_cif.got.tgz:6090.got - 2010.06.03 18:22:40.
