data_PCOD9360498
_publ_section_title
;
Structure prediction by ZEFSAII (Michael W. Deem and Ramdas Pophale) SiO2 
 PCOD9360498
Probable space group: A B M 2
;
_chemical_formula_sum "Si O2"
_cell_formula_units_Z 40
_cell_length_a 7.912363
_cell_length_b 18.735045
_cell_length_c 12.745176
_cell_angle_alpha 90.000000
_cell_angle_beta 90.000000
_cell_angle_gamma 90.000000
_cell_volume 1889.325478
_symmetry_space_group_name_H-M "A B M 2"
_symmetry_group_IT_number 39
_symmetry_cell_setting 'orthorhombic'
loop_
_space_group_symop_operation_xyz
x,y,z
-x,-y,z
-x,1/2+y,z
x,1/2-y,z
x,1/2+y,1/2+z
-x,1/2-y,1/2+z
-x,y,1/2+z
x,-y,1/2+z
loop_
_atom_site_type_symbol
_atom_site_label
_atom_site_fract_x
_atom_site_fract_y
_atom_site_fract_z
Si Si1 0.149986 0.896958 0.738870
Si Si2 0.175055 0.831308 0.528423
Si Si3 0.829642 0.913541 0.468865
Si Si4 0.653043 0.050980 0.415848
Si Si5 0.232657 0.559342 0.197867
O O1 0.188050 0.837663 0.653525
O O2 0.220508 0.882395 0.854973
O O3 0.946372 0.909035 0.739893
O O4 0.214161 0.973217 0.693031
O O5 0.168114 0.750000 0.493406
O O6 0.325509 0.877029 0.478905
O O7 0.005451 0.874223 0.495232
O O8 0.736091 0.910207 0.581972
O O9 0.812955 0.997996 0.438745
O O10 0.640072 0.070545 0.293175
O O11 0.500000 0.000000 0.445612
#
# Coordination Sequence:
#
# PCOD9360498 Si02
#       5
#     8   8   8   8   8
#     4   9  17  31  58  88 121 152 203 268 309 360
#     4  11  22  38  61  93 129 166 212 269 326 380
#     4  10  19  38  61  89 123 160 217 268 305 369
#     4  11  22  38  61  94 128 168 215 263 315 389
#     4   9  17  31  58  88 119 152 211 262 305 361
#
# _framework density 21.171578
#
# number of rings (size 3 to 8) (size 9 to 14) (size 15 to 20)
#    0.000    2.000    4.000    0.600    0.000    1.600 
#    0.000    1.000    0.000    1.200    0.000    0.000 
#    0.000    0.000    0.000    0.000    0.000    0.000 
#
# Total GULP energy -111372.217939 kJ/mol
# GULP energy per Si atom -5568.610897 kJ/mol
# Density = 2.112339 g / cm^3
# Si number density = 21.171578 Si / 1000 Ang^3
#
#
#
# Elastic Constant Matrix: (Units=GPa)
#
#
# Indices 1 2 3 4 5 6 
#
# 1 60.0412 41.5167 28.9834 0.0000 0.0000 0.0000
# 2 41.5167 102.1809 42.7177 0.0000 0.0000 0.0000
# 3 28.9834 42.7177 162.7135 0.0000 0.0000 0.0000
# 4 0.0000 0.0000 0.0000 13.6093 0.0000 0.0000
# 5 0.0000 0.0000 0.0000 0.0000 10.4842 0.0000
# 6 0.0000 0.0000 0.0000 0.0000 0.0000 11.0219
#
#
#
# Elastic Compliance Matrix: (Units=1/GPa)
#
#
# Indices 1 2 3 4 5 6 
#
# 1 0.023675 -0.008825 -0.001900 0.000000 0.000000 0.000000
# 2 -0.008825 0.014282 -0.002178 0.000000 0.000000 0.000000
# 3 -0.001900 -0.002178 0.007056 0.000000 0.000000 0.000000
# 4 0.000000 0.000000 0.000000 0.073479 0.000000 0.000000
# 5 0.000000 0.000000 0.000000 0.000000 0.095382 0.000000
# 6 0.000000 0.000000 0.000000 0.000000 0.000000 0.090728
#
#
# Mechanical properties :
#
#
# Convention : Reuss Voigt Hill
#
# Bulk Modulus (GPa) = 52.06250 61.26345 56.66298
# Shear Modulus (GPa) = 14.84514 21.13759 17.99136
#
# Velocity S-wave (km/s) = 2.65086 3.16317 2.91828
# Velocity P-wave (km/s) = 5.83211 6.50694 6.17875
#
# Compressibility (1/GPa) = 0.01920768
#
# Stress axis : x y z
#
# Youngs Moduli (GPa) = 42.23947 70.01578 141.72367
#
# Poissons Ratio (x) = 0.61787 0.26931
# Poissons Ratio (y) = 0.37275 0.30864
# Poissons Ratio (z) = 0.08027 0.15248
#
# Static dielectric constant tensor:
#      x y z
#    x 1.915610 0.000000 0.000000 
#    y 0.000000 1.698140 0.000000 
#    z 0.000000 0.000000 1.831320 
# 
# From -- ./inp_files/4923.got.cif
#   From: 2010.05.17/outbox.cif.g08.bks.cpg/sg39_3_cif.got.tgz:4923.got - 2010.06.03 18:22:40.
