data_PCOD9360570
_publ_section_title
;
Structure prediction by ZEFSAII (Michael W. Deem and Ramdas Pophale) SiO2 
 PCOD9360570
Probable space group: A B M 2
;
_chemical_formula_sum "Si O2"
_cell_formula_units_Z 48
_cell_length_a 16.253197
_cell_length_b 8.736441
_cell_length_c 19.226625
_cell_angle_alpha 90.000000
_cell_angle_beta 90.000000
_cell_angle_gamma 90.000000
_cell_volume 2730.086475
_symmetry_space_group_name_H-M "A B M 2"
_symmetry_group_IT_number 39
_symmetry_cell_setting 'orthorhombic'
loop_
_space_group_symop_operation_xyz
x,y,z
-x,-y,z
-x,1/2+y,z
x,1/2-y,z
x,1/2+y,1/2+z
-x,1/2-y,1/2+z
-x,y,1/2+z
x,-y,1/2+z
loop_
_atom_site_type_symbol
_atom_site_label
_atom_site_fract_x
_atom_site_fract_y
_atom_site_fract_z
Si Si1 0.917673 0.932298 0.485480
Si Si2 0.412761 0.932448 0.735996
Si Si3 0.736849 0.934176 0.481164
Si Si4 0.586753 0.566110 0.581464
Si Si5 0.917002 0.933153 0.828831
Si Si6 0.266140 0.932881 0.326241
O O1 0.926343 0.750000 0.482464
O O2 0.826804 0.969909 0.513713
O O3 0.915298 0.998357 0.406940
O O4 0.000000 0.000000 0.519600
O O5 0.418324 0.750000 0.733555
O O6 0.500000 0.000000 0.761753
O O7 0.400862 0.998158 0.658319
O O8 0.337328 0.985613 0.783304
O O9 0.734919 0.750000 0.469663
O O10 0.662194 0.975109 0.531523
O O11 0.729360 0.015362 0.406683
O O12 0.500000 0.500000 0.554993
O O13 0.581669 0.750000 0.586211
O O14 0.924002 0.750000 0.832839
O O15 0.826549 0.970972 0.799467
O O16 0.000000 0.000000 0.794925
O O17 0.275957 0.750000 0.321809
#
# Coordination Sequence:
#
# PCOD9360570 Si02
#       6
#     8   8   8   8   8   8
#     4   9  15  25  42  66  96 129 163 198 240 288
#     4  11  22  37  56  75  98 130 168 207 250 302
#     4   9  19  33  50  74 104 135 165 203 250 296
#     4  10  20  36  55  74  98 129 166 204 247 299
#     4   9  16  26  43  68  98 131 164 200 242 289
#     4  10  20  33  51  77 106 134 167 208 251 294
#
# _framework density 17.581859999999999
#
# number of rings (size 3 to 8) (size 9 to 14) (size 15 to 20)
#    0.000    2.333    0.000    5.500    0.000    4.667 
#    0.000    1.667    0.000    1.000    0.000    2.333 
#    0.000    0.000    0.000    0.000    0.000    0.000 
#
# Total GULP energy -133761.624834 kJ/mol
# GULP energy per Si atom -5573.401035 kJ/mol
# Density = 1.754184 g / cm^3
# Si number density = 17.581860 Si / 1000 Ang^3
#
#
#
# Elastic Constant Matrix: (Units=GPa)
#
#
# Indices 1 2 3 4 5 6 
#
# 1 214.6314 75.4415 60.8126 0.0000 0.0000 0.0000
# 2 75.4415 82.7412 26.1053 0.0000 0.0000 0.0000
# 3 60.8126 26.1053 30.3771 0.0000 0.0000 0.0000
# 4 0.0000 0.0000 0.0000 19.4839 0.0000 0.0000
# 5 0.0000 0.0000 0.0000 0.0000 -17.9474 0.0000
# 6 0.0000 0.0000 0.0000 0.0000 0.0000 33.2152
#
#
#
# Elastic Compliance Matrix: (Units=1/GPa)
#
#
# Indices 1 2 3 4 5 6 
#
# 1 0.011908 -0.004577 -0.019905 0.000000 0.000000 0.000000
# 2 -0.004577 0.018341 -0.006599 0.000000 0.000000 0.000000
# 3 -0.019905 -0.006599 0.078439 0.000000 0.000000 0.000000
# 4 0.000000 0.000000 0.000000 0.051324 0.000000 0.000000
# 5 0.000000 0.000000 0.000000 0.000000 -0.055718 0.000000
# 6 0.000000 0.000000 0.000000 0.000000 0.000000 0.030107
#
#
# Mechanical properties :
#
#
# Convention : Reuss Voigt Hill
#
# Bulk Modulus (GPa) = 21.49357 72.49651 46.99504
# Shear Modulus (GPa) = 23.57702 17.97636 20.77669
#
# Velocity S-wave (km/s) = 3.66592 3.20103 3.44133
# Velocity P-wave (km/s) = 5.49272 7.41521 6.52516
#
# Compressibility (1/GPa) = 0.04652554
#
# Stress axis : x y z
#
# Youngs Moduli (GPa) = 83.97911 54.52217 12.74881
#
# Poissons Ratio (x) = 0.24955 0.25376
# Poissons Ratio (y) = 0.38438 0.08413
# Poissons Ratio (z) = 1.67160 0.35979
#
# Static dielectric constant tensor:
#      x y z
#    x 1.660900 0.000000 0.000000 
#    y 0.000000 1.588530 0.000000 
#    z 0.000000 0.000000 1.557050 
# 
# From -- ./inp_files/14591.got.cif
#   From: 2010.05.17/outbox.cif.g08.bks.cpg/sg39_8_cif.got.tgz:14591.got - 2010.06.03 18:22:40.
