data_PCOD9360388
_publ_section_title
;
Structure prediction by ZEFSAII (Michael W. Deem and Ramdas Pophale) SiO2 
 PCOD9360388
Probable space group: A B M 2
;
_chemical_formula_sum "Si O2"
_cell_formula_units_Z 64
_cell_length_a 14.775409
_cell_length_b 9.026859
_cell_length_c 25.016108
_cell_angle_alpha 90.000000
_cell_angle_beta 90.000000
_cell_angle_gamma 90.000000
_cell_volume 3336.536756
_symmetry_space_group_name_H-M "A B M 2"
_symmetry_group_IT_number 39
_symmetry_cell_setting 'orthorhombic'
loop_
_space_group_symop_operation_xyz
x,y,z
-x,-y,z
-x,1/2+y,z
x,1/2-y,z
x,1/2+y,1/2+z
-x,1/2-y,1/2+z
-x,y,1/2+z
x,-y,1/2+z
loop_
_atom_site_type_symbol
_atom_site_label
_atom_site_fract_x
_atom_site_fract_y
_atom_site_fract_z
Si Si1 0.230826 0.075704 0.483120
Si Si2 0.205148 0.428092 0.785114
Si Si3 0.099520 0.571553 0.884009
Si Si4 0.157618 0.919574 0.675699
Si Si5 0.590978 0.926035 0.755138
Si Si6 0.914022 0.924090 0.573648
Si Si7 0.406707 0.073039 0.022722
Si Si8 0.367700 0.419704 0.145115
O O1 0.253384 0.250000 0.478442
O O2 0.163237 0.037359 0.434941
O O3 0.173862 0.054456 0.537349
O O4 0.322002 0.982998 0.488398
O O5 0.198355 0.250000 0.788280
O O6 0.152191 0.505445 0.833105
O O7 0.162334 0.487483 0.729951
O O8 0.312742 0.467802 0.782263
O O9 0.090946 0.750000 0.879981
O O10 0.000000 0.500000 0.888592
O O11 0.129096 0.750000 0.685580
O O12 0.259637 0.916106 0.652408
O O13 0.099886 0.997612 0.630205
O O14 0.582787 0.750000 0.757489
O O15 0.500000 0.000000 0.777876
O O16 0.598506 0.978579 0.693378
O O17 0.929540 0.750000 0.579882
O O18 0.000000 0.000000 0.546195
O O19 0.411846 0.250000 0.021076
O O20 0.391464 0.029839 0.085361
O O21 0.500000 0.000000 0.004653
O O22 0.401032 0.250000 0.152474
#
# Coordination Sequence:
#
# PCOD9360388 Si02
#       8
#     8   8   8   8   8   8   8   8
#     4  10  23  42  63  88 120 156 199 249 302 357
#     4  10  22  40  61  89 121 157 201 249 302 355
#     4  11  24  44  69  94 117 151 198 251 306 362
#     4  10  19  35  57  85 121 158 197 243 297 355
#     4  10  20  33  54  84 120 160 201 243 291 349
#     4  11  22  36  57  86 120 157 195 241 297 363
#     4  11  22  36  57  87 122 162 204 247 297 355
#     4   9  18  32  52  81 117 159 201 241 288 344
#
# _framework density 19.181566
#
# number of rings (size 3 to 8) (size 9 to 14) (size 15 to 20)
#    0.000    1.750    1.250    3.000    0.000    6.000 
#    0.000    3.125    0.000    1.500    0.000    0.000 
#    0.000    0.000    0.000    0.000    0.000    0.000 
#
# Total GULP energy -178736.152257 kJ/mol
# GULP energy per Si atom -5585.504758 kJ/mol
# Density = 1.913791 g / cm^3
# Si number density = 19.181566 Si / 1000 Ang^3
#
#
#
# Elastic Constant Matrix: (Units=GPa)
#
#
# Indices 1 2 3 4 5 6 
#
# 1 136.8738 74.7943 54.0734 0.0000 0.0000 0.0000
# 2 74.7943 85.0185 46.5838 0.0000 0.0000 0.0000
# 3 54.0734 46.5838 86.7586 0.0000 0.0000 0.0000
# 4 0.0000 0.0000 0.0000 22.6144 0.0000 0.0000
# 5 0.0000 0.0000 0.0000 0.0000 15.4071 0.0000
# 6 0.0000 0.0000 0.0000 0.0000 0.0000 36.0029
#
#
#
# Elastic Compliance Matrix: (Units=1/GPa)
#
#
# Indices 1 2 3 4 5 6 
#
# 1 0.014647 -0.011169 -0.003131 0.000000 0.000000 0.000000
# 2 -0.011169 0.025183 -0.006560 0.000000 0.000000 0.000000
# 3 -0.003131 -0.006560 0.017000 0.000000 0.000000 0.000000
# 4 0.000000 0.000000 0.000000 0.044220 0.000000 0.000000
# 5 0.000000 0.000000 0.000000 0.000000 0.064905 0.000000
# 6 0.000000 0.000000 0.000000 0.000000 0.000000 0.027776
#
#
# Mechanical properties :
#
#
# Convention : Reuss Voigt Hill
#
# Bulk Modulus (GPa) = 66.19076 73.28377 69.73726
# Shear Modulus (GPa) = 20.79108 23.68483 22.23796
#
# Velocity S-wave (km/s) = 3.29585 3.51774 3.40860
# Velocity P-wave (km/s) = 7.00471 7.40186 7.20602
#
# Compressibility (1/GPa) = 0.01510785
#
# Stress axis : x y z
#
# Youngs Moduli (GPa) = 68.27508 39.70963 58.82265
#
# Poissons Ratio (x) = 0.44354 0.18420
# Poissons Ratio (y) = 0.76260 0.38588
# Poissons Ratio (z) = 0.21380 0.26050
#
# Static dielectric constant tensor:
#      x y z
#    x 1.701460 0.000000 0.000000 
#    y 0.000000 1.645890 0.000000 
#    z 0.000000 0.000000 1.648450 
# 
# From -- ./inp_files/16151.got.cif
#   From: 2010.05.17/outbox.cif.g08.bks.cpg/sg39_9_cif.got.tgz:16151.got - 2010.06.03 18:22:40.
