data_PCOD9360492
_publ_section_title
;
Structure prediction by ZEFSAII (Michael W. Deem and Ramdas Pophale) SiO2 
 PCOD9360492
Probable space group: A B M 2
;
_chemical_formula_sum "Si O2"
_cell_formula_units_Z 48
_cell_length_a 9.328536
_cell_length_b 14.754554
_cell_length_c 18.127220
_cell_angle_alpha 90.000000
_cell_angle_beta 90.000000
_cell_angle_gamma 90.000000
_cell_volume 2495.001342
_symmetry_space_group_name_H-M "A B M 2"
_symmetry_group_IT_number 39
_symmetry_cell_setting 'orthorhombic'
loop_
_space_group_symop_operation_xyz
x,y,z
-x,-y,z
-x,1/2+y,z
x,1/2-y,z
x,1/2+y,1/2+z
-x,1/2-y,1/2+z
-x,y,1/2+z
x,-y,1/2+z
loop_
_atom_site_type_symbol
_atom_site_label
_atom_site_fract_x
_atom_site_fract_y
_atom_site_fract_z
Si Si1 0.864341 0.062326 0.090000
Si Si2 0.375027 0.250000 0.791886
Si Si3 0.862427 0.102189 0.265760
Si Si4 0.368244 0.436261 0.138338
Si Si5 0.350417 0.750000 0.876109
Si Si6 0.814524 0.600689 0.284572
Si Si7 0.217821 0.750000 0.035602
Si Si8 0.493260 0.750000 0.131215
O O1 0.865299 0.087565 0.177184
O O2 0.865599 0.155588 0.044968
O O3 0.722470 0.999913 0.083289
O O4 0.000000 0.000000 0.073841
O O5 0.268358 0.334321 0.786583
O O6 0.480481 0.250000 0.860901
O O7 0.478302 0.250000 0.720011
O O8 0.022319 0.136945 0.282929
O O9 0.834199 0.005138 0.303449
O O10 0.500000 0.500000 0.165955
O O11 0.262654 0.404690 0.204477
O O12 0.431256 0.342856 0.107067
O O13 0.281206 0.838060 0.836986
O O14 0.305250 0.750000 0.960388
O O15 0.332372 0.750000 0.101752
#
# Coordination Sequence:
#
# PCOD9360492 Si02
#       8
#     8   4   8   8   4   8   4   4
#     4  11  21  40  67 101 126 170 218 282 344 393
#     4  12  21  36  65  95 123 174 223 268 336 388
#     4  10  19  37  67  98 124 155 215 286 323 385
#     4  11  19  33  65 100 125 159 221 278 333 385
#     4  12  27  40  59  94 130 181 214 261 330 415
#     4  10  20  37  60  93 130 157 211 270 330 383
#     4  12  26  45  61  90 146 179 215 269 346 412
#     4  12  20  35  63  91 125 166 214 280 322 379
#
# _framework density 19.238465000000001
#
# number of rings (size 3 to 8) (size 9 to 14) (size 15 to 20)
#    0.000    1.000    8.333    1.500    0.000    0.667 
#    3.000    3.333    3.667    0.000    0.000    0.000 
#    0.000    0.000    0.000    0.000    0.000    0.000 
#
# Total GULP energy -133915.760696 kJ/mol
# GULP energy per Si atom -5579.823362 kJ/mol
# Density = 1.919468 g / cm^3
# Si number density = 19.238465 Si / 1000 Ang^3
#
#
#
# Elastic Constant Matrix: (Units=GPa)
#
#
# Indices 1 2 3 4 5 6 
#
# 1 120.3111 61.7175 7.4698 0.0000 0.0000 0.0000
# 2 61.7175 140.3864 20.9084 0.0000 0.0000 0.0000
# 3 7.4698 20.9084 34.8898 0.0000 0.0000 0.0000
# 4 0.0000 0.0000 0.0000 -39.0718 0.0000 0.0000
# 5 0.0000 0.0000 0.0000 0.0000 6.6242 0.0000
# 6 0.0000 0.0000 0.0000 0.0000 0.0000 2.5588
#
#
#
# Elastic Compliance Matrix: (Units=1/GPa)
#
#
# Indices 1 2 3 4 5 6 
#
# 1 0.010743 -0.004810 0.000582 0.000000 0.000000 0.000000
# 2 -0.004810 0.009974 -0.004948 0.000000 0.000000 0.000000
# 3 0.000582 -0.004948 0.031502 0.000000 0.000000 0.000000
# 4 0.000000 0.000000 0.000000 -0.025594 0.000000 0.000000
# 5 0.000000 0.000000 0.000000 0.000000 0.150963 0.000000
# 6 0.000000 0.000000 0.000000 0.000000 0.000000 0.390812
#
#
# Mechanical properties :
#
#
# Convention : Reuss Voigt Hill
#
# Bulk Modulus (GPa) = 29.52527 52.86431 41.19479
# Shear Modulus (GPa) = 8.36065 7.72166 8.04116
#
# Velocity S-wave (km/s) = 2.08692 2.00558 2.04666
# Velocity P-wave (km/s) = 4.60297 5.73596 5.20041
#
# Compressibility (1/GPa) = 0.03386930
#
# Stress axis : x y z
#
# Youngs Moduli (GPa) = 93.08508 100.25576 31.74395
#
# Poissons Ratio (x) = 0.48219 -0.01848
# Poissons Ratio (y) = 0.44770 0.15706
# Poissons Ratio (z) = -0.05419 0.49604
#
# Static dielectric constant tensor:
#      x y z
#    x 1.695140 0.000000 0.000000 
#    y 0.000000 1.728540 0.000000 
#    z 0.000000 0.000000 1.638950 
# 
# From -- ./inp_files/13967.got.cif
#   From: 2010.05.17/outbox.cif.g08.bks.cpg/sg39_7_cif.got.tgz:13967.got - 2010.06.03 18:22:40.
