data_PCOD9360380
_publ_section_title
;
Structure prediction by ZEFSAII (Michael W. Deem and Ramdas Pophale) SiO2 
 PCOD9360380
Probable space group: A B M 2
;
_chemical_formula_sum "Si O2"
_cell_formula_units_Z 64
_cell_length_a 9.050181
_cell_length_b 15.099578
_cell_length_c 22.764226
_cell_angle_alpha 90.000000
_cell_angle_beta 90.000000
_cell_angle_gamma 90.000000
_cell_volume 3110.820580
_symmetry_space_group_name_H-M "A B M 2"
_symmetry_group_IT_number 39
_symmetry_cell_setting 'orthorhombic'
loop_
_space_group_symop_operation_xyz
x,y,z
-x,-y,z
-x,1/2+y,z
x,1/2-y,z
x,1/2+y,1/2+z
-x,1/2-y,1/2+z
-x,y,1/2+z
x,-y,1/2+z
loop_
_atom_site_type_symbol
_atom_site_label
_atom_site_fract_x
_atom_site_fract_y
_atom_site_fract_z
Si Si1 0.550334 0.099955 0.190820
Si Si2 0.678225 0.856647 0.403831
Si Si3 0.171694 0.524742 0.999420
Si Si4 0.346068 0.654850 0.592148
Si Si5 0.307875 0.355014 0.270434
Si Si6 0.375886 0.854740 0.466940
Si Si7 0.811111 0.350076 0.114042
Si Si8 0.899328 0.085588 0.662938
O O1 0.456427 0.156946 0.145514
O O2 0.478395 0.124011 0.252874
O O3 0.715118 0.116880 0.170346
O O4 0.500000 0.000000 0.179559
O O5 0.693258 0.750000 0.408153
O O6 0.785212 0.906462 0.448269
O O7 0.713308 0.884559 0.337148
O O8 0.507641 0.876564 0.422390
O O9 0.255291 0.433030 0.977577
O O10 0.000000 0.500000 0.003074
O O11 0.205523 0.582229 0.059205
O O12 0.269840 0.750000 0.586394
O O13 0.439001 0.642357 0.533483
O O14 0.222274 0.585047 0.610777
O O15 0.287701 0.250000 0.267712
O O16 0.194851 0.394307 0.221802
O O17 0.329396 0.750000 0.456589
O O18 0.767064 0.250000 0.097322
O O19 0.977924 0.347702 0.138533
O O20 0.000000 0.000000 0.670661
#
# Coordination Sequence:
#
# PCOD9360380 Si02
#       8
#     8   8   8   8   8   8   8   8
#     4  11  21  34  56  87 120 155 198 249 298 350
#     4  10  23  44  67  89 117 160 214 265 311 362
#     4  12  25  40  61  91 130 166 202 252 310 374
#     4  10  19  35  56  80 115 157 196 236 296 360
#     4  10  22  43  64  84 117 160 202 247 306 365
#     4  10  21  39  65  91 118 158 207 259 309 363
#     4  12  23  37  60  93 129 161 200 246 299 363
#     4  11  21  36  59  89 124 161 200 242 297 363
#
# _framework density 20.573350000000001
#
# number of rings (size 3 to 8) (size 9 to 14) (size 15 to 20)
#    0.000    1.250    0.000    8.625    0.000    4.500 
#    0.000    1.250    0.000    3.000    0.000    0.000 
#    0.000    0.000    0.000    0.000    0.000    0.000 
#
# Total GULP energy -178173.225447 kJ/mol
# GULP energy per Si atom -5567.913295 kJ/mol
# Density = 2.052652 g / cm^3
# Si number density = 20.573350 Si / 1000 Ang^3
#
#
#
# Elastic Constant Matrix: (Units=GPa)
#
#
# Indices 1 2 3 4 5 6 
#
# 1 72.8264 22.3003 17.7605 0.0000 0.0000 0.0000
# 2 22.3003 113.6035 35.9278 0.0000 0.0000 0.0000
# 3 17.7605 35.9278 110.0801 0.0000 0.0000 0.0000
# 4 0.0000 0.0000 0.0000 19.1861 0.0000 0.0000
# 5 0.0000 0.0000 0.0000 0.0000 29.3112 0.0000
# 6 0.0000 0.0000 0.0000 0.0000 0.0000 25.0022
#
#
#
# Elastic Compliance Matrix: (Units=1/GPa)
#
#
# Indices 1 2 3 4 5 6 
#
# 1 0.014862 -0.002408 -0.001612 0.000000 0.000000 0.000000
# 2 -0.002408 0.010206 -0.002943 0.000000 0.000000 0.000000
# 3 -0.001612 -0.002943 0.010305 0.000000 0.000000 0.000000
# 4 0.000000 0.000000 0.000000 0.052121 0.000000 0.000000
# 5 0.000000 0.000000 0.000000 0.000000 0.034117 0.000000
# 6 0.000000 0.000000 0.000000 0.000000 0.000000 0.039997
#
#
# Mechanical properties :
#
#
# Convention : Reuss Voigt Hill
#
# Bulk Modulus (GPa) = 46.62440 49.83192 48.22816
# Shear Modulus (GPa) = 27.37028 29.40131 28.38580
#
# Velocity S-wave (km/s) = 3.65139 3.78444 3.71851
# Velocity P-wave (km/s) = 6.36306 6.58560 6.47529
#
# Compressibility (1/GPa) = 0.02144800
#
# Stress axis : x y z
#
# Youngs Moduli (GPa) = 67.28738 97.98422 97.04255
#
# Poissons Ratio (x) = 0.23590 0.15644
# Poissons Ratio (y) = 0.16200 0.28555
# Poissons Ratio (z) = 0.10847 0.28832
#
# Static dielectric constant tensor:
#      x y z
#    x 1.782770 0.000000 0.000000 
#    y 0.000000 1.916100 0.000000 
#    z 0.000000 0.000000 1.739390 
# 
# From -- ./inp_files/15697.got.cif
#   From: 2010.05.17/outbox.cif.g08.bks.cpg/sg39_8_cif.got.tgz:15697.got - 2010.06.03 18:22:40.
