data_PCOD9360652
_publ_section_title
;
Structure prediction by ZEFSAII (Michael W. Deem and Ramdas Pophale) SiO2 
 PCOD9360652
Probable space group: A B M 2
;
_chemical_formula_sum "Si O2"
_cell_formula_units_Z 64
_cell_length_a 8.610337
_cell_length_b 13.491361
_cell_length_c 19.628174
_cell_angle_alpha 90.000000
_cell_angle_beta 90.000000
_cell_angle_gamma 90.000000
_cell_volume 2280.110067
_symmetry_space_group_name_H-M "A B M 2"
_symmetry_group_IT_number 39
_symmetry_cell_setting 'orthorhombic'
loop_
_space_group_symop_operation_xyz
x,y,z
-x,-y,z
-x,1/2+y,z
x,1/2-y,z
x,1/2+y,1/2+z
-x,1/2-y,1/2+z
-x,y,1/2+z
x,-y,1/2+z
loop_
_atom_site_type_symbol
_atom_site_label
_atom_site_fract_x
_atom_site_fract_y
_atom_site_fract_z
Si Si1 0.384368 0.867282 0.829920
Si Si2 0.970387 0.360362 0.834821
Si Si3 0.584962 0.131750 0.528722
Si Si4 0.296951 0.870855 0.273368
Si Si5 0.706095 0.631776 0.176038
Si Si6 0.000774 0.639013 0.617685
Si Si7 0.884256 0.591421 0.973579
Si Si8 0.665601 0.371127 0.114040
O O1 0.391567 0.750000 0.850523
O O2 0.568684 0.901259 0.828713
O O3 0.359728 0.880838 0.749277
O O4 0.206313 0.900974 0.851211
O O5 0.938491 0.250000 0.806335
O O6 0.118006 0.402072 0.790430
O O7 0.056322 0.353506 0.907370
O O8 0.604395 0.250000 0.518478
O O9 0.612623 0.099082 0.609274
O O10 0.698761 0.080245 0.476483
O O11 0.405069 0.108820 0.537546
O O12 0.296751 0.750000 0.274595
O O13 0.345613 0.900442 0.195382
O O14 0.714272 0.750000 0.165099
O O15 0.881505 0.595579 0.171683
O O16 0.960110 0.750000 0.640526
O O17 0.839664 0.590411 0.602781
O O18 0.091110 0.643947 0.546507
O O19 0.000000 0.500000 0.975884
O O20 0.643945 0.250000 0.117608
#
# Coordination Sequence:
#
# PCOD9360652 Si02
#       8
#     8   8   8   8   8   8   8   8
#     4   9  15  26  48  80 112 138 168 215 276 332
#     4  10  20  34  54  79 109 144 185 235 276 319
#     4   9  16  30  55  82 110 137 168 222 283 333
#     4   9  16  28  51  88 119 135 167 221 282 340
#     4   8  12  22  44  75 108 135 157 198 267 330
#     4   9  17  30  53  82 108 136 174 223 276 333
#     4  11  23  39  53  69 101 153 199 232 264 318
#     4   9  15  27  52  89 119 132 160 220 288 346
#
# _framework density 28.068819000000001
#
# number of rings (size 3 to 8) (size 9 to 14) (size 15 to 20)
#    0.000    2.750    1.250    2.625    0.000    3.000 
#    2.250    0.625    0.000    6.750    3.250    0.000 
#    0.000    0.000    0.000    0.000    0.000    0.000 
#
# Total GULP energy -178137.989993 kJ/mol
# GULP energy per Si atom -5566.812187 kJ/mol
# Density = 2.800493 g / cm^3
# Si number density = 28.068819 Si / 1000 Ang^3
#
#
#
# Elastic Constant Matrix: (Units=GPa)
#
#
# Indices 1 2 3 4 5 6 
#
# 1 112.5679 18.9911 25.6200 0.0000 0.0000 0.0000
# 2 18.9911 91.6964 6.1967 0.0000 0.0000 0.0000
# 3 25.6200 6.1967 76.2946 0.0000 0.0000 0.0000
# 4 0.0000 0.0000 0.0000 7.3255 0.0000 0.0000
# 5 0.0000 0.0000 0.0000 0.0000 54.2006 0.0000
# 6 0.0000 0.0000 0.0000 0.0000 0.0000 23.1294
#
#
#
# Elastic Compliance Matrix: (Units=1/GPa)
#
#
# Indices 1 2 3 4 5 6 
#
# 1 0.009918 -0.001839 -0.003181 0.000000 0.000000 0.000000
# 2 -0.001839 0.011307 -0.000301 0.000000 0.000000 0.000000
# 3 -0.003181 -0.000301 0.014200 0.000000 0.000000 0.000000
# 4 0.000000 0.000000 0.000000 0.136509 0.000000 0.000000
# 5 0.000000 0.000000 0.000000 0.000000 0.018450 0.000000
# 6 0.000000 0.000000 0.000000 0.000000 0.000000 0.043235
#
#
# Mechanical properties :
#
#
# Convention : Reuss Voigt Hill
#
# Bulk Modulus (GPa) = 40.35113 42.46384 41.40748
# Shear Modulus (GPa) = 19.80031 32.24783 26.02407
#
# Velocity S-wave (km/s) = 2.65886 3.39320 3.04822
# Velocity P-wave (km/s) = 4.88191 5.52386 5.21277
#
# Compressibility (1/GPa) = 0.02478245
#
# Stress axis : x y z
#
# Youngs Moduli (GPa) = 100.82886 88.44257 70.42393
#
# Poissons Ratio (x) = 0.16265 0.22402
# Poissons Ratio (y) = 0.18543 0.02118
# Poissons Ratio (z) = 0.32074 0.02660
#
# Static dielectric constant tensor:
#      x y z
#    x 2.633680 0.000000 0.000000 
#    y 0.000000 2.377980 0.000000 
#    z 0.000000 0.000000 2.119700 
# 
# From -- ./inp_files/14249.got.cif
#   From: 2010.05.17/outbox.cif.g08.bks.cpg/sg39_8_cif.got.tgz:14249.got - 2010.06.03 18:22:40.
