data_PCOD9360768
_publ_section_title
;
Structure prediction by ZEFSAII (Michael W. Deem and Ramdas Pophale) SiO2 
 PCOD9360768
Probable space group: A B M 2
;
_chemical_formula_sum "Si O2"
_cell_formula_units_Z 64
_cell_length_a 17.983468
_cell_length_b 21.238420
_cell_length_c 8.425232
_cell_angle_alpha 90.000000
_cell_angle_beta 90.000000
_cell_angle_gamma 90.000000
_cell_volume 3217.936871
_symmetry_space_group_name_H-M "A B M 2"
_symmetry_group_IT_number 39
_symmetry_cell_setting 'orthorhombic'
loop_
_space_group_symop_operation_xyz
x,y,z
-x,-y,z
-x,1/2+y,z
x,1/2-y,z
x,1/2+y,1/2+z
-x,1/2-y,1/2+z
-x,y,1/2+z
x,-y,1/2+z
loop_
_atom_site_type_symbol
_atom_site_label
_atom_site_fract_x
_atom_site_fract_y
_atom_site_fract_z
Si Si1 0.525875 0.880786 0.660710
Si Si2 0.072908 0.956728 0.317511
Si Si3 0.588898 0.546261 0.368763
Si Si4 0.885565 0.819396 0.196516
Si Si5 0.962344 0.319490 0.348866
Si Si6 0.395385 0.321983 0.952163
Si Si7 0.674847 0.940516 0.051288
Si Si8 0.163450 0.047306 0.122395
O O1 0.577234 0.910211 0.523805
O O2 0.485024 0.935285 0.765443
O O3 0.571477 0.837433 0.779752
O O4 0.460330 0.841890 0.575673
O O5 0.064401 0.884057 0.265624
O O6 0.094648 0.953407 0.501220
O O7 0.141917 0.992266 0.240393
O O8 0.000000 0.000000 0.296627
O O9 0.614394 0.480635 0.450241
O O10 0.651131 0.558775 0.235927
O O11 0.849054 0.750000 0.207649
O O12 0.930626 0.819641 0.028073
O O13 0.836249 0.882317 0.196670
O O14 0.948473 0.823710 0.332588
O O15 0.941998 0.250000 0.281220
O O16 0.375377 0.250000 0.969648
O O17 0.329137 0.369951 0.986409
O O18 0.757794 0.965613 0.041536
#
# Coordination Sequence:
#
# PCOD9360768 Si02
#       8
#     8   8   8   8   8   8   8   8
#     4   9  20  36  60  87 112 144 189 246 288 330
#     4  11  21  35  57  81 110 138 188 246 292 334
#     4  10  21  37  57  84 113 144 191 238 291 334
#     4   9  18  33  53  75 102 136 178 224 277 335
#     4   9  18  32  52  78 104 132 171 230 290 333
#     4  10  20  35  57  85 117 150 189 232 284 344
#     4  11  23  37  54  80 119 159 191 231 287 356
#     4  11  23  36  54  81 112 152 189 229 287 351
#
# _framework density 19.88852
#
# number of rings (size 3 to 8) (size 9 to 14) (size 15 to 20)
#    0.000    2.000    1.250    2.250    1.750    9.000 
#    0.000    0.625    0.000    0.000    0.000    4.375 
#    0.000    0.000    0.000    0.000    0.000    0.000 
#
# Total GULP energy -178262.839596 kJ/mol
# GULP energy per Si atom -5570.713737 kJ/mol
# Density = 1.984325 g / cm^3
# Si number density = 19.888520 Si / 1000 Ang^3
#
#
#
# Elastic Constant Matrix: (Units=GPa)
#
#
# Indices 1 2 3 4 5 6 
#
# 1 53.9719 10.5497 17.7356 0.0000 0.0000 0.0000
# 2 10.5497 128.5262 36.3711 0.0000 0.0000 0.0000
# 3 17.7356 36.3711 69.4723 0.0000 0.0000 0.0000
# 4 0.0000 0.0000 0.0000 14.5936 0.0000 0.0000
# 5 0.0000 0.0000 0.0000 0.0000 25.6644 0.0000
# 6 0.0000 0.0000 0.0000 0.0000 0.0000 15.1403
#
#
#
# Elastic Compliance Matrix: (Units=1/GPa)
#
#
# Indices 1 2 3 4 5 6 
#
# 1 0.020231 -0.000234 -0.005042 0.000000 0.000000 0.000000
# 2 -0.000234 0.009136 -0.004724 0.000000 0.000000 0.000000
# 3 -0.005042 -0.004724 0.018154 0.000000 0.000000 0.000000
# 4 0.000000 0.000000 0.000000 0.068523 0.000000 0.000000
# 5 0.000000 0.000000 0.000000 0.000000 0.038964 0.000000
# 6 0.000000 0.000000 0.000000 0.000000 0.000000 0.066049
#
#
# Mechanical properties :
#
#
# Convention : Reuss Voigt Hill
#
# Bulk Modulus (GPa) = 36.33400 42.36477 39.34939
# Shear Modulus (GPa) = 19.98149 23.56726 21.77438
#
# Velocity S-wave (km/s) = 3.17310 3.44607 3.31240
# Velocity P-wave (km/s) = 5.63323 6.09764 5.87003
#
# Compressibility (1/GPa) = 0.02752243
#
# Stress axis : x y z
#
# Youngs Moduli (GPa) = 49.42954 109.45236 55.08296
#
# Poissons Ratio (x) = 0.02557 0.27775
# Poissons Ratio (y) = 0.01155 0.26019
# Poissons Ratio (z) = 0.24924 0.51700
#
# Static dielectric constant tensor:
#      x y z
#    x 1.707410 0.000000 0.000000 
#    y 0.000000 1.751010 0.000000 
#    z 0.000000 0.000000 1.716170 
# 
# From -- ./inp_files/3842.got.cif
#   From: 2010.05.17/outbox.cif.g08.bks.cpg/sg39_2_cif.got.tgz:3842.got - 2010.06.03 18:22:40.
