data_PCOD9360256
_publ_section_title
;
Structure prediction by ZEFSAII (Michael W. Deem and Ramdas Pophale) SiO2 
 PCOD9360256
Probable space group: A B M 2
;
_chemical_formula_sum "Si O2"
_cell_formula_units_Z 64
_cell_length_a 8.374069
_cell_length_b 15.852742
_cell_length_c 20.227289
_cell_angle_alpha 90.000000
_cell_angle_beta 90.000000
_cell_angle_gamma 90.000000
_cell_volume 2685.212166
_symmetry_space_group_name_H-M "A B M 2"
_symmetry_group_IT_number 39
_symmetry_cell_setting 'orthorhombic'
loop_
_space_group_symop_operation_xyz
x,y,z
-x,-y,z
-x,1/2+y,z
x,1/2-y,z
x,1/2+y,1/2+z
-x,1/2-y,1/2+z
-x,y,1/2+z
x,-y,1/2+z
loop_
_atom_site_type_symbol
_atom_site_label
_atom_site_fract_x
_atom_site_fract_y
_atom_site_fract_z
Si Si1 0.205415 0.560468 0.887380
Si Si2 0.686153 0.651269 0.052148
Si Si3 0.808275 0.367818 0.349687
Si Si4 0.007036 0.844248 0.481885
Si Si5 0.503078 0.841967 0.415066
Si Si6 0.474758 0.353406 0.674146
Si Si7 0.790540 0.148346 0.748817
Si Si8 0.115427 0.345292 0.698964
O O1 0.173971 0.467277 0.862550
O O2 0.386270 0.579384 0.904160
O O3 0.172764 0.618127 0.823076
O O4 0.120639 0.589278 0.955311
O O5 0.711517 0.750000 0.069385
O O6 0.568336 0.617797 0.108078
O O7 0.865305 0.621059 0.034916
O O8 0.589901 0.649143 0.983609
O O9 0.896471 0.332008 0.413392
O O10 0.625484 0.342348 0.357292
O O11 0.861687 0.341415 0.278054
O O12 0.947389 0.750000 0.501234
O O13 0.587733 0.750000 0.415019
O O14 0.463707 0.250000 0.675684
O O15 0.609572 0.377788 0.728827
O O16 0.288598 0.383035 0.676734
O O17 0.794772 0.250000 0.746475
O O18 0.933043 0.118018 0.698589
O O19 0.106414 0.250000 0.670940
#
# Coordination Sequence:
#
# PCOD9360256 Si02
#       8
#     8   8   8   8   8   8   8   8
#     4  12  22  33  53  88 119 146 190 248 299 355
#     4   8  17  35  56  78 108 147 193 240 289 342
#     4  11  21  34  54  81 115 154 185 234 296 357
#     4  10  19  34  56  80 111 151 188 234 296 353
#     4  10  20  35  56  81 113 152 191 240 296 358
#     4   9  18  35  56  82 113 148 196 249 290 339
#     4  10  20  33  54  84 116 151 192 238 291 354
#     4  10  19  33  56  82 114 155 193 235 293 356
#
# _framework density 23.834243000000001
#
# number of rings (size 3 to 8) (size 9 to 14) (size 15 to 20)
#    0.000    2.000    1.250    4.500    0.000    1.000 
#    2.250    0.000    0.000    6.000    6.500    0.000 
#    0.000    0.000    0.000    0.000    0.000    0.250 
#
# Total GULP energy -178354.610298 kJ/mol
# GULP energy per Si atom -5573.581572 kJ/mol
# Density = 2.378000 g / cm^3
# Si number density = 23.834243 Si / 1000 Ang^3
#
#
#
# Elastic Constant Matrix: (Units=GPa)
#
#
# Indices 1 2 3 4 5 6 
#
# 1 93.0145 21.0174 -3.0403 0.0000 0.0000 0.0000
# 2 21.0174 60.0313 3.3971 0.0000 0.0000 0.0000
# 3 -3.0403 3.3971 59.1149 0.0000 0.0000 0.0000
# 4 0.0000 0.0000 0.0000 -190.5626 0.0000 0.0000
# 5 0.0000 0.0000 0.0000 0.0000 27.3690 0.0000
# 6 0.0000 0.0000 0.0000 0.0000 0.0000 1958.3855
#
#
#
# Elastic Compliance Matrix: (Units=1/GPa)
#
#
# Indices 1 2 3 4 5 6 
#
# 1 0.011716 -0.004149 0.000841 0.000000 0.000000 0.000000
# 2 -0.004149 0.018182 -0.001258 0.000000 0.000000 0.000000
# 3 0.000841 -0.001258 0.017032 0.000000 0.000000 0.000000
# 4 0.000000 0.000000 0.000000 -0.005248 0.000000 0.000000
# 5 0.000000 0.000000 0.000000 0.000000 0.036538 0.000000
# 6 0.000000 0.000000 0.000000 0.000000 0.000000 0.000511
#
#
# Mechanical properties :
#
#
# Convention : Reuss Voigt Hill
#
# Bulk Modulus (GPa) = 26.45755 28.32322 27.39039
# Shear Modulus (GPa) = 49.76971 371.75749 210.76360
#
# Velocity S-wave (km/s) = 4.57460 12.50259 9.41387
# Velocity P-wave (km/s) = 6.24719 14.84348 11.38763
#
# Compressibility (1/GPa) = 0.03779639
#
# Stress axis : x y z
#
# Youngs Moduli (GPa) = 85.35255 54.99967 58.71382
#
# Poissons Ratio (x) = 0.22822 -0.04938
# Poissons Ratio (y) = 0.35417 0.07388
# Poissons Ratio (z) = -0.07178 0.06920
#
# Static dielectric constant tensor:
#      x y z
#    x 2.037760 0.000000 0.000000 
#    y 0.000000 1.962550 0.000000 
#    z 0.000000 0.000000 1.882200 
# 
# From -- ./inp_files/14190.got.cif
#   From: 2010.05.17/outbox.cif.g08.bks.cpg/sg39_8_cif.got.tgz:14190.got - 2010.06.03 18:22:40.
