data_PCOD9360530
_publ_section_title
;
Structure prediction by ZEFSAII (Michael W. Deem and Ramdas Pophale) SiO2 
 PCOD9360530
Probable space group: A B M 2
;
_chemical_formula_sum "Si O2"
_cell_formula_units_Z 44
_cell_length_a 15.219476
_cell_length_b 9.739903
_cell_length_c 14.857959
_cell_angle_alpha 90.000000
_cell_angle_beta 90.000000
_cell_angle_gamma 90.000000
_cell_volume 2202.487678
_symmetry_space_group_name_H-M "A B M 2"
_symmetry_group_IT_number 39
_symmetry_cell_setting 'orthorhombic'
loop_
_space_group_symop_operation_xyz
x,y,z
-x,-y,z
-x,1/2+y,z
x,1/2-y,z
x,1/2+y,1/2+z
-x,1/2-y,1/2+z
-x,y,1/2+z
x,-y,1/2+z
loop_
_atom_site_type_symbol
_atom_site_label
_atom_site_fract_x
_atom_site_fract_y
_atom_site_fract_z
Si Si1 0.475258 0.750000 0.004241
Si Si2 0.382350 0.470061 0.050006
Si Si3 0.084141 0.587402 0.669731
Si Si4 0.222927 0.912898 0.824526
Si Si5 0.184527 0.410293 0.992080
Si Si6 0.416025 0.086882 0.262394
O O1 0.403145 0.626803 0.024928
O O2 0.552616 0.631184 0.997503
O O3 0.403759 0.439448 0.155614
O O4 0.281931 0.432106 0.032460
O O5 0.065005 0.750000 0.674176
O O6 0.166967 0.561968 0.734735
O O7 0.114758 0.553146 0.568864
O O8 0.000000 0.500000 0.696600
O O9 0.221904 0.750000 0.841961
O O10 0.325050 0.952145 0.810058
O O11 0.180097 0.996016 0.904917
O O12 0.174129 0.250000 0.969621
O O13 0.431653 0.250000 0.278091
O O14 0.500000 0.000000 0.292289
#
# Coordination Sequence:
#
# PCOD9360530 Si02
#       6
#     4   8   8   8   8   8
#     4  10  20  30  58  90 120 166 226 260 302 358
#     4  11  18  36  57  88 121 171 213 264 307 360
#     4  10  23  46  73  95 122 163 204 258 326 387
#     4  10  24  43  63  92 132 166 206 259 311 372
#     4  11  23  42  65  93 130 166 206 257 320 373
#     4  11  19  36  58  86 124 171 214 255 301 360
#
# _framework density 19.977411
#
# number of rings (size 3 to 8) (size 9 to 14) (size 15 to 20)
#    0.000    1.455    5.455    0.000    1.273    2.909 
#    3.273    3.636    0.000    0.000    0.000    0.000 
#    0.000    0.000    0.000    0.000    0.000    0.000 
#
# Total GULP energy -122471.126884 kJ/mol
# GULP energy per Si atom -5566.869404 kJ/mol
# Density = 1.993194 g / cm^3
# Si number density = 19.977411 Si / 1000 Ang^3
#
#
#
# Elastic Constant Matrix: (Units=GPa)
#
#
# Indices 1 2 3 4 5 6 
#
# 1 72.3139 41.4232 23.0031 0.0000 0.0000 0.0000
# 2 41.4232 106.4574 37.8550 0.0000 0.0000 0.0000
# 3 23.0031 37.8550 71.8896 0.0000 0.0000 0.0000
# 4 0.0000 0.0000 0.0000 26.2254 0.0000 0.0000
# 5 0.0000 0.0000 0.0000 0.0000 -0.8962 0.0000
# 6 0.0000 0.0000 0.0000 0.0000 0.0000 36.6794
#
#
#
# Elastic Compliance Matrix: (Units=1/GPa)
#
#
# Indices 1 2 3 4 5 6 
#
# 1 0.018174 -0.006156 -0.002573 0.000000 0.000000 0.000000
# 2 -0.006156 0.013643 -0.005214 0.000000 0.000000 0.000000
# 3 -0.002573 -0.005214 0.017479 0.000000 0.000000 0.000000
# 4 0.000000 0.000000 0.000000 0.038131 0.000000 0.000000
# 5 0.000000 0.000000 0.000000 0.000000 -1.115762 0.000000
# 6 0.000000 0.000000 0.000000 0.000000 0.000000 0.027263
#
#
# Mechanical properties :
#
#
# Convention : Reuss Voigt Hill
#
# Bulk Modulus (GPa) = 46.71122 50.58040 48.64581
# Shear Modulus (GPa) = -5.17573 22.29369 8.55898
#
# Velocity S-wave (km/s) = -1.61134 3.34420 2.07211
# Velocity P-wave (km/s) = 4.46888 6.34707 5.48891
#
# Compressibility (1/GPa) = 0.02140813
#
# Stress axis : x y z
#
# Youngs Moduli (GPa) = 55.02438 73.29756 57.21077
#
# Poissons Ratio (x) = 0.45125 0.14723
# Poissons Ratio (y) = 0.33876 0.29830
# Poissons Ratio (z) = 0.14160 0.38218
#
# Static dielectric constant tensor:
#      x y z
#    x 1.682670 0.000000 0.000000 
#    y 0.000000 1.673200 0.000000 
#    z 0.000000 0.000000 1.761970 
# 
# From -- ./inp_files/12569.got.cif
#   From: 2010.05.17/outbox.cif.g08.bks.cpg/sg39_7_cif.got.tgz:12569.got - 2010.06.03 18:22:40.
