data_PCOD9360087
_publ_section_title
;
Structure prediction by ZEFSAII (Michael W. Deem and Ramdas Pophale) SiO2 
 PCOD9360087
Probable space group: A B M 2
;
_chemical_formula_sum "Si O2"
_cell_formula_units_Z 52
_cell_length_a 14.654577
_cell_length_b 24.708550
_cell_length_c 5.531367
_cell_angle_alpha 90.000000
_cell_angle_beta 90.000000
_cell_angle_gamma 90.000000
_cell_volume 2002.871199
_symmetry_space_group_name_H-M "A B M 2"
_symmetry_group_IT_number 39
_symmetry_cell_setting 'orthorhombic'
loop_
_space_group_symop_operation_xyz
x,y,z
-x,-y,z
-x,1/2+y,z
x,1/2-y,z
x,1/2+y,1/2+z
-x,1/2-y,1/2+z
-x,y,1/2+z
x,-y,1/2+z
loop_
_atom_site_type_symbol
_atom_site_label
_atom_site_fract_x
_atom_site_fract_y
_atom_site_fract_z
Si Si1 0.199618 0.813222 0.479730
Si Si2 0.803312 0.644827 0.479997
Si Si3 0.442819 0.631186 0.025303
Si Si4 0.844804 0.019668 0.883224
Si Si5 0.447768 0.250000 0.443933
Si Si6 0.363898 0.980348 0.899857
Si Si7 0.999566 0.137537 0.999891
O O1 0.214524 0.750000 0.448909
O O2 0.239669 0.833472 0.733583
O O3 0.091787 0.827731 0.499895
O O4 0.235873 0.844563 0.244749
O O5 0.829853 0.582662 0.437950
O O6 0.905957 0.671747 0.495414
O O7 0.513325 0.626574 0.794886
O O8 0.404260 0.692069 0.000028
O O9 0.373476 0.582102 0.977977
O O10 0.739511 0.998458 0.866329
O O11 0.885515 0.008170 0.620296
O O12 0.526036 0.250000 0.658205
O O13 0.403819 0.987373 0.629940
O O14 0.995651 0.105781 0.249949
#
# Coordination Sequence:
#
# PCOD9360087 Si02
#       7
#     8   8   8   8   4   8   8
#     4  10  19  31  51  77 106 135 163 203 262 324
#     4  10  19  32  52  74  98 133 172 212 248 303
#     4  10  19  32  53  80 110 141 171 210 256 310
#     4  10  21  38  57  74  95 136 184 218 256 309
#     4   8  16  30  48  72 100 138 178 194 228 302
#     4  10  21  35  53  80 106 136 175 217 268 313
#     4   8  16  27  44  69  99 124 160 199 250 303
#
# _framework density 25.962727999999998
#
# number of rings (size 3 to 8) (size 9 to 14) (size 15 to 20)
#    0.000    2.462    0.000    2.308    0.000    7.385 
#    0.000    0.000    3.385   24.923    4.000    0.000 
#    0.000    0.000    0.000    0.000    0.000    0.000 
#
# Total GULP energy -145056.165133 kJ/mol
# GULP energy per Si atom -5579.083274 kJ/mol
# Density = 2.590364 g / cm^3
# Si number density = 25.962728 Si / 1000 Ang^3
#
#
#
# Elastic Constant Matrix: (Units=GPa)
#
#
# Indices 1 2 3 4 5 6 
#
# 1 47.8005 -10.9829 19.5370 0.0000 0.0000 0.0000
# 2 -10.9829 109.6558 10.7950 0.0000 0.0000 0.0000
# 3 19.5370 10.7950 262.9559 0.0000 0.0000 0.0000
# 4 0.0000 0.0000 0.0000 42.5205 0.0000 0.0000
# 5 0.0000 0.0000 0.0000 0.0000 20.1334 0.0000
# 6 0.0000 0.0000 0.0000 0.0000 0.0000 8.2083
#
#
#
# Elastic Compliance Matrix: (Units=1/GPa)
#
#
# Indices 1 2 3 4 5 6 
#
# 1 0.022184 0.002394 -0.001747 0.000000 0.000000 0.000000
# 2 0.002394 0.009415 -0.000564 0.000000 0.000000 0.000000
# 3 -0.001747 -0.000564 0.003956 0.000000 0.000000 0.000000
# 4 0.000000 0.000000 0.000000 0.023518 0.000000 0.000000
# 5 0.000000 0.000000 0.000000 0.000000 0.049669 0.000000
# 6 0.000000 0.000000 0.000000 0.000000 0.000000 0.121828
#
#
# Mechanical properties :
#
#
# Convention : Reuss Voigt Hill
#
# Bulk Modulus (GPa) = 27.99494 51.01226 39.50360
# Shear Modulus (GPa) = 20.63465 40.90997 30.77231
#
# Velocity S-wave (km/s) = 2.82224 3.97384 3.44648
# Velocity P-wave (km/s) = 4.62885 6.38327 5.57550
#
# Compressibility (1/GPa) = 0.03572074
#
# Stress axis : x y z
#
# Youngs Moduli (GPa) = 45.07723 106.21612 252.79023
#
# Poissons Ratio (x) = -0.25427 0.44150
# Poissons Ratio (y) = -0.10791 0.14266
# Poissons Ratio (z) = 0.07873 0.05994
#
# Static dielectric constant tensor:
#      x y z
#    x 2.174760 0.000000 0.000000 
#    y 0.000000 1.966810 0.000000 
#    z 0.000000 0.000000 2.094120 
# 
# From -- ./inp_files/1050.got.cif
#   From: 2010.05.17/outbox.cif.g08.bks.cpg/sg39_1_cif.got.tgz:1050.got - 2010.06.03 18:22:40.
