data_PCOD9360088
_publ_section_title
;
Structure prediction by ZEFSAII (Michael W. Deem and Ramdas Pophale) SiO2 
 PCOD9360088
Probable space group: A B M 2
;
_chemical_formula_sum "Si O2"
_cell_formula_units_Z 56
_cell_length_a 34.935182
_cell_length_b 13.757395
_cell_length_c 5.182611
_cell_angle_alpha 90.000000
_cell_angle_beta 90.000000
_cell_angle_gamma 90.000000
_cell_volume 2490.851460
_symmetry_space_group_name_H-M "A B M 2"
_symmetry_group_IT_number 39
_symmetry_cell_setting 'orthorhombic'
loop_
_space_group_symop_operation_xyz
x,y,z
-x,-y,z
-x,1/2+y,z
x,1/2-y,z
x,1/2+y,1/2+z
-x,1/2-y,1/2+z
-x,y,1/2+z
x,-y,1/2+z
loop_
_atom_site_type_symbol
_atom_site_label
_atom_site_fract_x
_atom_site_fract_y
_atom_site_fract_z
Si Si1 0.187277 0.932323 0.419920
Si Si2 0.984068 0.889074 0.336096
Si Si3 0.477941 0.131848 0.552026
Si Si4 0.395573 0.868573 0.849128
Si Si5 0.353142 0.134796 0.847397
Si Si6 0.271529 0.940056 0.512954
Si Si7 0.868092 0.250000 0.493122
Si Si8 0.918824 0.750000 0.494190
O O1 0.230761 0.891971 0.448037
O O2 0.157469 0.845917 0.452735
O O3 0.183024 0.011972 0.648205
O O4 0.944371 0.848081 0.448639
O O5 0.013620 0.850760 0.547440
O O6 0.000000 0.000000 0.300959
O O7 0.476573 0.250000 0.553762
O O8 0.490201 0.104131 0.839933
O O9 0.436714 0.098565 0.452119
O O10 0.397032 0.750000 0.842227
O O11 0.383301 0.899514 0.563746
O O12 0.363564 0.897929 0.059234
O O13 0.357472 0.250000 0.839640
O O14 0.310415 0.113086 0.938849
O O15 0.271601 0.968348 0.814078
O O16 0.886271 0.250000 0.776736
O O17 0.900805 0.250000 0.275713
#
# Coordination Sequence:
#
# PCOD9360088 Si02
#       8
#     8   8   8   8   8   8   4   4
#     4  10  23  46  67  95 135 174 218 276 325 387
#     4  10  21  41  65  94 132 176 219 274 337 386
#     4   9  15  23  37  57  89 138 177 208 272 351
#     4   9  17  28  41  68 107 134 173 234 284 337
#     4  10  19  31  51  78 106 141 178 228 290 349
#     4  10  21  38  61  84 114 152 194 240 291 359
#     4  12  26  45  70 104 138 182 226 278 334 395
#     4  12  24  43  66 104 136 172 232 280 322 399
#
# _framework density 22.482271000000001
#
# number of rings (size 3 to 8) (size 9 to 14) (size 15 to 20)
#    0.000    2.000    0.000    3.857    1.000    3.429 
#   15.429    0.000    0.000    0.000    0.000    0.000 
#    0.000   40.000    0.000    0.000    0.000    0.000 
#
# Total GULP energy -156280.188912 kJ/mol
# GULP energy per Si atom -5581.435318 kJ/mol
# Density = 2.243110 g / cm^3
# Si number density = 22.482271 Si / 1000 Ang^3
#
#
#
# Elastic Constant Matrix: (Units=GPa)
#
#
# Indices 1 2 3 4 5 6 
#
# 1 77.6923 14.7676 -5.3779 0.0000 0.0000 0.0000
# 2 14.7676 96.4539 -17.0129 0.0000 0.0000 0.0000
# 3 -5.3779 -17.0129 86.0624 0.0000 0.0000 0.0000
# 4 0.0000 0.0000 0.0000 -5.2870 0.0000 0.0000
# 5 0.0000 0.0000 0.0000 0.0000 39.3293 0.0000
# 6 0.0000 0.0000 0.0000 0.0000 0.0000 90.0273
#
#
#
# Elastic Compliance Matrix: (Units=1/GPa)
#
#
# Indices 1 2 3 4 5 6 
#
# 1 0.013273 -0.001954 0.000443 0.000000 0.000000 0.000000
# 2 -0.001954 0.011030 0.002058 0.000000 0.000000 0.000000
# 3 0.000443 0.002058 0.012054 0.000000 0.000000 0.000000
# 4 0.000000 0.000000 0.000000 -0.189144 0.000000 0.000000
# 5 0.000000 0.000000 0.000000 0.000000 0.025426 0.000000
# 6 0.000000 0.000000 0.000000 0.000000 0.000000 0.011108
#
#
# Mechanical properties :
#
#
# Convention : Reuss Voigt Hill
#
# Bulk Modulus (GPa) = 26.70079 27.21803 26.95941
# Shear Modulus (GPa) = -47.68128 42.66937 -2.50596
#
# Velocity S-wave (km/s) = -4.61025 4.36123 -1.05691
# Velocity P-wave (km/s) = 4.05427 6.12316 3.24469
#
# Compressibility (1/GPa) = 0.03745207
#
# Stress axis : x y z
#
# Youngs Moduli (GPa) = 75.33876 90.66288 82.95960
#
# Poissons Ratio (x) = 0.17716 -0.03676
# Poissons Ratio (y) = 0.14722 -0.17076
# Poissons Ratio (z) = -0.03339 -0.18661
#
# Static dielectric constant tensor:
#      x y z
#    x 1.819900 0.000000 0.000000 
#    y 0.000000 1.809190 0.000000 
#    z 0.000000 0.000000 1.816690 
# 
# From -- ./inp_files/1509.got.cif
#   From: 2010.05.17/outbox.cif.g08.bks.cpg/sg39_1_cif.got.tgz:1509.got - 2010.06.03 18:22:40.
