data_PCOD9360157
_publ_section_title
;
Structure prediction by ZEFSAII (Michael W. Deem and Ramdas Pophale) SiO2 
 PCOD9360157
Probable space group: A B M 2
;
_chemical_formula_sum "Si O2"
_cell_formula_units_Z 56
_cell_length_a 15.820806
_cell_length_b 8.732872
_cell_length_c 20.647184
_cell_angle_alpha 90.000000
_cell_angle_beta 90.000000
_cell_angle_gamma 90.000000
_cell_volume 2852.637111
_symmetry_space_group_name_H-M "A B M 2"
_symmetry_group_IT_number 39
_symmetry_cell_setting 'orthorhombic'
loop_
_space_group_symop_operation_xyz
x,y,z
-x,-y,z
-x,1/2+y,z
x,1/2-y,z
x,1/2+y,1/2+z
-x,1/2-y,1/2+z
-x,y,1/2+z
x,-y,1/2+z
loop_
_atom_site_type_symbol
_atom_site_label
_atom_site_fract_x
_atom_site_fract_y
_atom_site_fract_z
Si Si1 0.087018 0.928099 0.536130
Si Si2 0.133728 0.571744 0.387748
Si Si3 0.266768 0.933563 0.069986
Si Si4 0.911234 0.069164 0.754533
Si Si5 0.311720 0.934799 0.930168
Si Si6 0.731633 0.565800 0.713046
Si Si7 0.590123 0.567484 0.307422
O O1 0.091827 0.750000 0.553334
O O2 0.090108 0.940507 0.457740
O O3 0.170408 0.012114 0.560971
O O4 0.000000 0.000000 0.559846
O O5 0.131710 0.750000 0.367325
O O6 0.095177 0.468887 0.331320
O O7 0.229227 0.516398 0.400744
O O8 0.267635 0.750000 0.070248
O O9 0.296285 0.983667 0.140726
O O10 0.316870 0.983014 0.005370
O O11 0.909654 0.250000 0.743890
O O12 0.826799 0.993714 0.725148
O O13 0.000000 0.000000 0.730643
O O14 0.298154 0.750000 0.928117
O O15 0.388492 0.970365 0.882455
O O16 0.731801 0.750000 0.717530
O O17 0.666450 0.498525 0.764697
O O18 0.500000 0.500000 0.288433
O O19 0.589096 0.750000 0.300673
#
# Coordination Sequence:
#
# PCOD9360157 Si02
#       7
#     8   8   8   8   8   8   8
#     4  10  20  32  50  78 112 153 201 251 297 352
#     4  10  19  32  53  82 115 152 196 247 303 353
#     4   9  20  38  60  83 114 157 197 241 298 357
#     4  12  24  37  55  82 118 162 209 255 305 358
#     4   9  18  36  61  88 117 152 194 239 296 355
#     4  11  23  41  63  89 124 162 203 251 304 362
#     4  11  23  40  66  96 124 158 198 246 303 363
#
# _framework density 19.630958
#
# number of rings (size 3 to 8) (size 9 to 14) (size 15 to 20)
#    0.000    1.714    1.429    3.429    0.000    5.143 
#    0.000    0.714    0.000    1.714    0.000    0.000 
#    0.000    0.000    0.000    0.000    0.000    0.000 
#
# Total GULP energy -156394.445160 kJ/mol
# GULP energy per Si atom -5585.515899 kJ/mol
# Density = 1.958628 g / cm^3
# Si number density = 19.630958 Si / 1000 Ang^3
#
#
#
# Elastic Constant Matrix: (Units=GPa)
#
#
# Indices 1 2 3 4 5 6 
#
# 1 94.5166 31.4417 41.3319 0.0000 0.0000 0.0000
# 2 31.4417 47.9459 28.6580 0.0000 0.0000 0.0000
# 3 41.3319 28.6580 116.4933 0.0000 0.0000 0.0000
# 4 0.0000 0.0000 0.0000 17.0470 0.0000 0.0000
# 5 0.0000 0.0000 0.0000 0.0000 76.6729 0.0000
# 6 0.0000 0.0000 0.0000 0.0000 0.0000 26.0630
#
#
#
# Elastic Compliance Matrix: (Units=1/GPa)
#
#
# Indices 1 2 3 4 5 6 
#
# 1 0.014538 -0.007563 -0.003298 0.000000 0.000000 0.000000
# 2 -0.007563 0.028386 -0.004300 0.000000 0.000000 0.000000
# 3 -0.003298 -0.004300 0.010812 0.000000 0.000000 0.000000
# 4 0.000000 0.000000 0.000000 0.058661 0.000000 0.000000
# 5 0.000000 0.000000 0.000000 0.000000 0.013042 0.000000
# 6 0.000000 0.000000 0.000000 0.000000 0.000000 0.038369
#
#
# Mechanical properties :
#
#
# Convention : Reuss Voigt Hill
#
# Bulk Modulus (GPa) = 42.70603 51.31324 47.00964
# Shear Modulus (GPa) = 24.76054 34.45820 29.60937
#
# Velocity S-wave (km/s) = 3.55533 4.19417 3.88790
# Velocity P-wave (km/s) = 6.21736 7.04631 6.64477
#
# Compressibility (1/GPa) = 0.02341590
#
# Stress axis : x y z
#
# Youngs Moduli (GPa) = 68.78554 35.22822 92.48971
#
# Poissons Ratio (x) = 0.26642 0.30500
# Poissons Ratio (y) = 0.52019 0.39771
# Poissons Ratio (z) = 0.22683 0.15148
#
# Static dielectric constant tensor:
#      x y z
#    x 1.647180 0.000000 0.000000 
#    y 0.000000 1.655090 0.000000 
#    z 0.000000 0.000000 1.741060 
# 
# From -- ./inp_files/14725.got.cif
#   From: 2010.05.17/outbox.cif.g08.bks.cpg/sg39_8_cif.got.tgz:14725.got - 2010.06.03 18:22:40.
