data_PCOD9360399
_publ_section_title
;
Structure prediction by ZEFSAII (Michael W. Deem and Ramdas Pophale) SiO2 
 PCOD9360399
Probable space group: A B M 2
;
_chemical_formula_sum "Si O2"
_cell_formula_units_Z 64
_cell_length_a 24.736677
_cell_length_b 8.465723
_cell_length_c 15.782954
_cell_angle_alpha 90.000000
_cell_angle_beta 90.000000
_cell_angle_gamma 90.000000
_cell_volume 3305.169247
_symmetry_space_group_name_H-M "A B M 2"
_symmetry_group_IT_number 39
_symmetry_cell_setting 'orthorhombic'
loop_
_space_group_symop_operation_xyz
x,y,z
-x,-y,z
-x,1/2+y,z
x,1/2-y,z
x,1/2+y,1/2+z
-x,1/2-y,1/2+z
-x,y,1/2+z
x,-y,1/2+z
loop_
_atom_site_type_symbol
_atom_site_label
_atom_site_fract_x
_atom_site_fract_y
_atom_site_fract_z
Si Si1 0.255465 0.563382 0.027530
Si Si2 0.135347 0.942000 0.018804
Si Si3 0.629681 0.063348 0.275455
Si Si4 0.862081 0.060397 0.328183
Si Si5 0.560357 0.437416 0.929818
Si Si6 0.256958 0.435125 0.324236
Si Si7 0.938999 0.440792 0.174606
Si Si8 0.629764 0.556194 0.588592
O O1 0.253730 0.750000 0.048329
O O2 0.309020 0.498014 0.071345
O O3 0.195494 0.500515 0.046001
O O4 0.262975 0.549776 0.926241
O O5 0.136780 0.750000 0.016109
O O6 0.125235 0.999338 0.922985
O O7 0.091894 0.991715 0.088769
O O8 0.621169 0.250000 0.283620
O O9 0.611527 0.010779 0.182174
O O10 0.597279 0.979829 0.349819
O O11 0.693386 0.026871 0.283271
O O12 0.861047 0.250000 0.330152
O O13 0.905097 0.008100 0.257421
O O14 0.802338 0.999961 0.303488
O O15 0.500000 0.500000 0.920864
O O16 0.557695 0.250000 0.936959
O O17 0.590445 0.498832 0.014160
O O18 0.260495 0.250000 0.303441
O O19 0.939100 0.250000 0.174569
O O20 0.000000 0.500000 0.176925
O O21 0.631447 0.750000 0.585723
#
# Coordination Sequence:
#
# PCOD9360399 Si02
#       8
#     8   8   8   8   8   8   8   8
#     4   8  14  30  57  82 109 147 187 226 278 344
#     4   9  19  36  59  84 113 153 194 233 291 353
#     4  11  22  36  60  93 121 152 195 243 293 346
#     4  10  21  37  58  87 117 150 195 247 296 346
#     4  11  23  43  64  84 117 159 201 242 291 348
#     4  10  19  35  59  86 120 159 194 235 292 353
#     4  10  23  40  59  83 115 157 200 242 292 353
#     4   9  19  35  59  87 116 154 192 233 287 346
#
# _framework density 19.363606999999998
#
# number of rings (size 3 to 8) (size 9 to 14) (size 15 to 20)
#    0.000    2.250    1.250    2.250    1.750    2.500 
#    0.000    6.250    0.000    0.000    0.000    0.000 
#    0.000    0.000    0.000    0.000    0.000    0.000 
#
# Total GULP energy -178620.066776 kJ/mol
# GULP energy per Si atom -5581.877087 kJ/mol
# Density = 1.931953 g / cm^3
# Si number density = 19.363607 Si / 1000 Ang^3
#
#
#
# Elastic Constant Matrix: (Units=GPa)
#
#
# Indices 1 2 3 4 5 6 
#
# 1 112.1954 6.2710 68.8607 0.0000 0.0000 0.0000
# 2 6.2710 17.4441 14.1266 0.0000 0.0000 0.0000
# 3 68.8607 14.1266 107.2559 0.0000 0.0000 0.0000
# 4 0.0000 0.0000 0.0000 22.1255 0.0000 0.0000
# 5 0.0000 0.0000 0.0000 0.0000 -23.2298 0.0000
# 6 0.0000 0.0000 0.0000 0.0000 0.0000 27.8255
#
#
#
# Elastic Compliance Matrix: (Units=1/GPa)
#
#
# Indices 1 2 3 4 5 6 
#
# 1 0.014819 0.002661 -0.009864 0.000000 0.000000 0.000000
# 2 0.002661 0.064649 -0.010223 0.000000 0.000000 0.000000
# 3 -0.009864 -0.010223 0.017003 0.000000 0.000000 0.000000
# 4 0.000000 0.000000 0.000000 0.045197 0.000000 0.000000
# 5 0.000000 0.000000 0.000000 0.000000 -0.043048 0.000000
# 6 0.000000 0.000000 0.000000 0.000000 0.000000 0.035938
#
#
# Mechanical properties :
#
#
# Convention : Reuss Voigt Hill
#
# Bulk Modulus (GPa) = 16.22923 46.15690 31.19306
# Shear Modulus (GPa) = 26.32281 15.18671 20.75476
#
# Velocity S-wave (km/s) = 3.69100 2.80356 3.27745
# Velocity P-wave (km/s) = 5.15404 5.86247 5.51963
#
# Compressibility (1/GPa) = 0.06161721
#
# Stress axis : x y z
#
# Youngs Moduli (GPa) = 67.48264 15.46825 58.81249
#
# Poissons Ratio (x) = -0.04116 0.58015
# Poissons Ratio (y) = -0.17959 0.60126
# Poissons Ratio (z) = 0.66568 0.15814
#
# Static dielectric constant tensor:
#      x y z
#    x 1.658360 0.000000 0.000000 
#    y 0.000000 1.668920 0.000000 
#    z 0.000000 0.000000 1.688790 
# 
# From -- ./inp_files/10674.got.cif
#   From: 2010.05.17/outbox.cif.g08.bks.cpg/sg39_6_cif.got.tgz:10674.got - 2010.06.03 18:22:40.
