data_PCOD9360170
_publ_section_title
;
Structure prediction by ZEFSAII (Michael W. Deem and Ramdas Pophale) SiO2 
 PCOD9360170
Probable space group: A B M 2
;
_chemical_formula_sum "Si O2"
_cell_formula_units_Z 56
_cell_length_a 20.363131
_cell_length_b 8.613479
_cell_length_c 15.415193
_cell_angle_alpha 90.000000
_cell_angle_beta 90.000000
_cell_angle_gamma 90.000000
_cell_volume 2703.784792
_symmetry_space_group_name_H-M "A B M 2"
_symmetry_group_IT_number 39
_symmetry_cell_setting 'orthorhombic'
loop_
_space_group_symop_operation_xyz
x,y,z
-x,-y,z
-x,1/2+y,z
x,1/2-y,z
x,1/2+y,1/2+z
-x,1/2-y,1/2+z
-x,y,1/2+z
x,-y,1/2+z
loop_
_atom_site_type_symbol
_atom_site_label
_atom_site_fract_x
_atom_site_fract_y
_atom_site_fract_z
Si Si1 0.653618 0.069727 0.909150
Si Si2 0.427665 0.066729 0.753403
Si Si3 0.933655 0.064101 0.350155
Si Si4 0.351481 0.565865 0.589679
Si Si5 0.210157 0.437003 0.166790
Si Si6 0.067255 0.934527 0.653008
Si Si7 0.211166 0.934091 0.361390
O O1 0.644071 0.250000 0.889304
O O2 0.617362 0.970062 0.836210
O O3 0.730582 0.027094 0.905699
O O4 0.628424 0.025681 0.003982
O O5 0.430298 0.250000 0.738036
O O6 0.500000 0.000000 0.768384
O O7 0.394956 0.982923 0.671228
O O8 0.938042 0.250000 0.342368
O O9 0.862987 0.027007 0.391122
O O10 0.931776 0.990861 0.253500
O O11 0.000000 0.000000 0.392704
O O12 0.356275 0.750000 0.574326
O O13 0.275549 0.529717 0.613229
O O14 0.209215 0.250000 0.183753
O O15 0.140580 0.477375 0.121601
O O16 0.214385 0.524429 0.258882
O O17 0.061900 0.750000 0.650359
O O18 0.000000 0.000000 0.613342
O O19 0.221337 0.750000 0.373864
#
# Coordination Sequence:
#
# PCOD9360170 Si02
#       7
#     8   8   8   8   8   8   8
#     4  12  25  42  65  96 131 170 213 260 313 370
#     4  12  26  47  73 102 133 167 205 251 306 370
#     4   9  16  25  41  70 107 149 198 253 310 369
#     4  11  23  42  67  97 130 168 212 260 312 370
#     4   9  18  32  54  81 116 158 204 254 312 371
#     4   9  15  24  40  69 106 149 196 249 304 363
#     4  10  19  32  54  83 117 159 208 260 314 373
#
# _framework density 20.711707000000001
#
# number of rings (size 3 to 8) (size 9 to 14) (size 15 to 20)
#    0.000    1.714    1.429    5.143    0.000    3.429 
#    0.000    2.857    0.000    0.857    0.000    2.000 
#    0.000    0.000    0.000    0.000    0.000    0.000 
#
# Total GULP energy -156423.827944 kJ/mol
# GULP energy per Si atom -5586.565284 kJ/mol
# Density = 2.066457 g / cm^3
# Si number density = 20.711707 Si / 1000 Ang^3
#
#
#
# Elastic Constant Matrix: (Units=GPa)
#
#
# Indices 1 2 3 4 5 6 
#
# 1 94.2876 14.3010 1.7633 0.0000 0.0000 0.0000
# 2 14.3010 40.8625 -11.1334 0.0000 0.0000 0.0000
# 3 1.7633 -11.1334 45.0232 0.0000 0.0000 0.0000
# 4 0.0000 0.0000 0.0000 19.4289 0.0000 0.0000
# 5 0.0000 0.0000 0.0000 0.0000 -13.5797 0.0000
# 6 0.0000 0.0000 0.0000 0.0000 0.0000 31.3902
#
#
#
# Elastic Compliance Matrix: (Units=1/GPa)
#
#
# Indices 1 2 3 4 5 6 
#
# 1 0.011297 -0.004369 -0.001523 0.000000 0.000000 0.000000
# 2 -0.004369 0.027930 0.007078 0.000000 0.000000 0.000000
# 3 -0.001523 0.007078 0.024021 0.000000 0.000000 0.000000
# 4 0.000000 0.000000 0.000000 0.051470 0.000000 0.000000
# 5 0.000000 0.000000 0.000000 0.000000 -0.073639 0.000000
# 6 0.000000 0.000000 0.000000 0.000000 0.000000 0.031857
#
#
# Mechanical properties :
#
#
# Convention : Reuss Voigt Hill
#
# Bulk Modulus (GPa) = 15.23934 21.11502 18.17718
# Shear Modulus (GPa) = 54.09191 19.13070 36.61131
#
# Velocity S-wave (km/s) = 5.11598 3.04248 4.20892
# Velocity P-wave (km/s) = 6.50166 4.74965 5.69345
#
# Compressibility (1/GPa) = 0.06561966
#
# Stress axis : x y z
#
# Youngs Moduli (GPa) = 88.51970 35.80438 41.63097
#
# Poissons Ratio (x) = 0.15641 0.06339
# Poissons Ratio (y) = 0.38670 -0.29465
# Poissons Ratio (z) = 0.13479 -0.25341
#
# Static dielectric constant tensor:
#      x y z
#    x 1.780660 0.000000 0.000000 
#    y 0.000000 1.690020 0.000000 
#    z 0.000000 0.000000 1.741400 
# 
# From -- ./inp_files/10401.got.cif
#   From: 2010.05.17/outbox.cif.g08.bks.cpg/sg39_6_cif.got.tgz:10401.got - 2010.06.03 18:22:40.
