data_PCOD9360426
_publ_section_title
;
Structure prediction by ZEFSAII (Michael W. Deem and Ramdas Pophale) SiO2 
 PCOD9360426
Probable space group: A B M 2
;
_chemical_formula_sum "Si O2"
_cell_formula_units_Z 56
_cell_length_a 15.222854
_cell_length_b 14.880534
_cell_length_c 10.586614
_cell_angle_alpha 90.000000
_cell_angle_beta 90.000000
_cell_angle_gamma 90.000000
_cell_volume 2398.124230
_symmetry_space_group_name_H-M "A B M 2"
_symmetry_group_IT_number 39
_symmetry_cell_setting 'orthorhombic'
loop_
_space_group_symop_operation_xyz
x,y,z
-x,-y,z
-x,1/2+y,z
x,1/2-y,z
x,1/2+y,1/2+z
-x,1/2-y,1/2+z
-x,y,1/2+z
x,-y,1/2+z
loop_
_atom_site_type_symbol
_atom_site_label
_atom_site_fract_x
_atom_site_fract_y
_atom_site_fract_z
Si Si1 0.324464 0.844894 0.101100
Si Si2 0.599424 0.354465 0.456039
Si Si3 0.957773 0.101503 0.041356
Si Si4 0.211991 0.149452 0.377009
Si Si5 0.252354 0.963559 0.305407
Si Si6 0.506947 0.392835 0.711783
Si Si7 0.942916 0.594233 0.819564
O O1 0.286894 0.750000 0.149635
O O2 0.278548 0.925341 0.170942
O O3 0.424364 0.850538 0.138707
O O4 0.302347 0.846699 0.955575
O O5 0.627460 0.250000 0.440897
O O6 0.671268 0.425693 0.399234
O O7 0.581836 0.370407 0.606329
O O8 0.514412 0.365485 0.358980
O O9 0.954303 0.137008 0.182585
O O10 0.862783 0.114349 0.974908
O O11 0.000000 0.000000 0.053957
O O12 0.019851 0.146352 0.938439
O O13 0.190498 0.250000 0.332545
O O14 0.231860 0.068454 0.284953
O O15 0.158507 0.924533 0.343593
O O16 0.500000 0.500000 0.713007
O O17 0.000000 0.500000 0.814034
#
# Coordination Sequence:
#
# PCOD9360426 Si02
#       7
#     8   8   8   8   8   8   8
#     4  10  22  41  66  93 128 181 232 274 339 420
#     4  11  24  43  72 105 139 182 234 290 354 417
#     4  10  19  37  63  94 123 176 222 277 344 406
#     4  11  22  38  62  97 131 173 229 283 337 409
#     4  11  20  39  66  97 129 181 229 285 331 417
#     4  11  22  41  67 102 136 180 228 282 349 423
#     4  10  19  35  66  92 126 173 230 273 347 397
#
# _framework density 23.351586000000001
#
# number of rings (size 3 to 8) (size 9 to 14) (size 15 to 20)
#    0.000    1.429    4.286    3.857    0.000    1.143 
#    0.000    2.143    0.000   12.000    0.000    0.000 
#    0.000    0.000    0.000    0.000    0.000    0.000 
#
# Total GULP energy -155876.626002 kJ/mol
# GULP energy per Si atom -5567.022357 kJ/mol
# Density = 2.329844 g / cm^3
# Si number density = 23.351586 Si / 1000 Ang^3
#
#
#
# Elastic Constant Matrix: (Units=GPa)
#
#
# Indices 1 2 3 4 5 6 
#
# 1 87.6811 14.7130 21.3374 0.0000 0.0000 0.0000
# 2 14.7130 130.0669 22.4409 0.0000 0.0000 0.0000
# 3 21.3374 22.4409 96.7655 0.0000 0.0000 0.0000
# 4 0.0000 0.0000 0.0000 21.1179 0.0000 0.0000
# 5 0.0000 0.0000 0.0000 0.0000 32.7606 0.0000
# 6 0.0000 0.0000 0.0000 0.0000 0.0000 630.6563
#
#
#
# Elastic Compliance Matrix: (Units=1/GPa)
#
#
# Indices 1 2 3 4 5 6 
#
# 1 0.012164 -0.000951 -0.002462 0.000000 0.000000 0.000000
# 2 -0.000951 0.008083 -0.001665 0.000000 0.000000 0.000000
# 3 -0.002462 -0.001665 0.011263 0.000000 0.000000 0.000000
# 4 0.000000 0.000000 0.000000 0.047353 0.000000 0.000000
# 5 0.000000 0.000000 0.000000 0.000000 0.030525 0.000000
# 6 0.000000 0.000000 0.000000 0.000000 0.000000 0.001586
#
#
# Mechanical properties :
#
#
# Convention : Reuss Voigt Hill
#
# Bulk Modulus (GPa) = 46.82801 47.94398 47.38599
# Shear Modulus (GPa) = 38.98736 153.97512 96.48124
#
# Velocity S-wave (km/s) = 4.09048 8.12902 6.43479
# Velocity P-wave (km/s) = 6.51202 10.42515 8.69167
#
# Compressibility (1/GPa) = 0.02135474
#
# Stress axis : x y z
#
# Youngs Moduli (GPa) = 82.21248 123.71350 88.78520
#
# Poissons Ratio (x) = 0.11768 0.21855
# Poissons Ratio (y) = 0.07820 0.14781
# Poissons Ratio (z) = 0.20237 0.20596
#
# Static dielectric constant tensor:
#      x y z
#    x 1.986420 0.000000 0.000000 
#    y 0.000000 1.870770 0.000000 
#    z 0.000000 0.000000 1.917720 
# 
# From -- ./inp_files/6497.got.cif
#   From: 2010.05.17/outbox.cif.g08.bks.cpg/sg39_4_cif.got.tgz:6497.got - 2010.06.03 18:22:40.
