data_PCOD9360823
_publ_section_title
;
Structure prediction by ZEFSAII (Michael W. Deem and Ramdas Pophale) SiO2 
 PCOD9360823
Probable space group: A B M 2
;
_chemical_formula_sum "Si O2"
_cell_formula_units_Z 48
_cell_length_a 9.610657
_cell_length_b 8.356383
_cell_length_c 31.879028
_cell_angle_alpha 90.000000
_cell_angle_beta 90.000000
_cell_angle_gamma 90.000000
_cell_volume 2560.215283
_symmetry_space_group_name_H-M "A B M 2"
_symmetry_group_IT_number 39
_symmetry_cell_setting 'orthorhombic'
loop_
_space_group_symop_operation_xyz
x,y,z
-x,-y,z
-x,1/2+y,z
x,1/2-y,z
x,1/2+y,1/2+z
-x,1/2-y,1/2+z
-x,y,1/2+z
x,-y,1/2+z
loop_
_atom_site_type_symbol
_atom_site_label
_atom_site_fract_x
_atom_site_fract_y
_atom_site_fract_z
Si Si1 0.657153 0.556655 0.671810
Si Si2 0.658201 0.056621 0.077829
Si Si3 0.658342 0.441320 0.919969
Si Si4 0.158072 0.941938 0.343184
Si Si5 0.156746 0.056743 0.748728
Si Si6 0.158616 0.056343 0.499385
O O1 0.500000 0.500000 0.677600
O O2 0.660681 0.750000 0.672138
O O3 0.700631 0.504318 0.624877
O O4 0.749263 0.497574 0.710479
O O5 0.656623 0.250000 0.077247
O O6 0.500000 0.000000 0.070078
O O7 0.763150 0.001669 0.041728
O O8 0.500000 0.500000 0.922138
O O9 0.656417 0.250000 0.921221
O O10 0.736038 0.495272 0.877801
O O11 0.750334 0.498720 0.959545
O O12 0.157622 0.750000 0.344343
O O13 0.197928 0.994959 0.295849
O O14 0.000000 0.000000 0.351360
O O15 0.160093 0.250000 0.748477
O O16 0.000000 0.000000 0.742174
O O17 0.158232 0.250000 0.499260
O O18 0.000000 0.000000 0.497030
#
# Coordination Sequence:
#
# PCOD9360823 Si02
#       6
#     8   8   8   8   8   8
#     4   9  18  33  52  75 104 136 171 211 255 303
#     4   9  18  34  54  76 103 135 171 211 255 303
#     4  11  23  38  56  79 106 137 174 215 261 311
#     4  10  20  36  56  78 106 139 176 217 262 310
#     4   9  19  34  52  76 105 137 172 212 256 303
#     4  10  22  37  54  78 106 136 170 210 256 306
#
# _framework density 18.748422999999999
#
# number of rings (size 3 to 8) (size 9 to 14) (size 15 to 20)
#    0.000    2.333    0.000    2.000    0.000    6.000 
#    0.000    1.667    0.000    0.000    0.000    0.000 
#    0.000    0.000    0.000    0.000    0.000    0.000 
#
# Total GULP energy -133938.385482 kJ/mol
# GULP energy per Si atom -5580.766062 kJ/mol
# Density = 1.870575 g / cm^3
# Si number density = 18.748423 Si / 1000 Ang^3
#
#
#
# Elastic Constant Matrix: (Units=GPa)
#
#
# Indices 1 2 3 4 5 6 
#
# 1 147.2071 19.9252 141.0429 0.0000 0.0000 0.0000
# 2 19.9252 14.6692 27.8746 0.0000 0.0000 0.0000
# 3 141.0429 27.8746 211.2596 0.0000 0.0000 0.0000
# 4 0.0000 0.0000 0.0000 18.4818 0.0000 0.0000
# 5 0.0000 0.0000 0.0000 0.0000 41.3452 0.0000
# 6 0.0000 0.0000 0.0000 0.0000 0.0000 34.8928
#
#
#
# Elastic Compliance Matrix: (Units=1/GPa)
#
#
# Indices 1 2 3 4 5 6 
#
# 1 0.018909 -0.002263 -0.012325 0.000000 0.000000 0.000000
# 2 -0.002263 0.091252 -0.010530 0.000000 0.000000 0.000000
# 3 -0.012325 -0.010530 0.014352 0.000000 0.000000 0.000000
# 4 0.000000 0.000000 0.000000 0.054107 0.000000 0.000000
# 5 0.000000 0.000000 0.000000 0.000000 0.024187 0.000000
# 6 0.000000 0.000000 0.000000 0.000000 0.000000 0.028659
#
#
# Mechanical properties :
#
#
# Convention : Reuss Voigt Hill
#
# Bulk Modulus (GPa) = 13.46311 83.42456 48.44384
# Shear Modulus (GPa) = 16.31532 31.23018 23.77275
#
# Velocity S-wave (km/s) = 2.95316 4.08579 3.56474
# Velocity P-wave (km/s) = 4.33874 8.17629 6.54509
#
# Compressibility (1/GPa) = 0.07427702
#
# Stress axis : x y z
#
# Youngs Moduli (GPa) = 52.88544 10.95865 69.67831
#
# Poissons Ratio (x) = 0.02480 0.85882
# Poissons Ratio (y) = 0.11967 0.73368
# Poissons Ratio (z) = 0.65184 0.11539
#
# Static dielectric constant tensor:
#      x y z
#    x 1.593770 0.000000 0.000000 
#    y 0.000000 1.655780 0.000000 
#    z 0.000000 0.000000 1.678920 
# 
# From -- ./inp_files/17575.got.cif
#   From: 2010.05.17/outbox.cif.g08.bks.cpg/sg39_9_cif.got.tgz:17575.got - 2010.06.03 18:22:40.
