data_PCOD9360425
_publ_section_title
;
Structure prediction by ZEFSAII (Michael W. Deem and Ramdas Pophale) SiO2 
 PCOD9360425
Probable space group: A B M 2
;
_chemical_formula_sum "Si O2"
_cell_formula_units_Z 56
_cell_length_a 5.445167
_cell_length_b 27.845292
_cell_length_c 14.802611
_cell_angle_alpha 90.000000
_cell_angle_beta 90.000000
_cell_angle_gamma 90.000000
_cell_volume 2244.405409
_symmetry_space_group_name_H-M "A B M 2"
_symmetry_group_IT_number 39
_symmetry_cell_setting 'orthorhombic'
loop_
_space_group_symop_operation_xyz
x,y,z
-x,-y,z
-x,1/2+y,z
x,1/2-y,z
x,1/2+y,1/2+z
-x,1/2-y,1/2+z
-x,y,1/2+z
x,-y,1/2+z
loop_
_atom_site_type_symbol
_atom_site_label
_atom_site_fract_x
_atom_site_fract_y
_atom_site_fract_z
Si Si1 0.472792 0.883374 0.601670
Si Si2 0.757692 0.514923 0.852684
Si Si3 0.876040 0.806408 0.174575
Si Si4 0.036058 0.303015 0.476173
Si Si5 0.526114 0.347054 0.418590
Si Si6 0.215858 0.381533 0.764021
Si Si7 0.247227 0.523525 0.649157
O O1 0.536090 0.885530 0.496343
O O2 0.696996 0.897414 0.665366
O O3 0.260555 0.920907 0.624886
O O4 0.369515 0.831215 0.632999
O O5 0.500000 0.500000 0.896008
O O6 0.807087 0.570044 0.823037
O O7 0.751115 0.484340 0.758197
O O8 0.000000 0.500000 0.905454
O O9 0.844585 0.750000 0.200853
O O10 0.007087 0.841237 0.247934
O O11 0.049924 0.806908 0.084879
O O12 0.947254 0.250000 0.453922
O O13 0.304131 0.310664 0.434876
O O14 0.811359 0.335467 0.442091
O O15 0.547105 0.358846 0.314120
O O16 0.500000 0.500000 0.616088
O O17 0.000000 0.500000 0.615881
#
# Coordination Sequence:
#
# PCOD9360425 Si02
#       7
#     8   8   8   8   8   8   8
#     4  11  23  44  68  95 140 177 224 286 335 404
#     4  10  20  36  63  94 126 172 213 266 339 384
#     4  10  23  41  68  97 130 182 229 271 337 403
#     4  10  22  45  66  90 133 177 225 284 334 390
#     4  11  26  41  66 100 131 180 222 276 346 395
#     4  12  24  42  69  98 137 179 225 283 335 408
#     4  10  19  35  65  94 122 173 216 264 338 388
#
# _framework density 24.950928000000001
#
# number of rings (size 3 to 8) (size 9 to 14) (size 15 to 20)
#    0.000    1.429    4.286    2.143    2.000    2.286 
#    0.000    1.429    0.000    0.000    0.000    1.000 
#    0.000    0.000    0.000    0.000    0.000    0.000 
#
# Total GULP energy -156294.951877 kJ/mol
# GULP energy per Si atom -5581.962567 kJ/mol
# Density = 2.489414 g / cm^3
# Si number density = 24.950928 Si / 1000 Ang^3
#
#
#
# Elastic Constant Matrix: (Units=GPa)
#
#
# Indices 1 2 3 4 5 6 
#
# 1 148.5941 28.7863 7.1153 0.0000 0.0000 0.0000
# 2 28.7863 101.7944 -8.5945 0.0000 0.0000 0.0000
# 3 7.1153 -8.5945 78.4583 0.0000 0.0000 0.0000
# 4 0.0000 0.0000 0.0000 -17.1324 0.0000 0.0000
# 5 0.0000 0.0000 0.0000 0.0000 14.5035 0.0000
# 6 0.0000 0.0000 0.0000 0.0000 0.0000 28.8585
#
#
#
# Elastic Compliance Matrix: (Units=1/GPa)
#
#
# Indices 1 2 3 4 5 6 
#
# 1 0.007180 -0.002105 -0.000882 0.000000 0.000000 0.000000
# 2 -0.002105 0.010532 0.001345 0.000000 0.000000 0.000000
# 3 -0.000882 0.001345 0.012973 0.000000 0.000000 0.000000
# 4 0.000000 0.000000 0.000000 -0.058369 0.000000 0.000000
# 5 0.000000 0.000000 0.000000 0.000000 0.068949 0.000000
# 6 0.000000 0.000000 0.000000 0.000000 0.000000 0.034652
#
#
# Mechanical properties :
#
#
# Convention : Reuss Voigt Hill
#
# Bulk Modulus (GPa) = 36.49449 42.60676 39.55062
# Shear Modulus (GPa) = 56.60329 25.34858 40.97594
#
# Velocity S-wave (km/s) = 4.76813 3.19084 4.05688
# Velocity P-wave (km/s) = 6.70610 5.53972 6.15062
#
# Compressibility (1/GPa) = 0.02740140
#
# Stress axis : x y z
#
# Youngs Moduli (GPa) = 139.28145 94.94463 77.08386
#
# Poissons Ratio (x) = 0.19984 0.06796
# Poissons Ratio (y) = 0.29316 -0.10365
# Poissons Ratio (z) = 0.12280 -0.12767
#
# Static dielectric constant tensor:
#      x y z
#    x 2.029790 0.000000 0.000000 
#    y 0.000000 2.062720 0.000000 
#    z 0.000000 0.000000 2.007960 
# 
# From -- ./inp_files/7681.got.cif
#   From: 2010.05.17/outbox.cif.g08.bks.cpg/sg39_4_cif.got.tgz:7681.got - 2010.06.03 18:22:40.
