data_PCOD9360040
_publ_section_title
;
Structure prediction by ZEFSAII (Michael W. Deem and Ramdas Pophale) SiO2 
 PCOD9360040
Probable space group: A B M 2
;
_chemical_formula_sum "Si O2"
_cell_formula_units_Z 60
_cell_length_a 20.878833
_cell_length_b 24.303962
_cell_length_c 5.510094
_cell_angle_alpha 90.000000
_cell_angle_beta 90.000000
_cell_angle_gamma 90.000000
_cell_volume 2796.033084
_symmetry_space_group_name_H-M "A B M 2"
_symmetry_group_IT_number 39
_symmetry_cell_setting 'orthorhombic'
loop_
_space_group_symop_operation_xyz
x,y,z
-x,-y,z
-x,1/2+y,z
x,1/2-y,z
x,1/2+y,1/2+z
-x,1/2-y,1/2+z
-x,y,1/2+z
x,-y,1/2+z
loop_
_atom_site_type_symbol
_atom_site_label
_atom_site_fract_x
_atom_site_fract_y
_atom_site_fract_z
Si Si1 0.477765 0.582238 0.797820
Si Si2 0.277093 0.498542 0.337822
Si Si3 0.631492 0.159113 0.797794
Si Si4 0.432876 0.690606 0.297564
Si Si5 0.225029 0.624139 0.829778
Si Si6 0.823639 0.899133 0.830402
Si Si7 0.959737 0.625884 0.783409
Si Si8 0.962281 0.250000 0.339961
O O1 0.499523 0.556454 0.547209
O O2 0.403754 0.599522 0.799607
O O3 0.516892 0.640977 0.796870
O O4 0.315166 0.499318 0.587887
O O5 0.239085 0.441428 0.336841
O O6 0.225770 0.548884 0.338395
O O7 0.608594 0.185162 0.543484
O O8 0.707130 0.153367 0.800961
O O9 0.608205 0.185711 0.050669
O O10 0.465411 0.750000 0.299434
O O11 0.184503 0.632135 0.586312
O O12 0.195017 0.635606 0.091414
O O13 0.898111 0.913554 0.799936
O O14 0.003735 0.619116 0.025224
O O15 0.933380 0.689278 0.796752
O O16 0.015659 0.250000 0.122308
#
# Coordination Sequence:
#
# PCOD9360040 Si02
#       8
#     8   8   8   8   8   8   8   4
#     4   8  16  27  42  66  92 119 165 215 253 297
#     4   8  16  30  50  72  94 125 164 203 245 295
#     4  10  19  30  47  70  94 129 178 211 249 300
#     4  10  19  31  48  68  97 134 173 217 260 304
#     4  10  19  33  52  71 100 136 172 206 249 303
#     4  10  19  33  55  77 104 132 165 207 254 307
#     4  10  19  33  55  81 103 130 168 209 251 291
#     4   8  16  30  50  74  96 122 162 202 230 274
#
# _framework density 21.458974999999999
#
# number of rings (size 3 to 8) (size 9 to 14) (size 15 to 20)
#    0.000    2.667    0.000    2.000    0.000    4.800 
#    0.000    0.000    8.800   21.600    0.000    0.000 
#    0.000  259.200    0.000    0.000    0.000    0.000 
#
# Total GULP energy -167067.369296 kJ/mol
# GULP energy per Si atom -5568.912310 kJ/mol
# Density = 2.141013 g / cm^3
# Si number density = 21.458975 Si / 1000 Ang^3
#
#
#
# Elastic Constant Matrix: (Units=GPa)
#
#
# Indices 1 2 3 4 5 6 
#
# 1 38.7295 8.4310 -0.9707 0.0000 0.0000 0.0000
# 2 8.4310 60.3054 14.5314 0.0000 0.0000 0.0000
# 3 -0.9707 14.5314 187.6004 0.0000 0.0000 0.0000
# 4 0.0000 0.0000 0.0000 -3.6418 0.0000 0.0000
# 5 0.0000 0.0000 0.0000 0.0000 33.1141 0.0000
# 6 0.0000 0.0000 0.0000 0.0000 0.0000 14.6072
#
#
#
# Elastic Compliance Matrix: (Units=1/GPa)
#
#
# Indices 1 2 3 4 5 6 
#
# 1 0.026665 -0.003833 0.000435 0.000000 0.000000 0.000000
# 2 -0.003833 0.017449 -0.001371 0.000000 0.000000 0.000000
# 3 0.000435 -0.001371 0.005439 0.000000 0.000000 0.000000
# 4 0.000000 0.000000 0.000000 -0.274588 0.000000 0.000000
# 5 0.000000 0.000000 0.000000 0.000000 0.030199 0.000000
# 6 0.000000 0.000000 0.000000 0.000000 0.000000 0.068459
#
#
# Mechanical properties :
#
#
# Convention : Reuss Voigt Hill
#
# Bulk Modulus (GPa) = 24.99108 36.73542 30.86325
# Shear Modulus (GPa) = -48.30866 26.45881 -10.92492
#
# Velocity S-wave (km/s) = -4.74984 3.51521 -2.25879
# Velocity P-wave (km/s) = 4.29069 5.79928 2.75877
#
# Compressibility (1/GPa) = 0.04001428
#
# Stress axis : x y z
#
# Youngs Moduli (GPa) = 37.50188 57.31136 183.85886
#
# Poissons Ratio (x) = 0.21966 -0.07995
# Poissons Ratio (y) = 0.14374 0.25214
# Poissons Ratio (z) = -0.01631 0.07860
#
# Static dielectric constant tensor:
#      x y z
#    x 1.755920 0.000000 0.000000 
#    y 0.000000 1.805110 0.000000 
#    z 0.000000 0.000000 1.881790 
# 
# From -- ./inp_files/864.got.cif
#   From: 2010.05.17/outbox.cif.g08.bks.cpg/sg39_1_cif.got.tgz:864.got - 2010.06.03 18:22:40.
