data_PCOD9360783
_publ_section_title
;
Structure prediction by ZEFSAII (Michael W. Deem and Ramdas Pophale) SiO2 
 PCOD9360783
Probable space group: A B M 2
;
_chemical_formula_sum "Si O2"
_cell_formula_units_Z 48
_cell_length_a 7.440391
_cell_length_b 28.769055
_cell_length_c 9.502949
_cell_angle_alpha 90.000000
_cell_angle_beta 90.000000
_cell_angle_gamma 90.000000
_cell_volume 2034.134912
_symmetry_space_group_name_H-M "A B M 2"
_symmetry_group_IT_number 39
_symmetry_cell_setting 'orthorhombic'
loop_
_space_group_symop_operation_xyz
x,y,z
-x,-y,z
-x,1/2+y,z
x,1/2-y,z
x,1/2+y,1/2+z
-x,1/2-y,1/2+z
-x,y,1/2+z
x,-y,1/2+z
loop_
_atom_site_type_symbol
_atom_site_label
_atom_site_fract_x
_atom_site_fract_y
_atom_site_fract_z
Si Si1 0.346984 0.369627 0.552150
Si Si2 0.149927 0.550889 0.654162
Si Si3 0.680217 0.798554 0.333628
Si Si4 0.779257 0.967179 0.489137
Si Si5 0.765647 0.344286 0.576263
Si Si6 0.246460 0.696906 0.287539
O O1 0.273869 0.345338 0.413261
O O2 0.346653 0.424520 0.532803
O O3 0.550630 0.352390 0.564528
O O4 0.233492 0.344119 0.673098
O O5 0.270701 0.518126 0.549599
O O6 0.178561 0.536382 0.819910
O O7 0.174814 0.605489 0.629260
O O8 0.952600 0.543598 0.587203
O O9 0.721907 0.750000 0.408883
O O10 0.784266 0.803467 0.188632
O O11 0.464450 0.798618 0.309620
O O12 0.834407 0.325010 0.428915
O O13 0.186445 0.750000 0.259127
#
# Coordination Sequence:
#
# PCOD9360783 Si02
#       6
#     8   8   8   8   8   8
#     4  10  20  35  58  89 118 148 190 236 282 330
#     4  11  24  42  62  84 110 150 192 235 288 348
#     4   9  16  32  54  83 118 152 187 231 278 335
#     4  11  24  42  62  84 110 150 192 235 288 348
#     4  10  20  35  58  89 118 148 190 236 282 330
#     4   9  18  30  54  87 120 152 187 227 278 333
#
# _framework density 23.597255000000001
#
# number of rings (size 3 to 8) (size 9 to 14) (size 15 to 20)
#    0.000    2.000    1.667    3.000    4.667    4.667 
#    0.000    1.667    0.000    6.000    0.000    0.000 
#    0.000    0.000    0.000    0.000    0.000    0.000 
#
# Total GULP energy -133716.739048 kJ/mol
# GULP energy per Si atom -5571.530794 kJ/mol
# Density = 2.354355 g / cm^3
# Si number density = 23.597255 Si / 1000 Ang^3
#
#
#
# Elastic Constant Matrix: (Units=GPa)
#
#
# Indices 1 2 3 4 5 6 
#
# 1 27.9399 18.0612 10.9570 0.0000 0.0000 0.0000
# 2 18.0612 156.0448 39.5694 0.0000 0.0000 0.0000
# 3 10.9570 39.5694 113.6369 0.0000 0.0000 0.0000
# 4 0.0000 0.0000 0.0000 -49.5926 0.0000 0.0000
# 5 0.0000 0.0000 0.0000 0.0000 5.7045 0.0000
# 6 0.0000 0.0000 0.0000 0.0000 0.0000 20.3443
#
#
#
# Elastic Compliance Matrix: (Units=1/GPa)
#
#
# Indices 1 2 3 4 5 6 
#
# 1 0.039282 -0.003934 -0.002418 0.000000 0.000000 0.000000
# 2 -0.003934 0.007423 -0.002205 0.000000 0.000000 0.000000
# 3 -0.002418 -0.002205 0.009801 0.000000 0.000000 0.000000
# 4 0.000000 0.000000 0.000000 -0.020164 0.000000 0.000000
# 5 0.000000 0.000000 0.000000 0.000000 0.175301 0.000000
# 6 0.000000 0.000000 0.000000 0.000000 0.000000 0.049154
#
#
# Mechanical properties :
#
#
# Convention : Reuss Voigt Hill
#
# Bulk Modulus (GPa) = 25.38572 48.31078 36.84825
# Shear Modulus (GPa) = 17.17972 10.56017 13.86994
#
# Velocity S-wave (km/s) = 2.70115 2.11775 2.42704
# Velocity P-wave (km/s) = 4.52874 5.14756 4.84803
#
# Compressibility (1/GPa) = 0.03939223
#
# Stress axis : x y z
#
# Youngs Moduli (GPa) = 25.45689 134.71721 102.02978
#
# Poissons Ratio (x) = 0.52991 0.24670
# Poissons Ratio (y) = 0.10014 0.22502
# Poissons Ratio (z) = 0.06155 0.29711
#
# Static dielectric constant tensor:
#      x y z
#    x 1.987940 0.000000 0.000000 
#    y 0.000000 2.468160 0.000000 
#    z 0.000000 0.000000 1.945910 
# 
# From -- ./inp_files/2306.got.cif
#   From: 2010.05.17/outbox.cif.g08.bks.cpg/sg39_2_cif.got.tgz:2306.got - 2010.06.03 18:22:40.
