data_PCOD9360287
_publ_section_title
;
Structure prediction by ZEFSAII (Michael W. Deem and Ramdas Pophale) SiO2 
 PCOD9360287
Probable space group: A B M 2
;
_chemical_formula_sum "Si O2"
_cell_formula_units_Z 56
_cell_length_a 14.771704
_cell_length_b 8.798302
_cell_length_c 26.060204
_cell_angle_alpha 90.000000
_cell_angle_beta 90.000000
_cell_angle_gamma 90.000000
_cell_volume 3386.938202
_symmetry_space_group_name_H-M "A B M 2"
_symmetry_group_IT_number 39
_symmetry_cell_setting 'orthorhombic'
loop_
_space_group_symop_operation_xyz
x,y,z
-x,-y,z
-x,1/2+y,z
x,1/2-y,z
x,1/2+y,1/2+z
-x,1/2-y,1/2+z
-x,y,1/2+z
x,-y,1/2+z
loop_
_atom_site_type_symbol
_atom_site_label
_atom_site_fract_x
_atom_site_fract_y
_atom_site_fract_z
Si Si1 0.100416 0.432986 0.777150
Si Si2 0.097999 0.067291 0.584371
Si Si3 0.099043 0.432620 0.465975
Si Si4 0.596230 0.931293 0.217258
Si Si5 0.596789 0.932015 0.338200
Si Si6 0.218863 0.932600 0.376843
Si Si7 0.220240 0.433640 0.678646
O O1 0.093773 0.250000 0.776729
O O2 0.157315 0.477304 0.827609
O O3 0.156133 0.479420 0.726441
O O4 0.000000 0.500000 0.777784
O O5 0.091485 0.250000 0.586691
O O6 0.118805 0.026135 0.525381
O O7 0.172168 0.018972 0.625840
O O8 0.000000 0.000000 0.597642
O O9 0.096378 0.250000 0.461650
O O10 0.171506 0.500973 0.427155
O O11 0.000000 0.500000 0.453516
O O12 0.593415 0.750000 0.213189
O O13 0.608757 0.971027 0.277680
O O14 0.500000 0.000000 0.200942
O O15 0.681137 0.997299 0.186901
O O16 0.595818 0.750000 0.342952
O O17 0.500000 0.000000 0.354221
O O18 0.681144 0.002166 0.368120
O O19 0.221786 0.750000 0.378948
O O20 0.227156 0.250000 0.679494
#
# Coordination Sequence:
#
# PCOD9360287 Si02
#       7
#     8   8   8   8   8   8   8
#     4  10  21  32  46  70 103 136 167 203 250 304
#     4   9  19  34  54  76 102 137 177 218 259 302
#     4  10  20  35  53  76 103 137 179 220 260 306
#     4  10  20  33  52  77 104 137 172 210 254 306
#     4  10  20  34  53  77 105 137 172 213 256 309
#     4  11  21  34  52  76 104 139 174 212 259 308
#     4  10  19  34  52  74 104 137 170 212 258 305
#
# _framework density 16.534108
#
# number of rings (size 3 to 8) (size 9 to 14) (size 15 to 20)
#    0.000    2.000    1.429    2.571    0.000    5.143 
#    0.000    0.000    0.000    0.857    0.000    4.000 
#    0.000    0.000    0.000    0.000    0.000    0.000 
#
# Total GULP energy -156327.585109 kJ/mol
# GULP energy per Si atom -5583.128040 kJ/mol
# Density = 1.649648 g / cm^3
# Si number density = 16.534108 Si / 1000 Ang^3
#
#
#
# Elastic Constant Matrix: (Units=GPa)
#
#
# Indices 1 2 3 4 5 6 
#
# 1 185.6557 51.6421 94.4108 0.0000 0.0000 0.0000
# 2 51.6421 35.2052 38.5546 0.0000 0.0000 0.0000
# 3 94.4108 38.5546 95.7644 0.0000 0.0000 0.0000
# 4 0.0000 0.0000 0.0000 20.1041 0.0000 0.0000
# 5 0.0000 0.0000 0.0000 0.0000 24.4426 0.0000
# 6 0.0000 0.0000 0.0000 0.0000 0.0000 36.3738
#
#
#
# Elastic Compliance Matrix: (Units=1/GPa)
#
#
# Indices 1 2 3 4 5 6 
#
# 1 0.012028 -0.008331 -0.008504 0.000000 0.000000 0.000000
# 2 -0.008331 0.056575 -0.014564 0.000000 0.000000 0.000000
# 3 -0.008504 -0.014564 0.024690 0.000000 0.000000 0.000000
# 4 0.000000 0.000000 0.000000 0.049741 0.000000 0.000000
# 5 0.000000 0.000000 0.000000 0.000000 0.040912 0.000000
# 6 0.000000 0.000000 0.000000 0.000000 0.000000 0.027492
#
#
# Mechanical properties :
#
#
# Convention : Reuss Voigt Hill
#
# Bulk Modulus (GPa) = 32.79246 76.20448 54.49847
# Shear Modulus (GPa) = 17.58082 24.98528 21.28305
#
# Velocity S-wave (km/s) = 3.26438 3.89155 3.59168
# Velocity P-wave (km/s) = 5.83819 8.14749 7.08752
#
# Compressibility (1/GPa) = 0.03049482
#
# Stress axis : x y z
#
# Youngs Moduli (GPa) = 83.13768 17.67580 40.50262
#
# Poissons Ratio (x) = 0.14725 0.34445
# Poissons Ratio (y) = 0.69260 0.58987
# Poissons Ratio (z) = 0.70703 0.25743
#
# Static dielectric constant tensor:
#      x y z
#    x 1.523920 0.000000 0.000000 
#    y 0.000000 1.553280 0.000000 
#    z 0.000000 0.000000 1.553300 
# 
# From -- ./inp_files/14728.got.cif
#   From: 2010.05.17/outbox.cif.g08.bks.cpg/sg39_8_cif.got.tgz:14728.got - 2010.06.03 18:22:40.
