data_PCOD9360259
_publ_section_title
;
Structure prediction by ZEFSAII (Michael W. Deem and Ramdas Pophale) SiO2 
 PCOD9360259
Probable space group: A B M 2
;
_chemical_formula_sum "Si O2"
_cell_formula_units_Z 64
_cell_length_a 13.114057
_cell_length_b 14.457529
_cell_length_c 14.297006
_cell_angle_alpha 90.000000
_cell_angle_beta 90.000000
_cell_angle_gamma 90.000000
_cell_volume 2710.667436
_symmetry_space_group_name_H-M "A B M 2"
_symmetry_group_IT_number 39
_symmetry_cell_setting 'orthorhombic'
loop_
_space_group_symop_operation_xyz
x,y,z
-x,-y,z
-x,1/2+y,z
x,1/2-y,z
x,1/2+y,1/2+z
-x,1/2-y,1/2+z
-x,y,1/2+z
x,-y,1/2+z
loop_
_atom_site_type_symbol
_atom_site_label
_atom_site_fract_x
_atom_site_fract_y
_atom_site_fract_z
Si Si1 0.334191 0.356453 0.911790
Si Si2 0.421396 0.863584 0.213315
Si Si3 0.374519 0.864080 0.615496
Si Si4 0.942532 0.860499 0.673340
Si Si5 0.840956 0.142223 0.686477
Si Si6 0.746573 0.360096 0.070558
Si Si7 0.097565 0.611066 0.393260
Si Si8 0.125014 0.393231 0.403500
O O1 0.367953 0.250000 0.909736
O O2 0.372705 0.396007 0.812113
O O3 0.210258 0.354007 0.920518
O O4 0.380967 0.396426 0.007493
O O5 0.420149 0.750000 0.216001
O O6 0.535576 0.891597 0.185709
O O7 0.351518 0.894170 0.125592
O O8 0.375490 0.750000 0.613985
O O9 0.265217 0.896778 0.652692
O O10 0.946821 0.750000 0.656770
O O11 0.848053 0.900183 0.617980
O O12 0.917505 0.871830 0.782675
O O13 0.053483 0.899907 0.649733
O O14 0.839695 0.250000 0.658619
O O15 0.853198 0.137281 0.797993
O O16 0.745477 0.250000 0.087225
O O17 0.774272 0.371497 0.962759
O O18 0.108654 0.502215 0.406439
O O19 0.987770 0.644757 0.434303
#
# Coordination Sequence:
#
# PCOD9360259 Si02
#       8
#     8   8   8   8   8   8   8   8
#     4  10  19  34  58  82 107 144 185 235 278 325
#     4   9  18  34  56  83 111 141 184 232 280 329
#     4   9  19  33  54  86 112 139 184 230 280 329
#     4   9  17  32  56  82 107 140 185 234 281 327
#     4   9  18  34  53  79 113 143 177 228 279 326
#     4  10  19  33  56  84 110 143 184 230 279 330
#     4  10  20  37  52  77 113 149 189 225 273 337
#     4  10  22  35  51  82 116 151 183 225 282 335
#
# _framework density 23.610420999999999
#
# number of rings (size 3 to 8) (size 9 to 14) (size 15 to 20)
#    0.000    2.500    1.250    0.750    1.750    2.500 
#    2.250    5.000    0.000    4.500    0.000    0.000 
#    0.000    0.000    0.000    0.000    0.000    0.000 
#
# Total GULP energy -178580.899121 kJ/mol
# GULP energy per Si atom -5580.653098 kJ/mol
# Density = 2.355668 g / cm^3
# Si number density = 23.610421 Si / 1000 Ang^3
#
#
#
# Elastic Constant Matrix: (Units=GPa)
#
#
# Indices 1 2 3 4 5 6 
#
# 1 124.3963 12.6687 45.7722 0.0000 0.0000 0.0000
# 2 12.6687 58.3633 -7.1065 0.0000 0.0000 0.0000
# 3 45.7722 -7.1065 83.4055 0.0000 0.0000 0.0000
# 4 0.0000 0.0000 0.0000 -50.7969 0.0000 0.0000
# 5 0.0000 0.0000 0.0000 0.0000 29.9383 0.0000
# 6 0.0000 0.0000 0.0000 0.0000 0.0000 13.1831
#
#
#
# Elastic Compliance Matrix: (Units=1/GPa)
#
#
# Indices 1 2 3 4 5 6 
#
# 1 0.010579 -0.003035 -0.006064 0.000000 0.000000 0.000000
# 2 -0.003035 0.018184 0.003215 0.000000 0.000000 0.000000
# 3 -0.006064 0.003215 0.015592 0.000000 0.000000 0.000000
# 4 0.000000 0.000000 0.000000 -0.019686 0.000000 0.000000
# 5 0.000000 0.000000 0.000000 0.000000 0.033402 0.000000
# 6 0.000000 0.000000 0.000000 0.000000 0.000000 0.075855
#
#
# Mechanical properties :
#
#
# Convention : Reuss Voigt Hill
#
# Bulk Modulus (GPa) = 30.68760 40.98153 35.83456
# Shear Modulus (GPa) = 31.93731 12.78695 22.36213
#
# Velocity S-wave (km/s) = 3.68187 2.32971 3.08089
# Velocity P-wave (km/s) = 5.57679 4.96305 5.27884
#
# Compressibility (1/GPa) = 0.03258645
#
# Stress axis : x y z
#
# Youngs Moduli (GPa) = 94.52403 54.99257 64.13697
#
# Poissons Ratio (x) = 0.16689 0.38895
# Poissons Ratio (y) = 0.28686 -0.20619
# Poissons Ratio (z) = 0.57323 -0.17679
#
# Static dielectric constant tensor:
#      x y z
#    x 1.897310 0.000000 0.000000 
#    y 0.000000 1.921780 0.000000 
#    z 0.000000 0.000000 1.921370 
# 
# From -- ./inp_files/9474.got.cif
#   From: 2010.05.17/outbox.cif.g08.bks.cpg/sg39_5_cif.got.tgz:9474.got - 2010.06.03 18:22:40.
