data_PCOD9360395
_publ_section_title
;
Structure prediction by ZEFSAII (Michael W. Deem and Ramdas Pophale) SiO2 
 PCOD9360395
Probable space group: A B M 2
;
_chemical_formula_sum "Si O2"
_cell_formula_units_Z 56
_cell_length_a 5.337906
_cell_length_b 29.900875
_cell_length_c 13.533117
_cell_angle_alpha 90.000000
_cell_angle_beta 90.000000
_cell_angle_gamma 90.000000
_cell_volume 2159.994551
_symmetry_space_group_name_H-M "A B M 2"
_symmetry_group_IT_number 39
_symmetry_cell_setting 'orthorhombic'
loop_
_space_group_symop_operation_xyz
x,y,z
-x,-y,z
-x,1/2+y,z
x,1/2-y,z
x,1/2+y,1/2+z
-x,1/2-y,1/2+z
-x,y,1/2+z
x,-y,1/2+z
loop_
_atom_site_type_symbol
_atom_site_label
_atom_site_fract_x
_atom_site_fract_y
_atom_site_fract_z
Si Si1 0.754041 0.558768 0.799440
Si Si2 0.263159 0.076941 0.281787
Si Si3 0.826034 0.801751 0.410039
Si Si4 0.312011 0.643737 0.445908
Si Si5 0.553770 0.847172 0.152216
Si Si6 0.245595 0.483748 0.466049
Si Si7 0.029431 0.700753 0.187270
O O1 0.504096 0.552902 0.739488
O O2 0.728245 0.604331 0.865483
O O3 0.766162 0.518501 0.874071
O O4 0.001136 0.563492 0.737912
O O5 0.324811 0.126340 0.244213
O O6 0.248156 0.062883 0.400225
O O7 0.813515 0.750000 0.444354
O O8 0.543567 0.822500 0.417166
O O9 0.038472 0.833070 0.460272
O O10 0.953666 0.799409 0.302138
O O11 0.407711 0.625178 0.551468
O O12 0.266911 0.832077 0.167799
O O13 0.755634 0.807462 0.139197
O O14 0.500000 0.500000 0.516092
O O15 0.000000 0.500000 0.523738
O O16 0.123714 0.750000 0.162089
#
# Coordination Sequence:
#
# PCOD9360395 Si02
#       7
#     8   8   8   8   8   8   8
#     4  10  19  35  59  82 110 149 198 240 283 348
#     4  10  19  35  59  82 110 149 198 240 283 348
#     4  11  24  42  62  84 114 157 207 249 287 346
#     4  12  24  37  58  89 123 156 192 245 306 353
#     4  12  24  37  58  89 123 156 192 245 306 353
#     4   8  16  30  54  82 104 138 190 240 280 330
#     4  11  24  42  62  84 114 157 207 249 287 346
#
# _framework density 25.925989000000001
#
# number of rings (size 3 to 8) (size 9 to 14) (size 15 to 20)
#    0.000    1.429    0.000    6.857    0.000    5.714 
#    0.000    0.000    0.000   15.429    0.000    0.000 
#    0.000    2.286    0.000    0.000    0.000    0.000 
#
# Total GULP energy -155956.494175 kJ/mol
# GULP energy per Si atom -5569.874792 kJ/mol
# Density = 2.586698 g / cm^3
# Si number density = 25.925989 Si / 1000 Ang^3
#
#
#
# Elastic Constant Matrix: (Units=GPa)
#
#
# Indices 1 2 3 4 5 6 
#
# 1 248.5452 39.0282 4.3267 0.0000 0.0000 0.0000
# 2 39.0282 122.2425 13.9921 0.0000 0.0000 0.0000
# 3 4.3267 13.9921 61.4404 0.0000 0.0000 0.0000
# 4 0.0000 0.0000 0.0000 -7.4941 0.0000 0.0000
# 5 0.0000 0.0000 0.0000 0.0000 18.0046 0.0000
# 6 0.0000 0.0000 0.0000 0.0000 0.0000 44.2685
#
#
#
# Elastic Compliance Matrix: (Units=1/GPa)
#
#
# Indices 1 2 3 4 5 6 
#
# 1 0.004236 -0.001353 0.000010 0.000000 0.000000 0.000000
# 2 -0.001353 0.008832 -0.001916 0.000000 0.000000 0.000000
# 3 0.000010 -0.001916 0.016712 0.000000 0.000000 0.000000
# 4 0.000000 0.000000 0.000000 -0.133438 0.000000 0.000000
# 5 0.000000 0.000000 0.000000 0.000000 0.055541 0.000000
# 6 0.000000 0.000000 0.000000 0.000000 0.000000 0.022589
#
#
# Mechanical properties :
#
#
# Convention : Reuss Voigt Hill
#
# Bulk Modulus (GPa) = 42.99199 60.76912 51.88055
# Shear Modulus (GPa) = -444.24331 35.94787 -204.14772
#
# Velocity S-wave (km/s) = -13.10430 3.72769 -8.88332
# Velocity P-wave (km/s) = 14.57206 6.48212 9.22840
#
# Compressibility (1/GPa) = 0.02326015
#
# Stress axis : x y z
#
# Youngs Moduli (GPa) = 236.08443 113.22597 59.83872
#
# Poissons Ratio (x) = 0.15325 -0.00060
# Poissons Ratio (y) = 0.31954 0.11465
# Poissons Ratio (z) = -0.00235 0.21694
#
# Static dielectric constant tensor:
#      x y z
#    x 2.238600 0.000000 0.000000 
#    y 0.000000 2.177210 0.000000 
#    z 0.000000 0.000000 2.107240 
# 
# From -- ./inp_files/7659.got.cif
#   From: 2010.05.17/outbox.cif.g08.bks.cpg/sg39_4_cif.got.tgz:7659.got - 2010.06.03 18:22:40.
