data_PCOD9360104
_publ_section_title
;
Structure prediction by ZEFSAII (Michael W. Deem and Ramdas Pophale) SiO2 
 PCOD9360104
Probable space group: A B M 2
;
_chemical_formula_sum "Si O2"
_cell_formula_units_Z 64
_cell_length_a 14.666108
_cell_length_b 7.787027
_cell_length_c 32.689291
_cell_angle_alpha 90.000000
_cell_angle_beta 90.000000
_cell_angle_gamma 90.000000
_cell_volume 3733.292867
_symmetry_space_group_name_H-M "A B M 2"
_symmetry_group_IT_number 39
_symmetry_cell_setting 'orthorhombic'
loop_
_space_group_symop_operation_xyz
x,y,z
-x,-y,z
-x,1/2+y,z
x,1/2-y,z
x,1/2+y,1/2+z
-x,1/2-y,1/2+z
-x,y,1/2+z
x,-y,1/2+z
loop_
_atom_site_type_symbol
_atom_site_label
_atom_site_fract_x
_atom_site_fract_y
_atom_site_fract_z
Si Si1 0.601468 0.543241 0.868480
Si Si2 0.892973 0.042368 0.251288
Si Si3 0.206262 0.046354 0.492234
Si Si4 0.106310 0.955478 0.910559
Si Si5 0.784791 0.546557 0.829539
Si Si6 0.107323 0.956332 0.161983
Si Si7 0.892927 0.957447 0.572961
Si Si8 0.601430 0.545583 0.962275
O O1 0.500000 0.500000 0.853849
O O2 0.608517 0.750000 0.870236
O O3 0.685175 0.476497 0.841496
O O4 0.610285 0.478469 0.915399
O O5 0.887640 0.250000 0.251122
O O6 0.834341 0.975112 0.289344
O O7 0.860022 0.980266 0.206400
O O8 0.000000 0.000000 0.256419
O O9 0.187854 0.250000 0.492280
O O10 0.158514 0.977185 0.450956
O O11 0.162476 0.976096 0.533884
O O12 0.314135 0.020812 0.488365
O O13 0.115884 0.750000 0.909186
O O14 0.151847 0.025060 0.869329
O O15 0.000000 0.000000 0.912782
O O16 0.773624 0.750000 0.822435
O O17 0.117863 0.750000 0.162041
O O18 0.140695 0.020512 0.117693
O O19 0.000000 0.000000 0.161879
O O20 0.885732 0.750000 0.573649
O O21 0.000000 0.000000 0.568418
O O22 0.500000 0.500000 0.976834
O O23 0.608746 0.750000 0.960823
#
# Coordination Sequence:
#
# PCOD9360104 Si02
#       8
#     8   8   8   8   8   8   8   8
#     4   9  18  31  47  65  85 111 143 182 224 262
#     4   9  17  28  44  64  89 117 148 183 218 261
#     4  10  20  32  45  65  90 119 152 186 221 262
#     4  11  22  32  43  60  88 123 155 182 213 255
#     4  10  19  32  46  64  89 117 150 184 220 263
#     4   8  14  26  43  63  85 113 146 183 224 260
#     4   9  17  29  45  65  91 119 151 187 223 264
#     4  10  19  32  50  68  88 115 147 187 229 267
#
# _framework density 17.143044
#
# number of rings (size 3 to 8) (size 9 to 14) (size 15 to 20)
#    0.000    2.500    1.250    1.500    0.000    3.500 
#    0.000    0.000    0.000    0.000    0.000    0.875 
#    0.000    2.000    0.000    0.000    0.000    0.000 
#
# Total GULP energy -178345.614950 kJ/mol
# GULP energy per Si atom -5573.300467 kJ/mol
# Density = 1.710403 g / cm^3
# Si number density = 17.143044 Si / 1000 Ang^3
#
#
#
# Elastic Constant Matrix: (Units=GPa)
#
#
# Indices 1 2 3 4 5 6 
#
# 1 106.7769 -10.2628 75.2179 0.0000 0.0000 0.0000
# 2 -10.2628 19.8622 1.6893 0.0000 0.0000 0.0000
# 3 75.2179 1.6893 165.0994 0.0000 0.0000 0.0000
# 4 0.0000 0.0000 0.0000 12.0747 0.0000 0.0000
# 5 0.0000 0.0000 0.0000 0.0000 6.6359 0.0000
# 6 0.0000 0.0000 0.0000 0.0000 0.0000 19.7863
#
#
#
# Elastic Compliance Matrix: (Units=1/GPa)
#
#
# Indices 1 2 3 4 5 6 
#
# 1 0.015066 0.008376 -0.006950 0.000000 0.000000 0.000000
# 2 0.008376 0.055047 -0.004379 0.000000 0.000000 0.000000
# 3 -0.006950 -0.004379 0.009268 0.000000 0.000000 0.000000
# 4 0.000000 0.000000 0.000000 0.082818 0.000000 0.000000
# 5 0.000000 0.000000 0.000000 0.000000 0.150696 0.000000
# 6 0.000000 0.000000 0.000000 0.000000 0.000000 0.050540
#
#
# Mechanical properties :
#
#
# Convention : Reuss Voigt Hill
#
# Bulk Modulus (GPa) = 13.61014 47.22525 30.41769
# Shear Modulus (GPa) = 12.69573 22.70564 17.70069
#
# Velocity S-wave (km/s) = 2.72431 3.64329 3.21678
# Velocity P-wave (km/s) = 4.22518 6.73095 5.61951
#
# Compressibility (1/GPa) = 0.07347462
#
# Stress axis : x y z
#
# Youngs Moduli (GPa) = 66.37504 18.16632 107.89887
#
# Poissons Ratio (x) = -0.15215 0.74985
# Poissons Ratio (y) = -0.55593 0.47250
# Poissons Ratio (z) = 0.46128 0.07955
#
# Static dielectric constant tensor:
#      x y z
#    x 1.556560 0.000000 0.000000 
#    y 0.000000 1.634950 0.000000 
#    z 0.000000 0.000000 1.626510 
# 
# From -- ./inp_files/17969.got.cif
#   From: 2010.05.17/outbox.cif.g08.bks.cpg/sg39_9_cif.got.tgz:17969.got - 2010.06.03 18:22:40.
