data_PCOD9360741
_publ_section_title
;
Structure prediction by ZEFSAII (Michael W. Deem and Ramdas Pophale) SiO2 
 PCOD9360741
Probable space group: A B M 2
;
_chemical_formula_sum "Si O2"
_cell_formula_units_Z 56
_cell_length_a 20.616226
_cell_length_b 9.385185
_cell_length_c 14.302599
_cell_angle_alpha 90.000000
_cell_angle_beta 90.000000
_cell_angle_gamma 90.000000
_cell_volume 2767.368332
_symmetry_space_group_name_H-M "A B M 2"
_symmetry_group_IT_number 39
_symmetry_cell_setting 'orthorhombic'
loop_
_space_group_symop_operation_xyz
x,y,z
-x,-y,z
-x,1/2+y,z
x,1/2-y,z
x,1/2+y,1/2+z
-x,1/2-y,1/2+z
-x,y,1/2+z
x,-y,1/2+z
loop_
_atom_site_type_symbol
_atom_site_label
_atom_site_fract_x
_atom_site_fract_y
_atom_site_fract_z
Si Si1 0.432731 0.918609 0.769240
Si Si2 0.331231 0.920096 0.929450
Si Si3 0.936516 0.588588 0.902893
Si Si4 0.936296 0.413120 0.631328
Si Si5 0.679603 0.420604 0.623162
Si Si6 0.809049 0.413883 0.131814
Si Si7 0.811818 0.089114 0.903496
O O1 0.445447 0.750000 0.765403
O O2 0.392031 0.947384 0.863283
O O3 0.382590 0.953135 0.686426
O O4 0.500000 0.000000 0.764139
O O5 0.329884 0.750000 0.953597
O O6 0.262227 0.947851 0.878369
O O7 0.333377 0.017926 0.020191
O O8 0.940612 0.750000 0.869206
O O9 0.869093 0.515300 0.874850
O O10 0.000000 0.500000 0.875607
O O11 0.936283 0.591185 0.017114
O O12 0.936860 0.250000 0.664038
O O13 0.872349 0.498402 0.660327
O O14 0.000000 0.500000 0.658996
O O15 0.690340 0.250000 0.622950
O O16 0.744073 0.501587 0.657348
O O17 0.809239 0.250000 0.163881
O O18 0.810716 0.409950 0.017581
O O19 0.826139 0.250000 0.872017
#
# Coordination Sequence:
#
# PCOD9360741 Si02
#       7
#     8   8   8   8   8   8   8
#     4  10  23  41  60  84 114 145 179 219 268 327
#     4   9  19  37  58  80 109 146 183 221 269 325
#     4   9  15  21  32  54  88 127 167 211 258 305
#     4   9  15  22  34  57  92 133 176 224 273 321
#     4  10  20  35  56  83 112 143 181 226 273 323
#     4   9  16  27  44  67  97 136 179 222 269 323
#     4   8  14  25  42  63  90 126 169 213 257 306
#
# _framework density 20.235831000000001
#
# number of rings (size 3 to 8) (size 9 to 14) (size 15 to 20)
#    0.000    2.857    0.000    2.571    0.000    9.143 
#    0.000    2.857    0.000    0.000    0.000    1.000 
#    0.000    4.571    0.000    0.857    0.000    0.000 
#
# Total GULP energy -156416.113025 kJ/mol
# GULP energy per Si atom -5586.289751 kJ/mol
# Density = 2.018977 g / cm^3
# Si number density = 20.235831 Si / 1000 Ang^3
#
#
#
# Elastic Constant Matrix: (Units=GPa)
#
#
# Indices 1 2 3 4 5 6 
#
# 1 227.6900 135.5385 35.8450 0.0000 0.0000 0.0000
# 2 135.5385 156.6728 39.5609 0.0000 0.0000 0.0000
# 3 35.8450 39.5609 56.6524 0.0000 0.0000 0.0000
# 4 0.0000 0.0000 0.0000 5.9490 0.0000 0.0000
# 5 0.0000 0.0000 0.0000 0.0000 30.9462 0.0000
# 6 0.0000 0.0000 0.0000 0.0000 0.0000 44.9825
#
#
#
# Elastic Compliance Matrix: (Units=1/GPa)
#
#
# Indices 1 2 3 4 5 6 
#
# 1 0.009060 -0.007758 -0.000315 0.000000 0.000000 0.000000
# 2 -0.007758 0.014393 -0.005142 0.000000 0.000000 0.000000
# 3 -0.000315 -0.005142 0.021441 0.000000 0.000000 0.000000
# 4 0.000000 0.000000 0.000000 0.168095 0.000000 0.000000
# 5 0.000000 0.000000 0.000000 0.000000 0.032314 0.000000
# 6 0.000000 0.000000 0.000000 0.000000 0.000000 0.022231
#
#
# Mechanical properties :
#
#
# Convention : Reuss Voigt Hill
#
# Bulk Modulus (GPa) = 54.15856 95.87823 75.01839
# Shear Modulus (GPa) = 16.66011 31.71362 24.18687
#
# Velocity S-wave (km/s) = 2.87243 3.96308 3.46099
# Velocity P-wave (km/s) = 6.15003 8.27192 7.28861
#
# Compressibility (1/GPa) = 0.01846430
#
# Stress axis : x y z
#
# Youngs Moduli (GPa) = 110.37868 69.47969 46.63927
#
# Poissons Ratio (x) = 0.53903 0.01468
# Poissons Ratio (y) = 0.85634 0.23981
# Poissons Ratio (z) = 0.03473 0.35725
#
# Static dielectric constant tensor:
#      x y z
#    x 1.679820 0.000000 0.000000 
#    y 0.000000 1.682280 0.000000 
#    z 0.000000 0.000000 1.790680 
# 
# From -- ./inp_files/10390.got.cif
#   From: 2010.05.17/outbox.cif.g08.bks.cpg/sg39_6_cif.got.tgz:10390.got - 2010.06.03 18:22:40.
