data_PCOD9360097
_publ_section_title
;
Structure prediction by ZEFSAII (Michael W. Deem and Ramdas Pophale) SiO2 
 PCOD9360097
Probable space group: A B M 2
;
_chemical_formula_sum "Si O2"
_cell_formula_units_Z 56
_cell_length_a 15.936089
_cell_length_b 8.966234
_cell_length_c 20.505250
_cell_angle_alpha 90.000000
_cell_angle_beta 90.000000
_cell_angle_gamma 90.000000
_cell_volume 2929.927567
_symmetry_space_group_name_H-M "A B M 2"
_symmetry_group_IT_number 39
_symmetry_cell_setting 'orthorhombic'
loop_
_space_group_symop_operation_xyz
x,y,z
-x,-y,z
-x,1/2+y,z
x,1/2-y,z
x,1/2+y,1/2+z
-x,1/2-y,1/2+z
-x,y,1/2+z
x,-y,1/2+z
loop_
_atom_site_type_symbol
_atom_site_label
_atom_site_fract_x
_atom_site_fract_y
_atom_site_fract_z
Si Si1 0.193401 0.928720 0.280480
Si Si2 0.585203 0.927801 0.607086
Si Si3 0.414637 0.076452 0.388443
Si Si4 0.088136 0.428456 0.660506
Si Si5 0.230956 0.929709 0.057759
Si Si6 0.761359 0.072418 0.423793
Si Si7 0.633307 0.577050 0.239082
O O1 0.209745 0.750000 0.274034
O O2 0.115204 0.965488 0.234622
O O3 0.188187 0.962315 0.357216
O O4 0.273393 0.016222 0.252609
O O5 0.579199 0.750000 0.602704
O O6 0.673274 0.976181 0.574387
O O7 0.500000 0.000000 0.580175
O O8 0.593752 0.977709 0.682499
O O9 0.410634 0.250000 0.407824
O O10 0.411156 0.069034 0.309424
O O11 0.500000 0.000000 0.411045
O O12 0.332236 0.991627 0.412855
O O13 0.081005 0.250000 0.655684
O O14 0.165191 0.474466 0.613730
O O15 0.000000 0.500000 0.642688
O O16 0.231329 0.750000 0.054655
O O17 0.204601 0.997173 0.988808
O O18 0.758050 0.250000 0.431102
O O19 0.633812 0.750000 0.218346
#
# Coordination Sequence:
#
# PCOD9360097 Si02
#       7
#     8   8   8   8   8   8   8
#     4   9  18  37  60  84 116 151 187 233 294 348
#     4  11  22  36  54  79 114 158 200 244 294 345
#     4  10  20  33  50  76 111 151 197 245 293 345
#     4  10  21  40  65  92 118 152 192 239 295 351
#     4  10  22  41  60  81 120 163 194 239 297 348
#     4  10  21  36  59  84 112 153 195 239 289 348
#     4  10  19  31  52  82 113 148 192 243 292 343
#
# _framework density 19.113099999999999
#
# number of rings (size 3 to 8) (size 9 to 14) (size 15 to 20)
#    0.000    2.000    1.429    2.143    0.000    6.286 
#    0.000    2.143    0.000    3.429    0.000    0.000 
#    0.000    0.000    0.000    0.000    0.000    0.000 
#
# Total GULP energy -156346.307111 kJ/mol
# GULP energy per Si atom -5583.796683 kJ/mol
# Density = 1.906960 g / cm^3
# Si number density = 19.113100 Si / 1000 Ang^3
#
#
#
# Elastic Constant Matrix: (Units=GPa)
#
#
# Indices 1 2 3 4 5 6 
#
# 1 99.0076 32.6098 46.0889 0.0000 0.0000 0.0000
# 2 32.6098 29.3242 27.4862 0.0000 0.0000 0.0000
# 3 46.0889 27.4862 107.4773 0.0000 0.0000 0.0000
# 4 0.0000 0.0000 0.0000 26.8092 0.0000 0.0000
# 5 0.0000 0.0000 0.0000 0.0000 0.4601 0.0000
# 6 0.0000 0.0000 0.0000 0.0000 0.0000 28.3555
#
#
#
# Elastic Compliance Matrix: (Units=1/GPa)
#
#
# Indices 1 2 3 4 5 6 
#
# 1 0.016724 -0.015620 -0.003177 0.000000 0.000000 0.000000
# 2 -0.015620 0.059442 -0.008504 0.000000 0.000000 0.000000
# 3 -0.003177 -0.008504 0.012841 0.000000 0.000000 0.000000
# 4 0.000000 0.000000 0.000000 0.037301 0.000000 0.000000
# 5 0.000000 0.000000 0.000000 0.000000 2.173641 0.000000
# 6 0.000000 0.000000 0.000000 0.000000 0.000000 0.035267
#
#
# Mechanical properties :
#
#
# Convention : Reuss Voigt Hill
#
# Bulk Modulus (GPa) = 29.06423 49.79765 39.43094
# Shear Modulus (GPa) = 2.08222 19.76657 10.92439
#
# Velocity S-wave (km/s) = 1.04489 3.21937 2.39334
# Velocity P-wave (km/s) = 4.08597 6.31901 5.32095
#
# Compressibility (1/GPa) = 0.03440656
#
# Stress axis : x y z
#
# Youngs Moduli (GPa) = 59.79519 16.82317 77.87344
#
# Poissons Ratio (x) = 0.26277 0.24740
# Poissons Ratio (y) = 0.93398 0.66220
# Poissons Ratio (z) = 0.18997 0.14306
#
# Static dielectric constant tensor:
#      x y z
#    x 1.651070 0.000000 0.000000 
#    y 0.000000 1.640640 0.000000 
#    z 0.000000 0.000000 1.687120 
# 
# From -- ./inp_files/14749.got.cif
#   From: 2010.05.17/outbox.cif.g08.bks.cpg/sg39_8_cif.got.tgz:14749.got - 2010.06.03 18:22:40.
