data_PCOD9360019
_publ_section_title
;
Structure prediction by ZEFSAII (Michael W. Deem and Ramdas Pophale) SiO2 
 PCOD9360019
Probable space group: A B M 2
;
_chemical_formula_sum "Si O2"
_cell_formula_units_Z 44
_cell_length_a 7.432074
_cell_length_b 7.729006
_cell_length_c 30.412647
_cell_angle_alpha 90.000000
_cell_angle_beta 90.000000
_cell_angle_gamma 90.000000
_cell_volume 1746.979830
_symmetry_space_group_name_H-M "A B M 2"
_symmetry_group_IT_number 39
_symmetry_cell_setting 'orthorhombic'
loop_
_space_group_symop_operation_xyz
x,y,z
-x,-y,z
-x,1/2+y,z
x,1/2-y,z
x,1/2+y,1/2+z
-x,1/2-y,1/2+z
-x,y,1/2+z
x,-y,1/2+z
loop_
_atom_site_type_symbol
_atom_site_label
_atom_site_fract_x
_atom_site_fract_y
_atom_site_fract_z
Si Si1 0.334879 0.750000 0.395360
Si Si2 0.783907 0.539597 0.324731
Si Si3 0.701843 0.555255 0.037271
Si Si4 0.791733 0.448075 0.132436
Si Si5 0.212375 0.954592 0.726679
Si Si6 0.197648 0.443679 0.450008
O O1 0.309368 0.593615 0.357942
O O2 0.324462 0.596140 0.433344
O O3 0.759154 0.750000 0.331896
O O4 0.721108 0.495531 0.274961
O O5 0.000000 0.500000 0.327326
O O6 0.500000 0.500000 0.027941
O O7 0.743889 0.750000 0.025174
O O8 0.722425 0.544447 0.089681
O O9 0.811860 0.440898 0.002923
O O10 0.775968 0.250000 0.120206
O O11 0.711642 0.471364 0.181140
O O12 0.000000 0.500000 0.136431
O O13 0.228754 0.750000 0.722846
O O14 0.000000 0.000000 0.727711
O O15 0.243674 0.250000 0.434078
O O16 0.000000 0.500000 0.432889
#
# Coordination Sequence:
#
# PCOD9360019 Si02
#       6
#     4   8   8   8   8   8
#     4  12  22  34  54  82 120 166 198 256 298 360
#     4  10  19  28  47  77 119 160 199 239 298 355
#     4  12  25  45  64  88 119 156 201 253 303 365
#     4  11  21  35  60  89 123 161 200 243 299 358
#     4   9  17  29  46  78 117 158 193 237 290 357
#     4  12  24  40  60  90 126 160 204 250 307 361
#
# _framework density 25.186323999999999
#
# number of rings (size 3 to 8) (size 9 to 14) (size 15 to 20)
#    0.000    1.091    2.727    6.545    2.545    0.000 
#    0.000    0.000    0.000    0.000    0.000    1.273 
#    5.455    0.000    0.000    0.000    0.000    0.000 
#
# Total GULP energy -122503.994015 kJ/mol
# GULP energy per Si atom -5568.363364 kJ/mol
# Density = 2.512900 g / cm^3
# Si number density = 25.186324 Si / 1000 Ang^3
#
#
#
# Elastic Constant Matrix: (Units=GPa)
#
#
# Indices 1 2 3 4 5 6 
#
# 1 63.3019 5.0415 2.4963 0.0000 0.0000 0.0000
# 2 5.0415 205.6577 52.0490 0.0000 0.0000 0.0000
# 3 2.4963 52.0490 208.3592 0.0000 0.0000 0.0000
# 4 0.0000 0.0000 0.0000 52.3488 0.0000 0.0000
# 5 0.0000 0.0000 0.0000 0.0000 -44.6609 0.0000
# 6 0.0000 0.0000 0.0000 0.0000 0.0000 14.2172
#
#
#
# Elastic Compliance Matrix: (Units=1/GPa)
#
#
# Indices 1 2 3 4 5 6 
#
# 1 0.015830 -0.000363 -0.000099 0.000000 0.000000 0.000000
# 2 -0.000363 0.005199 -0.001294 0.000000 0.000000 0.000000
# 3 -0.000099 -0.001294 0.005124 0.000000 0.000000 0.000000
# 4 0.000000 0.000000 0.000000 0.019103 0.000000 0.000000
# 5 0.000000 0.000000 0.000000 0.000000 -0.022391 0.000000
# 6 0.000000 0.000000 0.000000 0.000000 0.000000 0.070337
#
#
# Mechanical properties :
#
#
# Convention : Reuss Voigt Hill
#
# Bulk Modulus (GPa) = 44.16906 66.27693 55.22299
# Shear Modulus (GPa) = 47.95640 32.22982 40.09311
#
# Velocity S-wave (km/s) = 4.36829 3.58111 3.99414
# Velocity P-wave (km/s) = 6.55878 6.59325 6.57604
#
# Compressibility (1/GPa) = 0.02264028
#
# Stress axis : x y z
#
# Youngs Moduli (GPa) = 63.17069 192.34719 195.16276
#
# Poissons Ratio (x) = 0.06982 0.01932
# Poissons Ratio (y) = 0.02293 0.25261
# Poissons Ratio (z) = 0.00625 0.24897
#
# Static dielectric constant tensor:
#      x y z
#    x 2.024360 0.000000 0.000000 
#    y 0.000000 1.907490 0.000000 
#    z 0.000000 0.000000 2.043560 
# 
# From -- ./inp_files/17514.got.cif
#   From: 2010.05.17/outbox.cif.g08.bks.cpg/sg39_9_cif.got.tgz:17514.got - 2010.06.03 18:22:40.
