data_PCOD9360508
_publ_section_title
;
Structure prediction by ZEFSAII (Michael W. Deem and Ramdas Pophale) SiO2 
 PCOD9360508
Probable space group: A B M 2
;
_chemical_formula_sum "Si O2"
_cell_formula_units_Z 52
_cell_length_a 7.409817
_cell_length_b 18.390941
_cell_length_c 14.804814
_cell_angle_alpha 90.000000
_cell_angle_beta 90.000000
_cell_angle_gamma 90.000000
_cell_volume 2017.503928
_symmetry_space_group_name_H-M "A B M 2"
_symmetry_group_IT_number 39
_symmetry_cell_setting 'orthorhombic'
loop_
_space_group_symop_operation_xyz
x,y,z
-x,-y,z
-x,1/2+y,z
x,1/2-y,z
x,1/2+y,1/2+z
-x,1/2-y,1/2+z
-x,y,1/2+z
x,-y,1/2+z
loop_
_atom_site_type_symbol
_atom_site_label
_atom_site_fract_x
_atom_site_fract_y
_atom_site_fract_z
Si Si1 0.371529 0.336237 0.808410
Si Si2 0.699643 0.018466 0.636051
Si Si3 0.856386 0.329539 0.659551
Si Si4 0.982532 0.627302 0.363030
Si Si5 0.790646 0.250000 0.980737
Si Si6 0.658314 0.952696 0.345994
Si Si7 0.241340 0.137377 0.606033
O O1 0.373584 0.250000 0.825865
O O2 0.557693 0.375238 0.832751
O O3 0.340810 0.349602 0.701276
O O4 0.198809 0.372957 0.857825
O O5 0.756305 0.100924 0.617860
O O6 0.694036 0.014482 0.745785
O O7 0.500000 0.000000 0.603862
O O8 0.804840 0.948017 0.601094
O O9 0.766462 0.250000 0.659363
O O10 0.918579 0.350704 0.761133
O O11 0.048617 0.322654 0.610860
O O12 0.911413 0.688186 0.428566
O O13 0.855694 0.558463 0.385975
O O14 0.666987 0.316023 0.028338
O O15 0.500000 0.000000 0.390510
#
# Coordination Sequence:
#
# PCOD9360508 Si02
#       7
#     8   8   8   8   4   8   8
#     4  11  20  37  68  99 122 168 238 283 329 387
#     4  10  20  37  60  98 131 158 210 279 340 385
#     4  10  19  38  66  97 118 161 228 282 321 384
#     4  10  22  39  64  95 131 170 222 276 332 395
#     4  12  22  40  64  92 140 178 220 266 342 420
#     4  10  21  38  67  97 130 162 217 288 333 385
#     4  11  20  37  65  93 128 174 216 278 332 401
#
# _framework density 25.774422000000001
#
# number of rings (size 3 to 8) (size 9 to 14) (size 15 to 20)
#    0.000    1.538    6.154    1.385    1.077    1.231 
#    1.385    0.769   13.538    0.000    0.000    0.000 
#    0.000    0.000    0.000    0.000    0.000    0.000 
#
# Total GULP energy -144798.215332 kJ/mol
# GULP energy per Si atom -5569.162128 kJ/mol
# Density = 2.571576 g / cm^3
# Si number density = 25.774422 Si / 1000 Ang^3
#
#
#
# Elastic Constant Matrix: (Units=GPa)
#
#
# Indices 1 2 3 4 5 6 
#
# 1 108.3366 59.1296 9.0341 0.0000 0.0000 0.0000
# 2 59.1296 195.7025 6.4220 0.0000 0.0000 0.0000
# 3 9.0341 6.4220 81.2409 0.0000 0.0000 0.0000
# 4 0.0000 0.0000 0.0000 -51.8488 0.0000 0.0000
# 5 0.0000 0.0000 0.0000 0.0000 3.5091 0.0000
# 6 0.0000 0.0000 0.0000 0.0000 0.0000 23.0862
#
#
#
# Elastic Compliance Matrix: (Units=1/GPa)
#
#
# Indices 1 2 3 4 5 6 
#
# 1 0.011130 -0.003331 -0.000974 0.000000 0.000000 0.000000
# 2 -0.003331 0.006120 -0.000113 0.000000 0.000000 0.000000
# 3 -0.000974 -0.000113 0.012426 0.000000 0.000000 0.000000
# 4 0.000000 0.000000 0.000000 -0.019287 0.000000 0.000000
# 5 0.000000 0.000000 0.000000 0.000000 0.284977 0.000000
# 6 0.000000 0.000000 0.000000 0.000000 0.000000 0.043316
#
#
# Mechanical properties :
#
#
# Convention : Reuss Voigt Hill
#
# Bulk Modulus (GPa) = 47.98703 59.38350 53.68527
# Shear Modulus (GPa) = 14.10577 15.66225 14.88401
#
# Velocity S-wave (km/s) = 2.34193 2.46776 2.40567
# Velocity P-wave (km/s) = 5.09621 5.58655 5.34700
#
# Compressibility (1/GPa) = 0.02083896
#
# Stress axis : x y z
#
# Youngs Moduli (GPa) = 89.85017 163.40223 80.47393
#
# Poissons Ratio (x) = 0.54425 0.07841
# Poissons Ratio (y) = 0.29927 0.00912
# Poissons Ratio (z) = 0.08754 0.01853
#
# Static dielectric constant tensor:
#      x y z
#    x 2.072600 0.000000 0.000000 
#    y 0.000000 2.074240 0.000000 
#    z 0.000000 0.000000 2.209230 
# 
# From -- ./inp_files/11769.got.cif
#   From: 2010.05.17/outbox.cif.g08.bks.cpg/sg39_6_cif.got.tgz:11769.got - 2010.06.03 18:22:40.
