data_PCOD9360516
_publ_section_title
;
Structure prediction by ZEFSAII (Michael W. Deem and Ramdas Pophale) SiO2 
 PCOD9360516
Probable space group: A B M 2
;
_chemical_formula_sum "Si O2"
_cell_formula_units_Z 40
_cell_length_a 12.583413
_cell_length_b 13.973695
_cell_length_c 8.992314
_cell_angle_alpha 90.000000
_cell_angle_beta 90.000000
_cell_angle_gamma 90.000000
_cell_volume 1581.179496
_symmetry_space_group_name_H-M "A B M 2"
_symmetry_group_IT_number 39
_symmetry_cell_setting 'orthorhombic'
loop_
_space_group_symop_operation_xyz
x,y,z
-x,-y,z
-x,1/2+y,z
x,1/2-y,z
x,1/2+y,1/2+z
-x,1/2-y,1/2+z
-x,y,1/2+z
x,-y,1/2+z
loop_
_atom_site_type_symbol
_atom_site_label
_atom_site_fract_x
_atom_site_fract_y
_atom_site_fract_z
Si Si1 0.589276 0.395231 0.530350
Si Si2 0.992535 0.141139 0.483391
Si Si3 0.614617 0.898142 0.683151
Si Si4 0.847593 0.433163 0.213122
Si Si5 0.794788 0.148534 0.699944
O O1 0.482805 0.349369 0.597201
O O2 0.607591 0.500139 0.600222
O O3 0.581219 0.401547 0.354498
O O4 0.698066 0.348865 0.584120
O O5 0.029115 0.250000 0.452883
O O6 0.929103 0.102091 0.339909
O O7 0.903243 0.150661 0.608953
O O8 0.085490 0.077747 0.559483
O O9 0.739358 0.872231 0.688299
O O10 0.804191 0.539289 0.261196
O O11 0.782425 0.250000 0.786436
#
# Coordination Sequence:
#
# PCOD9360516 Si02
#       5
#     8   8   8   8   8
#     4  10  19  39  67 107 144 185 245 301 368 440
#     4  11  24  47  73 104 141 188 245 308 370 439
#     4  10  20  38  69 105 141 192 242 301 369 447
#     4  11  24  45  72 109 145 197 246 303 379 438
#     4  10  23  43  69 104 149 193 241 298 363 442
#
# _framework density 25.297571999999999
#
# number of rings (size 3 to 8) (size 9 to 14) (size 15 to 20)
#    0.000    1.600    2.000    3.600    0.000    3.200 
#    7.200    6.000    0.000    1.200    0.000    5.600 
#    0.000    0.000    0.000    0.000    0.000    0.000 
#
# Total GULP energy -111543.190169 kJ/mol
# GULP energy per Si atom -5577.159508 kJ/mol
# Density = 2.523999 g / cm^3
# Si number density = 25.297572 Si / 1000 Ang^3
#
#
#
# Elastic Constant Matrix: (Units=GPa)
#
#
# Indices 1 2 3 4 5 6 
#
# 1 184.9378 0.9586 72.6167 0.0000 0.0000 0.0000
# 2 0.9586 140.8149 -0.1281 0.0000 0.0000 0.0000
# 3 72.6167 -0.1281 100.0178 0.0000 0.0000 0.0000
# 4 0.0000 0.0000 0.0000 71.8599 0.0000 0.0000
# 5 0.0000 0.0000 0.0000 0.0000 43.7921 0.0000
# 6 0.0000 0.0000 0.0000 0.0000 0.0000 -122.3669
#
#
#
# Elastic Compliance Matrix: (Units=1/GPa)
#
#
# Indices 1 2 3 4 5 6 
#
# 1 0.007564 -0.000056 -0.005492 0.000000 0.000000 0.000000
# 2 -0.000056 0.007102 0.000050 0.000000 0.000000 0.000000
# 3 -0.005492 0.000050 0.013985 0.000000 0.000000 0.000000
# 4 0.000000 0.000000 0.000000 0.013916 0.000000 0.000000
# 5 0.000000 0.000000 0.000000 0.000000 0.022835 0.000000
# 6 0.000000 0.000000 0.000000 0.000000 0.000000 -0.008172
#
#
# Mechanical properties :
#
#
# Convention : Reuss Voigt Hill
#
# Bulk Modulus (GPa) = 56.64091 63.62945 60.13518
# Shear Modulus (GPa) = 67.46586 22.14522 44.80554
#
# Velocity S-wave (km/s) = 5.16980 2.96191 4.21306
# Velocity P-wave (km/s) = 7.62064 6.07488 6.89124
#
# Compressibility (1/GPa) = 0.01765508
#
# Stress axis : x y z
#
# Youngs Moduli (GPa) = 132.20751 140.80642 71.50274
#
# Poissons Ratio (x) = 0.00795 0.39267
# Poissons Ratio (y) = 0.00747 -0.00358
# Poissons Ratio (z) = 0.72605 -0.00705
#
# Static dielectric constant tensor:
#      x y z
#    x 2.025080 0.000000 0.000000 
#    y 0.000000 2.187360 0.000000 
#    z 0.000000 0.000000 1.937830 
# 
# From -- ./inp_files/3082.got.cif
#   From: 2010.05.17/outbox.cif.g08.bks.cpg/sg39_2_cif.got.tgz:3082.got - 2010.06.03 18:22:40.
