data_PCOD9360606
_publ_section_title
;
Structure prediction by ZEFSAII (Michael W. Deem and Ramdas Pophale) SiO2 
 PCOD9360606
Probable space group: A B M 2
;
_chemical_formula_sum "Si O2"
_cell_formula_units_Z 48
_cell_length_a 7.275855
_cell_length_b 15.185380
_cell_length_c 18.698368
_cell_angle_alpha 90.000000
_cell_angle_beta 90.000000
_cell_angle_gamma 90.000000
_cell_volume 2065.919536
_symmetry_space_group_name_H-M "A B M 2"
_symmetry_group_IT_number 39
_symmetry_cell_setting 'orthorhombic'
loop_
_space_group_symop_operation_xyz
x,y,z
-x,-y,z
-x,1/2+y,z
x,1/2-y,z
x,1/2+y,1/2+z
-x,1/2-y,1/2+z
-x,y,1/2+z
x,-y,1/2+z
loop_
_atom_site_type_symbol
_atom_site_label
_atom_site_fract_x
_atom_site_fract_y
_atom_site_fract_z
Si Si1 0.292289 0.345220 0.299510
Si Si2 0.783993 0.521346 0.861091
Si Si3 0.427057 0.401000 0.146026
Si Si4 0.126972 0.151824 0.748752
Si Si5 0.718034 0.022042 0.517356
Si Si6 0.811560 0.650233 0.588700
O O1 0.347869 0.250000 0.329291
O O2 0.324802 0.429957 0.349256
O O3 0.370292 0.358555 0.220025
O O4 0.072491 0.343998 0.284978
O O5 0.749881 0.586479 0.795149
O O6 0.000000 0.500000 0.856226
O O7 0.758744 0.559563 0.939817
O O8 0.500000 0.500000 0.162260
O O9 0.268500 0.414790 0.086323
O O10 0.594269 0.350212 0.108771
O O11 0.206290 0.250000 0.748400
O O12 0.104527 0.125326 0.666175
O O13 0.827237 0.930657 0.533098
O O14 0.500000 0.000000 0.515367
O O15 0.866757 0.750000 0.567735
#
# Coordination Sequence:
#
# PCOD9360606 Si02
#       6
#     8   8   8   8   8   8
#     4  10  20  34  54  79 105 133 168 211 256 303
#     4  10  20  34  51  72 103 137 168 207 252 301
#     4   9  18  33  51  74 101 130 167 210 255 302
#     4   9  19  35  54  77 102 132 172 214 255 298
#     4   9  20  34  48  70 101 134 166 205 253 302
#     4   9  17  32  53  74  98 128 167 213 254 298
#
# _framework density 23.234207000000001
#
# number of rings (size 3 to 8) (size 9 to 14) (size 15 to 20)
#    0.000    3.000    0.000    2.500    0.000    4.000 
#    0.000    4.167    0.000    0.000    0.000    0.000 
#    0.000    0.000    0.000    0.000    0.000    0.000 
#
# Total GULP energy -133964.764741 kJ/mol
# GULP energy per Si atom -5581.865198 kJ/mol
# Density = 2.318132 g / cm^3
# Si number density = 23.234207 Si / 1000 Ang^3
#
#
#
# Elastic Constant Matrix: (Units=GPa)
#
#
# Indices 1 2 3 4 5 6 
#
# 1 22.9608 13.0491 15.9003 0.0000 0.0000 0.0000
# 2 13.0491 63.9604 24.7359 0.0000 0.0000 0.0000
# 3 15.9003 24.7359 79.4691 0.0000 0.0000 0.0000
# 4 0.0000 0.0000 0.0000 8.4228 0.0000 0.0000
# 5 0.0000 0.0000 0.0000 0.0000 28.6739 0.0000
# 6 0.0000 0.0000 0.0000 0.0000 0.0000 11.5494
#
#
#
# Elastic Compliance Matrix: (Units=1/GPa)
#
#
# Indices 1 2 3 4 5 6 
#
# 1 0.053725 -0.007735 -0.008342 0.000000 0.000000 0.000000
# 2 -0.007735 0.018888 -0.004332 0.000000 0.000000 0.000000
# 3 -0.008342 -0.004332 0.015601 0.000000 0.000000 0.000000
# 4 0.000000 0.000000 0.000000 0.118725 0.000000 0.000000
# 5 0.000000 0.000000 0.000000 0.000000 0.034875 0.000000
# 6 0.000000 0.000000 0.000000 0.000000 0.000000 0.086585
#
#
# Mechanical properties :
#
#
# Convention : Reuss Voigt Hill
#
# Bulk Modulus (GPa) = 21.09821 30.41786 25.75804
# Shear Modulus (GPa) = 12.98655 17.24288 15.11472
#
# Velocity S-wave (km/s) = 2.36676 2.72717 2.55333
# Velocity P-wave (km/s) = 4.07052 4.79967 4.45005
#
# Compressibility (1/GPa) = 0.04739738
#
# Stress axis : x y z
#
# Youngs Moduli (GPa) = 18.61336 52.94401 64.09930
#
# Poissons Ratio (x) = 0.40951 0.53470
# Poissons Ratio (y) = 0.14397 0.27765
# Poissons Ratio (z) = 0.15527 0.22933
#
# Static dielectric constant tensor:
#      x y z
#    x 1.941930 0.000000 0.000000 
#    y 0.000000 1.935610 0.000000 
#    z 0.000000 0.000000 1.865890 
# 
# From -- ./inp_files/11614.got.cif
#   From: 2010.05.17/outbox.cif.g08.bks.cpg/sg39_6_cif.got.tgz:11614.got - 2010.06.03 18:22:40.
