data_PCOD9360356
_publ_section_title
;
Structure prediction by ZEFSAII (Michael W. Deem and Ramdas Pophale) SiO2 
 PCOD9360356
Probable space group: A B M 2
;
_chemical_formula_sum "Si O2"
_cell_formula_units_Z 44
_cell_length_a 13.696211
_cell_length_b 7.583982
_cell_length_c 18.925974
_cell_angle_alpha 90.000000
_cell_angle_beta 90.000000
_cell_angle_gamma 90.000000
_cell_volume 1965.875321
_symmetry_space_group_name_H-M "A B M 2"
_symmetry_group_IT_number 39
_symmetry_cell_setting 'orthorhombic'
loop_
_space_group_symop_operation_xyz
x,y,z
-x,-y,z
-x,1/2+y,z
x,1/2-y,z
x,1/2+y,1/2+z
-x,1/2-y,1/2+z
-x,y,1/2+z
x,-y,1/2+z
loop_
_atom_site_type_symbol
_atom_site_label
_atom_site_fract_x
_atom_site_fract_y
_atom_site_fract_z
Si Si1 0.889430 0.051644 0.878050
Si Si2 0.802618 0.951476 0.175862
Si Si3 0.791070 0.536957 0.012865
Si Si4 0.609072 0.539477 0.920910
Si Si5 0.841928 0.750000 0.780567
Si Si6 0.610955 0.962069 0.759135
O O1 0.868486 0.250000 0.854983
O O2 0.824721 0.904250 0.841077
O O3 0.000000 0.000000 0.859322
O O4 0.874841 0.035689 0.961834
O O5 0.838814 0.750000 0.179859
O O6 0.797864 0.010272 0.094515
O O7 0.859881 0.092938 0.222223
O O8 0.693091 0.957798 0.209089
O O9 0.793677 0.750000 0.010596
O O10 0.691635 0.474976 0.974290
O O11 0.500000 0.500000 0.946487
O O12 0.617243 0.750000 0.916319
O O13 0.616712 0.471020 0.840154
O O14 0.631609 0.750000 0.758855
O O15 0.500000 0.000000 0.735740
#
# Coordination Sequence:
#
# PCOD9360356 Si02
#       6
#     8   8   8   8   4   8
#     4  12  25  46  79 105 133 175 232 283 345 415
#     4  11  24  41  66  99 143 185 230 282 355 416
#     4  10  22  42  68 100 140 184 225 285 349 411
#     4   9  19  35  58  90 131 177 232 286 328 393
#     4  12  24  46  70 102 136 174 224 290 332 420
#     4  10  19  34  59  88 134 185 238 294 343 400
#
# _framework density 22.381889000000001
#
# number of rings (size 3 to 8) (size 9 to 14) (size 15 to 20)
#    0.000    1.455    2.727    2.182    3.818    2.182 
#    0.000    2.727    4.000    0.000    0.000    0.000 
#    0.000    0.000    0.000    0.000    0.000    0.000 
#
# Total GULP energy -122526.133086 kJ/mol
# GULP energy per Si atom -5569.369686 kJ/mol
# Density = 2.233095 g / cm^3
# Si number density = 22.381889 Si / 1000 Ang^3
#
#
#
# Elastic Constant Matrix: (Units=GPa)
#
#
# Indices 1 2 3 4 5 6 
#
# 1 51.9341 11.8837 -3.2393 0.0000 0.0000 0.0000
# 2 11.8837 154.1012 46.6524 0.0000 0.0000 0.0000
# 3 -3.2393 46.6524 135.6762 0.0000 0.0000 0.0000
# 4 0.0000 0.0000 0.0000 28.1333 0.0000 0.0000
# 5 0.0000 0.0000 0.0000 0.0000 14.2243 0.0000
# 6 0.0000 0.0000 0.0000 0.0000 0.0000 15.1439
#
#
#
# Elastic Compliance Matrix: (Units=1/GPa)
#
#
# Indices 1 2 3 4 5 6 
#
# 1 0.019750 -0.001859 0.001111 0.000000 0.000000 0.000000
# 2 -0.001859 0.007418 -0.002595 0.000000 0.000000 0.000000
# 3 0.001111 -0.002595 0.008289 0.000000 0.000000 0.000000
# 4 0.000000 0.000000 0.000000 0.035545 0.000000 0.000000
# 5 0.000000 0.000000 0.000000 0.000000 0.070302 0.000000
# 6 0.000000 0.000000 0.000000 0.000000 0.000000 0.066033
#
#
# Mechanical properties :
#
#
# Convention : Reuss Voigt Hill
#
# Bulk Modulus (GPa) = 34.75807 50.25611 42.50709
# Shear Modulus (GPa) = 22.35981 30.59462 26.47721
#
# Velocity S-wave (km/s) = 3.16415 3.70122 3.44317
# Velocity P-wave (km/s) = 5.37702 6.38499 5.90256
#
# Compressibility (1/GPa) = 0.02877029
#
# Stress axis : x y z
#
# Youngs Moduli (GPa) = 50.63309 134.80203 120.63647
#
# Poissons Ratio (x) = 0.25064 -0.13401
# Poissons Ratio (y) = 0.09414 0.31307
# Poissons Ratio (z) = -0.05625 0.34984
#
# Static dielectric constant tensor:
#      x y z
#    x 0.889990 0.000000 0.000000 
#    y 0.000000 1.835580 0.000000 
#    z 0.000000 0.000000 1.811460 
# 
# From -- ./inp_files/12584.got.cif
#   From: 2010.05.17/outbox.cif.g08.bks.cpg/sg39_7_cif.got.tgz:12584.got - 2010.06.03 18:22:40.
