data_PCOD9360231
_publ_section_title
;
Structure prediction by ZEFSAII (Michael W. Deem and Ramdas Pophale) SiO2 
 PCOD9360231
Probable space group: A B M 2
;
_chemical_formula_sum "Si O2"
_cell_formula_units_Z 64
_cell_length_a 19.901851
_cell_length_b 8.675118
_cell_length_c 20.952947
_cell_angle_alpha 90.000000
_cell_angle_beta 90.000000
_cell_angle_gamma 90.000000
_cell_volume 3617.545280
_symmetry_space_group_name_H-M "A B M 2"
_symmetry_group_IT_number 39
_symmetry_cell_setting 'orthorhombic'
loop_
_space_group_symop_operation_xyz
x,y,z
-x,-y,z
-x,1/2+y,z
x,1/2-y,z
x,1/2+y,1/2+z
-x,1/2-y,1/2+z
-x,y,1/2+z
x,-y,1/2+z
loop_
_atom_site_type_symbol
_atom_site_label
_atom_site_fract_x
_atom_site_fract_y
_atom_site_fract_z
Si Si1 0.283254 0.436702 0.510590
Si Si2 0.713370 0.935192 0.267922
Si Si3 0.571092 0.435048 0.818919
Si Si4 0.794331 0.433741 0.388520
Si Si5 0.571594 0.564600 0.467540
Si Si6 0.927881 0.434170 0.838223
Si Si7 0.214936 0.435876 0.643452
Si Si8 0.071866 0.935049 0.195287
O O1 0.280792 0.250000 0.505369
O O2 0.244347 0.506848 0.450633
O O3 0.361774 0.482584 0.505788
O O4 0.247362 0.482185 0.576289
O O5 0.718099 0.750000 0.272767
O O6 0.635667 0.981355 0.278031
O O7 0.754550 0.008161 0.326183
O O8 0.744336 0.991090 0.201815
O O9 0.500000 0.500000 0.796488
O O10 0.567744 0.250000 0.818835
O O11 0.580748 0.483778 0.893129
O O12 0.798240 0.250000 0.388061
O O13 0.868333 0.505580 0.382509
O O14 0.500000 0.500000 0.489888
O O15 0.567977 0.750000 0.468561
O O16 0.929126 0.250000 0.836346
O O17 0.916042 0.497319 0.766242
O O18 0.000000 0.500000 0.858352
O O19 0.219583 0.250000 0.648537
O O20 0.136227 0.475892 0.652316
O O21 0.067474 0.750000 0.200325
O O22 0.000000 0.000000 0.173016
#
# Coordination Sequence:
#
# PCOD9360231 Si02
#       8
#     8   8   8   8   8   8   8   8
#     4  10  21  40  59  80 114 155 192 235 288 340
#     4  11  21  36  58  83 113 147 187 234 284 336
#     4   9  18  32  52  81 110 142 184 231 283 339
#     4  12  23  36  57  86 115 146 190 237 282 337
#     4   9  17  32  54  79 108 142 187 232 284 342
#     4  11  21  35  57  85 116 150 186 235 288 337
#     4  10  22  38  58  83 114 151 193 235 282 343
#     4  10  19  33  54  83 112 145 189 232 279 338
#
# _framework density 17.691554
#
# number of rings (size 3 to 8) (size 9 to 14) (size 15 to 20)
#    0.000    1.750    2.500    3.750    0.000    2.500 
#    0.000    1.250    0.000    4.500    0.000    0.000 
#    0.000    0.000    0.000    0.000    0.000    0.000 
#
# Total GULP energy -178663.467463 kJ/mol
# GULP energy per Si atom -5583.233358 kJ/mol
# Density = 1.765129 g / cm^3
# Si number density = 17.691554 Si / 1000 Ang^3
#
#
#
# Elastic Constant Matrix: (Units=GPa)
#
#
# Indices 1 2 3 4 5 6 
#
# 1 196.0968 54.7814 79.9529 0.0000 0.0000 0.0000
# 2 54.7814 53.5233 42.3542 0.0000 0.0000 0.0000
# 3 79.9529 42.3542 100.0061 0.0000 0.0000 0.0000
# 4 0.0000 0.0000 0.0000 19.8549 0.0000 0.0000
# 5 0.0000 0.0000 0.0000 0.0000 28.5068 0.0000
# 6 0.0000 0.0000 0.0000 0.0000 0.0000 31.1961
#
#
#
# Elastic Compliance Matrix: (Units=1/GPa)
#
#
# Indices 1 2 3 4 5 6 
#
# 1 0.008342 -0.004904 -0.004592 0.000000 0.000000 0.000000
# 2 -0.004904 0.030984 -0.009202 0.000000 0.000000 0.000000
# 3 -0.004592 -0.009202 0.017568 0.000000 0.000000 0.000000
# 4 0.000000 0.000000 0.000000 0.050366 0.000000 0.000000
# 5 0.000000 0.000000 0.000000 0.000000 0.035079 0.000000
# 6 0.000000 0.000000 0.000000 0.000000 0.000000 0.032055
#
#
# Mechanical properties :
#
#
# Convention : Reuss Voigt Hill
#
# Bulk Modulus (GPa) = 51.28697 78.20035 64.74366
# Shear Modulus (GPa) = 22.90540 27.41407 25.15974
#
# Velocity S-wave (km/s) = 3.60211 3.94071 3.77521
# Velocity P-wave (km/s) = 6.80828 8.06248 7.46178
#
# Compressibility (1/GPa) = 0.01949813
#
# Stress axis : x y z
#
# Youngs Moduli (GPa) = 119.87755 32.27451 56.92227
#
# Poissons Ratio (x) = 0.15827 0.26140
# Poissons Ratio (y) = 0.58788 0.52378
# Poissons Ratio (z) = 0.55050 0.29698
#
# Static dielectric constant tensor:
#      x y z
#    x 1.622200 0.000000 0.000000 
#    y 0.000000 1.599000 0.000000 
#    z 0.000000 0.000000 1.568740 
# 
# From -- ./inp_files/13179.got.cif
#   From: 2010.05.17/outbox.cif.g08.bks.cpg/sg39_7_cif.got.tgz:13179.got - 2010.06.03 18:22:40.
