data_PCOD9360591
_publ_section_title
;
Structure prediction by ZEFSAII (Michael W. Deem and Ramdas Pophale) SiO2 
 PCOD9360591
Probable space group: A B M 2
;
_chemical_formula_sum "Si O2"
_cell_formula_units_Z 64
_cell_length_a 16.731855
_cell_length_b 9.288339
_cell_length_c 21.656273
_cell_angle_alpha 90.000000
_cell_angle_beta 90.000000
_cell_angle_gamma 90.000000
_cell_volume 3365.626104
_symmetry_space_group_name_H-M "A B M 2"
_symmetry_group_IT_number 39
_symmetry_cell_setting 'orthorhombic'
loop_
_space_group_symop_operation_xyz
x,y,z
-x,-y,z
-x,1/2+y,z
x,1/2-y,z
x,1/2+y,1/2+z
-x,1/2-y,1/2+z
-x,y,1/2+z
x,-y,1/2+z
loop_
_atom_site_type_symbol
_atom_site_label
_atom_site_fract_x
_atom_site_fract_y
_atom_site_fract_z
Si Si1 0.259830 0.575468 0.063630
Si Si2 0.419696 0.916442 0.607573
Si Si3 0.890745 0.913279 0.763256
Si Si4 0.427362 0.407244 0.255486
Si Si5 0.230691 0.418554 0.938349
Si Si6 0.917759 0.579025 0.618083
Si Si7 0.707876 0.094581 0.302729
Si Si8 0.922263 0.421074 0.884267
O O1 0.265945 0.750000 0.064952
O O2 0.337001 0.503663 0.096602
O O3 0.170062 0.538170 0.090068
O O4 0.264111 0.507335 0.995468
O O5 0.414902 0.750000 0.584237
O O6 0.429677 0.906439 0.681415
O O7 0.500000 0.000000 0.584417
O O8 0.919668 0.750000 0.780062
O O9 0.911115 0.942302 0.692360
O O10 0.795505 0.908195 0.772954
O O11 0.917883 0.033040 0.812000
O O12 0.500000 0.500000 0.279472
O O13 0.437118 0.250000 0.280514
O O14 0.343844 0.469946 0.275542
O O15 0.215491 0.250000 0.953831
O O16 0.283682 0.417733 0.876342
O O17 0.151525 0.502295 0.917192
O O18 0.927016 0.750000 0.606546
O O19 0.000000 0.500000 0.597089
O O20 0.671146 0.250000 0.287046
O O21 0.922470 0.250000 0.891917
O O22 0.000000 0.500000 0.909981
#
# Coordination Sequence:
#
# PCOD9360591 Si02
#       8
#     8   8   8   8   8   8   8   8
#     4  11  23  40  60  83 113 152 195 241 288 338
#     4  10  21  38  61  90 119 150 187 231 282 338
#     4   9  18  34  54  79 110 144 180 224 279 337
#     4  10  20  33  54  84 116 145 177 217 268 329
#     4  10  22  40  58  78 106 143 186 232 279 332
#     4  10  22  37  55  81 115 153 192 233 283 339
#     4   9  18  34  56  79 108 142 176 220 278 334
#     4  11  21  34  54  80 108 141 182 230 281 333
#
# _framework density 19.015778999999998
#
# number of rings (size 3 to 8) (size 9 to 14) (size 15 to 20)
#    0.000    2.000    0.000    4.500    0.000    8.000 
#    0.000    1.875    0.000    3.000    0.000    0.000 
#    0.000    0.000    0.000    0.000    0.000    0.000 
#
# Total GULP energy -178391.751672 kJ/mol
# GULP energy per Si atom -5574.742240 kJ/mol
# Density = 1.897250 g / cm^3
# Si number density = 19.015779 Si / 1000 Ang^3
#
#
#
# Elastic Constant Matrix: (Units=GPa)
#
#
# Indices 1 2 3 4 5 6 
#
# 1 99.1122 58.9798 6.6720 0.0000 0.0000 0.0000
# 2 58.9798 140.3391 15.2307 0.0000 0.0000 0.0000
# 3 6.6720 15.2307 15.0513 0.0000 0.0000 0.0000
# 4 0.0000 0.0000 0.0000 5.7159 0.0000 0.0000
# 5 0.0000 0.0000 0.0000 0.0000 77.5020 0.0000
# 6 0.0000 0.0000 0.0000 0.0000 0.0000 30.8894
#
#
#
# Elastic Compliance Matrix: (Units=1/GPa)
#
#
# Indices 1 2 3 4 5 6 
#
# 1 0.013455 -0.005625 -0.000272 0.000000 0.000000 0.000000
# 2 -0.005625 0.010356 -0.007986 0.000000 0.000000 0.000000
# 3 -0.000272 -0.007986 0.074641 0.000000 0.000000 0.000000
# 4 0.000000 0.000000 0.000000 0.174950 0.000000 0.000000
# 5 0.000000 0.000000 0.000000 0.000000 0.012903 0.000000
# 6 0.000000 0.000000 0.000000 0.000000 0.000000 0.032374
#
#
# Mechanical properties :
#
#
# Convention : Reuss Voigt Hill
#
# Bulk Modulus (GPa) = 14.14713 46.25197 30.19955
# Shear Modulus (GPa) = 13.51316 34.39613 23.95464
#
# Velocity S-wave (km/s) = 2.66865 4.25764 3.55311
# Velocity P-wave (km/s) = 4.11721 6.96748 5.72264
#
# Compressibility (1/GPa) = 0.07068574
#
# Stress axis : x y z
#
# Youngs Moduli (GPa) = 74.31944 96.55797 13.39738
#
# Poissons Ratio (x) = 0.54317 0.00365
# Poissons Ratio (y) = 0.41807 0.10700
# Poissons Ratio (z) = 0.02023 0.77114
#
# Static dielectric constant tensor:
#      x y z
#    x 1.463500 0.000000 0.000000 
#    y 0.000000 1.659710 0.000000 
#    z 0.000000 0.000000 1.675080 
# 
# From -- ./inp_files/16221.got.cif
#   From: 2010.05.17/outbox.cif.g08.bks.cpg/sg39_9_cif.got.tgz:16221.got - 2010.06.03 18:22:40.
