data_PCOD9360241
_publ_section_title
;
Structure prediction by ZEFSAII (Michael W. Deem and Ramdas Pophale) SiO2 
 PCOD9360241
Probable space group: A B M 2
;
_chemical_formula_sum "Si O2"
_cell_formula_units_Z 56
_cell_length_a 19.725966
_cell_length_b 8.827077
_cell_length_c 19.446426
_cell_angle_alpha 90.000000
_cell_angle_beta 90.000000
_cell_angle_gamma 90.000000
_cell_volume 3386.062660
_symmetry_space_group_name_H-M "A B M 2"
_symmetry_group_IT_number 39
_symmetry_cell_setting 'orthorhombic'
loop_
_space_group_symop_operation_xyz
x,y,z
-x,-y,z
-x,1/2+y,z
x,1/2-y,z
x,1/2+y,1/2+z
-x,1/2-y,1/2+z
-x,y,1/2+z
x,-y,1/2+z
loop_
_atom_site_type_symbol
_atom_site_label
_atom_site_fract_x
_atom_site_fract_y
_atom_site_fract_z
Si Si1 0.193309 0.930627 0.575360
Si Si2 0.074015 0.568566 0.328617
Si Si3 0.696438 0.429350 0.171183
Si Si4 0.704192 0.571472 0.310667
Si Si5 0.809510 0.568456 0.424010
Si Si6 0.926000 0.568756 0.667434
Si Si7 0.573393 0.928518 0.239069
O O1 0.191402 0.750000 0.576767
O O2 0.261401 0.990769 0.611890
O O3 0.189761 0.991308 0.497914
O O4 0.130790 0.996853 0.619216
O O5 0.073624 0.750000 0.338077
O O6 0.129092 0.491675 0.377313
O O7 0.088635 0.536883 0.248021
O O8 0.000000 0.500000 0.343367
O O9 0.697060 0.250000 0.162800
O O10 0.729596 0.475792 0.245012
O O11 0.620038 0.492711 0.180663
O O12 0.717427 0.750000 0.296797
O O13 0.741446 0.531686 0.380560
O O14 0.622790 0.551055 0.305632
O O15 0.813781 0.750000 0.431663
O O16 0.927234 0.750000 0.658488
O O17 0.000000 0.500000 0.652133
O O18 0.567843 0.750000 0.225813
O O19 0.500000 0.000000 0.246030
#
# Coordination Sequence:
#
# PCOD9360241 Si02
#       7
#     8   8   8   8   8   8   8
#     4  12  24  37  53  77 110 145 183 228 272 323
#     4  10  21  37  57  81 106 137 177 224 272 323
#     4  10  19  33  55  81 108 142 179 221 265 316
#     4   8  18  34  54  79 109 140 175 219 265 316
#     4  11  22  37  55  77 107 144 182 224 271 322
#     4  10  21  38  59  82 107 139 180 226 275 327
#     4   9  17  32  54  86 114 141 176 219 267 312
#
# _framework density 16.538383
#
# number of rings (size 3 to 8) (size 9 to 14) (size 15 to 20)
#    0.857    1.143    0.000    4.714    0.000    5.714 
#    0.000    2.857    0.000    0.857    0.000    4.000 
#    0.000    0.000    0.000    0.000    0.000    0.000 
#
# Total GULP energy -156074.568505 kJ/mol
# GULP energy per Si atom -5574.091732 kJ/mol
# Density = 1.650074 g / cm^3
# Si number density = 16.538383 Si / 1000 Ang^3
#
#
#
# Elastic Constant Matrix: (Units=GPa)
#
#
# Indices 1 2 3 4 5 6 
#
# 1 139.5993 70.5173 79.8318 0.0000 0.0000 0.0000
# 2 70.5173 116.3365 70.5921 0.0000 0.0000 0.0000
# 3 79.8318 70.5921 107.0562 0.0000 0.0000 0.0000
# 4 0.0000 0.0000 0.0000 22.4886 0.0000 0.0000
# 5 0.0000 0.0000 0.0000 0.0000 -2.0109 0.0000
# 6 0.0000 0.0000 0.0000 0.0000 0.0000 30.0989
#
#
#
# Elastic Compliance Matrix: (Units=1/GPa)
#
#
# Indices 1 2 3 4 5 6 
#
# 1 0.013247 -0.003393 -0.007641 0.000000 0.000000 0.000000
# 2 -0.003393 0.015198 -0.007491 0.000000 0.000000 0.000000
# 3 -0.007641 -0.007491 0.019978 0.000000 0.000000 0.000000
# 4 0.000000 0.000000 0.000000 0.044467 0.000000 0.000000
# 5 0.000000 0.000000 0.000000 0.000000 -0.497298 0.000000
# 6 0.000000 0.000000 0.000000 0.000000 0.000000 0.033224
#
#
# Mechanical properties :
#
#
# Convention : Reuss Voigt Hill
#
# Bulk Modulus (GPa) = 87.92823 89.43048 88.67935
# Shear Modulus (GPa) = -15.13581 19.58537 2.22478
#
# Velocity S-wave (km/s) = -3.02850 3.44501 1.16109
# Velocity P-wave (km/s) = 6.40722 8.36756 7.45213
#
# Compressibility (1/GPa) = 0.01137291
#
# Stress axis : x y z
#
# Youngs Moduli (GPa) = 75.48951 65.79720 50.05452
#
# Poissons Ratio (x) = 0.22327 0.38245
# Poissons Ratio (y) = 0.25616 0.37497
# Poissons Ratio (z) = 0.57679 0.49290
#
# Static dielectric constant tensor:
#      x y z
#    x 1.555510 0.000000 0.000000 
#    y 0.000000 1.548340 0.000000 
#    z 0.000000 0.000000 1.535560 
# 
# From -- ./inp_files/13057.got.cif
#   From: 2010.05.17/outbox.cif.g08.bks.cpg/sg39_7_cif.got.tgz:13057.got - 2010.06.03 18:22:40.
