data_PCOD9360303
_publ_section_title
;
Structure prediction by ZEFSAII (Michael W. Deem and Ramdas Pophale) SiO2 
 PCOD9360303
Probable space group: A B M 2
;
_chemical_formula_sum "Si O2"
_cell_formula_units_Z 64
_cell_length_a 17.500114
_cell_length_b 8.262719
_cell_length_c 22.802279
_cell_angle_alpha 90.000000
_cell_angle_beta 90.000000
_cell_angle_gamma 90.000000
_cell_volume 3297.175897
_symmetry_space_group_name_H-M "A B M 2"
_symmetry_group_IT_number 39
_symmetry_cell_setting 'orthorhombic'
loop_
_space_group_symop_operation_xyz
x,y,z
-x,-y,z
-x,1/2+y,z
x,1/2-y,z
x,1/2+y,1/2+z
-x,1/2-y,1/2+z
-x,y,1/2+z
x,-y,1/2+z
loop_
_atom_site_type_symbol
_atom_site_label
_atom_site_fract_x
_atom_site_fract_y
_atom_site_fract_z
Si Si1 0.414200 0.055402 0.424730
Si Si2 0.622431 0.554423 0.555862
Si Si3 0.578890 0.443942 0.184449
Si Si4 0.747069 0.563450 0.865850
Si Si5 0.219518 0.945861 0.114782
Si Si6 0.920302 0.444528 0.039407
Si Si7 0.731986 0.436177 0.738627
Si Si8 0.084146 0.443795 0.405510
O O1 0.415652 0.250000 0.424170
O O2 0.404701 0.994214 0.492600
O O3 0.500000 0.000000 0.404089
O O4 0.334028 0.007236 0.391751
O O5 0.618072 0.750000 0.552525
O O6 0.580306 0.505591 0.615783
O O7 0.708852 0.510238 0.573396
O O8 0.500000 0.500000 0.211052
O O9 0.590155 0.250000 0.187172
O O10 0.645806 0.533864 0.217698
O O11 0.747650 0.750000 0.883460
O O12 0.744693 0.542678 0.795737
O O13 0.831044 0.491744 0.882506
O O14 0.221227 0.750000 0.119934
O O15 0.146430 0.003533 0.080340
O O16 0.222917 0.014923 0.180018
O O17 0.915902 0.250000 0.036914
O O18 0.000000 0.500000 0.064642
O O19 0.914983 0.504947 0.972838
O O20 0.745815 0.250000 0.754088
O O21 0.081364 0.250000 0.403998
O O22 0.000000 0.500000 0.380811
#
# Coordination Sequence:
#
# PCOD9360303 Si02
#       8
#     8   8   8   8   8   8   8   8
#     4  11  22  38  58  85 119 156 195 239 288 345
#     4   8  16  31  54  80 110 144 181 225 279 337
#     4  10  19  34  55  81 110 143 181 226 277 333
#     4  12  25  42  61  83 112 153 199 246 293 342
#     4   9  17  34  56  80 110 147 183 223 275 333
#     4   9  18  32  55  85 119 150 179 217 270 330
#     4  11  23  39  57  79 105 141 187 236 283 335
#     4  10  20  38  63  93 123 154 190 234 284 341
#
# _framework density 19.410551999999999
#
# number of rings (size 3 to 8) (size 9 to 14) (size 15 to 20)
#    0.000    2.000    0.000    5.250    0.000    3.500 
#    0.000   11.250    0.000    1.500    0.000    0.000 
#    0.000    0.000    0.000    0.000    0.000    0.000 
#
# Total GULP energy -178233.397841 kJ/mol
# GULP energy per Si atom -5569.793683 kJ/mol
# Density = 1.936637 g / cm^3
# Si number density = 19.410552 Si / 1000 Ang^3
#
#
#
# Elastic Constant Matrix: (Units=GPa)
#
#
# Indices 1 2 3 4 5 6 
#
# 1 171.7659 19.9072 50.9700 0.0000 0.0000 0.0000
# 2 19.9072 49.9455 -1.0492 0.0000 0.0000 0.0000
# 3 50.9700 -1.0492 56.9776 0.0000 0.0000 0.0000
# 4 0.0000 0.0000 0.0000 4.2487 0.0000 0.0000
# 5 0.0000 0.0000 0.0000 0.0000 -18.3436 0.0000
# 6 0.0000 0.0000 0.0000 0.0000 0.0000 31.7547
#
#
#
# Elastic Compliance Matrix: (Units=1/GPa)
#
#
# Indices 1 2 3 4 5 6 
#
# 1 0.008513 -0.003554 -0.007681 0.000000 0.000000 0.000000
# 2 -0.003554 0.021514 0.003576 0.000000 0.000000 0.000000
# 3 -0.007681 0.003576 0.024488 0.000000 0.000000 0.000000
# 4 0.000000 0.000000 0.000000 0.235368 0.000000 0.000000
# 5 0.000000 0.000000 0.000000 0.000000 -0.054515 0.000000
# 6 0.000000 0.000000 0.000000 0.000000 0.000000 0.031491
#
#
# Mechanical properties :
#
#
# Convention : Reuss Voigt Hill
#
# Bulk Modulus (GPa) = 25.51321 46.48278 35.99800
# Shear Modulus (GPa) = 16.93521 17.45603 17.19562
#
# Velocity S-wave (km/s) = 2.95697 3.00210 2.97962
# Velocity P-wave (km/s) = 4.98305 6.00133 5.51574
#
# Compressibility (1/GPa) = 0.03919538
#
# Stress axis : x y z
#
# Youngs Moduli (GPa) = 117.46619 46.48203 40.83684
#
# Poissons Ratio (x) = 0.16522 0.31367
# Poissons Ratio (y) = 0.41753 -0.14603
# Poissons Ratio (z) = 0.90225 -0.16621
#
# Static dielectric constant tensor:
#      x y z
#    x 1.754740 0.000000 0.000000 
#    y 0.000000 1.713480 0.000000 
#    z 0.000000 0.000000 1.672700 
# 
# From -- ./inp_files/16366.got.cif
#   From: 2010.05.17/outbox.cif.g08.bks.cpg/sg39_9_cif.got.tgz:16366.got - 2010.06.03 18:22:40.
