data_PCOD9360026
_publ_section_title
;
Structure prediction by ZEFSAII (Michael W. Deem and Ramdas Pophale) SiO2 
 PCOD9360026
Probable space group: A B M 2
;
_chemical_formula_sum "Si O2"
_cell_formula_units_Z 56
_cell_length_a 17.980455
_cell_length_b 8.941915
_cell_length_c 19.373379
_cell_angle_alpha 90.000000
_cell_angle_beta 90.000000
_cell_angle_gamma 90.000000
_cell_volume 3114.846069
_symmetry_space_group_name_H-M "A B M 2"
_symmetry_group_IT_number 39
_symmetry_cell_setting 'orthorhombic'
loop_
_space_group_symop_operation_xyz
x,y,z
-x,-y,z
-x,1/2+y,z
x,1/2-y,z
x,1/2+y,1/2+z
-x,1/2-y,1/2+z
-x,y,1/2+z
x,-y,1/2+z
loop_
_atom_site_type_symbol
_atom_site_label
_atom_site_fract_x
_atom_site_fract_y
_atom_site_fract_z
Si Si1 0.319553 0.419876 0.965870
Si Si2 0.072602 0.921913 0.922660
Si Si3 0.759884 0.930299 0.108986
Si Si4 0.418495 0.428928 0.354792
Si Si5 0.080891 0.431723 0.582009
Si Si6 0.312344 0.924704 0.239081
Si Si7 0.808810 0.088783 0.351137
O O1 0.348996 0.250000 0.975876
O O2 0.379914 0.521404 0.927076
O O3 0.253702 0.409588 0.910044
O O4 0.280918 0.471148 0.036654
O O5 0.057714 0.750000 0.930231
O O6 0.138177 0.955599 0.870726
O O7 0.088486 0.977047 0.000640
O O8 0.000000 0.000000 0.895318
O O9 0.767644 0.750000 0.110809
O O10 0.842517 0.003709 0.114310
O O11 0.705466 0.988903 0.169014
O O12 0.500000 0.500000 0.351874
O O13 0.420431 0.250000 0.349825
O O14 0.370537 0.496937 0.291027
O O15 0.079366 0.250000 0.588491
O O16 0.000000 0.500000 0.604339
O O17 0.332993 0.750000 0.228380
O O18 0.234245 0.925381 0.280195
O O19 0.848651 0.250000 0.354149
#
# Coordination Sequence:
#
# PCOD9360026 Si02
#       7
#     8   8   8   8   8   8   8
#     4   9  19  35  57  84 114 145 181 227 278 330
#     4  10  19  29  47  74 104 138 182 233 284 335
#     4  11  21  36  58  85 117 153 193 239 287 340
#     4  11  22  39  64  90 117 149 187 229 279 339
#     4  10  20  33  51  78 111 150 193 240 293 341
#     4  10  22  39  58  83 116 152 189 230 281 340
#     4   9  17  33  53  74 104 141 178 224 276 327
#
# _framework density 17.978414999999998
#
# number of rings (size 3 to 8) (size 9 to 14) (size 15 to 20)
#    0.000    2.000    1.429    3.857    0.000    5.143 
#    0.000    1.429    0.000    6.857    0.000    0.000 
#    0.000    0.000    0.000    0.000    0.000    0.000 
#
# Total GULP energy -156009.851430 kJ/mol
# GULP energy per Si atom -5571.780408 kJ/mol
# Density = 1.793750 g / cm^3
# Si number density = 17.978415 Si / 1000 Ang^3
#
#
#
# Elastic Constant Matrix: (Units=GPa)
#
#
# Indices 1 2 3 4 5 6 
#
# 1 100.6096 56.2823 30.8925 0.0000 0.0000 0.0000
# 2 56.2823 95.0156 28.8204 0.0000 0.0000 0.0000
# 3 30.8925 28.8204 85.9000 0.0000 0.0000 0.0000
# 4 0.0000 0.0000 0.0000 16.4535 0.0000 0.0000
# 5 0.0000 0.0000 0.0000 0.0000 16.5005 0.0000
# 6 0.0000 0.0000 0.0000 0.0000 0.0000 32.4676
#
#
#
# Elastic Compliance Matrix: (Units=1/GPa)
#
#
# Indices 1 2 3 4 5 6 
#
# 1 0.015433 -0.008303 -0.002764 0.000000 0.000000 0.000000
# 2 -0.008303 0.016184 -0.002444 0.000000 0.000000 0.000000
# 3 -0.002764 -0.002444 0.013456 0.000000 0.000000 0.000000
# 4 0.000000 0.000000 0.000000 0.060777 0.000000 0.000000
# 5 0.000000 0.000000 0.000000 0.000000 0.060604 0.000000
# 6 0.000000 0.000000 0.000000 0.000000 0.000000 0.030800
#
#
# Mechanical properties :
#
#
# Convention : Reuss Voigt Hill
#
# Bulk Modulus (GPa) = 55.40211 57.05730 56.22971
# Shear Modulus (GPa) = 21.71132 24.11965 22.91549
#
# Velocity S-wave (km/s) = 3.47887 3.66675 3.57404
# Velocity P-wave (km/s) = 6.85708 7.05210 6.95527
#
# Compressibility (1/GPa) = 0.01804985
#
# Stress axis : x y z
#
# Youngs Moduli (GPa) = 64.79525 61.78816 74.31864
#
# Poissons Ratio (x) = 0.51305 0.20545
# Poissons Ratio (y) = 0.53802 0.18162
# Poissons Ratio (z) = 0.17912 0.15100
#
# Static dielectric constant tensor:
#      x y z
#    x 1.668420 0.000000 0.000000 
#    y 0.000000 1.639380 0.000000 
#    z 0.000000 0.000000 1.614630 
# 
# From -- ./inp_files/14924.got.cif
#   From: 2010.05.17/outbox.cif.g08.bks.cpg/sg39_8_cif.got.tgz:14924.got - 2010.06.03 18:22:40.
