data_PCOD9360604
_publ_section_title
;
Structure prediction by ZEFSAII (Michael W. Deem and Ramdas Pophale) SiO2 
 PCOD9360604
Probable space group: A B M 2
;
_chemical_formula_sum "Si O2"
_cell_formula_units_Z 64
_cell_length_a 21.738064
_cell_length_b 8.396339
_cell_length_c 19.034360
_cell_angle_alpha 90.000000
_cell_angle_beta 90.000000
_cell_angle_gamma 90.000000
_cell_volume 3474.154329
_symmetry_space_group_name_H-M "A B M 2"
_symmetry_group_IT_number 39
_symmetry_cell_setting 'orthorhombic'
loop_
_space_group_symop_operation_xyz
x,y,z
-x,-y,z
-x,1/2+y,z
x,1/2-y,z
x,1/2+y,1/2+z
-x,1/2-y,1/2+z
-x,y,1/2+z
x,-y,1/2+z
loop_
_atom_site_type_symbol
_atom_site_label
_atom_site_fract_x
_atom_site_fract_y
_atom_site_fract_z
Si Si1 0.067054 0.942066 0.059480
Si Si2 0.436094 0.059931 0.220907
Si Si3 0.932720 0.440727 0.221675
Si Si4 0.815725 0.944930 0.469843
Si Si5 0.563599 0.940213 0.559510
Si Si6 0.301553 0.557385 0.059233
Si Si7 0.816288 0.942539 0.308532
Si Si8 0.301132 0.942637 0.719770
O O1 0.066902 0.750000 0.059269
O O2 0.076089 0.994567 0.140483
O O3 0.123045 0.996947 0.010932
O O4 0.000000 0.000000 0.035954
O O5 0.438193 0.250000 0.221459
O O6 0.368846 0.007678 0.247964
O O7 0.500000 0.000000 0.253836
O O8 0.436136 0.001827 0.139933
O O9 0.932185 0.250000 0.222540
O O10 0.877727 0.503857 0.269126
O O11 0.000000 0.500000 0.244624
O O12 0.815563 0.750000 0.470354
O O13 0.754860 0.997465 0.511470
O O14 0.815619 0.996707 0.389182
O O15 0.561240 0.750000 0.560644
O O16 0.630589 0.990739 0.531359
O O17 0.500000 0.000000 0.525977
O O18 0.300450 0.750000 0.060761
O O19 0.294541 0.499406 0.139378
O O20 0.814895 0.750000 0.308690
O O21 0.755900 0.998957 0.266408
O O22 0.300519 0.750000 0.719230
#
# Coordination Sequence:
#
# PCOD9360604 Si02
#       8
#     8   8   8   8   8   8   8   8
#     4   9  18  33  53  74  95 121 152 189 230 271
#     4   9  15  24  39  62  91 119 151 192 238 284
#     4  10  20  35  55  77 100 125 156 194 234 279
#     4   9  18  33  51  70  94 125 160 195 230 272
#     4   9  15  23  39  64  91 117 148 190 238 283
#     4   9  17  30  49  70  91 122 163 200 235 280
#     4  10  20  34  51  71  98 130 161 195 236 282
#     4   9  18  30  46  70  97 125 157 197 244 287
#
# _framework density 18.421749999999999
#
# number of rings (size 3 to 8) (size 9 to 14) (size 15 to 20)
#    0.000    2.750    0.000    2.625    0.000    3.500 
#    0.000    3.125    0.000    0.750    0.000    0.000 
#    0.000    0.000    0.000    0.000    0.000    6.750 
#
# Total GULP energy -178319.584191 kJ/mol
# GULP energy per Si atom -5572.487006 kJ/mol
# Density = 1.837982 g / cm^3
# Si number density = 18.421750 Si / 1000 Ang^3
#
#
#
# Elastic Constant Matrix: (Units=GPa)
#
#
# Indices 1 2 3 4 5 6 
#
# 1 239.3374 26.8362 100.2381 0.0000 0.0000 0.0000
# 2 26.8362 13.6874 12.3317 0.0000 0.0000 0.0000
# 3 100.2381 12.3317 79.4330 0.0000 0.0000 0.0000
# 4 0.0000 0.0000 0.0000 11.2839 0.0000 0.0000
# 5 0.0000 0.0000 0.0000 0.0000 -3.9190 0.0000
# 6 0.0000 0.0000 0.0000 0.0000 0.0000 36.4662
#
#
#
# Elastic Compliance Matrix: (Units=1/GPa)
#
#
# Indices 1 2 3 4 5 6 
#
# 1 0.009799 -0.009385 -0.010909 0.000000 0.000000 0.000000
# 2 -0.009385 0.093927 -0.002739 0.000000 0.000000 0.000000
# 3 -0.010909 -0.002739 0.026781 0.000000 0.000000 0.000000
# 4 0.000000 0.000000 0.000000 0.088622 0.000000 0.000000
# 5 0.000000 0.000000 0.000000 0.000000 -0.255166 0.000000
# 6 0.000000 0.000000 0.000000 0.000000 0.000000 0.027423
#
#
# Mechanical properties :
#
#
# Convention : Reuss Voigt Hill
#
# Bulk Modulus (GPa) = 11.84248 67.91885 39.88066
# Shear Modulus (GPa) = 76.22018 21.63634 48.92826
#
# Velocity S-wave (km/s) = 6.43933 3.43082 5.15924
# Velocity P-wave (km/s) = 7.85678 7.25554 7.56214
#
# Compressibility (1/GPa) = 0.08444179
#
# Stress axis : x y z
#
# Youngs Moduli (GPa) = 102.04761 10.64651 37.34008
#
# Poissons Ratio (x) = 0.09991 0.40735
# Poissons Ratio (y) = 0.95767 0.10229
# Poissons Ratio (z) = 1.11325 0.02916
#
# Static dielectric constant tensor:
#      x y z
#    x 1.675950 0.000000 0.000000 
#    y 0.000000 1.635860 0.000000 
#    z 0.000000 0.000000 1.597530 
# 
# From -- ./inp_files/13136.got.cif
#   From: 2010.05.17/outbox.cif.g08.bks.cpg/sg39_7_cif.got.tgz:13136.got - 2010.06.03 18:22:40.
