data_PCOD9360398
_publ_section_title
;
Structure prediction by ZEFSAII (Michael W. Deem and Ramdas Pophale) SiO2 
 PCOD9360398
Probable space group: A B M 2
;
_chemical_formula_sum "Si O2"
_cell_formula_units_Z 48
_cell_length_a 9.090727
_cell_length_b 15.540999
_cell_length_c 18.513245
_cell_angle_alpha 90.000000
_cell_angle_beta 90.000000
_cell_angle_gamma 90.000000
_cell_volume 2615.532356
_symmetry_space_group_name_H-M "A B M 2"
_symmetry_group_IT_number 39
_symmetry_cell_setting 'orthorhombic'
loop_
_space_group_symop_operation_xyz
x,y,z
-x,-y,z
-x,1/2+y,z
x,1/2-y,z
x,1/2+y,1/2+z
-x,1/2-y,1/2+z
-x,y,1/2+z
x,-y,1/2+z
loop_
_atom_site_type_symbol
_atom_site_label
_atom_site_fract_x
_atom_site_fract_y
_atom_site_fract_z
Si Si1 0.591082 0.348673 0.791510
Si Si2 0.833444 0.492389 0.141072
Si Si3 0.167674 0.990626 0.810558
Si Si4 0.392559 0.847810 0.154530
Si Si5 0.315533 0.845999 0.566418
Si Si6 0.397314 0.418629 0.914840
O O1 0.622655 0.250000 0.773451
O O2 0.742289 0.400780 0.802759
O O3 0.481812 0.380753 0.726578
O O4 0.500258 0.358443 0.865552
O O5 0.839202 0.481012 0.227455
O O6 0.731651 0.410742 0.123091
O O7 0.759765 0.580509 0.114461
O O8 0.000000 0.500000 0.113485
O O9 0.271654 0.046569 0.861526
O O10 0.000000 0.000000 0.837667
O O11 0.339181 0.750000 0.170395
O O12 0.518112 0.842588 0.094623
O O13 0.251126 0.750000 0.575184
O O14 0.324755 0.874233 0.483476
O O15 0.500000 0.500000 0.937073
#
# Coordination Sequence:
#
# PCOD9360398 Si02
#       6
#     8   8   8   8   8   8
#     4  10  19  35  59  85 115 150 197 245 286 340
#     4  11  22  37  59  87 122 160 195 240 291 354
#     4  10  21  36  57  86 120 157 197 233 291 355
#     4  10  20  36  60  88 115 152 198 243 289 343
#     4  11  23  38  61  89 119 154 199 248 294 346
#     4  10  20  36  60  87 116 155 196 242 293 349
#
# _framework density 18.351904999999999
#
# number of rings (size 3 to 8) (size 9 to 14) (size 15 to 20)
#    0.000    1.667    3.333    2.000    0.000    1.333 
#    0.000    4.167    0.000    0.000    0.000    0.000 
#    0.000    0.000    0.000    0.000    0.000    0.000 
#
# Total GULP energy -133673.759422 kJ/mol
# GULP energy per Si atom -5569.739976 kJ/mol
# Density = 1.831014 g / cm^3
# Si number density = 18.351905 Si / 1000 Ang^3
#
#
#
# Elastic Constant Matrix: (Units=GPa)
#
#
# Indices 1 2 3 4 5 6 
#
# 1 116.9640 59.1720 -1.8886 0.0000 0.0000 0.0000
# 2 59.1720 103.2574 11.9199 0.0000 0.0000 0.0000
# 3 -1.8886 11.9199 54.5064 0.0000 0.0000 0.0000
# 4 0.0000 0.0000 0.0000 18.7159 0.0000 0.0000
# 5 0.0000 0.0000 0.0000 0.0000 0.0692 0.0000
# 6 0.0000 0.0000 0.0000 0.0000 0.0000 5.6046
#
#
#
# Elastic Compliance Matrix: (Units=1/GPa)
#
#
# Indices 1 2 3 4 5 6 
#
# 1 0.012251 -0.007253 0.002011 0.000000 0.000000 0.000000
# 2 -0.007253 0.014229 -0.003363 0.000000 0.000000 0.000000
# 3 0.002011 -0.003363 0.019152 0.000000 0.000000 0.000000
# 4 0.000000 0.000000 0.000000 0.053430 0.000000 0.000000
# 5 0.000000 0.000000 0.000000 0.000000 14.441640 0.000000
# 6 0.000000 0.000000 0.000000 0.000000 0.000000 0.178426
#
#
# Mechanical properties :
#
#
# Convention : Reuss Voigt Hill
#
# Bulk Modulus (GPa) = 35.18463 45.90382 40.54423
# Shear Modulus (GPa) = 0.33908 18.57959 9.45934
#
# Velocity S-wave (km/s) = 0.43031 3.18529 2.27280
# Velocity P-wave (km/s) = 4.41143 6.21253 5.38777
#
# Compressibility (1/GPa) = 0.02842150
#
# Stress axis : x y z
#
# Youngs Moduli (GPa) = 81.62438 70.27929 52.21498
#
# Poissons Ratio (x) = 0.50972 -0.10498
# Poissons Ratio (y) = 0.59200 0.17560
# Poissons Ratio (z) = -0.16411 0.23635
#
# Static dielectric constant tensor:
#      x y z
#    x 1.646460 0.000000 0.000000 
#    y 0.000000 1.680970 0.000000 
#    z 0.000000 0.000000 1.635110 
# 
# From -- ./inp_files/11589.got.cif
#   From: 2010.05.17/outbox.cif.g08.bks.cpg/sg39_6_cif.got.tgz:11589.got - 2010.06.03 18:22:40.
