data_PCOD9360665
_publ_section_title
;
Structure prediction by ZEFSAII (Michael W. Deem and Ramdas Pophale) SiO2 
 PCOD9360665
Probable space group: A B M 2
;
_chemical_formula_sum "Si O2"
_cell_formula_units_Z 56
_cell_length_a 5.105297
_cell_length_b 14.280792
_cell_length_c 32.103803
_cell_angle_alpha 90.000000
_cell_angle_beta 90.000000
_cell_angle_gamma 90.000000
_cell_volume 2340.613942
_symmetry_space_group_name_H-M "A B M 2"
_symmetry_group_IT_number 39
_symmetry_cell_setting 'orthorhombic'
loop_
_space_group_symop_operation_xyz
x,y,z
-x,-y,z
-x,1/2+y,z
x,1/2-y,z
x,1/2+y,1/2+z
-x,1/2-y,1/2+z
-x,y,1/2+z
x,-y,1/2+z
loop_
_atom_site_type_symbol
_atom_site_label
_atom_site_fract_x
_atom_site_fract_y
_atom_site_fract_z
Si Si1 0.389329 0.637626 0.065530
Si Si2 0.387283 0.854884 0.337743
Si Si3 0.253268 0.935908 0.974997
Si Si4 0.112119 0.364721 0.114027
Si Si5 0.669790 0.364414 0.703110
Si Si6 0.891274 0.896251 0.389675
Si Si7 0.168245 0.635186 0.251057
O O1 0.387607 0.750000 0.067829
O O2 0.676157 0.606589 0.079458
O O3 0.172309 0.604504 0.098763
O O4 0.324291 0.610230 0.018684
O O5 0.480392 0.750000 0.326892
O O6 0.636553 0.898280 0.360520
O O7 0.277664 0.898847 0.295238
O O8 0.137116 0.847807 0.368027
O O9 0.190879 0.867208 0.936293
O O10 0.500000 0.000000 0.961827
O O11 0.000000 0.000000 0.982483
O O12 0.105535 0.250000 0.115734
O O13 0.217464 0.395772 0.158835
O O14 0.667044 0.250000 0.701985
O O15 0.376844 0.392002 0.715493
O O16 0.876750 0.393590 0.738574
O O17 0.000000 0.000000 0.395096
O O18 0.161893 0.750000 0.252883
#
# Coordination Sequence:
#
# PCOD9360665 Si02
#       7
#     8   8   8   8   8   8   8
#     4  10  20  34  54  83 113 139 177 230 280 322
#     4  11  22  37  59  89 119 146 188 243 291 332
#     4  11  23  41  60  80 108 145 189 228 271 338
#     4   9  17  29  48  78 113 144 177 221 271 324
#     4   9  15  26  45  72 110 148 176 213 271 326
#     4  11  23  41  60  82 113 153 194 233 282 348
#     4   9  17  28  46  76 111 143 178 224 273 322
#
# _framework density 23.925346000000001
#
# number of rings (size 3 to 8) (size 9 to 14) (size 15 to 20)
#    0.000    2.000    0.000    5.143    0.000    6.857 
#    0.000    1.429    0.000    0.000    0.000   35.000 
#    0.000    0.000    0.000    0.000    0.000    0.000 
#
# Total GULP energy -156664.232797 kJ/mol
# GULP energy per Si atom -5595.151171 kJ/mol
# Density = 2.387089 g / cm^3
# Si number density = 23.925346 Si / 1000 Ang^3
#
#
#
# Elastic Constant Matrix: (Units=GPa)
#
#
# Indices 1 2 3 4 5 6 
#
# 1 114.1446 12.2359 3.5577 0.0000 0.0000 0.0000
# 2 12.2359 45.2954 8.7937 0.0000 0.0000 0.0000
# 3 3.5577 8.7937 97.9734 0.0000 0.0000 0.0000
# 4 0.0000 0.0000 0.0000 10.7417 0.0000 0.0000
# 5 0.0000 0.0000 0.0000 0.0000 40.0163 0.0000
# 6 0.0000 0.0000 0.0000 0.0000 0.0000 13.8425
#
#
#
# Elastic Compliance Matrix: (Units=1/GPa)
#
#
# Indices 1 2 3 4 5 6 
#
# 1 0.009023 -0.002416 -0.000111 0.000000 0.000000 0.000000
# 2 -0.002416 0.023116 -0.001987 0.000000 0.000000 0.000000
# 3 -0.000111 -0.001987 0.010389 0.000000 0.000000 0.000000
# 4 0.000000 0.000000 0.000000 0.093095 0.000000 0.000000
# 5 0.000000 0.000000 0.000000 0.000000 0.024990 0.000000
# 6 0.000000 0.000000 0.000000 0.000000 0.000000 0.072241
#
#
# Mechanical properties :
#
#
# Convention : Reuss Voigt Hill
#
# Bulk Modulus (GPa) = 29.85029 34.06534 31.95782
# Shear Modulus (GPa) = 19.75906 28.44186 24.10046
#
# Velocity S-wave (km/s) = 2.87690 3.45160 3.17727
# Velocity P-wave (km/s) = 4.85169 5.49125 5.18135
#
# Compressibility (1/GPa) = 0.03350051
#
# Stress axis : x y z
#
# Youngs Moduli (GPa) = 110.82477 43.26065 96.25361
#
# Poissons Ratio (x) = 0.10452 0.01067
# Poissons Ratio (y) = 0.26775 0.19126
# Poissons Ratio (z) = 0.01228 0.08596
#
# Static dielectric constant tensor:
#      x y z
#    x 1.862870 0.000000 0.000000 
#    y 0.000000 1.987860 0.000000 
#    z 0.000000 0.000000 1.905540 
# 
# From -- ./inp_files/17268.got.cif
#   From: 2010.05.17/outbox.cif.g08.bks.cpg/sg39_9_cif.got.tgz:17268.got - 2010.06.03 18:22:40.
