data_PCOD9360458
_publ_section_title
;
Structure prediction by ZEFSAII (Michael W. Deem and Ramdas Pophale) SiO2 
 PCOD9360458
Probable space group: A B M 2
;
_chemical_formula_sum "Si O2"
_cell_formula_units_Z 64
_cell_length_a 24.364105
_cell_length_b 8.503695
_cell_length_c 15.887431
_cell_angle_alpha 90.000000
_cell_angle_beta 90.000000
_cell_angle_gamma 90.000000
_cell_volume 3291.636087
_symmetry_space_group_name_H-M "A B M 2"
_symmetry_group_IT_number 39
_symmetry_cell_setting 'orthorhombic'
loop_
_space_group_symop_operation_xyz
x,y,z
-x,-y,z
-x,1/2+y,z
x,1/2-y,z
x,1/2+y,1/2+z
-x,1/2-y,1/2+z
-x,y,1/2+z
x,-y,1/2+z
loop_
_atom_site_type_symbol
_atom_site_label
_atom_site_fract_x
_atom_site_fract_y
_atom_site_fract_z
Si Si1 0.750566 0.939770 0.518120
Si Si2 0.866312 0.442131 0.759595
Si Si3 0.629224 0.561068 0.256704
Si Si4 0.561802 0.937317 0.916156
Si Si5 0.867534 0.937478 0.072121
Si Si6 0.370338 0.561679 0.075080
Si Si7 0.252677 0.940931 0.820901
Si Si8 0.938409 0.562179 0.417556
O O1 0.756581 0.750000 0.522690
O O2 0.693487 0.984857 0.561788
O O3 0.746911 0.983345 0.419434
O O4 0.804060 0.018020 0.557419
O O5 0.865656 0.250000 0.760798
O O6 0.883393 0.490966 0.666129
O O7 0.804078 0.494761 0.779341
O O8 0.906291 0.495122 0.834130
O O9 0.629066 0.750000 0.253301
O O10 0.591888 0.506686 0.334092
O O11 0.611182 0.494181 0.166871
O O12 0.691591 0.505453 0.276413
O O13 0.561714 0.750000 0.910611
O O14 0.500000 0.000000 0.920425
O O15 0.594569 0.990074 0.999361
O O16 0.873489 0.750000 0.067476
O O17 0.903917 0.012378 0.999134
O O18 0.373375 0.750000 0.068950
O O19 0.252915 0.750000 0.817682
O O20 0.939682 0.750000 0.414171
O O21 0.000000 0.500000 0.420894
#
# Coordination Sequence:
#
# PCOD9360458 Si02
#       8
#     8   8   8   8   8   8   8   8
#     4  10  19  36  62  90 125 166 201 243 302 362
#     4   9  19  36  60  86 118 157 196 238 294 354
#     4  11  22  40  66  96 128 166 207 256 314 373
#     4  12  26  45  67  92 123 164 213 264 316 374
#     4  11  22  37  60  93 123 154 199 249 298 361
#     4  11  23  41  64  95 131 168 209 256 310 374
#     4   9  16  33  61  89 121 161 197 239 302 362
#     4  11  23  42  63  83 114 157 201 249 303 361
#
# _framework density 19.443218000000002
#
# number of rings (size 3 to 8) (size 9 to 14) (size 15 to 20)
#    0.000    1.500    2.500    3.375    0.000    3.000 
#    0.000    6.250    0.000    0.000    0.000    0.000 
#    0.000    0.000    0.000    0.000    0.000    0.000 
#
# Total GULP energy -178879.147389 kJ/mol
# GULP energy per Si atom -5589.973356 kJ/mol
# Density = 1.939896 g / cm^3
# Si number density = 19.443218 Si / 1000 Ang^3
#
#
#
# Elastic Constant Matrix: (Units=GPa)
#
#
# Indices 1 2 3 4 5 6 
#
# 1 128.0241 18.3303 57.1380 0.0000 0.0000 0.0000
# 2 18.3303 38.7545 14.8673 0.0000 0.0000 0.0000
# 3 57.1380 14.8673 158.0109 0.0000 0.0000 0.0000
# 4 0.0000 0.0000 0.0000 24.8784 0.0000 0.0000
# 5 0.0000 0.0000 0.0000 0.0000 -3.9366 0.0000
# 6 0.0000 0.0000 0.0000 0.0000 0.0000 30.1805
#
#
#
# Elastic Compliance Matrix: (Units=1/GPa)
#
#
# Indices 1 2 3 4 5 6 
#
# 1 0.009721 -0.003371 -0.003198 0.000000 0.000000 0.000000
# 2 -0.003371 0.027939 -0.001410 0.000000 0.000000 0.000000
# 3 -0.003198 -0.001410 0.007618 0.000000 0.000000 0.000000
# 4 0.000000 0.000000 0.000000 0.040196 0.000000 0.000000
# 5 0.000000 0.000000 0.000000 0.000000 -0.254028 0.000000
# 6 0.000000 0.000000 0.000000 0.000000 0.000000 0.033134
#
#
# Mechanical properties :
#
#
# Convention : Reuss Voigt Hill
#
# Bulk Modulus (GPa) = 34.10661 56.16232 45.13446
# Shear Modulus (GPa) = -45.58308 25.85474 -9.86417
#
# Velocity S-wave (km/s) = -4.84717 3.65054 -2.25485
# Velocity P-wave (km/s) = 3.70770 6.83495 4.06014
#
# Compressibility (1/GPa) = 0.02931983
#
# Stress axis : x y z
#
# Youngs Moduli (GPa) = 102.87034 35.79262 131.27245
#
# Poissons Ratio (x) = 0.12066 0.41981
# Poissons Ratio (y) = 0.34678 0.18506
# Poissons Ratio (z) = 0.32898 0.05046
#
# Static dielectric constant tensor:
#      x y z
#    x 1.654120 0.000000 0.000000 
#    y 0.000000 1.661910 0.000000 
#    z 0.000000 0.000000 1.668110 
# 
# From -- ./inp_files/10569.got.cif
#   From: 2010.05.17/outbox.cif.g08.bks.cpg/sg39_6_cif.got.tgz:10569.got - 2010.06.03 18:22:40.
