data_PCOD9360198
_publ_section_title
;
Structure prediction by ZEFSAII (Michael W. Deem and Ramdas Pophale) SiO2 
 PCOD9360198
Probable space group: A B M 2
;
_chemical_formula_sum "Si O2"
_cell_formula_units_Z 64
_cell_length_a 19.911032
_cell_length_b 9.188016
_cell_length_c 20.744996
_cell_angle_alpha 90.000000
_cell_angle_beta 90.000000
_cell_angle_gamma 90.000000
_cell_volume 3795.149326
_symmetry_space_group_name_H-M "A B M 2"
_symmetry_group_IT_number 39
_symmetry_cell_setting 'orthorhombic'
loop_
_space_group_symop_operation_xyz
x,y,z
-x,-y,z
-x,1/2+y,z
x,1/2-y,z
x,1/2+y,1/2+z
-x,1/2-y,1/2+z
-x,y,1/2+z
x,-y,1/2+z
loop_
_atom_site_type_symbol
_atom_site_label
_atom_site_fract_x
_atom_site_fract_y
_atom_site_fract_z
Si Si1 0.570827 0.923041 0.323190
Si Si2 0.346321 0.923307 0.954011
Si Si3 0.795268 0.924791 0.246419
Si Si4 0.933050 0.082808 0.401042
Si Si5 0.426802 0.574471 0.567976
Si Si6 0.347681 0.426651 0.197860
Si Si7 0.796338 0.576074 0.399163
Si Si8 0.932740 0.417643 0.244044
O O1 0.560348 0.750000 0.316292
O O2 0.615504 0.945234 0.386404
O O3 0.609978 0.976018 0.259850
O O4 0.500000 0.000000 0.330027
O O5 0.349632 0.750000 0.969148
O O6 0.268856 0.963294 0.940804
O O7 0.383622 0.015487 0.008150
O O8 0.802903 0.750000 0.240720
O O9 0.729513 0.973232 0.207057
O O10 0.783681 0.955254 0.322921
O O11 0.863908 0.002075 0.225731
O O12 0.933904 0.250000 0.421631
O O13 0.934029 0.080432 0.322547
O O14 0.864114 0.004141 0.419785
O O15 0.000000 0.000000 0.422918
O O16 0.500000 0.500000 0.567808
O O17 0.433822 0.750000 0.565423
O O18 0.385900 0.533378 0.632705
O O19 0.345934 0.250000 0.200166
O O20 0.805813 0.750000 0.403405
O O21 0.933016 0.250000 0.223534
O O22 0.000000 0.500000 0.222214
#
# Coordination Sequence:
#
# PCOD9360198 Si02
#       8
#     8   8   8   8   8   8   8   8
#     4  10  19  33  52  74  97 125 162 204 250 301
#     4  10  20  35  54  75 101 132 167 207 254 305
#     4   9  15  28  49  70  94 127 164 205 249 294
#     4   9  16  25  39  63  98 135 168 203 242 291
#     4  11  23  38  55  74 100 133 169 210 254 305
#     4   9  18  34  54  74  97 129 168 206 251 303
#     4   9  16  28  48  71  96 129 165 205 250 296
#     4   9  16  25  38  63  98 134 167 200 240 289
#
# _framework density 16.863631000000002
#
# number of rings (size 3 to 8) (size 9 to 14) (size 15 to 20)
#    0.000    2.500    1.250    1.875    0.000    5.000 
#    0.000    2.500    0.000    0.000    0.000    0.875 
#    0.000    6.000    0.000    0.000    0.000    0.000 
#
# Total GULP energy -178408.298730 kJ/mol
# GULP energy per Si atom -5575.259335 kJ/mol
# Density = 1.682525 g / cm^3
# Si number density = 16.863631 Si / 1000 Ang^3
#
#
#
# Elastic Constant Matrix: (Units=GPa)
#
#
# Indices 1 2 3 4 5 6 
#
# 1 197.0473 81.4957 53.0564 0.0000 0.0000 0.0000
# 2 81.4957 64.2568 42.2862 0.0000 0.0000 0.0000
# 3 53.0564 42.2862 63.3525 0.0000 0.0000 0.0000
# 4 0.0000 0.0000 0.0000 14.3930 0.0000 0.0000
# 5 0.0000 0.0000 0.0000 0.0000 17.5285 0.0000
# 6 0.0000 0.0000 0.0000 0.0000 0.0000 29.3187
#
#
#
# Elastic Compliance Matrix: (Units=1/GPa)
#
#
# Indices 1 2 3 4 5 6 
#
# 1 0.010675 -0.013652 0.000173 0.000000 0.000000 0.000000
# 2 -0.013652 0.045213 -0.018745 0.000000 0.000000 0.000000
# 3 0.000173 -0.018745 0.028152 0.000000 0.000000 0.000000
# 4 0.000000 0.000000 0.000000 0.069478 0.000000 0.000000
# 5 0.000000 0.000000 0.000000 0.000000 0.057050 0.000000
# 6 0.000000 0.000000 0.000000 0.000000 0.000000 0.034108
#
#
# Mechanical properties :
#
#
# Convention : Reuss Voigt Hill
#
# Bulk Modulus (GPa) = 51.04536 75.37036 63.20786
# Shear Modulus (GPa) = 15.84000 22.10259 18.97129
#
# Velocity S-wave (km/s) = 3.06812 3.62424 3.35771
# Velocity P-wave (km/s) = 6.54877 7.89332 7.25227
#
# Compressibility (1/GPa) = 0.01959042
#
# Stress axis : x y z
#
# Youngs Moduli (GPa) = 93.67872 22.11739 35.52121
#
# Poissons Ratio (x) = 0.30195 -0.00613
# Poissons Ratio (y) = 1.27892 0.66586
# Poissons Ratio (z) = -0.01617 0.41460
#
# Static dielectric constant tensor:
#      x y z
#    x 1.562300 0.000000 0.000000 
#    y 0.000000 1.566080 0.000000 
#    z 0.000000 0.000000 1.557940 
# 
# From -- ./inp_files/13242.got.cif
#   From: 2010.05.17/outbox.cif.g08.bks.cpg/sg39_7_cif.got.tgz:13242.got - 2010.06.03 18:22:40.
