data_PCOD9360372
_publ_section_title
;
Structure prediction by ZEFSAII (Michael W. Deem and Ramdas Pophale) SiO2 
 PCOD9360372
Probable space group: A B M 2
;
_chemical_formula_sum "Si O2"
_cell_formula_units_Z 24
_cell_length_a 8.602480
_cell_length_b 5.571501
_cell_length_c 18.995705
_cell_angle_alpha 90.000000
_cell_angle_beta 90.000000
_cell_angle_gamma 90.000000
_cell_volume 910.439939
_symmetry_space_group_name_H-M "A B M 2"
_symmetry_group_IT_number 39
_symmetry_cell_setting 'orthorhombic'
loop_
_space_group_symop_operation_xyz
x,y,z
-x,-y,z
-x,1/2+y,z
x,1/2-y,z
x,1/2+y,1/2+z
-x,1/2-y,1/2+z
-x,y,1/2+z
x,-y,1/2+z
loop_
_atom_site_type_symbol
_atom_site_label
_atom_site_fract_x
_atom_site_fract_y
_atom_site_fract_z
Si Si1 0.974512 0.250000 0.687240
Si Si2 0.346623 0.750000 0.607032
Si Si3 0.837312 0.750000 0.397345
Si Si4 0.220114 0.250000 0.557248
Si Si5 0.186955 0.750000 0.340228
Si Si6 0.437493 0.750000 0.238519
O O1 0.087094 0.250000 0.618131
O O2 0.000000 0.500000 0.725118
O O3 0.795503 0.250000 0.663050
O O4 0.314981 0.502570 0.564467
O O5 0.498831 0.750000 0.657805
O O6 0.858174 0.750000 0.481105
O O7 0.757072 0.500840 0.374955
O O8 0.004886 0.750000 0.359635
O O9 0.258621 0.750000 0.261197
O O10 0.500000 0.500000 0.266901
#
# Coordination Sequence:
#
# PCOD9360372 Si02
#       6
#     4   4   4   4   4   4
#     4   8  16  27  52  88 138 159 207 268 348 429
#     4  10  21  36  63 100 139 192 228 285 372 441
#     4  10  21  38  73 111 144 177 240 322 366 428
#     4  10  19  34  67 110 143 171 223 304 387 431
#     4  10  23  39  69 108 137 190 250 304 366 411
#     4  12  26  48  74  89 143 211 254 297 337 452
#
# _framework density 26.360882
#
# number of rings (size 3 to 8) (size 9 to 14) (size 15 to 20)
#    0.000    2.000    0.000    3.000   14.000    0.000 
#    0.000    0.000   66.000   20.000    0.000    0.000 
#    0.000    0.000    0.000    0.000    0.000    0.000 
#
# Total GULP energy -67034.318547 kJ/mol
# GULP energy per Si atom -5586.193212 kJ/mol
# Density = 2.630088 g / cm^3
# Si number density = 26.360882 Si / 1000 Ang^3
#
#
#
# Elastic Constant Matrix: (Units=GPa)
#
#
# Indices 1 2 3 4 5 6 
#
# 1 88.5386 52.8886 77.5785 0.0000 0.0000 0.0000
# 2 52.8886 312.2749 61.3177 0.0000 0.0000 0.0000
# 3 77.5785 61.3177 175.0700 0.0000 0.0000 0.0000
# 4 0.0000 0.0000 0.0000 50.7423 0.0000 0.0000
# 5 0.0000 0.0000 0.0000 0.0000 6.9310 0.0000
# 6 0.0000 0.0000 0.0000 0.0000 0.0000 31.2983
#
#
#
# Elastic Compliance Matrix: (Units=1/GPa)
#
#
# Indices 1 2 3 4 5 6 
#
# 1 0.019273 -0.001704 -0.007943 0.000000 0.000000 0.000000
# 2 -0.001704 0.003590 -0.000502 0.000000 0.000000 0.000000
# 3 -0.007943 -0.000502 0.009408 0.000000 0.000000 0.000000
# 4 0.000000 0.000000 0.000000 0.019707 0.000000 0.000000
# 5 0.000000 0.000000 0.000000 0.000000 0.144279 0.000000
# 6 0.000000 0.000000 0.000000 0.000000 0.000000 0.031951
#
#
# Mechanical properties :
#
#
# Convention : Reuss Voigt Hill
#
# Bulk Modulus (GPa) = 83.53808 106.60589 95.07198
# Shear Modulus (GPa) = 19.80227 43.40090 31.60158
#
# Velocity S-wave (km/s) = 2.74377 4.06200 3.46613
# Velocity P-wave (km/s) = 6.46504 7.90750 7.22237
#
# Compressibility (1/GPa) = 0.01197059
#
# Stress axis : x y z
#
# Youngs Moduli (GPa) = 51.88706 278.58763 106.29574
#
# Poissons Ratio (x) = 0.47482 0.84434
# Poissons Ratio (y) = 0.08844 0.05336
# Poissons Ratio (z) = 0.41215 0.13984
#
# Static dielectric constant tensor:
#      x y z
#    x 2.140520 0.000000 0.000000 
#    y 0.000000 2.092170 0.000000 
#    z 0.000000 0.000000 1.975860 
# 
# From -- ./inp_files/11255.got.cif
#   From: 2010.05.17/outbox.cif.g08.bks.cpg/sg39_6_cif.got.tgz:11255.got - 2010.06.03 18:22:40.
