data_PCOD9360430
_publ_section_title
;
Structure prediction by ZEFSAII (Michael W. Deem and Ramdas Pophale) SiO2 
 PCOD9360430
Probable space group: A B M 2
;
_chemical_formula_sum "Si O2"
_cell_formula_units_Z 64
_cell_length_a 13.191821
_cell_length_b 14.565913
_cell_length_c 14.640051
_cell_angle_alpha 90.000000
_cell_angle_beta 90.000000
_cell_angle_gamma 90.000000
_cell_volume 2813.099225
_symmetry_space_group_name_H-M "A B M 2"
_symmetry_group_IT_number 39
_symmetry_cell_setting 'orthorhombic'
loop_
_space_group_symop_operation_xyz
x,y,z
-x,-y,z
-x,1/2+y,z
x,1/2-y,z
x,1/2+y,1/2+z
-x,1/2-y,1/2+z
-x,y,1/2+z
x,-y,1/2+z
loop_
_atom_site_type_symbol
_atom_site_label
_atom_site_fract_x
_atom_site_fract_y
_atom_site_fract_z
Si Si1 0.662731 0.639689 0.812590
Si Si2 0.069658 0.855952 0.771506
Si Si3 0.475113 0.637916 0.921841
Si Si4 0.876576 0.915386 0.891059
Si Si5 0.019321 0.611327 0.565155
Si Si6 0.288178 0.649362 0.817542
Si Si7 0.364270 0.862116 0.106917
Si Si8 0.185909 0.101375 0.493544
O O1 0.661643 0.750000 0.813840
O O2 0.586815 0.607481 0.892346
O O3 0.778172 0.612299 0.833935
O O4 0.620514 0.612699 0.712684
O O5 0.075147 0.750000 0.803733
O O6 0.978497 0.902574 0.829744
O O7 0.041582 0.857971 0.666066
O O8 0.186683 0.892722 0.772712
O O9 0.471172 0.750000 0.917304
O O10 0.396551 0.605272 0.841654
O O11 0.443469 0.614034 0.025714
O O12 0.850551 0.014309 0.934712
O O13 0.900173 0.863759 0.986779
O O14 0.912955 0.648625 0.530648
O O15 0.000000 0.500000 0.569747
O O16 0.304680 0.750000 0.774705
O O17 0.249721 0.658255 0.921684
O O18 0.350824 0.750000 0.104430
O O19 0.261534 0.913976 0.076655
#
# Coordination Sequence:
#
# PCOD9360430 Si02
#       8
#     8   8   8   8   8   8   8   8
#     4  10  20  37  62  90 122 159 197 250 308 355
#     4  11  23  37  59  87 117 155 199 249 297 352
#     4   8  16  34  59  86 118 154 198 249 299 352
#     4  11  23  38  55  88 122 154 194 245 308 362
#     4  10  23  37  55  81 118 158 195 234 297 367
#     4   9  18  34  57  82 108 148 200 246 288 339
#     4   9  18  36  63  92 114 152 211 251 291 356
#     4  10  19  36  58  82 114 159 193 238 293 356
#
# _framework density 22.750706999999998
#
# number of rings (size 3 to 8) (size 9 to 14) (size 15 to 20)
#    0.000    2.250    1.250    2.250    1.750    3.000 
#    2.250    2.500    0.000    3.000    0.000    0.000 
#    0.000    0.000    0.000    0.000    0.000    0.000 
#
# Total GULP energy -178176.476415 kJ/mol
# GULP energy per Si atom -5568.014888 kJ/mol
# Density = 2.269893 g / cm^3
# Si number density = 22.750707 Si / 1000 Ang^3
#
#
#
# Elastic Constant Matrix: (Units=GPa)
#
#
# Indices 1 2 3 4 5 6 
#
# 1 89.8673 2.2225 41.2665 0.0000 0.0000 0.0000
# 2 2.2225 58.4026 7.0215 0.0000 0.0000 0.0000
# 3 41.2665 7.0215 137.4170 0.0000 0.0000 0.0000
# 4 0.0000 0.0000 0.0000 35.6846 0.0000 0.0000
# 5 0.0000 0.0000 0.0000 0.0000 27.1817 0.0000
# 6 0.0000 0.0000 0.0000 0.0000 0.0000 18.2700
#
#
#
# Elastic Compliance Matrix: (Units=1/GPa)
#
#
# Indices 1 2 3 4 5 6 
#
# 1 0.012907 -0.000025 -0.003875 0.000000 0.000000 0.000000
# 2 -0.000025 0.017228 -0.000873 0.000000 0.000000 0.000000
# 3 -0.003875 -0.000873 0.008485 0.000000 0.000000 0.000000
# 4 0.000000 0.000000 0.000000 0.028023 0.000000 0.000000
# 5 0.000000 0.000000 0.000000 0.000000 0.036789 0.000000
# 6 0.000000 0.000000 0.000000 0.000000 0.000000 0.054735
#
#
# Mechanical properties :
#
#
# Convention : Reuss Voigt Hill
#
# Bulk Modulus (GPa) = 34.39327 42.96754 38.68040
# Shear Modulus (GPa) = 28.18392 31.90568 30.04480
#
# Velocity S-wave (km/s) = 3.52350 3.74893 3.63796
# Velocity P-wave (km/s) = 5.63060 6.13731 5.88941
#
# Compressibility (1/GPa) = 0.02907546
#
# Stress axis : x y z
#
# Youngs Moduli (GPa) = 77.47469 58.04363 117.85057
#
# Poissons Ratio (x) = 0.00147 0.45665
# Poissons Ratio (y) = 0.00196 0.10285
# Poissons Ratio (z) = 0.30020 0.05065
#
# Static dielectric constant tensor:
#      x y z
#    x 1.902120 0.000000 0.000000 
#    y 0.000000 1.782710 0.000000 
#    z 0.000000 0.000000 1.837390 
# 
# From -- ./inp_files/9498.got.cif
#   From: 2010.05.17/outbox.cif.g08.bks.cpg/sg39_5_cif.got.tgz:9498.got - 2010.06.03 18:22:40.
