data_PCOD9360776
_publ_section_title
;
Structure prediction by ZEFSAII (Michael W. Deem and Ramdas Pophale) SiO2 
 PCOD9360776
Probable space group: A B M 2
;
_chemical_formula_sum "Si O2"
_cell_formula_units_Z 64
_cell_length_a 24.671306
_cell_length_b 7.716609
_cell_length_c 15.571006
_cell_angle_alpha 90.000000
_cell_angle_beta 90.000000
_cell_angle_gamma 90.000000
_cell_volume 2964.389778
_symmetry_space_group_name_H-M "A B M 2"
_symmetry_group_IT_number 39
_symmetry_cell_setting 'orthorhombic'
loop_
_space_group_symop_operation_xyz
x,y,z
-x,-y,z
-x,1/2+y,z
x,1/2-y,z
x,1/2+y,1/2+z
-x,1/2-y,1/2+z
-x,y,1/2+z
x,-y,1/2+z
loop_
_atom_site_type_symbol
_atom_site_label
_atom_site_fract_x
_atom_site_fract_y
_atom_site_fract_z
Si Si1 0.763237 0.459221 0.951780
Si Si2 0.120661 0.959524 0.016198
Si Si3 0.373218 0.950227 0.281882
Si Si4 0.745534 0.542722 0.250161
Si Si5 0.859543 0.044256 0.701407
Si Si6 0.354531 0.045494 0.477870
Si Si7 0.938351 0.958414 0.349191
Si Si8 0.562586 0.459107 0.120886
O O1 0.763400 0.250000 0.961623
O O2 0.761541 0.490148 0.849624
O O3 0.706369 0.527948 0.988721
O O4 0.819115 0.524113 0.990984
O O5 0.121468 0.750000 0.014447
O O6 0.109947 0.015296 0.112686
O O7 0.078955 0.020054 0.943752
O O8 0.386451 0.750000 0.296445
O O9 0.415220 0.024927 0.212795
O O10 0.313575 0.962550 0.238528
O O11 0.369782 0.029503 0.377074
O O12 0.738730 0.750000 0.238955
O O13 0.797551 0.476821 0.197535
O O14 0.853339 0.250000 0.715922
O O15 0.895070 0.974174 0.779854
O O16 0.350414 0.250000 0.495215
O O17 0.399137 0.975182 0.543515
O O18 0.933555 0.750000 0.349130
O O19 0.000000 0.000000 0.327962
O O20 0.500000 0.500000 0.107153
O O21 0.567549 0.250000 0.123346
#
# Coordination Sequence:
#
# PCOD9360776 Si02
#       8
#     8   8   8   8   8   8   8   8
#     4   8  14  30  57  80 105 143 183 218 266 334
#     4  10  20  35  58  85 111 147 187 227 278 335
#     4  10  21  36  56  86 116 144 185 237 283 328
#     4   9  17  34  58  81 112 152 186 222 279 343
#     4  10  21  37  57  84 115 148 187 232 281 334
#     4   9  19  37  59  81 109 150 189 224 277 338
#     4  10  22  41  61  80 111 153 193 231 276 331
#     4  10  23  40  58  81 112 151 192 231 276 333
#
# _framework density 21.589603
#
# number of rings (size 3 to 8) (size 9 to 14) (size 15 to 20)
#    0.000    2.500    1.250    1.125    1.750    4.000 
#    0.000    7.500    0.000    0.000    0.000    0.000 
#    0.000    0.000    0.000    0.000    0.000    0.000 
#
# Total GULP energy -178613.804150 kJ/mol
# GULP energy per Si atom -5581.681380 kJ/mol
# Density = 2.154046 g / cm^3
# Si number density = 21.589603 Si / 1000 Ang^3
#
#
#
# Elastic Constant Matrix: (Units=GPa)
#
#
# Indices 1 2 3 4 5 6 
#
# 1 72.2145 -5.6857 3.3550 0.0000 0.0000 0.0000
# 2 -5.6857 31.5869 -8.1571 0.0000 0.0000 0.0000
# 3 3.3550 -8.1571 33.3258 0.0000 0.0000 0.0000
# 4 0.0000 0.0000 0.0000 15.6775 0.0000 0.0000
# 5 0.0000 0.0000 0.0000 0.0000 26.4802 0.0000
# 6 0.0000 0.0000 0.0000 0.0000 0.0000 20.2231
#
#
#
# Elastic Compliance Matrix: (Units=1/GPa)
#
#
# Indices 1 2 3 4 5 6 
#
# 1 0.014069 0.002313 -0.000850 0.000000 0.000000 0.000000
# 2 0.002313 0.034175 0.008132 0.000000 0.000000 0.000000
# 3 -0.000850 0.008132 0.032083 0.000000 0.000000 0.000000
# 4 0.000000 0.000000 0.000000 0.063786 0.000000 0.000000
# 5 0.000000 0.000000 0.000000 0.000000 0.037764 0.000000
# 6 0.000000 0.000000 0.000000 0.000000 0.000000 0.049449
#
#
# Mechanical properties :
#
#
# Convention : Reuss Voigt Hill
#
# Bulk Modulus (GPa) = 10.04856 12.90574 11.47715
# Shear Modulus (GPa) = 20.38252 22.31714 21.34983
#
# Velocity S-wave (km/s) = 3.07594 3.21861 3.14808
# Velocity P-wave (km/s) = 4.15688 4.45009 4.30598
#
# Compressibility (1/GPa) = 0.09951670
#
# Stress axis : x y z
#
# Youngs Moduli (GPa) = 71.07705 29.26106 31.16927
#
# Poissons Ratio (x) = -0.06768 0.02650
# Poissons Ratio (y) = -0.16439 -0.25347
# Poissons Ratio (z) = 0.06043 -0.23795
#
# Static dielectric constant tensor:
#      x y z
#    x 1.773960 0.000000 0.000000 
#    y 0.000000 1.819390 0.000000 
#    z 0.000000 0.000000 1.785090 
# 
# From -- ./inp_files/10582.got.cif
#   From: 2010.05.17/outbox.cif.g08.bks.cpg/sg39_6_cif.got.tgz:10582.got - 2010.06.03 18:22:40.
