data_PCOD9360798
_publ_section_title
;
Structure prediction by ZEFSAII (Michael W. Deem and Ramdas Pophale) SiO2 
 PCOD9360798
Probable space group: A B M 2
;
_chemical_formula_sum "Si O2"
_cell_formula_units_Z 60
_cell_length_a 18.808708
_cell_length_b 9.289204
_cell_length_c 16.336500
_cell_angle_alpha 90.000000
_cell_angle_beta 90.000000
_cell_angle_gamma 90.000000
_cell_volume 2854.279391
_symmetry_space_group_name_H-M "A B M 2"
_symmetry_group_IT_number 39
_symmetry_cell_setting 'orthorhombic'
loop_
_space_group_symop_operation_xyz
x,y,z
-x,-y,z
-x,1/2+y,z
x,1/2-y,z
x,1/2+y,1/2+z
-x,1/2-y,1/2+z
-x,y,1/2+z
x,-y,1/2+z
loop_
_atom_site_type_symbol
_atom_site_label
_atom_site_fract_x
_atom_site_fract_y
_atom_site_fract_z
Si Si1 0.500000 0.500000 0.691700
Si Si2 0.860444 0.917682 0.128173
Si Si3 0.323191 0.584266 0.943431
Si Si4 0.617401 0.906380 0.077594
Si Si5 0.726597 0.409763 0.169189
Si Si6 0.073779 0.420637 0.305131
Si Si7 0.828976 0.922245 0.940638
Si Si8 0.623803 0.096220 0.308941
O O1 0.547087 0.405054 0.631183
O O2 0.557928 0.580049 0.747428
O O3 0.834689 0.750000 0.133008
O O4 0.914157 0.928924 0.205832
O O5 0.805352 0.041284 0.153624
O O6 0.870135 0.940438 0.029349
O O7 0.304561 0.750000 0.945739
O O8 0.250490 0.490533 0.950810
O O9 0.366704 0.542708 0.863065
O O10 0.378439 0.532836 0.012261
O O11 0.631306 0.750000 0.042142
O O12 0.681091 0.957564 0.135331
O O13 0.712831 0.250000 0.132756
O O14 0.698207 0.397816 0.260543
O O15 0.072479 0.250000 0.324930
O O16 0.132313 0.497745 0.364315
O O17 0.000000 0.500000 0.323661
O O18 0.824291 0.750000 0.925809
O O19 0.615440 0.250000 0.352795
#
# Coordination Sequence:
#
# PCOD9360798 Si02
#       8
#     4   8   8   8   8   8   8   8
#     4  10  24  42  64  88 116 160 216 264 322 398
#     4  10  22  40  66  96 131 174 221 269 329 393
#     4  12  25  40  62  95 127 163 212 268 324 389
#     4  11  22  39  63  88 121 161 203 259 321 383
#     4  10  20  35  60  92 123 156 203 259 315 381
#     4  11  25  45  67  98 138 182 227 275 328 395
#     4  11  23  43  70 101 136 178 223 277 336 394
#     4  10  22  40  61  87 121 162 207 261 325 393
#
# _framework density 21.021068
#
# number of rings (size 3 to 8) (size 9 to 14) (size 15 to 20)
#    0.000    1.333    1.333    4.000    0.000    9.600 
#    0.000    1.333    0.000    0.000    0.000    0.000 
#    0.000    0.000    0.000    0.000    0.000    0.000 
#
# Total GULP energy -167013.785671 kJ/mol
# GULP energy per Si atom -5567.126189 kJ/mol
# Density = 2.097322 g / cm^3
# Si number density = 21.021068 Si / 1000 Ang^3
#
#
#
# Elastic Constant Matrix: (Units=GPa)
#
#
# Indices 1 2 3 4 5 6 
#
# 1 61.0776 37.9167 31.7671 0.0000 0.0000 0.0000
# 2 37.9167 139.0848 43.2402 0.0000 0.0000 0.0000
# 3 31.7671 43.2402 93.7387 0.0000 0.0000 0.0000
# 4 0.0000 0.0000 0.0000 29.9750 0.0000 0.0000
# 5 0.0000 0.0000 0.0000 0.0000 12.7830 0.0000
# 6 0.0000 0.0000 0.0000 0.0000 0.0000 -144.2206
#
#
#
# Elastic Compliance Matrix: (Units=1/GPa)
#
#
# Indices 1 2 3 4 5 6 
#
# 1 0.021849 -0.004266 -0.005436 0.000000 0.000000 0.000000
# 2 -0.004266 0.009227 -0.002810 0.000000 0.000000 0.000000
# 3 -0.005436 -0.002810 0.013807 0.000000 0.000000 0.000000
# 4 0.000000 0.000000 0.000000 0.033361 0.000000 0.000000
# 5 0.000000 0.000000 0.000000 0.000000 0.078229 0.000000
# 6 0.000000 0.000000 0.000000 0.000000 0.000000 -0.006934
#
#
# Mechanical properties :
#
#
# Convention : Reuss Voigt Hill
#
# Bulk Modulus (GPa) = 50.36232 57.74991 54.05612
# Shear Modulus (GPa) = 27.59657 -8.22736 9.68461
#
# Velocity S-wave (km/s) = 3.62720 -1.98049 2.14874
# Velocity P-wave (km/s) = 6.44609 4.72252 5.65041
#
# Compressibility (1/GPa) = 0.01985611
#
# Stress axis : x y z
#
# Youngs Moduli (GPa) = 45.76971 108.38254 72.42896
#
# Poissons Ratio (x) = 0.46238 0.39375
# Poissons Ratio (y) = 0.19526 0.20355
# Poissons Ratio (z) = 0.24882 0.30459
#
# Static dielectric constant tensor:
#      x y z
#    x 1.767030 0.000000 0.000000 
#    y 0.000000 1.634190 0.000000 
#    z 0.000000 0.000000 1.907050 
# 
# From -- ./inp_files/12962.got.cif
#   From: 2010.05.17/outbox.cif.g08.bks.cpg/sg39_7_cif.got.tgz:12962.got - 2010.06.03 18:22:40.
