data_PCOD9360494
_publ_section_title
;
Structure prediction by ZEFSAII (Michael W. Deem and Ramdas Pophale) SiO2 
 PCOD9360494
Probable space group: A B M 2
;
_chemical_formula_sum "Si O2"
_cell_formula_units_Z 64
_cell_length_a 13.139076
_cell_length_b 18.444688
_cell_length_c 14.237084
_cell_angle_alpha 90.000000
_cell_angle_beta 90.000000
_cell_angle_gamma 90.000000
_cell_volume 3450.302600
_symmetry_space_group_name_H-M "A B M 2"
_symmetry_group_IT_number 39
_symmetry_cell_setting 'orthorhombic'
loop_
_space_group_symop_operation_xyz
x,y,z
-x,-y,z
-x,1/2+y,z
x,1/2-y,z
x,1/2+y,1/2+z
-x,1/2-y,1/2+z
-x,y,1/2+z
x,-y,1/2+z
loop_
_atom_site_type_symbol
_atom_site_label
_atom_site_fract_x
_atom_site_fract_y
_atom_site_fract_z
Si Si1 0.109709 0.988945 0.955440
Si Si2 0.888967 0.466318 0.254139
Si Si3 0.181952 0.829758 0.143967
Si Si4 0.730330 0.968828 0.116515
Si Si5 0.395012 0.663367 0.669500
Si Si6 0.602635 0.103340 0.084460
Si Si7 0.371221 0.168097 0.387970
Si Si8 0.132218 0.672462 0.927567
O O1 0.125725 0.039486 0.865637
O O2 0.098596 0.909149 0.907678
O O3 0.199066 0.003541 0.029565
O O4 0.000000 0.000000 0.002741
O O5 0.874226 0.389019 0.205453
O O6 0.799865 0.514642 0.207265
O O7 0.000000 0.500000 0.236569
O O8 0.179290 0.750000 0.186025
O O9 0.298385 0.852833 0.122535
O O10 0.131831 0.827324 0.040929
O O11 0.691906 0.886479 0.121577
O O12 0.631466 0.021096 0.111530
O O13 0.380308 0.750000 0.657270
O O14 0.502078 0.636868 0.628318
O O15 0.396986 0.648103 0.781598
O O16 0.596483 0.115192 0.971973
O O17 0.410715 0.250000 0.407650
O O18 0.249162 0.172761 0.394942
O O19 0.086210 0.750000 0.895273
#
# Coordination Sequence:
#
# PCOD9360494 Si02
#       8
#     8   8   8   8   8   8   8   8
#     4  11  21  37  59  86 113 152 188 230 287 343
#     4  10  21  37  59  85 115 150 188 231 286 346
#     4   9  17  33  59  85 108 142 189 241 276 318
#     4  11  22  38  60  82 116 150 190 237 283 331
#     4  11  23  38  56  86 121 153 186 227 289 346
#     4  10  19  38  60  84 110 149 198 237 275 330
#     4   9  17  33  59  83 110 145 185 237 276 321
#     4   9  16  32  58  84 104 138 192 238 272 314
#
# _framework density 18.549097
#
# number of rings (size 3 to 8) (size 9 to 14) (size 15 to 20)
#    0.000    2.000    3.750    3.375    0.000    0.000 
#    4.500    5.625    0.000    0.000    0.000    0.000 
#    0.000    0.000    0.000    0.000    0.000    0.000 
#
# Total GULP energy -178231.393585 kJ/mol
# GULP energy per Si atom -5569.731050 kJ/mol
# Density = 1.850688 g / cm^3
# Si number density = 18.549097 Si / 1000 Ang^3
#
#
#
# Elastic Constant Matrix: (Units=GPa)
#
#
# Indices 1 2 3 4 5 6 
#
# 1 55.3506 37.0889 28.8412 0.0000 0.0000 0.0000
# 2 37.0889 112.3981 28.2216 0.0000 0.0000 0.0000
# 3 28.8412 28.2216 69.7485 0.0000 0.0000 0.0000
# 4 0.0000 0.0000 0.0000 -15.0187 0.0000 0.0000
# 5 0.0000 0.0000 0.0000 0.0000 19.9533 0.0000
# 6 0.0000 0.0000 0.0000 0.0000 0.0000 13.2795
#
#
#
# Elastic Compliance Matrix: (Units=1/GPa)
#
#
# Indices 1 2 3 4 5 6 
#
# 1 0.027008 -0.006799 -0.008417 0.000000 0.000000 0.000000
# 2 -0.006799 0.011614 -0.001888 0.000000 0.000000 0.000000
# 3 -0.008417 -0.001888 0.018582 0.000000 0.000000 0.000000
# 4 0.000000 0.000000 0.000000 -0.066584 0.000000 0.000000
# 5 0.000000 0.000000 0.000000 0.000000 0.050117 0.000000
# 6 0.000000 0.000000 0.000000 0.000000 0.000000 0.075304
#
#
# Mechanical properties :
#
#
# Convention : Reuss Voigt Hill
#
# Bulk Modulus (GPa) = 43.48495 47.31117 45.39806
# Shear Modulus (GPa) = 31.66265 13.19919 22.43092
#
# Velocity S-wave (km/s) = 4.13603 2.67044 3.48123
# Velocity P-wave (km/s) = 6.80463 5.92196 6.37858
#
# Compressibility (1/GPa) = 0.02299646
#
# Stress axis : x y z
#
# Youngs Moduli (GPa) = 37.02596 86.09966 53.81637
#
# Poissons Ratio (x) = 0.58536 0.45298
# Poissons Ratio (y) = 0.25173 0.10161
# Poissons Ratio (z) = 0.31165 0.16257
#
# Static dielectric constant tensor:
#      x y z
#    x 1.634150 0.000000 0.000000 
#    y 0.000000 1.732360 0.000000 
#    z 0.000000 0.000000 1.633170 
# 
# From -- ./inp_files/9496.got.cif
#   From: 2010.05.17/outbox.cif.g08.bks.cpg/sg39_5_cif.got.tgz:9496.got - 2010.06.03 18:22:40.
