data_PCOD9360257
_publ_section_title
;
Structure prediction by ZEFSAII (Michael W. Deem and Ramdas Pophale) SiO2 
 PCOD9360257
Probable space group: A B M 2
;
_chemical_formula_sum "Si O2"
_cell_formula_units_Z 64
_cell_length_a 8.412111
_cell_length_b 15.563189
_cell_length_c 22.971153
_cell_angle_alpha 90.000000
_cell_angle_beta 90.000000
_cell_angle_gamma 90.000000
_cell_volume 3007.366660
_symmetry_space_group_name_H-M "A B M 2"
_symmetry_group_IT_number 39
_symmetry_cell_setting 'orthorhombic'
loop_
_space_group_symop_operation_xyz
x,y,z
-x,-y,z
-x,1/2+y,z
x,1/2-y,z
x,1/2+y,1/2+z
-x,1/2-y,1/2+z
-x,y,1/2+z
x,-y,1/2+z
loop_
_atom_site_type_symbol
_atom_site_label
_atom_site_fract_x
_atom_site_fract_y
_atom_site_fract_z
Si Si1 0.254020 0.647663 0.776010
Si Si2 0.074251 0.355627 0.834332
Si Si3 0.698227 0.346659 0.568805
Si Si4 0.380932 0.854350 0.255824
Si Si5 0.919489 0.590636 0.159852
Si Si6 0.870933 0.652476 0.563543
Si Si7 0.122903 0.353106 0.964666
Si Si8 0.593562 0.412111 0.124412
O O1 0.264093 0.750000 0.785345
O O2 0.439895 0.617164 0.777534
O O3 0.180500 0.629155 0.712372
O O4 0.104755 0.616048 0.815723
O O5 0.072646 0.250000 0.832017
O O6 0.224578 0.381155 0.793234
O O7 0.107908 0.387230 0.899865
O O8 0.769796 0.250000 0.574196
O O9 0.796662 0.413782 0.606845
O O10 0.715867 0.369775 0.501100
O O11 0.529937 0.344070 0.598529
O O12 0.383389 0.750000 0.255248
O O13 0.359688 0.887533 0.189979
O O14 0.000000 0.500000 0.174484
O O15 0.047777 0.650311 0.127857
O O16 0.821581 0.750000 0.551260
O O17 0.727395 0.589666 0.575375
O O18 0.984801 0.623589 0.510950
O O19 0.111840 0.250000 0.957462
O O20 0.500000 0.500000 0.127736
#
# Coordination Sequence:
#
# PCOD9360257 Si02
#       8
#     8   8   8   8   8   8   8   8
#     4  10  19  33  56  82 115 156 195 241 295 355
#     4   9  18  35  57  85 115 146 197 253 292 340
#     4  10  19  35  57  79 113 152 184 234 295 355
#     4  10  20  35  58  87 119 156 193 239 301 361
#     4  11  20  32  53  82 114 150 191 239 298 354
#     4  10  20  34  55  83 113 152 196 241 298 360
#     4   8  17  35  57  81 110 146 194 245 289 343
#     4  12  23  35  54  87 120 152 188 248 300 357
#
# _framework density 21.281078000000001
#
# number of rings (size 3 to 8) (size 9 to 14) (size 15 to 20)
#    0.000    2.000    1.250    4.500    0.000    1.000 
#    2.250    0.000    0.000    5.250    0.000    0.000 
#    0.000    0.000    0.000    0.000    0.000    0.000 
#
# Total GULP energy -178146.777015 kJ/mol
# GULP energy per Si atom -5567.086782 kJ/mol
# Density = 2.123264 g / cm^3
# Si number density = 21.281078 Si / 1000 Ang^3
#
#
#
# Elastic Constant Matrix: (Units=GPa)
#
#
# Indices 1 2 3 4 5 6 
#
# 1 80.8880 9.6837 45.0447 0.0000 0.0000 0.0000
# 2 9.6837 26.3481 7.5081 0.0000 0.0000 0.0000
# 3 45.0447 7.5081 132.5108 0.0000 0.0000 0.0000
# 4 0.0000 0.0000 0.0000 -11.1208 0.0000 0.0000
# 5 0.0000 0.0000 0.0000 0.0000 18.2716 0.0000
# 6 0.0000 0.0000 0.0000 0.0000 0.0000 -61.5010
#
#
#
# Elastic Compliance Matrix: (Units=1/GPa)
#
#
# Indices 1 2 3 4 5 6 
#
# 1 0.015720 -0.004325 -0.005099 0.000000 0.000000 0.000000
# 2 -0.004325 0.039766 -0.000783 0.000000 0.000000 0.000000
# 3 -0.005099 -0.000783 0.009324 0.000000 0.000000 0.000000
# 4 0.000000 0.000000 0.000000 -0.089922 0.000000 0.000000
# 5 0.000000 0.000000 0.000000 0.000000 0.054730 0.000000
# 6 0.000000 0.000000 0.000000 0.000000 0.000000 -0.016260
#
#
# Mechanical properties :
#
#
# Convention : Reuss Voigt Hill
#
# Bulk Modulus (GPa) = 22.52390 40.46886 31.49638
# Shear Modulus (GPa) = 102.94415 0.96398 51.95406
#
# Velocity S-wave (km/s) = 6.96266 0.67376 4.94634
# Velocity P-wave (km/s) = 8.67439 4.43429 6.88869
#
# Compressibility (1/GPa) = 0.04439729
#
# Stress axis : x y z
#
# Youngs Moduli (GPa) = 63.61395 25.14711 107.24878
#
# Poissons Ratio (x) = 0.10875 0.54682
# Poissons Ratio (y) = 0.27511 0.08398
# Poissons Ratio (z) = 0.32434 0.01969
#
# Static dielectric constant tensor:
#      x y z
#    x 1.925660 0.000000 0.000000 
#    y 0.000000 1.840780 0.000000 
#    z 0.000000 0.000000 1.749160 
# 
# From -- ./inp_files/14250.got.cif
#   From: 2010.05.17/outbox.cif.g08.bks.cpg/sg39_8_cif.got.tgz:14250.got - 2010.06.03 18:22:40.
