data_PCOD9360620
_publ_section_title
;
Structure prediction by ZEFSAII (Michael W. Deem and Ramdas Pophale) SiO2 
 PCOD9360620
Probable space group: A B M 2
;
_chemical_formula_sum "Si O2"
_cell_formula_units_Z 48
_cell_length_a 9.545655
_cell_length_b 8.370958
_cell_length_c 32.010783
_cell_angle_alpha 90.000000
_cell_angle_beta 90.000000
_cell_angle_gamma 90.000000
_cell_volume 2557.862496
_symmetry_space_group_name_H-M "A B M 2"
_symmetry_group_IT_number 39
_symmetry_cell_setting 'orthorhombic'
loop_
_space_group_symop_operation_xyz
x,y,z
-x,-y,z
-x,1/2+y,z
x,1/2-y,z
x,1/2+y,1/2+z
-x,1/2-y,1/2+z
-x,y,1/2+z
x,-y,1/2+z
loop_
_atom_site_type_symbol
_atom_site_label
_atom_site_fract_x
_atom_site_fract_y
_atom_site_fract_z
Si Si1 0.840687 0.443192 0.788390
Si Si2 0.840161 0.941376 0.129050
Si Si3 0.340449 0.943126 0.708335
Si Si4 0.158805 0.941546 0.038468
Si Si5 0.341806 0.942942 0.960584
Si Si6 0.340959 0.556915 0.866957
O O1 0.841190 0.250000 0.788443
O O2 0.748635 0.496283 0.748663
O O3 0.763607 0.498301 0.830771
O O4 0.000000 0.500000 0.785688
O O5 0.843249 0.750000 0.129079
O O6 0.740175 0.997105 0.166477
O O7 0.789818 0.998880 0.083597
O O8 0.000000 0.000000 0.135121
O O9 0.340985 0.750000 0.708318
O O10 0.500000 0.000000 0.709983
O O11 0.160486 0.750000 0.038946
O O12 0.247130 0.000114 0.998834
O O13 0.000000 0.000000 0.034282
O O14 0.339059 0.750000 0.960875
O O15 0.298478 0.995360 0.913819
O O16 0.500000 0.000000 0.966717
O O17 0.500000 0.500000 0.859297
O O18 0.342345 0.750000 0.866408
#
# Coordination Sequence:
#
# PCOD9360620 Si02
#       6
#     8   8   8   8   8   8
#     4  10  21  36  54  78 106 135 169 208 251 301
#     4  10  20  35  54  76 102 133 171 211 253 301
#     4  10  22  37  54  78 105 134 169 209 252 301
#     4  10  20  34  52  75 103 135 171 210 254 301
#     4   9  19  34  52  75 103 135 170 210 254 300
#     4   9  18  34  54  76 103 134 170 210 252 300
#
# _framework density 18.765668999999999
#
# number of rings (size 3 to 8) (size 9 to 14) (size 15 to 20)
#    0.000    2.333    0.000    3.000    0.000    5.333 
#    0.000    3.333    0.000    0.000    0.000    0.000 
#    0.000    0.000    0.000    0.000    0.000    0.000 
#
# Total GULP energy -133948.555943 kJ/mol
# GULP energy per Si atom -5581.189831 kJ/mol
# Density = 1.872296 g / cm^3
# Si number density = 18.765669 Si / 1000 Ang^3
#
#
#
# Elastic Constant Matrix: (Units=GPa)
#
#
# Indices 1 2 3 4 5 6 
#
# 1 127.3470 14.0785 129.3331 0.0000 0.0000 0.0000
# 2 14.0785 17.0267 27.4327 0.0000 0.0000 0.0000
# 3 129.3331 27.4327 221.6495 0.0000 0.0000 0.0000
# 4 0.0000 0.0000 0.0000 20.0228 0.0000 0.0000
# 5 0.0000 0.0000 0.0000 0.0000 44.0910 0.0000
# 6 0.0000 0.0000 0.0000 0.0000 0.0000 31.6493
#
#
#
# Elastic Compliance Matrix: (Units=1/GPa)
#
#
# Indices 1 2 3 4 5 6 
#
# 1 0.019377 0.002741 -0.011646 0.000000 0.000000 0.000000
# 2 0.002741 0.073748 -0.010727 0.000000 0.000000 0.000000
# 3 -0.011646 -0.010727 0.012635 0.000000 0.000000 0.000000
# 4 0.000000 0.000000 0.000000 0.049943 0.000000 0.000000
# 5 0.000000 0.000000 0.000000 0.000000 0.022680 0.000000
# 6 0.000000 0.000000 0.000000 0.000000 0.000000 0.031596
#
#
# Mechanical properties :
#
#
# Convention : Reuss Voigt Hill
#
# Bulk Modulus (GPa) = 15.03844 78.63463 46.83653
# Shear Modulus (GPa) = 18.42252 32.16456 25.29354
#
# Velocity S-wave (km/s) = 3.13663 4.14455 3.67531
# Velocity P-wave (km/s) = 4.59882 8.05590 6.55922
#
# Compressibility (1/GPa) = 0.06649625
#
# Stress axis : x y z
#
# Youngs Moduli (GPa) = 51.60790 13.55976 79.14771
#
# Poissons Ratio (x) = -0.03717 0.92173
# Poissons Ratio (y) = -0.14148 0.84902
# Poissons Ratio (z) = 0.60101 0.14546
#
# Static dielectric constant tensor:
#      x y z
#    x 1.599700 0.000000 0.000000 
#    y 0.000000 1.657880 0.000000 
#    z 0.000000 0.000000 1.674940 
# 
# From -- ./inp_files/17599.got.cif
#   From: 2010.05.17/outbox.cif.g08.bks.cpg/sg39_9_cif.got.tgz:17599.got - 2010.06.03 18:22:40.
