data_PCOD9360701
_publ_section_title
;
Structure prediction by ZEFSAII (Michael W. Deem and Ramdas Pophale) SiO2 
 PCOD9360701
Probable space group: A B M 2
;
_chemical_formula_sum "Si O2"
_cell_formula_units_Z 36
_cell_length_a 5.444575
_cell_length_b 20.517887
_cell_length_c 15.577208
_cell_angle_alpha 90.000000
_cell_angle_beta 90.000000
_cell_angle_gamma 90.000000
_cell_volume 1740.148203
_symmetry_space_group_name_H-M "A B M 2"
_symmetry_group_IT_number 39
_symmetry_cell_setting 'orthorhombic'
loop_
_space_group_symop_operation_xyz
x,y,z
-x,-y,z
-x,1/2+y,z
x,1/2-y,z
x,1/2+y,1/2+z
-x,1/2-y,1/2+z
-x,y,1/2+z
x,-y,1/2+z
loop_
_atom_site_type_symbol
_atom_site_label
_atom_site_fract_x
_atom_site_fract_y
_atom_site_fract_z
Si Si1 0.910142 0.178290 0.541020
Si Si2 0.783593 0.128637 0.888612
Si Si3 0.000000 0.000000 0.386499
Si Si4 0.804085 0.750000 0.666891
Si Si5 0.311236 0.250000 0.273696
Si Si6 0.394572 0.436631 0.016654
O O1 0.787266 0.250000 0.540869
O O2 0.745002 0.118392 0.569992
O O3 0.003395 0.162362 0.445633
O O4 0.141498 0.188989 0.603847
O O5 0.672759 0.184350 0.829705
O O6 0.592753 0.101192 0.958766
O O7 0.886100 0.063683 0.841255
O O8 0.205298 0.969332 0.449150
O O9 0.541748 0.750000 0.709796
O O10 0.039398 0.750000 0.730921
O O11 0.500000 0.500000 0.064648
#
# Coordination Sequence:
#
# PCOD9360701 Si02
#       6
#     8   8   4   4   4   8
#     4   9  20  36  59  89 126 162 208 264 316 374
#     4  10  20  34  66  92 120 159 220 264 315 376
#     4   8  18  36  54  96 116 154 202 272 316 358
#     4  10  27  39  56  92 136 170 204 254 327 376
#     4  12  25  39  60  98 130 172 210 260 315 390
#     4   9  18  33  61  92 116 152 209 271 311 367
#
# _framework density 20.687891
#
# number of rings (size 3 to 8) (size 9 to 14) (size 15 to 20)
#    0.667    1.778    1.111    0.000   10.889    0.000 
#    0.000    0.000    0.000   12.000    0.000    0.000 
#    0.000    0.000    0.000    0.000    0.000    0.000 
#
# Total GULP energy -100205.242514 kJ/mol
# GULP energy per Si atom -5566.957917 kJ/mol
# Density = 2.064080 g / cm^3
# Si number density = 20.687891 Si / 1000 Ang^3
#
#
#
# Elastic Constant Matrix: (Units=GPa)
#
#
# Indices 1 2 3 4 5 6 
#
# 1 65.0262 56.4831 14.5912 0.0000 0.0000 0.0000
# 2 56.4831 203.7297 45.5132 0.0000 0.0000 0.0000
# 3 14.5912 45.5132 37.2371 0.0000 0.0000 0.0000
# 4 0.0000 0.0000 0.0000 -1.2452 0.0000 0.0000
# 5 0.0000 0.0000 0.0000 0.0000 26.2840 0.0000
# 6 0.0000 0.0000 0.0000 0.0000 0.0000 511.1454
#
#
#
# Elastic Compliance Matrix: (Units=1/GPa)
#
#
# Indices 1 2 3 4 5 6 
#
# 1 0.020316 -0.005302 -0.001481 0.000000 0.000000 0.000000
# 2 -0.005302 0.008136 -0.007866 0.000000 0.000000 0.000000
# 3 -0.001481 -0.007866 0.037050 0.000000 0.000000 0.000000
# 4 0.000000 0.000000 0.000000 -0.803065 0.000000 0.000000
# 5 0.000000 0.000000 0.000000 0.000000 0.038046 0.000000
# 6 0.000000 0.000000 0.000000 0.000000 0.000000 0.001956
#
#
# Mechanical properties :
#
#
# Convention : Reuss Voigt Hill
#
# Bulk Modulus (GPa) = 27.62133 59.90755 43.76444
# Shear Modulus (GPa) = -7.61968 119.86386 56.12209
#
# Velocity S-wave (km/s) = -1.92124 7.62003 5.21410
# Velocity P-wave (km/s) = 2.90842 10.31700 7.57956
#
# Compressibility (1/GPa) = 0.03620390
#
# Stress axis : x y z
#
# Youngs Moduli (GPa) = 49.22278 122.91504 26.99059
#
# Poissons Ratio (x) = 0.65166 0.03996
# Poissons Ratio (y) = 0.26096 0.21232
# Poissons Ratio (z) = 0.07288 0.96691
#
# Static dielectric constant tensor:
#      x y z
#    x 1.819850 0.000000 0.000000 
#    y 0.000000 1.796920 0.000000 
#    z 0.000000 0.000000 1.722180 
# 
# From -- ./inp_files/7357.got.cif
#   From: 2010.05.17/outbox.cif.g08.bks.cpg/sg39_4_cif.got.tgz:7357.got - 2010.06.03 18:22:40.
