data_PCOD9360514
_publ_section_title
;
Structure prediction by ZEFSAII (Michael W. Deem and Ramdas Pophale) SiO2 
 PCOD9360514
Probable space group: A B M 2
;
_chemical_formula_sum "Si O2"
_cell_formula_units_Z 52
_cell_length_a 14.567872
_cell_length_b 14.874544
_cell_length_c 11.524193
_cell_angle_alpha 90.000000
_cell_angle_beta 90.000000
_cell_angle_gamma 90.000000
_cell_volume 2497.182602
_symmetry_space_group_name_H-M "A B M 2"
_symmetry_group_IT_number 39
_symmetry_cell_setting 'orthorhombic'
loop_
_space_group_symop_operation_xyz
x,y,z
-x,-y,z
-x,1/2+y,z
x,1/2-y,z
x,1/2+y,1/2+z
-x,1/2-y,1/2+z
-x,y,1/2+z
x,-y,1/2+z
loop_
_atom_site_type_symbol
_atom_site_label
_atom_site_fract_x
_atom_site_fract_y
_atom_site_fract_z
Si Si1 0.604244 0.531758 0.302630
Si Si2 0.288135 0.848005 0.263633
Si Si3 0.268340 0.910980 0.615697
Si Si4 0.866782 0.147563 0.819597
Si Si5 0.000000 0.000000 0.905507
Si Si6 0.138977 0.848726 0.434856
Si Si7 0.719363 0.604838 0.506312
O O1 0.500000 0.500000 0.304645
O O2 0.661828 0.438450 0.305281
O O3 0.634267 0.583265 0.183575
O O4 0.637402 0.590248 0.413139
O O5 0.320211 0.750000 0.307450
O O6 0.182133 0.858648 0.305904
O O7 0.300921 0.845177 0.125238
O O8 0.199695 0.887368 0.719248
O O9 0.231205 0.848476 0.513450
O O10 0.256507 0.007172 0.556518
O O11 0.896251 0.250000 0.797101
O O12 0.804963 0.144055 0.935851
O O13 0.945315 0.074128 0.832537
O O14 0.073654 0.067210 0.967226
O O15 0.094279 0.750000 0.446653
#
# Coordination Sequence:
#
# PCOD9360514 Si02
#       7
#     8   8   8   8   4   8   8
#     4  10  21  38  67  93 125 164 210 259 317 375
#     4  10  21  40  62  88 125 165 209 255 315 383
#     4  10  20  41  62  88 122 168 207 254 315 381
#     4  11  23  39  61  90 122 163 213 261 317 374
#     4  12  22  40  60  92 130 160 216 278 316 370
#     4  11  22  41  64  90 127 173 214 262 324 386
#     4  10  19  39  64  86 121 166 204 254 316 377
#
# _framework density 20.823467999999998
#
# number of rings (size 3 to 8) (size 9 to 14) (size 15 to 20)
#    0.000    1.538    3.077    3.231    0.000    3.077 
#    2.769    4.615    0.000    0.000    0.000    0.000 
#    0.000    0.000    0.000    0.000    0.000    0.000 
#
# Total GULP energy -144736.329799 kJ/mol
# GULP energy per Si atom -5566.781915 kJ/mol
# Density = 2.077607 g / cm^3
# Si number density = 20.823468 Si / 1000 Ang^3
#
#
#
# Elastic Constant Matrix: (Units=GPa)
#
#
# Indices 1 2 3 4 5 6 
#
# 1 88.8952 32.2686 25.1939 0.0000 0.0000 0.0000
# 2 32.2686 103.8809 14.4948 0.0000 0.0000 0.0000
# 3 25.1939 14.4948 90.2794 0.0000 0.0000 0.0000
# 4 0.0000 0.0000 0.0000 23.3002 0.0000 0.0000
# 5 0.0000 0.0000 0.0000 0.0000 11.7943 0.0000
# 6 0.0000 0.0000 0.0000 0.0000 0.0000 0.0275
#
#
#
# Elastic Compliance Matrix: (Units=1/GPa)
#
#
# Indices 1 2 3 4 5 6 
#
# 1 0.013510 -0.003755 -0.003167 0.000000 0.000000 0.000000
# 2 -0.003755 0.010890 -0.000701 0.000000 0.000000 0.000000
# 3 -0.003167 -0.000701 0.012073 0.000000 0.000000 0.000000
# 4 0.000000 0.000000 0.000000 0.042918 0.000000 0.000000
# 5 0.000000 0.000000 0.000000 0.000000 0.084787 0.000000
# 6 0.000000 0.000000 0.000000 0.000000 0.000000 36.345569
#
#
# Mechanical properties :
#
#
# Convention : Reuss Voigt Hill
#
# Bulk Modulus (GPa) = 47.10742 47.44113 47.27428
# Shear Modulus (GPa) = 0.13687 21.09761 10.61724
#
# Velocity S-wave (km/s) = 0.25665 3.18648 2.26048
# Velocity P-wave (km/s) = 4.77066 6.03077 5.43734
#
# Compressibility (1/GPa) = 0.02122808
#
# Stress axis : x y z
#
# Youngs Moduli (GPa) = 74.02061 91.82331 82.82861
#
# Poissons Ratio (x) = 0.34476 0.26234
# Poissons Ratio (y) = 0.27792 0.05804
# Poissons Ratio (z) = 0.23445 0.06434
#
# Static dielectric constant tensor:
#      x y z
#    x 1.769800 0.000000 0.000000 
#    y 0.000000 1.764150 0.000000 
#    z 0.000000 0.000000 1.824830 
# 
# From -- ./inp_files/6481.got.cif
#   From: 2010.05.17/outbox.cif.g08.bks.cpg/sg39_4_cif.got.tgz:6481.got - 2010.06.03 18:22:40.
