data_PCOD9360037
_publ_section_title
;
Structure prediction by ZEFSAII (Michael W. Deem and Ramdas Pophale) SiO2 
 PCOD9360037
Probable space group: A B M 2
;
_chemical_formula_sum "Si O2"
_cell_formula_units_Z 48
_cell_length_a 16.157225
_cell_length_b 9.129181
_cell_length_c 19.252970
_cell_angle_alpha 90.000000
_cell_angle_beta 90.000000
_cell_angle_gamma 90.000000
_cell_volume 2839.856038
_symmetry_space_group_name_H-M "A B M 2"
_symmetry_group_IT_number 39
_symmetry_cell_setting 'orthorhombic'
loop_
_space_group_symop_operation_xyz
x,y,z
-x,-y,z
-x,1/2+y,z
x,1/2-y,z
x,1/2+y,1/2+z
-x,1/2-y,1/2+z
-x,y,1/2+z
x,-y,1/2+z
loop_
_atom_site_type_symbol
_atom_site_label
_atom_site_fract_x
_atom_site_fract_y
_atom_site_fract_z
Si Si1 0.261508 0.928045 0.973280
Si Si2 0.081376 0.917558 0.961241
Si Si3 0.414734 0.425614 0.214816
Si Si4 0.915888 0.420181 0.130619
Si Si5 0.745456 0.573680 0.123540
Si Si6 0.415440 0.925482 0.876468
O O1 0.258681 0.750000 0.983042
O O2 0.172484 0.972990 0.941472
O O3 0.337229 0.964929 0.923383
O O4 0.269795 0.006022 0.047357
O O5 0.074546 0.750000 0.939472
O O6 0.082033 0.922415 0.045832
O O7 0.000000 0.000000 0.936767
O O8 0.500000 0.500000 0.190321
O O9 0.424725 0.250000 0.211196
O O10 0.333365 0.463974 0.171117
O O11 0.402653 0.466683 0.295752
O O12 0.913903 0.250000 0.151530
O O13 0.831766 0.504396 0.150205
O O14 0.000000 0.500000 0.154209
O O15 0.753435 0.750000 0.119824
O O16 0.424767 0.750000 0.879271
O O17 0.500000 0.000000 0.900940
#
# Coordination Sequence:
#
# PCOD9360037 Si02
#       6
#     8   8   8   8   8   8
#     4   9  18  31  47  68  94 123 153 189 236 280
#     4   8  14  24  39  61  87 115 145 177 216 261
#     4   9  19  34  51  69  90 122 160 196 236 283
#     4   9  16  27  44  67  95 126 158 191 230 275
#     4  10  19  30  46  71  99 124 155 194 235 279
#     4   9  18  34  52  68  89 120 158 195 234 282
#
# _framework density 16.902263999999999
#
# number of rings (size 3 to 8) (size 9 to 14) (size 15 to 20)
#    0.000    3.000    0.000    2.000    0.000    6.667 
#    0.000    3.333    0.000    1.000    0.000    2.333 
#    0.000    0.000    0.000    0.000    0.000    0.000 
#
# Total GULP energy -133668.069428 kJ/mol
# GULP energy per Si atom -5569.502893 kJ/mol
# Density = 1.686379 g / cm^3
# Si number density = 16.902264 Si / 1000 Ang^3
#
#
#
# Elastic Constant Matrix: (Units=GPa)
#
#
# Indices 1 2 3 4 5 6 
#
# 1 221.0183 73.5673 65.0704 0.0000 0.0000 0.0000
# 2 73.5673 52.5405 26.5001 0.0000 0.0000 0.0000
# 3 65.0704 26.5001 32.6407 0.0000 0.0000 0.0000
# 4 0.0000 0.0000 0.0000 11.8351 0.0000 0.0000
# 5 0.0000 0.0000 0.0000 0.0000 -9.9531 0.0000
# 6 0.0000 0.0000 0.0000 0.0000 0.0000 35.8226
#
#
#
# Elastic Compliance Matrix: (Units=1/GPa)
#
#
# Indices 1 2 3 4 5 6 
#
# 1 0.012914 -0.008632 -0.018736 0.000000 0.000000 0.000000
# 2 -0.008632 0.038001 -0.013644 0.000000 0.000000 0.000000
# 3 -0.018736 -0.013644 0.079065 0.000000 0.000000 0.000000
# 4 0.000000 0.000000 0.000000 0.084494 0.000000 0.000000
# 5 0.000000 0.000000 0.000000 0.000000 -0.100472 0.000000
# 6 0.000000 0.000000 0.000000 0.000000 0.000000 0.027915
#
#
# Mechanical properties :
#
#
# Convention : Reuss Voigt Hill
#
# Bulk Modulus (GPa) = 20.85251 70.71944 45.78598
# Shear Modulus (GPa) = 20.83967 16.94507 18.89237
#
# Velocity S-wave (km/s) = 3.51515 3.16971 3.34689
# Velocity P-wave (km/s) = 5.37019 7.43822 6.48715
#
# Compressibility (1/GPa) = 0.04795586
#
# Stress axis : x y z
#
# Youngs Moduli (GPa) = 77.43604 26.31515 12.64782
#
# Poissons Ratio (x) = 0.22715 0.23697
# Poissons Ratio (y) = 0.66842 0.17256
# Poissons Ratio (z) = 1.45086 0.35904
#
# Static dielectric constant tensor:
#      x y z
#    x 1.581740 0.000000 0.000000 
#    y 0.000000 1.571640 0.000000 
#    z 0.000000 0.000000 1.551850 
# 
# From -- ./inp_files/12643.got.cif
#   From: 2010.05.17/outbox.cif.g08.bks.cpg/sg39_7_cif.got.tgz:12643.got - 2010.06.03 18:22:40.
