data_PCOD9360964
_publ_section_title
;
Structure prediction by ZEFSAII (Michael W. Deem and Ramdas Pophale) SiO2 
 PCOD9360964
Probable space group: A B M 2
;
_chemical_formula_sum "Si O2"
_cell_formula_units_Z 48
_cell_length_a 8.343263
_cell_length_b 16.597877
_cell_length_c 16.625124
_cell_angle_alpha 90.000000
_cell_angle_beta 90.000000
_cell_angle_gamma 90.000000
_cell_volume 2302.254704
_symmetry_space_group_name_H-M "A B M 2"
_symmetry_group_IT_number 39
_symmetry_cell_setting 'orthorhombic'
loop_
_space_group_symop_operation_xyz
x,y,z
-x,-y,z
-x,1/2+y,z
x,1/2-y,z
x,1/2+y,1/2+z
-x,1/2-y,1/2+z
-x,y,1/2+z
x,-y,1/2+z
loop_
_atom_site_type_symbol
_atom_site_label
_atom_site_fract_x
_atom_site_fract_y
_atom_site_fract_z
Si Si1 0.048081 0.906842 0.994240
Si Si2 0.560280 0.408150 0.163958
Si Si3 0.056273 0.092430 0.670724
Si Si4 0.593027 0.843741 0.498316
Si Si5 0.560152 0.591775 0.332443
Si Si6 0.092294 0.342483 0.329812
O O1 0.997163 0.862860 0.912055
O O2 0.993119 0.878362 0.083054
O O3 0.240881 0.894150 0.996716
O O4 0.000000 0.000000 0.987850
O O5 0.500000 0.500000 0.160080
O O6 0.751998 0.406456 0.167767
O O7 0.506885 0.365872 0.081425
O O8 0.499701 0.372275 0.248080
O O9 0.000408 0.142179 0.747566
O O10 0.000000 0.000000 0.680515
O O11 0.635079 0.750000 0.499401
O O12 0.506974 0.865264 0.414838
O O13 0.500000 0.500000 0.336394
O O14 0.752320 0.599892 0.328060
O O15 0.146718 0.250000 0.334761
#
# Coordination Sequence:
#
# PCOD9360964 Si02
#       6
#     8   8   8   8   8   8
#     4   9  19  35  59  84 112 154 198 237 282 344
#     4  10  21  37  60  87 115 152 198 240 283 344
#     4  10  20  37  60  86 115 152 197 240 285 344
#     4  10  21  37  58  85 119 153 188 239 299 348
#     4  10  20  37  61  86 116 155 199 241 284 346
#     4  11  23  39  60  88 122 154 190 243 301 348
#
# _framework density 20.849126999999999
#
# number of rings (size 3 to 8) (size 9 to 14) (size 15 to 20)
#    0.000    2.000    0.000    5.000    0.000    7.333 
#    0.000    3.333    0.000    0.000    0.000    0.000 
#    0.000    0.000    0.000    0.000    0.000    0.000 
#
# Total GULP energy -133851.997592 kJ/mol
# GULP energy per Si atom -5577.166566 kJ/mol
# Density = 2.080167 g / cm^3
# Si number density = 20.849127 Si / 1000 Ang^3
#
#
#
# Elastic Constant Matrix: (Units=GPa)
#
#
# Indices 1 2 3 4 5 6 
#
# 1 31.7033 24.2152 35.1010 0.0000 0.0000 0.0000
# 2 24.2152 76.2013 45.8382 0.0000 0.0000 0.0000
# 3 35.1010 45.8382 243.7281 0.0000 0.0000 0.0000
# 4 0.0000 0.0000 0.0000 -22.0215 0.0000 0.0000
# 5 0.0000 0.0000 0.0000 0.0000 31.0174 0.0000
# 6 0.0000 0.0000 0.0000 0.0000 0.0000 -4.4837
#
#
#
# Elastic Compliance Matrix: (Units=1/GPa)
#
#
# Indices 1 2 3 4 5 6 
#
# 1 0.045336 -0.011816 -0.004307 0.000000 0.000000 0.000000
# 2 -0.011816 0.017877 -0.001660 0.000000 0.000000 0.000000
# 3 -0.004307 -0.001660 0.005035 0.000000 0.000000 0.000000
# 4 0.000000 0.000000 0.000000 -0.045410 0.000000 0.000000
# 5 0.000000 0.000000 0.000000 0.000000 0.032240 0.000000
# 6 0.000000 0.000000 0.000000 0.000000 0.000000 -0.223030
#
#
# Mechanical properties :
#
#
# Convention : Reuss Voigt Hill
#
# Bulk Modulus (GPa) = 30.59820 62.43795 46.51807
# Shear Modulus (GPa) = -41.15558 17.33432 -11.91063
#
# Velocity S-wave (km/s) = -4.44776 2.88656 -2.39273
# Velocity P-wave (km/s) = 3.41597 6.41266 3.83753
#
# Compressibility (1/GPa) = 0.03268166
#
# Stress axis : x y z
#
# Youngs Moduli (GPa) = 22.05739 55.93819 198.59098
#
# Poissons Ratio (x) = 0.66098 0.85532
# Poissons Ratio (y) = 0.26063 0.32974
# Poissons Ratio (z) = 0.09500 0.09288
#
# Static dielectric constant tensor:
#      x y z
#    x 1.742410 0.000000 0.000000 
#    y 0.000000 1.716530 0.000000 
#    z 0.000000 0.000000 1.850120 
# 
# From -- ./inp_files/11594.got.cif
#   From: 2010.05.17/outbox.cif.g08.bks.cpg/sg39_6_cif.got.tgz:11594.got - 2010.06.03 18:22:40.
