data_PCOD9360368
_publ_section_title
;
Structure prediction by ZEFSAII (Michael W. Deem and Ramdas Pophale) SiO2 
 PCOD9360368
Probable space group: A B M 2
;
_chemical_formula_sum "Si O2"
_cell_formula_units_Z 52
_cell_length_a 23.760328
_cell_length_b 17.941293
_cell_length_c 5.557471
_cell_angle_alpha 90.000000
_cell_angle_beta 90.000000
_cell_angle_gamma 90.000000
_cell_volume 2369.099906
_symmetry_space_group_name_H-M "A B M 2"
_symmetry_group_IT_number 39
_symmetry_cell_setting 'orthorhombic'
loop_
_space_group_symop_operation_xyz
x,y,z
-x,-y,z
-x,1/2+y,z
x,1/2-y,z
x,1/2+y,1/2+z
-x,1/2-y,1/2+z
-x,y,1/2+z
x,-y,1/2+z
loop_
_atom_site_type_symbol
_atom_site_label
_atom_site_fract_x
_atom_site_fract_y
_atom_site_fract_z
Si Si1 0.820682 0.629314 0.446180
Si Si2 0.963838 0.250000 0.446188
Si Si3 0.856382 0.852045 0.946180
Si Si4 0.911712 0.992912 0.446176
Si Si5 0.698478 0.580207 0.446208
Si Si6 0.466004 0.161701 0.946220
Si Si7 0.345803 0.909892 0.446209
O O1 0.824098 0.669173 0.702976
O O2 0.879291 0.584541 0.446175
O O3 0.765875 0.577369 0.446194
O O4 0.824095 0.669171 0.189381
O O5 0.919508 0.318660 0.446187
O O6 1.000000 0.250000 0.696188
O O7 0.864375 0.941766 0.946177
O O8 0.942405 1.000000 0.696176
O O9 0.670507 0.497963 0.446212
O O10 0.679461 0.618900 0.198414
O O11 0.679464 0.618899 0.694007
O O12 0.450220 0.250000 0.946218
O O13 0.500002 0.148774 0.696224
O O14 0.411386 0.109381 0.946207
#
# Coordination Sequence:
#
# PCOD9360368 Si02
#       7
#     8   4   8   8   8   8   8
#     4  10  19  34  62  87 119 157 192 223 282 360
#     4  12  26  46  68  84 118 160 196 252 310 326
#     4  10  21  36  61  88 111 150 203 238 264 357
#     4   8  16  27  52  83 110 137 182 229 262 317
#     4  10  21  33  56  85 128 164 176 229 318 361
#     4  10  21  40  64  80 106 164 218 257 300 342
#     4  10  21  34  55  90 123 150 201 246 300 368
#
# _framework density 21.949263999999999
#
# number of rings (size 3 to 8) (size 9 to 14) (size 15 to 20)
#    0.000    2.154    0.000    2.769   12.923    0.000 
#    0.000    9.231   10.154   24.923    0.000    0.000 
#    0.000    0.000    0.000    0.000    0.000    0.000 
#
# Total GULP energy -144835.916711 kJ/mol
# GULP energy per Si atom -5570.612181 kJ/mol
# Density = 2.189931 g / cm^3
# Si number density = 21.949264 Si / 1000 Ang^3
#
#
#
# Elastic Constant Matrix: (Units=GPa)
#
#
# Indices 1 2 3 4 5 6 
#
# 1 141.1852 28.3870 68.2596 0.0000 0.0000 0.0000
# 2 28.3870 57.5463 15.2960 0.0000 0.0000 0.0000
# 3 68.2596 15.2960 289.9182 0.0000 0.0000 0.0000
# 4 0.0000 0.0000 0.0000 -5.0833 0.0000 0.0000
# 5 0.0000 0.0000 0.0000 0.0000 40.1645 0.0000
# 6 0.0000 0.0000 0.0000 0.0000 0.0000 32.7584
#
#
#
# Elastic Compliance Matrix: (Units=1/GPa)
#
#
# Indices 1 2 3 4 5 6 
#
# 1 0.008750 -0.003822 -0.001858 0.000000 0.000000 0.000000
# 2 -0.003822 0.019294 -0.000118 0.000000 0.000000 0.000000
# 3 -0.001858 -0.000118 0.003893 0.000000 0.000000 0.000000
# 4 0.000000 0.000000 0.000000 -0.196724 0.000000 0.000000
# 5 0.000000 0.000000 0.000000 0.000000 0.024898 0.000000
# 6 0.000000 0.000000 0.000000 0.000000 0.000000 0.030527
#
#
# Mechanical properties :
#
#
# Convention : Reuss Voigt Hill
#
# Bulk Modulus (GPa) = 49.16510 79.17055 64.16782
# Shear Modulus (GPa) = -54.95389 38.68173 -8.13608
#
# Velocity S-wave (km/s) = -5.00910 4.20256 -1.92739
# Velocity P-wave (km/s) = 3.31765 7.72637 4.93406
#
# Compressibility (1/GPa) = 0.02033963
#
# Stress axis : x y z
#
# Youngs Moduli (GPa) = 114.28670 51.82915 256.86879
#
# Poissons Ratio (x) = 0.19810 0.47738
# Poissons Ratio (y) = 0.43683 0.03032
# Poissons Ratio (z) = 0.21240 0.00612
#
# Static dielectric constant tensor:
#      x y z
#    x 1.727260 0.000000 0.000000 
#    y 0.000000 1.808230 0.000000 
#    z 0.000000 0.000000 1.962050 
# 
# From -- ./inp_files/1060.got.cif
#   From: 2010.05.17/outbox.cif.g08.bks.cpg/sg39_1_cif.got.tgz:1060.got - 2010.06.03 18:22:40.
