data_PCOD9360716
_publ_section_title
;
Structure prediction by ZEFSAII (Michael W. Deem and Ramdas Pophale) SiO2 
 PCOD9360716
Probable space group: A B M 2
;
_chemical_formula_sum "Si O2"
_cell_formula_units_Z 52
_cell_length_a 13.544312
_cell_length_b 24.291762
_cell_length_c 9.264588
_cell_angle_alpha 90.000000
_cell_angle_beta 90.000000
_cell_angle_gamma 90.000000
_cell_volume 3048.190307
_symmetry_space_group_name_H-M "A B M 2"
_symmetry_group_IT_number 39
_symmetry_cell_setting 'orthorhombic'
loop_
_space_group_symop_operation_xyz
x,y,z
-x,-y,z
-x,1/2+y,z
x,1/2-y,z
x,1/2+y,1/2+z
-x,1/2-y,1/2+z
-x,y,1/2+z
x,-y,1/2+z
loop_
_atom_site_type_symbol
_atom_site_label
_atom_site_fract_x
_atom_site_fract_y
_atom_site_fract_z
Si Si1 0.634482 0.955949 0.142040
Si Si2 0.112332 0.873815 0.382753
Si Si3 0.500000 0.500000 0.890267
Si Si4 0.905506 0.436387 0.886741
Si Si5 0.862595 0.250000 0.715526
Si Si6 0.826251 0.967366 0.694178
Si Si7 0.782345 0.633133 0.184365
Si Si8 0.944607 0.250000 0.396557
O O1 0.680766 0.895389 0.142242
O O2 0.565744 0.963758 0.281749
O O3 0.724948 0.000302 0.155555
O O4 0.573164 0.967897 0.997794
O O5 0.184622 0.910701 0.284013
O O6 0.145220 0.879497 0.549102
O O7 0.102629 0.808651 0.346725
O O8 0.005968 0.902749 0.366778
O O9 0.889558 0.490712 0.791412
O O10 0.820106 0.396638 0.827902
O O11 0.885824 0.453222 0.050201
O O12 0.793313 0.197155 0.710636
O O13 0.929334 0.250000 0.569473
O O14 0.941896 0.250000 0.844759
#
# Coordination Sequence:
#
# PCOD9360716 Si02
#       8
#     8   8   4   8   4   8   8   4
#     4  10  20  36  54  82 101 134 165 219 276 338
#     4  11  21  34  49  74 108 152 183 220 243 298
#     4  10  20  36  60  76 104 124 164 214 288 346
#     4  11  21  33  48  74 107 150 179 216 253 299
#     4  10  20  36  54  76 106 150 182 230 240 302
#     4  11  22  33  52  76 111 135 182 217 265 314
#     4  10  20  35  55  76 108 139 184 215 262 302
#     4  10  22  34  52  72 108 150 204 210 252 276
#
# _framework density 17.059304000000001
#
# number of rings (size 3 to 8) (size 9 to 14) (size 15 to 20)
#    0.000    1.538    1.538    6.000    2.154    2.462 
#    0.000    0.000    0.000    0.923    0.000    4.308 
#    0.000    0.000    0.000    0.000    0.000    0.000 
#
# Total GULP energy -145048.573741 kJ/mol
# GULP energy per Si atom -5578.791298 kJ/mol
# Density = 1.702048 g / cm^3
# Si number density = 17.059304 Si / 1000 Ang^3
#
#
#
# Elastic Constant Matrix: (Units=GPa)
#
#
# Indices 1 2 3 4 5 6 
#
# 1 57.9800 31.6766 8.0746 0.0000 0.0000 0.0000
# 2 31.6766 136.7994 43.5756 0.0000 0.0000 0.0000
# 3 8.0746 43.5756 78.7246 0.0000 0.0000 0.0000
# 4 0.0000 0.0000 0.0000 20.1303 0.0000 0.0000
# 5 0.0000 0.0000 0.0000 0.0000 19.4023 0.0000
# 6 0.0000 0.0000 0.0000 0.0000 0.0000 17.0549
#
#
#
# Elastic Compliance Matrix: (Units=1/GPa)
#
#
# Indices 1 2 3 4 5 6 
#
# 1 0.019770 -0.004774 0.000615 0.000000 0.000000 0.000000
# 2 -0.004774 0.010027 -0.005061 0.000000 0.000000 0.000000
# 3 0.000615 -0.005061 0.015441 0.000000 0.000000 0.000000
# 4 0.000000 0.000000 0.000000 0.049676 0.000000 0.000000
# 5 0.000000 0.000000 0.000000 0.000000 0.051540 0.000000
# 6 0.000000 0.000000 0.000000 0.000000 0.000000 0.058634
#
#
# Mechanical properties :
#
#
# Convention : Reuss Voigt Hill
#
# Bulk Modulus (GPa) = 37.31585 48.90640 43.11112
# Shear Modulus (GPa) = 21.50899 23.99597 22.75248
#
# Velocity S-wave (km/s) = 3.55468 3.75456 3.65599
# Velocity P-wave (km/s) = 6.22650 6.89394 6.56870
#
# Compressibility (1/GPa) = 0.02679827
#
# Stress axis : x y z
#
# Youngs Moduli (GPa) = 50.58246 99.72745 64.76396
#
# Poissons Ratio (x) = 0.47605 -0.03980
# Poissons Ratio (y) = 0.24146 0.32775
# Poissons Ratio (z) = -0.03108 0.50469
#
# Static dielectric constant tensor:
#      x y z
#    x 1.579140 0.000000 0.000000 
#    y 0.000000 1.600150 0.000000 
#    z 0.000000 0.000000 1.583050 
# 
# From -- ./inp_files/3468.got.cif
#   From: 2010.05.17/outbox.cif.g08.bks.cpg/sg39_2_cif.got.tgz:3468.got - 2010.06.03 18:22:40.
