data_PCOD9360982
_publ_section_title
;
Structure prediction by ZEFSAII (Michael W. Deem and Ramdas Pophale) SiO2 
 PCOD9360982
Probable space group: A B M 2
;
_chemical_formula_sum "Si O2"
_cell_formula_units_Z 56
_cell_length_a 5.092458
_cell_length_b 16.251077
_cell_length_c 32.435046
_cell_angle_alpha 90.000000
_cell_angle_beta 90.000000
_cell_angle_gamma 90.000000
_cell_volume 2684.257172
_symmetry_space_group_name_H-M "A B M 2"
_symmetry_group_IT_number 39
_symmetry_cell_setting 'orthorhombic'
loop_
_space_group_symop_operation_xyz
x,y,z
-x,-y,z
-x,1/2+y,z
x,1/2-y,z
x,1/2+y,1/2+z
-x,1/2-y,1/2+z
-x,y,1/2+z
x,-y,1/2+z
loop_
_atom_site_type_symbol
_atom_site_label
_atom_site_fract_x
_atom_site_fract_y
_atom_site_fract_z
Si Si1 0.093945 0.650618 0.880200
Si Si2 0.096938 0.845316 0.596653
Si Si3 0.248843 0.443077 0.462612
Si Si4 0.399851 0.150242 0.829142
Si Si5 0.593557 0.905587 0.549732
Si Si6 0.112159 0.591848 0.688734
Si Si7 0.386358 0.653507 0.235165
O O1 0.090056 0.750000 0.884957
O O2 0.164192 0.609430 0.923317
O O3 0.315558 0.629495 0.846581
O O4 0.818452 0.621357 0.861477
O O5 0.023928 0.750000 0.600290
O O6 0.352289 0.854551 0.567971
O O7 0.155270 0.880328 0.641830
O O8 0.851504 0.892461 0.576914
O O9 0.500000 0.500000 0.452583
O O10 0.331844 0.389255 0.502219
O O11 0.000000 0.500000 0.474775
O O12 0.379346 0.250000 0.828628
O O13 0.354423 0.123740 0.782275
O O14 0.500000 0.000000 0.551246
O O15 0.383356 0.603672 0.712882
O O16 0.000000 0.500000 0.689478
O O17 0.885410 0.644933 0.710774
O O18 0.464038 0.750000 0.235879
#
# Coordination Sequence:
#
# PCOD9360982 Si02
#       7
#     8   8   8   8   8   8   8
#     4  10  20  37  61  89 120 158 204 249 297 356
#     4  12  25  42  65  94 123 157 208 259 304 361
#     4  11  23  41  62  89 124 161 200 244 304 368
#     4   9  19  36  60  88 119 158 202 250 303 355
#     4  11  23  43  65  89 124 166 202 247 312 373
#     4  12  25  42  62  91 128 164 202 251 314 370
#     4  11  22  41  66  90 121 164 213 258 303 361
#
# _framework density 20.862380999999999
#
# number of rings (size 3 to 8) (size 9 to 14) (size 15 to 20)
#    0.000    1.143    0.000    7.714    0.000    3.429 
#    0.000    8.571    0.000    0.000    0.000    0.000 
#    0.000    0.000    0.000    0.000    0.000    0.000 
#
# Total GULP energy -156675.286560 kJ/mol
# GULP energy per Si atom -5595.545949 kJ/mol
# Density = 2.081490 g / cm^3
# Si number density = 20.862381 Si / 1000 Ang^3
#
#
#
# Elastic Constant Matrix: (Units=GPa)
#
#
# Indices 1 2 3 4 5 6 
#
# 1 93.4276 -3.1204 12.8697 0.0000 0.0000 0.0000
# 2 -3.1204 37.6310 23.7216 0.0000 0.0000 0.0000
# 3 12.8697 23.7216 110.4941 0.0000 0.0000 0.0000
# 4 0.0000 0.0000 0.0000 22.0653 0.0000 0.0000
# 5 0.0000 0.0000 0.0000 0.0000 -37.9139 0.0000
# 6 0.0000 0.0000 0.0000 0.0000 0.0000 27.8267
#
#
#
# Elastic Compliance Matrix: (Units=1/GPa)
#
#
# Indices 1 2 3 4 5 6 
#
# 1 0.011005 0.001990 -0.001709 0.000000 0.000000 0.000000
# 2 0.001990 0.031093 -0.006907 0.000000 0.000000 0.000000
# 3 -0.001709 -0.006907 0.010732 0.000000 0.000000 0.000000
# 4 0.000000 0.000000 0.000000 0.045320 0.000000 0.000000
# 5 0.000000 0.000000 0.000000 0.000000 -0.026376 0.000000
# 6 0.000000 0.000000 0.000000 0.000000 0.000000 0.035937
#
#
# Mechanical properties :
#
#
# Convention : Reuss Voigt Hill
#
# Bulk Modulus (GPa) = 25.26650 34.27717 29.77184
# Shear Modulus (GPa) = 37.26994 16.26775 26.76884
#
# Velocity S-wave (km/s) = 4.23125 2.79546 3.58595
# Velocity P-wave (km/s) = 6.00072 5.18510 5.60775
#
# Compressibility (1/GPa) = 0.03957809
#
# Stress axis : x y z
#
# Youngs Moduli (GPa) = 90.86483 32.16179 93.17802
#
# Poissons Ratio (x) = -0.06400 0.15925
# Poissons Ratio (y) = -0.18081 0.64358
# Poissons Ratio (z) = 0.15529 0.22214
#
# Static dielectric constant tensor:
#      x y z
#    x 1.740030 0.000000 0.000000 
#    y 0.000000 1.750730 0.000000 
#    z 0.000000 0.000000 1.720650 
# 
# From -- ./inp_files/17274.got.cif
#   From: 2010.05.17/outbox.cif.g08.bks.cpg/sg39_9_cif.got.tgz:17274.got - 2010.06.03 18:22:40.
