data_PCOD9360341
_publ_section_title
;
Structure prediction by ZEFSAII (Michael W. Deem and Ramdas Pophale) SiO2 
 PCOD9360341
Probable space group: A B M 2
;
_chemical_formula_sum "Si O2"
_cell_formula_units_Z 48
_cell_length_a 9.224219
_cell_length_b 8.538221
_cell_length_c 32.287677
_cell_angle_alpha 90.000000
_cell_angle_beta 90.000000
_cell_angle_gamma 90.000000
_cell_volume 2542.926438
_symmetry_space_group_name_H-M "A B M 2"
_symmetry_group_IT_number 39
_symmetry_cell_setting 'orthorhombic'
loop_
_space_group_symop_operation_xyz
x,y,z
-x,-y,z
-x,1/2+y,z
x,1/2-y,z
x,1/2+y,1/2+z
-x,1/2-y,1/2+z
-x,y,1/2+z
x,-y,1/2+z
loop_
_atom_site_type_symbol
_atom_site_label
_atom_site_fract_x
_atom_site_fract_y
_atom_site_fract_z
Si Si1 0.663186 0.936882 0.304150
Si Si2 0.336901 0.938470 0.645695
Si Si3 0.834447 0.561053 0.883149
Si Si4 0.836664 0.437002 0.224916
Si Si5 0.164740 0.060624 0.064190
Si Si6 0.164673 0.938628 0.473944
O O1 0.662496 0.750000 0.302049
O O2 0.500000 0.000000 0.302455
O O3 0.739708 0.992020 0.346357
O O4 0.752893 0.003466 0.265450
O O5 0.337322 0.750000 0.646904
O O6 0.261566 0.990800 0.602774
O O7 0.500000 0.000000 0.648167
O O8 0.245170 0.001156 0.684290
O O9 0.835833 0.750000 0.880417
O O10 0.775690 0.513502 0.928973
O O11 0.000000 0.500000 0.879642
O O12 0.838089 0.250000 0.224654
O O13 0.000000 0.500000 0.225376
O O14 0.159509 0.250000 0.064780
O O15 0.224678 0.010856 0.018778
O O16 0.000000 0.000000 0.068501
O O17 0.163325 0.750000 0.473868
O O18 0.000000 0.000000 0.474086
#
# Coordination Sequence:
#
# PCOD9360341 Si02
#       6
#     8   8   8   8   8   8
#     4  12  25  42  61  84 115 150 188 230 282 338
#     4  11  23  39  58  83 116 153 191 232 282 336
#     4  10  19  34  57  85 116 151 192 236 282 332
#     4  12  25  43  65  89 115 145 185 230 278 332
#     4   9  18  33  55  82 112 147 189 235 281 331
#     4   8  15  29  51  79 111 146 186 233 280 327
#
# _framework density 18.875889000000001
#
# number of rings (size 3 to 8) (size 9 to 14) (size 15 to 20)
#    0.000    1.667    0.000    5.500    0.000    3.333 
#    0.000    0.833    0.000    2.000    0.000    0.000 
#    0.000    0.000    0.000    0.000    0.000    0.000 
#
# Total GULP energy -134017.095007 kJ/mol
# GULP energy per Si atom -5584.045625 kJ/mol
# Density = 1.883293 g / cm^3
# Si number density = 18.875889 Si / 1000 Ang^3
#
#
#
# Elastic Constant Matrix: (Units=GPa)
#
#
# Indices 1 2 3 4 5 6 
#
# 1 134.9103 44.5006 107.7616 0.0000 0.0000 0.0000
# 2 44.5006 97.7918 62.0262 0.0000 0.0000 0.0000
# 3 107.7616 62.0262 236.3858 0.0000 0.0000 0.0000
# 4 0.0000 0.0000 0.0000 24.1002 0.0000 0.0000
# 5 0.0000 0.0000 0.0000 0.0000 -15.1872 0.0000
# 6 0.0000 0.0000 0.0000 0.0000 0.0000 31.3470
#
#
#
# Elastic Compliance Matrix: (Units=1/GPa)
#
#
# Indices 1 2 3 4 5 6 
#
# 1 0.012113 -0.002411 -0.004889 0.000000 0.000000 0.000000
# 2 -0.002411 0.012747 -0.002246 0.000000 0.000000 0.000000
# 3 -0.004889 -0.002246 0.007049 0.000000 0.000000 0.000000
# 4 0.000000 0.000000 0.000000 0.041493 0.000000 0.000000
# 5 0.000000 0.000000 0.000000 0.000000 -0.065845 0.000000
# 6 0.000000 0.000000 0.000000 0.000000 0.000000 0.031901
#
#
# Mechanical properties :
#
#
# Convention : Reuss Voigt Hill
#
# Bulk Modulus (GPa) = 78.02241 99.74054 88.88147
# Shear Modulus (GPa) = 79.58885 25.03864 52.31374
#
# Velocity S-wave (km/s) = 6.50045 3.64605 5.27018
# Velocity P-wave (km/s) = 9.88763 8.40713 9.17728
#
# Compressibility (1/GPa) = 0.01281683
#
# Stress axis : x y z
#
# Youngs Moduli (GPa) = 82.55553 78.44797 141.87261
#
# Poissons Ratio (x) = 0.18913 0.69367
# Poissons Ratio (y) = 0.19903 0.31861
# Poissons Ratio (z) = 0.40365 0.17617
#
# Static dielectric constant tensor:
#      x y z
#    x 1.596480 0.000000 0.000000 
#    y 0.000000 1.648520 0.000000 
#    z 0.000000 0.000000 1.687820 
# 
# From -- ./inp_files/17584.got.cif
#   From: 2010.05.17/outbox.cif.g08.bks.cpg/sg39_9_cif.got.tgz:17584.got - 2010.06.03 18:22:40.
