data_PCOD9360042
_publ_section_title
;
Structure prediction by ZEFSAII (Michael W. Deem and Ramdas Pophale) SiO2 
 PCOD9360042
Probable space group: A B M 2
;
_chemical_formula_sum "Si O2"
_cell_formula_units_Z 64
_cell_length_a 21.455473
_cell_length_b 8.936655
_cell_length_c 18.953840
_cell_angle_alpha 90.000000
_cell_angle_beta 90.000000
_cell_angle_gamma 90.000000
_cell_volume 3634.212315
_symmetry_space_group_name_H-M "A B M 2"
_symmetry_group_IT_number 39
_symmetry_cell_setting 'orthorhombic'
loop_
_space_group_symop_operation_xyz
x,y,z
-x,-y,z
-x,1/2+y,z
x,1/2-y,z
x,1/2+y,1/2+z
-x,1/2-y,1/2+z
-x,y,1/2+z
x,-y,1/2+z
loop_
_atom_site_type_symbol
_atom_site_label
_atom_site_fract_x
_atom_site_fract_y
_atom_site_fract_z
Si Si1 0.182282 0.430592 0.208440
Si Si2 0.065612 0.070289 0.956538
Si Si3 0.301792 0.932405 0.451857
Si Si4 0.437478 0.578428 0.461242
Si Si5 0.305799 0.929303 0.796891
Si Si6 0.815501 0.932097 0.045750
Si Si7 0.435764 0.423279 0.789280
Si Si8 0.933388 0.570705 0.791114
O O1 0.174892 0.250000 0.211048
O O2 0.247171 0.466681 0.247459
O O3 0.184937 0.478488 0.126916
O O4 0.123747 0.505091 0.247063
O O5 0.061382 0.250000 0.961504
O O6 0.076642 0.033622 0.874101
O O7 0.122761 0.018033 0.004476
O O8 0.000000 0.000000 0.978128
O O9 0.303155 0.750000 0.445843
O O10 0.369406 0.982072 0.481022
O O11 0.245677 0.977458 0.502503
O O12 0.294015 0.999598 0.373937
O O13 0.500000 0.500000 0.486428
O O14 0.440578 0.750000 0.483159
O O15 0.437354 0.573002 0.375369
O O16 0.310542 0.750000 0.803029
O O17 0.371905 0.993136 0.769573
O O18 0.815765 0.750000 0.045078
O O19 0.500000 0.500000 0.765006
O O20 0.433698 0.250000 0.768214
O O21 0.936158 0.750000 0.784305
O O22 0.000000 0.500000 0.770366
#
# Coordination Sequence:
#
# PCOD9360042 Si02
#       8
#     8   8   8   8   8   8   8   8
#     4  10  21  35  51  73 102 135 169 206 247 294
#     4   9  18  33  54  76  97 124 158 198 242 289
#     4   9  17  31  51  71  92 126 170 209 247 293
#     4   8  14  23  39  65  92 117 148 191 240 285
#     4  10  19  30  47  73 103 133 166 206 251 298
#     4   9  18  34  53  71  95 129 168 205 243 289
#     4   9  16  27  45  70  99 129 164 207 253 300
#     4  10  20  35  56  79 102 129 162 202 247 296
#
# _framework density 17.610417999999999
#
# number of rings (size 3 to 8) (size 9 to 14) (size 15 to 20)
#    0.000    2.750    0.000    2.625    0.000    6.000 
#    0.000    3.125    0.000    0.750    0.000    1.750 
#    0.000    0.000    0.000    0.000    0.000    0.000 
#
# Total GULP energy -178379.838320 kJ/mol
# GULP energy per Si atom -5574.369947 kJ/mol
# Density = 1.757034 g / cm^3
# Si number density = 17.610418 Si / 1000 Ang^3
#
#
#
# Elastic Constant Matrix: (Units=GPa)
#
#
# Indices 1 2 3 4 5 6 
#
# 1 222.5116 61.3508 96.8818 0.0000 0.0000 0.0000
# 2 61.3508 40.9487 31.9931 0.0000 0.0000 0.0000
# 3 96.8818 31.9931 76.0467 0.0000 0.0000 0.0000
# 4 0.0000 0.0000 0.0000 12.7914 0.0000 0.0000
# 5 0.0000 0.0000 0.0000 0.0000 -3.8034 0.0000
# 6 0.0000 0.0000 0.0000 0.0000 0.0000 33.4742
#
#
#
# Elastic Compliance Matrix: (Units=1/GPa)
#
#
# Indices 1 2 3 4 5 6 
#
# 1 0.011953 -0.008954 -0.011461 0.000000 0.000000 0.000000
# 2 -0.008954 0.043086 -0.006719 0.000000 0.000000 0.000000
# 3 -0.011461 -0.006719 0.030577 0.000000 0.000000 0.000000
# 4 0.000000 0.000000 0.000000 0.078177 0.000000 0.000000
# 5 0.000000 0.000000 0.000000 0.000000 -0.262925 0.000000
# 6 0.000000 0.000000 0.000000 0.000000 0.000000 0.029874
#
#
# Mechanical properties :
#
#
# Convention : Reuss Voigt Hill
#
# Bulk Modulus (GPa) = 31.89966 79.99538 55.94752
# Shear Modulus (GPa) = -1101.20659 18.44454 -541.38103
#
# Velocity S-wave (km/s) = -25.03344 3.23981 -17.55244
# Velocity P-wave (km/s) = 28.59039 7.71484 19.46653
#
# Compressibility (1/GPa) = 0.03134829
#
# Stress axis : x y z
#
# Youngs Moduli (GPa) = 83.66041 23.20955 32.70386
#
# Poissons Ratio (x) = 0.20782 0.37482
# Poissons Ratio (y) = 0.74911 0.21973
# Poissons Ratio (z) = 0.95883 0.15594
#
# Static dielectric constant tensor:
#      x y z
#    x 1.603820 0.000000 0.000000 
#    y 0.000000 1.597050 0.000000 
#    z 0.000000 0.000000 1.575370 
# 
# From -- ./inp_files/13125.got.cif
#   From: 2010.05.17/outbox.cif.g08.bks.cpg/sg39_7_cif.got.tgz:13125.got - 2010.06.03 18:22:40.
