data_PCOD9360675
_publ_section_title
;
Structure prediction by ZEFSAII (Michael W. Deem and Ramdas Pophale) SiO2 
 PCOD9360675
Probable space group: A B M 2
;
_chemical_formula_sum "Si O2"
_cell_formula_units_Z 48
_cell_length_a 9.199741
_cell_length_b 8.798333
_cell_length_c 31.965731
_cell_angle_alpha 90.000000
_cell_angle_beta 90.000000
_cell_angle_gamma 90.000000
_cell_volume 2587.382500
_symmetry_space_group_name_H-M "A B M 2"
_symmetry_group_IT_number 39
_symmetry_cell_setting 'orthorhombic'
loop_
_space_group_symop_operation_xyz
x,y,z
-x,-y,z
-x,1/2+y,z
x,1/2-y,z
x,1/2+y,1/2+z
-x,1/2-y,1/2+z
-x,y,1/2+z
x,-y,1/2+z
loop_
_atom_site_type_symbol
_atom_site_label
_atom_site_fract_x
_atom_site_fract_y
_atom_site_fract_z
Si Si1 0.660183 0.931947 0.304150
Si Si2 0.338991 0.067700 0.642748
Si Si3 0.837218 0.567702 0.881040
Si Si4 0.839022 0.567850 0.220209
Si Si5 0.162204 0.931714 0.058975
Si Si6 0.162746 0.931716 0.473982
O O1 0.651986 0.750000 0.307629
O O2 0.754598 0.969500 0.263063
O O3 0.500000 0.000000 0.299814
O O4 0.738541 0.999282 0.344862
O O5 0.345164 0.250000 0.646489
O O6 0.257851 0.029838 0.599322
O O7 0.500000 0.000000 0.643122
O O8 0.247981 0.000245 0.681155
O O9 0.846089 0.750000 0.877129
O O10 0.777091 0.532707 0.927805
O O11 0.000000 0.500000 0.877695
O O12 0.846263 0.750000 0.216302
O O13 0.000000 0.500000 0.221404
O O14 0.149971 0.750000 0.055624
O O15 0.000000 0.000000 0.064027
O O16 0.228978 0.996841 0.015841
O O17 0.156156 0.750000 0.478444
O O18 0.000000 0.000000 0.473062
#
# Coordination Sequence:
#
# PCOD9360675 Si02
#       6
#     8   8   8   8   8   8
#     4  11  24  40  59  84 115 151 188 230 281 336
#     4  11  24  40  59  84 115 151 189 231 282 337
#     4  10  20  35  57  85 115 149 191 236 282 333
#     4  11  24  41  63  89 115 146 186 231 278 331
#     4  10  20  34  55  83 112 146 188 233 280 331
#     4   9  17  30  52  81 111 145 185 231 280 328
#
# _framework density 18.551566999999999
#
# number of rings (size 3 to 8) (size 9 to 14) (size 15 to 20)
#    0.000    1.667    0.000    5.500    0.000   11.333 
#    0.000    0.833    0.000    2.000    0.000    0.000 
#    0.000    0.000    0.000    0.000    0.000    0.000 
#
# Total GULP energy -134074.957930 kJ/mol
# GULP energy per Si atom -5586.456580 kJ/mol
# Density = 1.850934 g / cm^3
# Si number density = 18.551567 Si / 1000 Ang^3
#
#
#
# Elastic Constant Matrix: (Units=GPa)
#
#
# Indices 1 2 3 4 5 6 
#
# 1 134.3096 58.1498 105.1248 0.0000 0.0000 0.0000
# 2 58.1498 78.5549 94.2785 0.0000 0.0000 0.0000
# 3 105.1248 94.2785 225.3583 0.0000 0.0000 0.0000
# 4 0.0000 0.0000 0.0000 32.1780 0.0000 0.0000
# 5 0.0000 0.0000 0.0000 0.0000 -27.6167 0.0000
# 6 0.0000 0.0000 0.0000 0.0000 0.0000 32.0853
#
#
#
# Elastic Compliance Matrix: (Units=1/GPa)
#
#
# Indices 1 2 3 4 5 6 
#
# 1 0.012479 -0.004521 -0.003930 0.000000 0.000000 0.000000
# 2 -0.004521 0.027205 -0.009272 0.000000 0.000000 0.000000
# 3 -0.003930 -0.009272 0.010149 0.000000 0.000000 0.000000
# 4 0.000000 0.000000 0.000000 0.031077 0.000000 0.000000
# 5 0.000000 0.000000 0.000000 0.000000 -0.036210 0.000000
# 6 0.000000 0.000000 0.000000 0.000000 0.000000 0.031167
#
#
# Mechanical properties :
#
#
# Convention : Reuss Voigt Hill
#
# Bulk Modulus (GPa) = 69.50637 105.92544 87.71591
# Shear Modulus (GPa) = 43.06345 19.37397 31.21871
#
# Velocity S-wave (km/s) = 4.82320 3.23512 4.10665
# Velocity P-wave (km/s) = 8.28043 8.43661 8.35889
#
# Compressibility (1/GPa) = 0.01438717
#
# Stress axis : x y z
#
# Youngs Moduli (GPa) = 80.13699 36.75861 98.52780
#
# Poissons Ratio (x) = 0.16619 0.38718
# Poissons Ratio (y) = 0.36230 0.91355
# Poissons Ratio (z) = 0.31491 0.34083
#
# Static dielectric constant tensor:
#      x y z
#    x 1.594910 0.000000 0.000000 
#    y 0.000000 1.622160 0.000000 
#    z 0.000000 0.000000 1.659120 
# 
# From -- ./inp_files/17604.got.cif
#   From: 2010.05.17/outbox.cif.g08.bks.cpg/sg39_9_cif.got.tgz:17604.got - 2010.06.03 18:22:40.
