data_PCOD9360936
_publ_section_title
;
Structure prediction by ZEFSAII (Michael W. Deem and Ramdas Pophale) SiO2 
 PCOD9360936
Probable space group: A B M 2
;
_chemical_formula_sum "Si O2"
_cell_formula_units_Z 56
_cell_length_a 19.909685
_cell_length_b 8.958211
_cell_length_c 16.207834
_cell_angle_alpha 90.000000
_cell_angle_beta 90.000000
_cell_angle_gamma 90.000000
_cell_volume 2890.750813
_symmetry_space_group_name_H-M "A B M 2"
_symmetry_group_IT_number 39
_symmetry_cell_setting 'orthorhombic'
loop_
_space_group_symop_operation_xyz
x,y,z
-x,-y,z
-x,1/2+y,z
x,1/2-y,z
x,1/2+y,1/2+z
-x,1/2-y,1/2+z
-x,y,1/2+z
x,-y,1/2+z
loop_
_atom_site_type_symbol
_atom_site_label
_atom_site_fract_x
_atom_site_fract_y
_atom_site_fract_z
Si Si1 0.287500 0.429106 0.551960
Si Si2 0.568548 0.428653 0.122830
Si Si3 0.714211 0.071339 0.377850
Si Si4 0.842276 0.928551 0.305792
Si Si5 0.073459 0.930145 0.968510
Si Si6 0.431601 0.928676 0.317227
Si Si7 0.150647 0.571871 0.136818
O O1 0.287022 0.250000 0.536233
O O2 0.361861 0.474264 0.580649
O O3 0.269369 0.515323 0.469176
O O4 0.229496 0.457245 0.618647
O O5 0.500000 0.500000 0.089487
O O6 0.563421 0.250000 0.116486
O O7 0.573289 0.466947 0.219999
O O8 0.717721 0.250000 0.370616
O O9 0.637795 0.023336 0.358758
O O10 0.768475 0.998087 0.317941
O O11 0.838229 0.750000 0.304702
O O12 0.885434 0.974154 0.386285
O O13 0.871030 0.988426 0.219554
O O14 0.069377 0.750000 0.967919
O O15 0.111300 0.972172 0.053468
O O16 0.000000 0.000000 0.966870
O O17 0.436729 0.750000 0.324033
O O18 0.500000 0.000000 0.350640
O O19 0.142533 0.750000 0.148087
#
# Coordination Sequence:
#
# PCOD9360936 Si02
#       7
#     8   8   8   8   8   8   8
#     4  10  20  37  58  80 115 156 196 246 306 358
#     4   9  18  33  53  74 104 147 191 242 300 356
#     4  11  22  36  57  85 117 154 201 253 303 358
#     4  11  23  41  64  93 125 162 206 250 299 360
#     4  10  23  43  66  92 128 163 198 245 299 358
#     4   9  19  35  53  76 107 147 195 247 302 360
#     4  10  21  41  65  90 123 162 202 249 302 357
#
# _framework density 19.372129000000001
#
# number of rings (size 3 to 8) (size 9 to 14) (size 15 to 20)
#    0.000    2.000    1.429    1.714    0.000    7.429 
#    0.000    8.571    0.000    0.000    0.000    0.000 
#    0.000    0.000    0.000    0.000    0.000    0.000 
#
# Total GULP energy -156349.268918 kJ/mol
# GULP energy per Si atom -5583.902461 kJ/mol
# Density = 1.932804 g / cm^3
# Si number density = 19.372129 Si / 1000 Ang^3
#
#
#
# Elastic Constant Matrix: (Units=GPa)
#
#
# Indices 1 2 3 4 5 6 
#
# 1 123.6713 33.7212 55.3799 0.0000 0.0000 0.0000
# 2 33.7212 21.6219 41.1074 0.0000 0.0000 0.0000
# 3 55.3799 41.1074 126.0453 0.0000 0.0000 0.0000
# 4 0.0000 0.0000 0.0000 29.4791 0.0000 0.0000
# 5 0.0000 0.0000 0.0000 0.0000 17.6170 0.0000
# 6 0.0000 0.0000 0.0000 0.0000 0.0000 33.5775
#
#
#
# Elastic Compliance Matrix: (Units=1/GPa)
#
#
# Indices 1 2 3 4 5 6 
#
# 1 0.014391 -0.027431 0.002623 0.000000 0.000000 0.000000
# 2 -0.027431 0.174011 -0.044698 0.000000 0.000000 0.000000
# 3 0.002623 -0.044698 0.021359 0.000000 0.000000 0.000000
# 4 0.000000 0.000000 0.000000 0.033922 0.000000 0.000000
# 5 0.000000 0.000000 0.000000 0.000000 0.056763 0.000000
# 6 0.000000 0.000000 0.000000 0.000000 0.000000 0.029782
#
#
# Mechanical properties :
#
#
# Convention : Reuss Voigt Hill
#
# Bulk Modulus (GPa) = 14.13466 59.08397 36.60931
# Shear Modulus (GPa) = 10.14563 25.54340 17.84451
#
# Velocity S-wave (km/s) = 2.29098 3.63514 3.03833
# Velocity P-wave (km/s) = 3.78290 6.94152 5.58995
#
# Compressibility (1/GPa) = 0.07074808
#
# Stress axis : x y z
#
# Youngs Moduli (GPa) = 69.48863 5.74676 46.81969
#
# Poissons Ratio (x) = 0.15764 -0.12283
# Poissons Ratio (y) = 1.90617 2.09276
# Poissons Ratio (z) = -0.18230 0.25687
#
# Static dielectric constant tensor:
#      x y z
#    x 1.673510 0.000000 0.000000 
#    y 0.000000 1.647960 0.000000 
#    z 0.000000 0.000000 1.688530 
# 
# From -- ./inp_files/10355.got.cif
#   From: 2010.05.17/outbox.cif.g08.bks.cpg/sg39_6_cif.got.tgz:10355.got - 2010.06.03 18:22:40.
