data_PCOD9360065
_publ_section_title
;
Structure prediction by ZEFSAII (Michael W. Deem and Ramdas Pophale) SiO2 
 PCOD9360065
Probable space group: A B M 2
;
_chemical_formula_sum "Si O2"
_cell_formula_units_Z 40
_cell_length_a 9.988169
_cell_length_b 8.473262
_cell_length_c 26.865717
_cell_angle_alpha 90.000000
_cell_angle_beta 90.000000
_cell_angle_gamma 90.000000
_cell_volume 2273.709378
_symmetry_space_group_name_H-M "A B M 2"
_symmetry_group_IT_number 39
_symmetry_cell_setting 'orthorhombic'
loop_
_space_group_symop_operation_xyz
x,y,z
-x,-y,z
-x,1/2+y,z
x,1/2-y,z
x,1/2+y,1/2+z
-x,1/2-y,1/2+z
-x,y,1/2+z
x,-y,1/2+z
loop_
_atom_site_type_symbol
_atom_site_label
_atom_site_fract_x
_atom_site_fract_y
_atom_site_fract_z
Si Si1 0.350479 0.559210 0.019050
Si Si2 0.152226 0.561158 0.218739
Si Si3 0.649620 0.059305 0.132091
Si Si4 0.152910 0.439026 0.323282
Si Si5 0.152026 0.059280 0.432775
O O1 0.500000 0.500000 0.008402
O O2 0.351277 0.750000 0.018184
O O3 0.315645 0.509170 0.075561
O O4 0.245865 0.503383 0.977576
O O5 0.147323 0.750000 0.218308
O O6 0.244396 0.504913 0.173249
O O7 0.210601 0.507232 0.272177
O O8 0.000000 0.500000 0.214051
O O9 0.648238 0.250000 0.132877
O O10 0.500000 0.000000 0.142896
O O11 0.153639 0.250000 0.319893
O O12 0.206495 0.486475 0.377759
O O13 0.000000 0.500000 0.323872
O O14 0.148226 0.250000 0.433802
O O15 0.000000 0.000000 0.438000
#
# Coordination Sequence:
#
# PCOD9360065 Si02
#       5
#     8   8   8   8   8
#     4   9  18  34  51  69  94 124 156 193 233 277
#     4  10  19  31  48  72  97 123 155 193 232 275
#     4   9  19  34  51  69  93 124 158 193 233 277
#     4   9  16  28  46  68  94 125 155 188 230 275
#     4   9  18  31  49  72  97 122 154 193 232 274
#
# _framework density 17.592397999999999
#
# number of rings (size 3 to 8) (size 9 to 14) (size 15 to 20)
#    0.000    2.800    0.000    2.400    0.000    4.000 
#    0.000    1.000    0.000    4.800    0.000    0.000 
#    0.000    0.000    0.000    0.000    0.000    0.000 
#
# Total GULP energy -111408.547731 kJ/mol
# GULP energy per Si atom -5570.427387 kJ/mol
# Density = 1.755236 g / cm^3
# Si number density = 17.592398 Si / 1000 Ang^3
#
#
#
# Elastic Constant Matrix: (Units=GPa)
#
#
# Indices 1 2 3 4 5 6 
#
# 1 75.5265 13.6277 101.7398 0.0000 0.0000 0.0000
# 2 13.6277 19.1202 28.9882 0.0000 0.0000 0.0000
# 3 101.7398 28.9882 195.4823 0.0000 0.0000 0.0000
# 4 0.0000 0.0000 0.0000 20.0077 0.0000 0.0000
# 5 0.0000 0.0000 0.0000 0.0000 -5.1610 0.0000
# 6 0.0000 0.0000 0.0000 0.0000 0.0000 22.5565
#
#
#
# Elastic Compliance Matrix: (Units=1/GPa)
#
#
# Indices 1 2 3 4 5 6 
#
# 1 0.044580 0.004389 -0.023853 0.000000 0.000000 0.000000
# 2 0.004389 0.067901 -0.012354 0.000000 0.000000 0.000000
# 3 -0.023853 -0.012354 0.019362 0.000000 0.000000 0.000000
# 4 0.000000 0.000000 0.000000 0.049981 0.000000 0.000000
# 5 0.000000 0.000000 0.000000 0.000000 -0.193760 0.000000
# 6 0.000000 0.000000 0.000000 0.000000 0.000000 0.044333
#
#
# Mechanical properties :
#
#
# Convention : Reuss Voigt Hill
#
# Bulk Modulus (GPa) = 14.66078 64.31560 39.48819
# Shear Modulus (GPa) = 42.09941 17.19887 29.64914
#
# Velocity S-wave (km/s) = 4.89718 3.13010 4.10974
# Velocity P-wave (km/s) = 6.35045 7.04993 6.70931
#
# Compressibility (1/GPa) = 0.06820918
#
# Stress axis : x y z
#
# Youngs Moduli (GPa) = 22.43172 14.72723 51.64823
#
# Poissons Ratio (x) = -0.06465 1.23195
# Poissons Ratio (y) = -0.09846 0.63805
# Poissons Ratio (z) = 0.53506 0.18194
#
# Static dielectric constant tensor:
#      x y z
#    x 1.551940 0.000000 0.000000 
#    y 0.000000 1.607480 0.000000 
#    z 0.000000 0.000000 1.653740 
# 
# From -- ./inp_files/14353.got.cif
#   From: 2010.05.17/outbox.cif.g08.bks.cpg/sg39_8_cif.got.tgz:14353.got - 2010.06.03 18:22:40.
