data_PCOD9360886
_publ_section_title
;
Structure prediction by ZEFSAII (Michael W. Deem and Ramdas Pophale) SiO2 
 PCOD9360886
Probable space group: A B M 2
;
_chemical_formula_sum "Si O2"
_cell_formula_units_Z 60
_cell_length_a 17.420840
_cell_length_b 14.920669
_cell_length_c 9.988504
_cell_angle_alpha 90.000000
_cell_angle_beta 90.000000
_cell_angle_gamma 90.000000
_cell_volume 2596.317711
_symmetry_space_group_name_H-M "A B M 2"
_symmetry_group_IT_number 39
_symmetry_cell_setting 'orthorhombic'
loop_
_space_group_symop_operation_xyz
x,y,z
-x,-y,z
-x,1/2+y,z
x,1/2-y,z
x,1/2+y,1/2+z
-x,1/2-y,1/2+z
-x,y,1/2+z
x,-y,1/2+z
loop_
_atom_site_type_symbol
_atom_site_label
_atom_site_fract_x
_atom_site_fract_y
_atom_site_fract_z
Si Si1 0.094900 0.147924 0.797710
Si Si2 0.758274 0.346965 0.937961
Si Si3 0.608386 0.346395 0.749720
Si Si4 0.500000 0.500000 0.846660
Si Si5 0.151926 0.847532 0.684589
Si Si6 0.003989 0.106573 0.544594
Si Si7 0.377470 0.646849 0.437638
Si Si8 0.774076 0.048472 0.456731
O O1 0.124068 0.250000 0.812729
O O2 0.075553 0.131580 0.640800
O O3 0.154307 0.075223 0.859445
O O4 0.019973 0.141305 0.896967
O O5 0.759010 0.250000 0.009989
O O6 0.682865 0.346630 0.843497
O O7 0.832461 0.351047 0.840953
O O8 0.756938 0.445903 0.993944
O O9 0.567663 0.250000 0.778128
O O10 0.558351 0.434941 0.769650
O O11 0.631599 0.344623 0.596373
O O12 0.553023 0.576019 0.917267
O O13 0.178312 0.750000 0.639213
O O14 0.202671 0.914133 0.600782
O O15 0.066130 0.860484 0.637042
O O16 0.000000 0.000000 0.535206
O O17 0.386786 0.750000 0.385487
O O18 0.299364 0.597792 0.392454
#
# Coordination Sequence:
#
# PCOD9360886 Si02
#       8
#     8   8   8   4   8   8   8   8
#     4  11  23  40  64  94 130 168 213 268 324 388
#     4  10  20  36  60  86 115 153 199 249 301 364
#     4  10  21  38  58  86 121 157 199 243 302 377
#     4  12  22  38  60  92 120 158 196 258 314 354
#     4  10  20  38  63  85 113 160 209 245 296 379
#     4  11  22  38  60  92 127 166 210 262 321 379
#     4  11  22  38  62  90 121 160 207 252 305 373
#     4  11  20  37  63  91 115 158 211 259 303 363
#
# _framework density 23.109650999999999
#
# number of rings (size 3 to 8) (size 9 to 14) (size 15 to 20)
#    0.000    1.333    2.667    5.200    0.000    1.067 
#    0.000    0.000    0.000   14.400    0.000    0.000 
#    0.000    0.000    0.000    0.000    0.000    0.000 
#
# Total GULP energy -167316.005382 kJ/mol
# GULP energy per Si atom -5577.200179 kJ/mol
# Density = 2.305705 g / cm^3
# Si number density = 23.109651 Si / 1000 Ang^3
#
#
#
# Elastic Constant Matrix: (Units=GPa)
#
#
# Indices 1 2 3 4 5 6 
#
# 1 73.0295 28.2003 17.1821 0.0000 0.0000 0.0000
# 2 28.2003 198.0101 17.0810 0.0000 0.0000 0.0000
# 3 17.1821 17.0810 46.0760 0.0000 0.0000 0.0000
# 4 0.0000 0.0000 0.0000 -29.9344 0.0000 0.0000
# 5 0.0000 0.0000 0.0000 0.0000-2111.7102 0.0000
# 6 0.0000 0.0000 0.0000 0.0000 0.0000 26.1867
#
#
#
# Elastic Compliance Matrix: (Units=1/GPa)
#
#
# Indices 1 2 3 4 5 6 
#
# 1 0.015592 -0.001776 -0.005156 0.000000 0.000000 0.000000
# 2 -0.001776 0.005419 -0.001347 0.000000 0.000000 0.000000
# 3 -0.005156 -0.001347 0.024125 0.000000 0.000000 0.000000
# 4 0.000000 0.000000 0.000000 -0.033406 0.000000 0.000000
# 5 0.000000 0.000000 0.000000 0.000000 -0.000474 0.000000
# 6 0.000000 0.000000 0.000000 0.000000 0.000000 0.038187
#
#
# Mechanical properties :
#
#
# Convention : Reuss Voigt Hill
#
# Bulk Modulus (GPa) = 34.99043 49.11582 42.05313
# Shear Modulus (GPa) = 66.20083 -406.11478 -169.95698
#
# Velocity S-wave (km/s) = 5.35804 -13.27085 -8.58507
# Velocity P-wave (km/s) = 7.31109 14.61236 8.94620
#
# Compressibility (1/GPa) = 0.02857924
#
# Stress axis : x y z
#
# Youngs Moduli (GPa) = 64.13584 184.52452 41.45024
#
# Poissons Ratio (x) = 0.32768 0.21372
# Poissons Ratio (y) = 0.11389 0.05583
# Poissons Ratio (z) = 0.33069 0.24852
#
# Static dielectric constant tensor:
#      x y z
#    x 4.486660 0.000000 0.000000 
#    y 0.000000 1.910880 0.000000 
#    z 0.000000 0.000000 1.868060 
# 
# From -- ./inp_files/6860.got.cif
#   From: 2010.05.17/outbox.cif.g08.bks.cpg/sg39_4_cif.got.tgz:6860.got - 2010.06.03 18:22:40.
