data_PCOD9360053
_publ_section_title
;
Structure prediction by ZEFSAII (Michael W. Deem and Ramdas Pophale) SiO2 
 PCOD9360053
Probable space group: A B M 2
;
_chemical_formula_sum "Si O2"
_cell_formula_units_Z 60
_cell_length_a 12.772212
_cell_length_b 18.149572
_cell_length_c 14.585002
_cell_angle_alpha 90.000000
_cell_angle_beta 90.000000
_cell_angle_gamma 90.000000
_cell_volume 3380.951958
_symmetry_space_group_name_H-M "A B M 2"
_symmetry_group_IT_number 39
_symmetry_cell_setting 'orthorhombic'
loop_
_space_group_symop_operation_xyz
x,y,z
-x,-y,z
-x,1/2+y,z
x,1/2-y,z
x,1/2+y,1/2+z
-x,1/2-y,1/2+z
-x,y,1/2+z
x,-y,1/2+z
loop_
_atom_site_type_symbol
_atom_site_label
_atom_site_fract_x
_atom_site_fract_y
_atom_site_fract_z
Si Si1 0.567476 0.835476 0.629910
Si Si2 0.121485 0.511284 0.850669
Si Si3 0.291322 0.042339 0.709636
Si Si4 0.258570 0.475080 0.013152
Si Si5 0.220306 0.333939 0.306424
Si Si6 0.400425 0.396666 0.428981
Si Si7 0.330394 0.164044 0.113568
Si Si8 0.500000 0.000000 0.305424
O O1 0.417771 0.750000 0.145585
O O2 0.655887 0.880018 0.684171
O O3 0.574817 0.855155 0.522285
O O4 0.446735 0.854737 0.651010
O O5 0.199441 0.466383 0.783070
O O6 0.147445 0.597989 0.835964
O O7 0.000000 0.500000 0.832397
O O8 0.155193 0.484148 0.952072
O O9 0.393576 0.999381 0.747410
O O10 0.250393 0.008988 0.614558
O O11 0.298195 0.392521 0.033603
O O12 0.341045 0.527897 0.960260
O O13 0.182408 0.250000 0.321183
O O14 0.324258 0.347715 0.367009
O O15 0.251879 0.342049 0.199746
O O16 0.495672 0.427081 0.368684
O O17 0.333049 0.250000 0.084423
#
# Coordination Sequence:
#
# PCOD9360053 Si02
#       8
#     8   8   8   8   8   8   8   4
#     4  10  21  33  51  87 128 165 193 235 301 368
#     4  11  24  42  62  89 114 156 212 264 313 363
#     4  11  21  36  61  85 120 156 198 248 300 374
#     4  10  19  38  55  84 115 156 195 245 302 359
#     4  10  19  37  60  83 111 150 199 248 296 350
#     4  10  19  30  55  83 121 154 196 239 280 361
#     4  10  19  34  55  84 122 157 194 237 294 365
#     4  12  18  32  58  94 118 154 200 238 304 350
#
# _framework density 17.746479999999998
#
# number of rings (size 3 to 8) (size 9 to 14) (size 15 to 20)
#    0.000    1.600    4.000    2.800    0.000    2.667 
#    0.000    2.667    0.000    0.000    0.000    0.000 
#    0.000    0.000    0.000    0.000    0.000    0.000 
#
# Total GULP energy -167278.243277 kJ/mol
# GULP energy per Si atom -5575.941443 kJ/mol
# Density = 1.770609 g / cm^3
# Si number density = 17.746480 Si / 1000 Ang^3
#
#
#
# Elastic Constant Matrix: (Units=GPa)
#
#
# Indices 1 2 3 4 5 6 
#
# 1 104.6336 45.7778 36.8827 0.0000 0.0000 0.0000
# 2 45.7778 111.6352 22.1042 0.0000 0.0000 0.0000
# 3 36.8827 22.1042 73.6715 0.0000 0.0000 0.0000
# 4 0.0000 0.0000 0.0000 25.5101 0.0000 0.0000
# 5 0.0000 0.0000 0.0000 0.0000 13.0386 0.0000
# 6 0.0000 0.0000 0.0000 0.0000 0.0000 13.0676
#
#
#
# Elastic Compliance Matrix: (Units=1/GPa)
#
#
# Indices 1 2 3 4 5 6 
#
# 1 0.013388 -0.004426 -0.005375 0.000000 0.000000 0.000000
# 2 -0.004426 0.010987 -0.001081 0.000000 0.000000 0.000000
# 3 -0.005375 -0.001081 0.016589 0.000000 0.000000 0.000000
# 4 0.000000 0.000000 0.000000 0.039200 0.000000 0.000000
# 5 0.000000 0.000000 0.000000 0.000000 0.076695 0.000000
# 6 0.000000 0.000000 0.000000 0.000000 0.000000 0.076525
#
#
# Mechanical properties :
#
#
# Convention : Reuss Voigt Hill
#
# Bulk Modulus (GPa) = 52.08014 55.49663 53.78838
# Shear Modulus (GPa) = 19.11704 22.66829 20.89267
#
# Velocity S-wave (km/s) = 3.28568 3.57787 3.43488
# Velocity P-wave (km/s) = 6.61851 6.95758 6.79016
#
# Compressibility (1/GPa) = 0.01920118
#
# Stress axis : x y z
#
# Youngs Moduli (GPa) = 74.69380 91.02012 60.28176
#
# Poissons Ratio (x) = 0.40283 0.32399
# Poissons Ratio (y) = 0.33058 0.06514
# Poissons Ratio (z) = 0.40145 0.09836
#
# Static dielectric constant tensor:
#      x y z
#    x 1.590960 0.000000 0.000000 
#    y 0.000000 1.641520 0.000000 
#    z 0.000000 0.000000 1.646680 
# 
# From -- ./inp_files/9410.got.cif
#   From: 2010.05.17/outbox.cif.g08.bks.cpg/sg39_5_cif.got.tgz:9410.got - 2010.06.03 18:22:40.
