data_PCOD9360199
_publ_section_title
;
Structure prediction by ZEFSAII (Michael W. Deem and Ramdas Pophale) SiO2 
 PCOD9360199
Probable space group: A B M 2
;
_chemical_formula_sum "Si O2"
_cell_formula_units_Z 64
_cell_length_a 9.812129
_cell_length_b 25.772050
_cell_length_c 11.303415
_cell_angle_alpha 90.000000
_cell_angle_beta 90.000000
_cell_angle_gamma 90.000000
_cell_volume 2858.392656
_symmetry_space_group_name_H-M "A B M 2"
_symmetry_group_IT_number 39
_symmetry_cell_setting 'orthorhombic'
loop_
_space_group_symop_operation_xyz
x,y,z
-x,-y,z
-x,1/2+y,z
x,1/2-y,z
x,1/2+y,1/2+z
-x,1/2-y,1/2+z
-x,y,1/2+z
x,-y,1/2+z
loop_
_atom_site_type_symbol
_atom_site_label
_atom_site_fract_x
_atom_site_fract_y
_atom_site_fract_z
Si Si1 0.433214 0.306955 0.906100
Si Si2 0.905374 0.685996 0.162812
Si Si3 0.648095 0.971638 0.053627
Si Si4 0.631119 0.358777 0.627123
Si Si5 0.023407 0.308839 0.896567
Si Si6 0.335868 0.510700 0.297725
Si Si7 0.279089 0.190319 0.492813
Si Si8 0.331091 0.627565 0.220892
O O1 0.441872 0.250000 0.854479
O O2 0.316563 0.336456 0.834693
O O3 0.390557 0.309562 0.042453
O O4 0.589124 0.326246 0.917394
O O5 0.896580 0.750000 0.167332
O O6 0.768626 0.654527 0.193477
O O7 0.019890 0.670649 0.260899
O O8 0.928098 0.670402 0.024677
O O9 0.634917 0.909728 0.042703
O O10 0.500000 0.000000 0.062276
O O11 0.712676 0.977696 0.184553
O O12 0.714039 0.994416 0.933538
O O13 0.494939 0.367995 0.700618
O O14 0.077995 0.250000 0.890368
O O15 0.860277 0.307133 0.922239
O O16 0.500000 0.500000 0.307626
O O17 0.304128 0.568765 0.254041
O O18 0.305640 0.250000 0.534464
O O19 0.269268 0.151189 0.602541
#
# Coordination Sequence:
#
# PCOD9360199 Si02
#       8
#     8   8   8   8   8   8   8   8
#     4  10  20  31  47  76 118 155 185 223 278 352
#     4  10  21  37  59  82 113 154 199 247 293 340
#     4  10  19  35  53  77 115 148 183 235 274 337
#     4  11  20  33  53  83 116 149 191 234 292 347
#     4   9  19  38  56  77 109 154 203 245 283 335
#     4  10  19  33  52  75 111 149 188 229 272 331
#     4   9  19  32  49  75 112 152 192 230 278 344
#     4  11  19  31  50  79 116 154 187 230 283 354
#
# _framework density 22.390207
#
# number of rings (size 3 to 8) (size 9 to 14) (size 15 to 20)
#    0.000    2.000    3.750    1.500    0.000    3.500 
#    2.250    2.500    0.000    0.000    0.000    0.875 
#    0.000    0.000    0.000    0.000    0.000    0.000 
#
# Total GULP energy -178144.975615 kJ/mol
# GULP energy per Si atom -5567.030488 kJ/mol
# Density = 2.233925 g / cm^3
# Si number density = 22.390207 Si / 1000 Ang^3
#
#
#
# Elastic Constant Matrix: (Units=GPa)
#
#
# Indices 1 2 3 4 5 6 
#
# 1 39.5416 -3.2222 6.4390 0.0000 0.0000 0.0000
# 2 -3.2222 40.3242 9.4819 0.0000 0.0000 0.0000
# 3 6.4390 9.4819 123.5196 0.0000 0.0000 0.0000
# 4 0.0000 0.0000 0.0000 10.3932 0.0000 0.0000
# 5 0.0000 0.0000 0.0000 0.0000 30.1002 0.0000
# 6 0.0000 0.0000 0.0000 0.0000 0.0000 10.6240
#
#
#
# Elastic Compliance Matrix: (Units=1/GPa)
#
#
# Indices 1 2 3 4 5 6 
#
# 1 0.025735 0.002415 -0.001527 0.000000 0.000000 0.000000
# 2 0.002415 0.025482 -0.002082 0.000000 0.000000 0.000000
# 3 -0.001527 -0.002082 0.008335 0.000000 0.000000 0.000000
# 4 0.000000 0.000000 0.000000 0.096216 0.000000 0.000000
# 5 0.000000 0.000000 0.000000 0.000000 0.033222 0.000000
# 6 0.000000 0.000000 0.000000 0.000000 0.000000 0.094126
#
#
# Mechanical properties :
#
#
# Convention : Reuss Voigt Hill
#
# Bulk Modulus (GPa) = 17.49316 25.42032 21.45674
# Shear Modulus (GPa) = 16.41716 22.93593 19.67655
#
# Velocity S-wave (km/s) = 2.71076 3.20406 2.96767
# Velocity P-wave (km/s) = 4.19850 5.00659 4.62025
#
# Compressibility (1/GPa) = 0.05716521
#
# Stress axis : x y z
#
# Youngs Moduli (GPa) = 38.85709 39.24404 119.97161
#
# Poissons Ratio (x) = -0.09479 0.18320
# Poissons Ratio (y) = -0.09386 0.24978
# Poissons Ratio (z) = 0.05933 0.08171
#
# Static dielectric constant tensor:
#      x y z
#    x 1.876570 0.000000 0.000000 
#    y 0.000000 1.981310 0.000000 
#    z 0.000000 0.000000 2.014970 
# 
# From -- ./inp_files/6126.got.cif
#   From: 2010.05.17/outbox.cif.g08.bks.cpg/sg39_4_cif.got.tgz:6126.got - 2010.06.03 18:22:40.
