data_PCOD9360058
_publ_section_title
;
Structure prediction by ZEFSAII (Michael W. Deem and Ramdas Pophale) SiO2 
 PCOD9360058
Probable space group: A B M 2
;
_chemical_formula_sum "Si O2"
_cell_formula_units_Z 56
_cell_length_a 34.381622
_cell_length_b 14.123541
_cell_length_c 5.067015
_cell_angle_alpha 90.000000
_cell_angle_beta 90.000000
_cell_angle_gamma 90.000000
_cell_volume 2460.493070
_symmetry_space_group_name_H-M "A B M 2"
_symmetry_group_IT_number 39
_symmetry_cell_setting 'orthorhombic'
loop_
_space_group_symop_operation_xyz
x,y,z
-x,-y,z
-x,1/2+y,z
x,1/2-y,z
x,1/2+y,1/2+z
-x,1/2-y,1/2+z
-x,y,1/2+z
x,-y,1/2+z
loop_
_atom_site_type_symbol
_atom_site_label
_atom_site_fract_x
_atom_site_fract_y
_atom_site_fract_z
Si Si1 0.395723 0.937767 0.191800
Si Si2 0.478290 0.363180 0.518230
Si Si3 0.850218 0.863021 0.521087
Si Si4 0.105146 0.634175 0.522271
Si Si5 0.022779 0.865455 0.752084
Si Si6 0.232482 0.562094 0.192408
Si Si7 0.685931 0.066073 0.063767
O O1 0.435604 0.887281 0.119739
O O2 0.355262 0.884868 0.123295
O O3 0.395122 0.971695 0.493534
O O4 0.480884 0.250000 0.507379
O O5 0.489479 0.397852 0.227704
O O6 0.852951 0.750000 0.515439
O O7 0.861182 0.894950 0.227745
O O8 0.807531 0.887989 0.620532
O O9 0.882573 0.896269 0.731006
O O10 0.103517 0.750000 0.515800
O O11 0.063937 0.602337 0.637418
O O12 0.024206 0.750000 0.754657
O O13 0.988964 0.893248 0.546585
O O14 0.233179 0.528480 0.494361
O O15 0.272879 0.615187 0.123306
O O16 0.685926 0.977354 0.270855
#
# Coordination Sequence:
#
# PCOD9360058 Si02
#       7
#     8   8   8   8   8   8   8
#     4  10  19  32  52  75  96 122 162 204 240 282
#     4  10  21  35  49  69 101 135 162 195 243 289
#     4  10  19  31  47  69  98 127 154 189 237 284
#     4   9  17  28  42  63  95 128 152 187 240 283
#     4   9  15  23  37  58  86 120 154 185 224 278
#     4  10  19  33  52  72  96 126 161 196 234 282
#     4   8  16  30  48  70  95 122 152 195 244 281
#
# _framework density 22.759665999999999
#
# number of rings (size 3 to 8) (size 9 to 14) (size 15 to 20)
#    0.000    2.571    0.000    2.571    0.000    5.143 
#    0.000    0.714    0.000    0.000    0.000   18.000 
#    0.000   40.000    0.000    0.000    0.000    0.000 
#
# Total GULP energy -156368.936780 kJ/mol
# GULP energy per Si atom -5584.604885 kJ/mol
# Density = 2.270786 g / cm^3
# Si number density = 22.759666 Si / 1000 Ang^3
#
#
#
# Elastic Constant Matrix: (Units=GPa)
#
#
# Indices 1 2 3 4 5 6 
#
# 1 104.1050 -4.6057 -5.5771 0.0000 0.0000 0.0000
# 2 -4.6057 46.8909 -9.0621 0.0000 0.0000 0.0000
# 3 -5.5771 -9.0621 87.0431 0.0000 0.0000 0.0000
# 4 0.0000 0.0000 0.0000 3.0544 0.0000 0.0000
# 5 0.0000 0.0000 0.0000 0.0000 39.5606 0.0000
# 6 0.0000 0.0000 0.0000 0.0000 0.0000 -1.1403
#
#
#
# Elastic Compliance Matrix: (Units=1/GPa)
#
#
# Indices 1 2 3 4 5 6 
#
# 1 0.009693 0.001094 0.000735 0.000000 0.000000 0.000000
# 2 0.001094 0.021888 0.002349 0.000000 0.000000 0.000000
# 3 0.000735 0.002349 0.011780 0.000000 0.000000 0.000000
# 4 0.000000 0.000000 0.000000 0.327392 0.000000 0.000000
# 5 0.000000 0.000000 0.000000 0.000000 0.025278 0.000000
# 6 0.000000 0.000000 0.000000 0.000000 0.000000 -0.876976
#
#
# Mechanical properties :
#
#
# Convention : Reuss Voigt Hill
#
# Bulk Modulus (GPa) = 19.33594 22.17211 20.75403
# Shear Modulus (GPa) = -10.59184 25.44720 7.42768
#
# Velocity S-wave (km/s) = -2.15960 3.34740 1.80848
# Velocity P-wave (km/s) = 1.51514 4.97022 3.67415
#
# Compressibility (1/GPa) = 0.05171716
#
# Stress axis : x y z
#
# Youngs Moduli (GPa) = 103.16220 45.68814 84.88823
#
# Poissons Ratio (x) = -0.04999 -0.06239
# Poissons Ratio (y) = -0.11288 -0.19939
# Poissons Ratio (z) = -0.07582 -0.10731
#
# Static dielectric constant tensor:
#      x y z
#    x 1.889570 0.000000 0.000000 
#    y 0.000000 1.848840 0.000000 
#    z 0.000000 0.000000 1.806210 
# 
# From -- ./inp_files/1490.got.cif
#   From: 2010.05.17/outbox.cif.g08.bks.cpg/sg39_1_cif.got.tgz:1490.got - 2010.06.03 18:22:40.
