data_PCOD9360342
_publ_section_title
;
Structure prediction by ZEFSAII (Michael W. Deem and Ramdas Pophale) SiO2 
 PCOD9360342
Probable space group: A B M 2
;
_chemical_formula_sum "Si O2"
_cell_formula_units_Z 40
_cell_length_a 14.902103
_cell_length_b 8.615916
_cell_length_c 15.946767
_cell_angle_alpha 90.000000
_cell_angle_beta 90.000000
_cell_angle_gamma 90.000000
_cell_volume 2047.489417
_symmetry_space_group_name_H-M "A B M 2"
_symmetry_group_IT_number 39
_symmetry_cell_setting 'orthorhombic'
loop_
_space_group_symop_operation_xyz
x,y,z
-x,-y,z
-x,1/2+y,z
x,1/2-y,z
x,1/2+y,1/2+z
-x,1/2-y,1/2+z
-x,y,1/2+z
x,-y,1/2+z
loop_
_atom_site_type_symbol
_atom_site_label
_atom_site_fract_x
_atom_site_fract_y
_atom_site_fract_z
Si Si1 0.784346 0.064390 0.836360
Si Si2 0.404091 0.064375 0.888860
Si Si3 0.786917 0.439335 0.650599
Si Si4 0.899886 0.063997 0.489696
Si Si5 0.594752 0.564506 0.088093
O O1 0.790795 0.250000 0.842874
O O2 0.816150 0.014916 0.743682
O O3 0.680833 0.014252 0.845736
O O4 0.841212 0.989289 0.910598
O O5 0.400413 0.250000 0.879168
O O6 0.500000 0.000000 0.859467
O O7 0.397325 0.028325 0.988736
O O8 0.785103 0.250000 0.648529
O O9 0.850849 0.490441 0.575094
O O10 0.684979 0.492669 0.632641
O O11 0.902144 0.250000 0.490902
O O12 0.000000 0.000000 0.484332
O O13 0.500000 0.500000 0.119297
O O14 0.591878 0.750000 0.095716
#
# Coordination Sequence:
#
# PCOD9360342 Si02
#       5
#     8   8   8   8   8
#     4  11  22  38  62  92 122 156 197 242 296 355
#     4  10  19  34  57  85 121 163 203 244 291 346
#     4   9  20  39  61  85 120 157 193 241 294 350
#     4  11  23  44  66  87 117 153 194 245 302 357
#     4   9  17  33  55  81 114 156 195 235 282 337
#
# _framework density 19.536118999999999
#
# number of rings (size 3 to 8) (size 9 to 14) (size 15 to 20)
#    0.000    2.000    2.000    1.800    0.000    2.400 
#    0.000   10.000    0.000    0.000    0.000    0.000 
#    0.000    0.000    0.000    0.000    0.000    0.000 
#
# Total GULP energy -111712.168638 kJ/mol
# GULP energy per Si atom -5585.608432 kJ/mol
# Density = 1.949165 g / cm^3
# Si number density = 19.536119 Si / 1000 Ang^3
#
#
#
# Elastic Constant Matrix: (Units=GPa)
#
#
# Indices 1 2 3 4 5 6 
#
# 1 138.9052 23.7942 74.3305 0.0000 0.0000 0.0000
# 2 23.7942 30.4089 35.7220 0.0000 0.0000 0.0000
# 3 74.3305 35.7220 136.9186 0.0000 0.0000 0.0000
# 4 0.0000 0.0000 0.0000 19.7872 0.0000 0.0000
# 5 0.0000 0.0000 0.0000 0.0000 -3.7871 0.0000
# 6 0.0000 0.0000 0.0000 0.0000 0.0000 35.2765
#
#
#
# Elastic Compliance Matrix: (Units=1/GPa)
#
#
# Indices 1 2 3 4 5 6 
#
# 1 0.010242 -0.002138 -0.005003 0.000000 0.000000 0.000000
# 2 -0.002138 0.047864 -0.011327 0.000000 0.000000 0.000000
# 3 -0.005003 -0.011327 0.012975 0.000000 0.000000 0.000000
# 4 0.000000 0.000000 0.000000 0.050538 0.000000 0.000000
# 5 0.000000 0.000000 0.000000 0.000000 -0.264057 0.000000
# 6 0.000000 0.000000 0.000000 0.000000 0.000000 0.028347
#
#
# Mechanical properties :
#
#
# Convention : Reuss Voigt Hill
#
# Bulk Modulus (GPa) = 29.28589 63.76956 46.52772
# Shear Modulus (GPa) = -76.01852 21.74772 -27.13540
#
# Velocity S-wave (km/s) = -6.24470 3.34009 -3.73095
# Velocity P-wave (km/s) = 6.08045 6.89838 2.30390
#
# Compressibility (1/GPa) = 0.03414613
#
# Stress axis : x y z
#
# Youngs Moduli (GPa) = 97.63398 20.89246 77.07277
#
# Poissons Ratio (x) = 0.04466 0.38557
# Poissons Ratio (y) = 0.20870 0.87302
# Poissons Ratio (z) = 0.48843 0.23665
#
# Static dielectric constant tensor:
#      x y z
#    x 1.656770 0.000000 0.000000 
#    y 0.000000 1.664810 0.000000 
#    z 0.000000 0.000000 1.705050 
# 
# From -- ./inp_files/9059.got.cif
#   From: 2010.05.17/outbox.cif.g08.bks.cpg/sg39_5_cif.got.tgz:9059.got - 2010.06.03 18:22:40.
