data_PCOD9360191
_publ_section_title
;
Structure prediction by ZEFSAII (Michael W. Deem and Ramdas Pophale) SiO2 
 PCOD9360191
Probable space group: A B M 2
;
_chemical_formula_sum "Si O2"
_cell_formula_units_Z 64
_cell_length_a 14.764358
_cell_length_b 8.259151
_cell_length_c 32.539041
_cell_angle_alpha 90.000000
_cell_angle_beta 90.000000
_cell_angle_gamma 90.000000
_cell_volume 3967.845221
_symmetry_space_group_name_H-M "A B M 2"
_symmetry_group_IT_number 39
_symmetry_cell_setting 'orthorhombic'
loop_
_space_group_symop_operation_xyz
x,y,z
-x,-y,z
-x,1/2+y,z
x,1/2-y,z
x,1/2+y,1/2+z
-x,1/2-y,1/2+z
-x,y,1/2+z
x,-y,1/2+z
loop_
_atom_site_type_symbol
_atom_site_label
_atom_site_fract_x
_atom_site_fract_y
_atom_site_fract_z
Si Si1 0.401104 0.445144 0.304240
Si Si2 0.895537 0.053897 0.690029
Si Si3 0.598881 0.056698 0.899178
Si Si4 0.788583 0.051895 0.770215
Si Si5 0.895563 0.445171 0.600213
Si Si6 0.213610 0.056771 0.931133
Si Si7 0.103315 0.056346 0.351384
Si Si8 0.104465 0.553783 0.510398
O O1 0.500000 0.500000 0.289874
O O2 0.400081 0.250000 0.304919
O O3 0.389593 0.501419 0.351706
O O4 0.314887 0.499949 0.277910
O O5 0.895265 0.250000 0.690471
O O6 0.834823 0.996711 0.728044
O O7 0.860495 0.999740 0.644863
O O8 0.000000 0.000000 0.694962
O O9 0.600774 0.250000 0.898331
O O10 0.500000 0.000000 0.913283
O O11 0.682983 0.996792 0.925659
O O12 0.789082 0.250000 0.769866
O O13 0.847640 0.999582 0.809610
O O14 0.891322 0.250000 0.600244
O O15 0.860426 0.500224 0.555585
O O16 0.000000 0.500000 0.600215
O O17 0.210834 0.250000 0.932239
O O18 0.164834 0.994876 0.972453
O O19 0.158123 0.000394 0.891215
O O20 0.105314 0.250000 0.351015
O O21 0.000000 0.000000 0.352944
O O22 0.104828 0.750000 0.510007
O O23 0.000000 0.500000 0.505544
#
# Coordination Sequence:
#
# PCOD9360191 Si02
#       8
#     8   8   8   8   8   8   8   8
#     4   9  17  31  47  64  85 112 143 181 223 261
#     4   9  16  27  45  65  88 117 148 181 218 264
#     4  10  19  33  51  69  90 117 148 190 232 270
#     4   9  17  30  45  63  89 118 147 180 221 265
#     4   8  14  26  43  63  85 112 146 184 224 261
#     4  11  21  32  46  66  90 121 156 189 224 267
#     4  11  21  33  44  60  90 125 156 187 220 262
#     4   9  18  30  44  64  91 119 151 189 225 265
#
# _framework density 16.129660999999999
#
# number of rings (size 3 to 8) (size 9 to 14) (size 15 to 20)
#    0.000    2.500    1.250    1.875    0.000    2.500 
#    0.000    1.250    0.000    0.000    0.000    0.875 
#    0.000    2.000    0.000    0.000    0.000    0.000 
#
# Total GULP energy -178313.233689 kJ/mol
# GULP energy per Si atom -5572.288553 kJ/mol
# Density = 1.609295 g / cm^3
# Si number density = 16.129661 Si / 1000 Ang^3
#
#
#
# Elastic Constant Matrix: (Units=GPa)
#
#
# Indices 1 2 3 4 5 6 
#
# 1 124.5313 12.4422 83.8054 0.0000 0.0000 0.0000
# 2 12.4422 14.5548 16.0739 0.0000 0.0000 0.0000
# 3 83.8054 16.0739 163.3009 0.0000 0.0000 0.0000
# 4 0.0000 0.0000 0.0000 13.5529 0.0000 0.0000
# 5 0.0000 0.0000 0.0000 0.0000 8.1491 0.0000
# 6 0.0000 0.0000 0.0000 0.0000 0.0000 23.2912
#
#
#
# Elastic Compliance Matrix: (Units=1/GPa)
#
#
# Indices 1 2 3 4 5 6 
#
# 1 0.012474 -0.004032 -0.006005 0.000000 0.000000 0.000000
# 2 -0.004032 0.078389 -0.005647 0.000000 0.000000 0.000000
# 3 -0.006005 -0.005647 0.009761 0.000000 0.000000 0.000000
# 4 0.000000 0.000000 0.000000 0.073785 0.000000 0.000000
# 5 0.000000 0.000000 0.000000 0.000000 0.122714 0.000000
# 6 0.000000 0.000000 0.000000 0.000000 0.000000 0.042935
#
#
# Mechanical properties :
#
#
# Convention : Reuss Voigt Hill
#
# Bulk Modulus (GPa) = 14.43898 58.55888 36.49893
# Shear Modulus (GPa) = 12.67397 21.66966 17.17182
#
# Velocity S-wave (km/s) = 2.80617 3.66931 3.26638
# Velocity P-wave (km/s) = 4.41257 7.37127 6.07480
#
# Compressibility (1/GPa) = 0.06925699
#
# Stress axis : x y z
#
# Youngs Moduli (GPa) = 80.16737 12.75694 102.44792
#
# Poissons Ratio (x) = 0.05144 0.61517
# Poissons Ratio (y) = 0.32323 0.57849
# Poissons Ratio (z) = 0.48138 0.07203
#
# Static dielectric constant tensor:
#      x y z
#    x 1.511770 0.000000 0.000000 
#    y 0.000000 1.567150 0.000000 
#    z 0.000000 0.000000 1.575650 
# 
# From -- ./inp_files/17972.got.cif
#   From: 2010.05.17/outbox.cif.g08.bks.cpg/sg39_9_cif.got.tgz:17972.got - 2010.06.03 18:22:40.
