data_PCOD9360979
_publ_section_title
;
Structure prediction by ZEFSAII (Michael W. Deem and Ramdas Pophale) SiO2 
 PCOD9360979
Probable space group: A B M 2
;
_chemical_formula_sum "Si O2"
_cell_formula_units_Z 40
_cell_length_a 4.894654
_cell_length_b 17.175097
_cell_length_c 22.468581
_cell_angle_alpha 90.000000
_cell_angle_beta 90.000000
_cell_angle_gamma 90.000000
_cell_volume 1888.847263
_symmetry_space_group_name_H-M "A B M 2"
_symmetry_group_IT_number 39
_symmetry_cell_setting 'orthorhombic'
loop_
_space_group_symop_operation_xyz
x,y,z
-x,-y,z
-x,1/2+y,z
x,1/2-y,z
x,1/2+y,1/2+z
-x,1/2-y,1/2+z
-x,y,1/2+z
x,-y,1/2+z
loop_
_atom_site_type_symbol
_atom_site_label
_atom_site_fract_x
_atom_site_fract_y
_atom_site_fract_z
Si Si1 0.770338 0.551874 0.811650
Si Si2 0.743481 0.161204 0.420663
Si Si3 0.949443 0.587865 0.186323
Si Si4 0.777463 0.339478 0.001836
Si Si5 0.565178 0.660042 0.626602
O O1 0.500000 0.500000 0.796820
O O2 0.706666 0.618562 0.858295
O O3 0.937314 0.582356 0.753952
O O4 0.000000 0.500000 0.843760
O O5 0.837555 0.250000 0.409741
O O6 0.452650 0.162744 0.452016
O O7 0.956611 0.126297 0.469253
O O8 0.141236 0.651578 0.156562
O O9 0.000000 0.500000 0.162801
O O10 0.644687 0.612336 0.168115
O O11 0.852533 0.250000 0.019685
O O12 0.628539 0.372684 0.060505
O O13 0.474738 0.750000 0.622406
#
# Coordination Sequence:
#
# PCOD9360979 Si02
#       5
#     8   8   8   8   8
#     4  11  23  41  60  83 121 162 198 246 307 364
#     4  10  20  37  61  86 114 152 198 243 293 359
#     4  11  23  41  60  85 123 163 199 249 316 371
#     4   9  19  36  58  86 119 151 186 243 310 355
#     4  11  22  39  64  90 118 156 206 255 303 371
#
# _framework density 21.176938
#
# number of rings (size 3 to 8) (size 9 to 14) (size 15 to 20)
#    0.000    1.600    0.000    6.000    0.000    4.800 
#    0.000   12.000    0.000    0.000    0.000    0.000 
#    0.000    0.000    0.000    0.000    0.000    0.000 
#
# Total GULP energy -111423.831771 kJ/mol
# GULP energy per Si atom -5571.191589 kJ/mol
# Density = 2.112874 g / cm^3
# Si number density = 21.176938 Si / 1000 Ang^3
#
#
#
# Elastic Constant Matrix: (Units=GPa)
#
#
# Indices 1 2 3 4 5 6 
#
# 1 93.1074 -1.1975 1.3749 0.0000 0.0000 0.0000
# 2 -1.1975 33.1365 15.1651 0.0000 0.0000 0.0000
# 3 1.3749 15.1651 80.8098 0.0000 0.0000 0.0000
# 4 0.0000 0.0000 0.0000 29.7833 0.0000 0.0000
# 5 0.0000 0.0000 0.0000 0.0000 24.5577 0.0000
# 6 0.0000 0.0000 0.0000 0.0000 0.0000 32.7573
#
#
#
# Elastic Compliance Matrix: (Units=1/GPa)
#
#
# Indices 1 2 3 4 5 6 
#
# 1 0.010751 0.000517 -0.000280 0.000000 0.000000 0.000000
# 2 0.000517 0.033038 -0.006209 0.000000 0.000000 0.000000
# 3 -0.000280 -0.006209 0.013545 0.000000 0.000000 0.000000
# 4 0.000000 0.000000 0.000000 0.033576 0.000000 0.000000
# 5 0.000000 0.000000 0.000000 0.000000 0.040720 0.000000
# 6 0.000000 0.000000 0.000000 0.000000 0.000000 0.030528
#
#
# Mechanical properties :
#
#
# Convention : Reuss Voigt Hill
#
# Bulk Modulus (GPa) = 22.03138 26.41540 24.22339
# Shear Modulus (GPa) = 26.42258 30.20043 28.31150
#
# Velocity S-wave (km/s) = 3.53612 3.78047 3.66033
# Velocity P-wave (km/s) = 5.20560 5.61753 5.41548
#
# Compressibility (1/GPa) = 0.04538980
#
# Stress axis : x y z
#
# Youngs Moduli (GPa) = 93.01406 30.26783 73.82967
#
# Poissons Ratio (x) = -0.01564 0.02066
# Poissons Ratio (y) = -0.04805 0.45840
# Poissons Ratio (z) = 0.02603 0.18793
#
# Static dielectric constant tensor:
#      x y z
#    x 1.757830 0.000000 0.000000 
#    y 0.000000 1.823960 0.000000 
#    z 0.000000 0.000000 1.796720 
# 
# From -- ./inp_files/13444.got.cif
#   From: 2010.05.17/outbox.cif.g08.bks.cpg/sg39_7_cif.got.tgz:13444.got - 2010.06.03 18:22:40.
