data_PCOD9360096
_publ_section_title
;
Structure prediction by ZEFSAII (Michael W. Deem and Ramdas Pophale) SiO2 
 PCOD9360096
Probable space group: A B M 2
;
_chemical_formula_sum "Si O2"
_cell_formula_units_Z 64
_cell_length_a 14.310678
_cell_length_b 9.701551
_cell_length_c 25.424529
_cell_angle_alpha 90.000000
_cell_angle_beta 90.000000
_cell_angle_gamma 90.000000
_cell_volume 3529.834123
_symmetry_space_group_name_H-M "A B M 2"
_symmetry_group_IT_number 39
_symmetry_cell_setting 'orthorhombic'
loop_
_space_group_symop_operation_xyz
x,y,z
-x,-y,z
-x,1/2+y,z
x,1/2-y,z
x,1/2+y,1/2+z
-x,1/2-y,1/2+z
-x,y,1/2+z
x,-y,1/2+z
loop_
_atom_site_type_symbol
_atom_site_label
_atom_site_fract_x
_atom_site_fract_y
_atom_site_fract_z
Si Si1 0.109642 0.468476 0.103670
Si Si2 0.714150 0.083753 0.443441
Si Si3 0.595607 0.415203 0.341851
Si Si4 0.092361 0.592498 0.485410
Si Si5 0.595731 0.915219 0.047852
Si Si6 0.907536 0.405550 0.722363
Si Si7 0.293637 0.400564 0.625387
Si Si8 0.261920 0.091435 0.748037
O O1 0.120400 0.396500 0.160270
O O2 0.184322 0.590901 0.109262
O O3 0.000000 0.500000 0.101944
O O4 0.126869 0.403433 0.046539
O O5 0.721389 0.250000 0.441134
O O6 0.659473 0.040221 0.391372
O O7 0.820400 0.035216 0.451977
O O8 0.653251 0.051836 0.494863
O O9 0.500000 0.500000 0.341016
O O10 0.577351 0.250000 0.346525
O O11 0.656720 0.437161 0.289480
O O12 0.071063 0.750000 0.470091
O O13 0.000000 0.500000 0.481740
O O14 0.582908 0.750000 0.051274
O O15 0.345158 0.024432 0.096392
O O16 0.500000 0.000000 0.046445
O O17 0.923494 0.250000 0.741293
O O18 0.000000 0.500000 0.725608
O O19 0.176417 0.514811 0.751072
O O20 0.331387 0.250000 0.609903
O O21 0.298869 0.414173 0.688165
O O22 0.229238 0.250000 0.756688
#
# Coordination Sequence:
#
# PCOD9360096 Si02
#       8
#     8   8   8   8   8   8   8   8
#     4   9  18  30  49  78 113 149 185 222 264 318
#     4   9  19  37  59  81 110 144 180 226 277 330
#     4  10  21  40  64  84 105 139 184 237 289 331
#     4  10  19  33  52  79 113 147 182 219 266 323
#     4  11  22  37  55  79 109 143 181 224 278 338
#     4  10  19  31  52  81 114 152 190 229 272 324
#     4  10  20  35  54  80 113 148 184 224 273 331
#     4   9  20  37  56  80 111 145 184 230 279 332
#
# _framework density 18.131163000000001
#
# number of rings (size 3 to 8) (size 9 to 14) (size 15 to 20)
#    0.000    2.250    1.250    1.500    0.000    8.000 
#    0.000    3.125    0.000    1.500    0.000    0.000 
#    0.000    0.000    0.000    0.000    0.000    0.000 
#
# Total GULP energy -178270.698699 kJ/mol
# GULP energy per Si atom -5570.959334 kJ/mol
# Density = 1.808990 g / cm^3
# Si number density = 18.131163 Si / 1000 Ang^3
#
#
#
# Elastic Constant Matrix: (Units=GPa)
#
#
# Indices 1 2 3 4 5 6 
#
# 1 137.1154 70.2360 63.5346 0.0000 0.0000 0.0000
# 2 70.2360 106.5235 42.8904 0.0000 0.0000 0.0000
# 3 63.5346 42.8904 81.2776 0.0000 0.0000 0.0000
# 4 0.0000 0.0000 0.0000 14.5314 0.0000 0.0000
# 5 0.0000 0.0000 0.0000 0.0000 32.9959 0.0000
# 6 0.0000 0.0000 0.0000 0.0000 0.0000 32.1112
#
#
#
# Elastic Compliance Matrix: (Units=1/GPa)
#
#
# Indices 1 2 3 4 5 6 
#
# 1 0.014008 -0.006130 -0.007715 0.000000 0.000000 0.000000
# 2 -0.006130 0.014603 -0.002914 0.000000 0.000000 0.000000
# 3 -0.007715 -0.002914 0.019873 0.000000 0.000000 0.000000
# 4 0.000000 0.000000 0.000000 0.068817 0.000000 0.000000
# 5 0.000000 0.000000 0.000000 0.000000 0.030307 0.000000
# 6 0.000000 0.000000 0.000000 0.000000 0.000000 0.031142
#
#
# Mechanical properties :
#
#
# Convention : Reuss Voigt Hill
#
# Bulk Modulus (GPa) = 66.82518 75.35985 71.09251
# Shear Modulus (GPa) = 23.01439 25.81138 24.41288
#
# Velocity S-wave (km/s) = 3.56663 3.77714 3.67339
# Velocity P-wave (km/s) = 7.34150 7.78950 7.56882
#
# Compressibility (1/GPa) = 0.01496442
#
# Stress axis : x y z
#
# Youngs Moduli (GPa) = 71.38743 68.48110 50.32064
#
# Poissons Ratio (x) = 0.41977 0.38825
# Poissons Ratio (y) = 0.43758 0.14665
# Poissons Ratio (z) = 0.55079 0.19957
#
# Static dielectric constant tensor:
#      x y z
#    x 1.616900 0.000000 0.000000 
#    y 0.000000 1.659120 0.000000 
#    z 0.000000 0.000000 1.620930 
# 
# From -- ./inp_files/15961.got.cif
#   From: 2010.05.17/outbox.cif.g08.bks.cpg/sg39_8_cif.got.tgz:15961.got - 2010.06.03 18:22:40.
