data_PCOD9360763
_publ_section_title
;
Structure prediction by ZEFSAII (Michael W. Deem and Ramdas Pophale) SiO2 
 PCOD9360763
Probable space group: A B M 2
;
_chemical_formula_sum "Si O2"
_cell_formula_units_Z 64
_cell_length_a 25.413313
_cell_length_b 9.136166
_cell_length_c 15.045678
_cell_angle_alpha 90.000000
_cell_angle_beta 90.000000
_cell_angle_gamma 90.000000
_cell_volume 3493.309222
_symmetry_space_group_name_H-M "A B M 2"
_symmetry_group_IT_number 39
_symmetry_cell_setting 'orthorhombic'
loop_
_space_group_symop_operation_xyz
x,y,z
-x,-y,z
-x,1/2+y,z
x,1/2-y,z
x,1/2+y,1/2+z
-x,1/2-y,1/2+z
-x,y,1/2+z
x,-y,1/2+z
loop_
_atom_site_type_symbol
_atom_site_label
_atom_site_fract_x
_atom_site_fract_y
_atom_site_fract_z
Si Si1 0.944535 0.925386 0.180950
Si Si2 0.333023 0.572029 0.888169
Si Si3 0.132693 0.073663 0.544103
Si Si4 0.668811 0.572307 0.182578
Si Si5 0.552148 0.082034 0.895782
Si Si6 0.552252 0.582153 0.178553
Si Si7 0.945651 0.575720 0.388665
Si Si8 0.255343 0.573414 0.043003
O O1 0.947892 0.750000 0.170345
O O2 0.935656 0.959500 0.285322
O O3 0.898332 0.992511 0.122161
O O4 0.000000 0.000000 0.155450
O O5 0.336451 0.750000 0.888025
O O6 0.324464 0.529579 0.785927
O O7 0.390611 0.519016 0.920335
O O8 0.286294 0.529731 0.953388
O O9 0.128926 0.250000 0.556108
O O10 0.102134 0.035799 0.453087
O O11 0.194005 0.034224 0.540732
O O12 0.670037 0.750000 0.177737
O O13 0.609933 0.523694 0.153120
O O14 0.713489 0.501984 0.122880
O O15 0.549002 0.250000 0.924853
O O16 0.552323 0.081040 0.787182
O O17 0.500000 0.000000 0.925810
O O18 0.500000 0.500000 0.148684
O O19 0.548815 0.750000 0.150045
O O20 0.953125 0.750000 0.394483
O O21 0.000000 0.500000 0.416525
O O22 0.258919 0.750000 0.051089
#
# Coordination Sequence:
#
# PCOD9360763 Si02
#       8
#     8   8   8   8   8   8   8   8
#     4  10  20  35  57  84 111 139 171 207 251 301
#     4   8  16  33  54  71  95 135 172 204 254 316
#     4  10  21  36  53  76 107 140 175 215 254 295
#     4   9  18  34  54  74  99 132 170 213 259 307
#     4   8  13  24  44  69  93 120 158 201 249 306
#     4   8  14  25  44  70  96 123 158 202 252 306
#     4   9  19  35  55  80 108 137 169 205 248 300
#     4  10  21  36  53  74 101 136 178 217 252 297
#
# _framework density 18.320737000000001
#
# number of rings (size 3 to 8) (size 9 to 14) (size 15 to 20)
#    0.000    3.000    0.000    2.250    0.000    4.000 
#    0.000    6.250    0.000    3.000    0.000    0.000 
#    0.000    0.000    0.000    0.000    0.000    0.000 
#
# Total GULP energy -178425.328061 kJ/mol
# GULP energy per Si atom -5575.791502 kJ/mol
# Density = 1.827904 g / cm^3
# Si number density = 18.320737 Si / 1000 Ang^3
#
#
#
# Elastic Constant Matrix: (Units=GPa)
#
#
# Indices 1 2 3 4 5 6 
#
# 1 220.2301 58.8315 92.1471 0.0000 0.0000 0.0000
# 2 58.8315 24.5733 30.7235 0.0000 0.0000 0.0000
# 3 92.1471 30.7235 89.8785 0.0000 0.0000 0.0000
# 4 0.0000 0.0000 0.0000 41.9138 0.0000 0.0000
# 5 0.0000 0.0000 0.0000 0.0000 -3.5973 0.0000
# 6 0.0000 0.0000 0.0000 0.0000 0.0000 30.8253
#
#
#
# Elastic Compliance Matrix: (Units=1/GPa)
#
#
# Indices 1 2 3 4 5 6 
#
# 1 0.013762 -0.026732 -0.004971 0.000000 0.000000 0.000000
# 2 -0.026732 0.122995 -0.014637 0.000000 0.000000 0.000000
# 3 -0.004971 -0.014637 0.021226 0.000000 0.000000 0.000000
# 4 0.000000 0.000000 0.000000 0.023858 0.000000 0.000000
# 5 0.000000 0.000000 0.000000 0.000000 -0.277987 0.000000
# 6 0.000000 0.000000 0.000000 0.000000 0.000000 0.032441
#
#
# Mechanical properties :
#
#
# Convention : Reuss Voigt Hill
#
# Bulk Modulus (GPa) = 15.31337 77.56511 46.43924
# Shear Modulus (GPa) = 98.53491 24.02702 61.28096
#
# Velocity S-wave (km/s) = 7.34166 3.62535 5.78978
# Velocity P-wave (km/s) = 8.95786 7.74296 8.37248
#
# Compressibility (1/GPa) = 0.06530243
#
# Stress axis : x y z
#
# Youngs Moduli (GPa) = 72.66427 8.13042 47.11143
#
# Poissons Ratio (x) = 0.21734 0.23421
# Poissons Ratio (y) = 1.94248 0.68956
# Poissons Ratio (z) = 0.36124 0.11900
#
# Static dielectric constant tensor:
#      x y z
#    x 1.619210 0.000000 0.000000 
#    y 0.000000 1.617580 0.000000 
#    z 0.000000 0.000000 1.650890 
# 
# From -- ./inp_files/10668.got.cif
#   From: 2010.05.17/outbox.cif.g08.bks.cpg/sg39_6_cif.got.tgz:10668.got - 2010.06.03 18:22:40.
