data_PCOD9360873
_publ_section_title
;
Structure prediction by ZEFSAII (Michael W. Deem and Ramdas Pophale) SiO2 
 PCOD9360873
Probable space group: A B M 2
;
_chemical_formula_sum "Si O2"
_cell_formula_units_Z 32
_cell_length_a 9.282141
_cell_length_b 8.653508
_cell_length_c 21.451380
_cell_angle_alpha 90.000000
_cell_angle_beta 90.000000
_cell_angle_gamma 90.000000
_cell_volume 1723.040942
_symmetry_space_group_name_H-M "A B M 2"
_symmetry_group_IT_number 39
_symmetry_cell_setting 'orthorhombic'
loop_
_space_group_symop_operation_xyz
x,y,z
-x,-y,z
-x,1/2+y,z
x,1/2-y,z
x,1/2+y,1/2+z
-x,1/2-y,1/2+z
-x,y,1/2+z
x,-y,1/2+z
loop_
_atom_site_type_symbol
_atom_site_label
_atom_site_fract_x
_atom_site_fract_y
_atom_site_fract_z
Si Si1 0.663038 0.565498 0.141340
Si Si2 0.662916 0.935584 0.908616
Si Si3 0.662729 0.434902 0.270024
Si Si4 0.160909 0.065374 0.524667
O O1 0.500000 0.500000 0.136799
O O2 0.657411 0.750000 0.139415
O O3 0.726934 0.510298 0.207944
O O4 0.754020 0.500230 0.084219
O O5 0.658279 0.750000 0.915419
O O6 0.722277 0.970563 0.838881
O O7 0.500000 0.000000 0.913041
O O8 0.757687 0.009148 0.962600
O O9 0.500000 0.500000 0.272164
O O10 0.659036 0.250000 0.262413
O O11 0.159313 0.250000 0.527080
O O12 0.000000 0.000000 0.524728
#
# Coordination Sequence:
#
# PCOD9360873 Si02
#       4
#     8   8   8   8
#     4  11  21  36  59  86 115 147 186 229 276 328
#     4  10  20  36  59  87 116 147 185 228 275 327
#     4   9  17  31  54  84 115 144 180 227 276 325
#     4  12  25  41  58  79 111 148 188 232 280 332
#
# _framework density 18.571815999999998
#
# number of rings (size 3 to 8) (size 9 to 14) (size 15 to 20)
#    0.000    1.500    0.000    8.250    0.000    3.000 
#    0.000    1.250    0.000    6.000    0.000    0.000 
#    0.000    0.000    0.000    0.000    0.000    0.000 
#
# Total GULP energy -89361.691365 kJ/mol
# GULP energy per Si atom -5585.105710 kJ/mol
# Density = 1.852955 g / cm^3
# Si number density = 18.571816 Si / 1000 Ang^3
#
#
#
# Elastic Constant Matrix: (Units=GPa)
#
#
# Indices 1 2 3 4 5 6 
#
# 1 81.6590 50.7598 82.5512 0.0000 0.0000 0.0000
# 2 50.7598 173.9001 105.9598 0.0000 0.0000 0.0000
# 3 82.5512 105.9598 224.5526 0.0000 0.0000 0.0000
# 4 0.0000 0.0000 0.0000 36.6549 0.0000 0.0000
# 5 0.0000 0.0000 0.0000 0.0000 -10.9721 0.0000
# 6 0.0000 0.0000 0.0000 0.0000 0.0000 28.4626
#
#
#
# Elastic Compliance Matrix: (Units=1/GPa)
#
#
# Indices 1 2 3 4 5 6 
#
# 1 0.019926 -0.001899 -0.006429 0.000000 0.000000 0.000000
# 2 -0.001899 0.008252 -0.003196 0.000000 0.000000 0.000000
# 3 -0.006429 -0.003196 0.008325 0.000000 0.000000 0.000000
# 4 0.000000 0.000000 0.000000 0.027281 0.000000 0.000000
# 5 0.000000 0.000000 0.000000 0.000000 -0.091140 0.000000
# 6 0.000000 0.000000 0.000000 0.000000 0.000000 0.035134
#
#
# Mechanical properties :
#
#
# Convention : Reuss Voigt Hill
#
# Bulk Modulus (GPa) = 74.32191 106.51703 90.41947
# Shear Modulus (GPa) = 141.60157 26.88515 84.24336
#
# Velocity S-wave (km/s) = 8.74133 3.80890 6.74235
# Velocity P-wave (km/s) = 11.91582 8.76483 10.45966
#
# Compressibility (1/GPa) = 0.01345498
#
# Stress axis : x y z
#
# Youngs Moduli (GPa) = 50.18612 121.18426 120.12173
#
# Poissons Ratio (x) = 0.23009 0.77230
# Poissons Ratio (y) = 0.09529 0.38389
# Poissons Ratio (z) = 0.32266 0.38728
#
# Static dielectric constant tensor:
#      x y z
#    x 1.621540 0.000000 0.000000 
#    y 0.000000 1.617030 0.000000 
#    z 0.000000 0.000000 1.680070 
# 
# From -- ./inp_files/13730.got.cif
#   From: 2010.05.17/outbox.cif.g08.bks.cpg/sg39_7_cif.got.tgz:13730.got - 2010.06.03 18:22:40.
