data_PCOD9360015
_publ_section_title
;
Structure prediction by ZEFSAII (Michael W. Deem and Ramdas Pophale) SiO2 
 PCOD9360015
Probable space group: A B M 2
;
_chemical_formula_sum "Si O2"
_cell_formula_units_Z 36
_cell_length_a 9.468480
_cell_length_b 14.009382
_cell_length_c 12.445375
_cell_angle_alpha 90.000000
_cell_angle_beta 90.000000
_cell_angle_gamma 90.000000
_cell_volume 1650.848543
_symmetry_space_group_name_H-M "A B M 2"
_symmetry_group_IT_number 39
_symmetry_cell_setting 'orthorhombic'
loop_
_space_group_symop_operation_xyz
x,y,z
-x,-y,z
-x,1/2+y,z
x,1/2-y,z
x,1/2+y,1/2+z
-x,1/2-y,1/2+z
-x,y,1/2+z
x,-y,1/2+z
loop_
_atom_site_type_symbol
_atom_site_label
_atom_site_fract_x
_atom_site_fract_y
_atom_site_fract_z
Si Si1 0.763465 0.361158 0.007950
Si Si2 0.136153 0.859699 0.333998
Si Si3 0.652185 0.033020 0.186513
Si Si4 0.819335 0.143638 0.755298
Si Si5 0.000000 0.500000 0.497370
O O1 0.770547 0.250000 0.037063
O O2 0.640993 0.415554 0.071150
O O3 0.762662 0.365791 0.878585
O O4 0.903172 0.417990 0.047596
O O5 0.148494 0.750000 0.371359
O O6 0.268705 0.892337 0.264123
O O7 0.987958 0.865066 0.268803
O O8 0.109332 0.937496 0.426256
O O9 0.500000 0.000000 0.225629
O O10 0.751395 0.939431 0.186017
O O11 0.785806 0.250000 0.716181
#
# Coordination Sequence:
#
# PCOD9360015 Si02
#       5
#     8   8   8   8   4
#     4  10  22  40  63  91 126 165 206 258 317 373
#     4  10  19  38  65  94 123 158 210 267 315 366
#     4  12  24  38  61  90 136 169 207 253 320 385
#     4   9  20  42  67  88 120 166 215 266 314 367
#     4  10  18  38  70  94 126 160 218 266 320 366
#
# _framework density 21.806967
#
# number of rings (size 3 to 8) (size 9 to 14) (size 15 to 20)
#    0.000    1.778    4.444    2.667    3.111    2.667 
#    0.000    1.111    0.000    0.000    0.000    0.000 
#    0.000    0.000    0.000    0.000    0.000    0.000 
#
# Total GULP energy -100497.102705 kJ/mol
# GULP energy per Si atom -5583.172373 kJ/mol
# Density = 2.175733 g / cm^3
# Si number density = 21.806967 Si / 1000 Ang^3
#
#
#
# Elastic Constant Matrix: (Units=GPa)
#
#
# Indices 1 2 3 4 5 6 
#
# 1 65.4271 32.8971 12.9422 0.0000 0.0000 0.0000
# 2 32.8971 192.2807 36.5866 0.0000 0.0000 0.0000
# 3 12.9422 36.5866 67.2356 0.0000 0.0000 0.0000
# 4 0.0000 0.0000 0.0000 32.5600 0.0000 0.0000
# 5 0.0000 0.0000 0.0000 0.0000 18.2493 0.0000
# 6 0.0000 0.0000 0.0000 0.0000 0.0000 18.4941
#
#
#
# Elastic Compliance Matrix: (Units=1/GPa)
#
#
# Indices 1 2 3 4 5 6 
#
# 1 0.016933 -0.002540 -0.001877 0.000000 0.000000 0.000000
# 2 -0.002540 0.006182 -0.002875 0.000000 0.000000 0.000000
# 3 -0.001877 -0.002875 0.016799 0.000000 0.000000 0.000000
# 4 0.000000 0.000000 0.000000 0.030713 0.000000 0.000000
# 5 0.000000 0.000000 0.000000 0.000000 0.054797 0.000000
# 6 0.000000 0.000000 0.000000 0.000000 0.000000 0.054071
#
#
# Mechanical properties :
#
#
# Convention : Reuss Voigt Hill
#
# Bulk Modulus (GPa) = 39.48012 54.42170 46.95091
# Shear Modulus (GPa) = 24.68864 30.02851 27.35858
#
# Velocity S-wave (km/s) = 3.36839 3.71484 3.54585
# Velocity P-wave (km/s) = 5.76816 6.58865 6.19201
#
# Compressibility (1/GPa) = 0.02532920
#
# Stress axis : x y z
#
# Youngs Moduli (GPa) = 59.05786 161.75067 59.52722
#
# Poissons Ratio (x) = 0.41081 0.11175
# Poissons Ratio (y) = 0.14999 0.17116
# Poissons Ratio (z) = 0.11087 0.46508
#
# Static dielectric constant tensor:
#      x y z
#    x 1.772570 0.000000 0.000000 
#    y 0.000000 1.783640 0.000000 
#    z 0.000000 0.000000 1.863400 
# 
# From -- ./inp_files/7998.got.cif
#   From: 2010.05.17/outbox.cif.g08.bks.cpg/sg39_4_cif.got.tgz:7998.got - 2010.06.03 18:22:40.
