data_PCOD9360730
_publ_section_title
;
Structure prediction by ZEFSAII (Michael W. Deem and Ramdas Pophale) SiO2 
 PCOD9360730
Probable space group: A B M 2
;
_chemical_formula_sum "Si O2"
_cell_formula_units_Z 64
_cell_length_a 5.335776
_cell_length_b 28.705393
_cell_length_c 19.526004
_cell_angle_alpha 90.000000
_cell_angle_beta 90.000000
_cell_angle_gamma 90.000000
_cell_volume 2990.711084
_symmetry_space_group_name_H-M "A B M 2"
_symmetry_group_IT_number 39
_symmetry_cell_setting 'orthorhombic'
loop_
_space_group_symop_operation_xyz
x,y,z
-x,-y,z
-x,1/2+y,z
x,1/2-y,z
x,1/2+y,1/2+z
-x,1/2-y,1/2+z
-x,y,1/2+z
x,-y,1/2+z
loop_
_atom_site_type_symbol
_atom_site_label
_atom_site_fract_x
_atom_site_fract_y
_atom_site_fract_z
Si Si1 0.908501 0.610533 0.140920
Si Si2 0.582648 0.348855 0.960955
Si Si3 0.547696 0.327231 0.703258
Si Si4 0.919167 0.908161 0.990870
Si Si5 0.795114 0.700973 0.590022
Si Si6 0.157658 0.616939 0.284751
Si Si7 0.758321 0.471662 0.372058
Si Si8 0.184605 0.303768 0.333812
O O1 0.632806 0.626809 0.161700
O O2 0.030266 0.659132 0.114888
O O3 0.027209 0.598018 0.214538
O O4 0.923567 0.580581 0.072319
O O5 0.309639 0.371219 0.976231
O O6 0.609555 0.320264 0.889981
O O7 0.807180 0.387848 0.968610
O O8 0.658745 0.313111 0.020576
O O9 0.412591 0.296361 0.648541
O O10 0.356484 0.346631 0.758051
O O11 0.748788 0.303473 0.752456
O O12 0.842609 0.952257 0.945783
O O13 0.931742 0.750000 0.582872
O O14 0.272458 0.574279 0.325774
O O15 0.988539 0.649723 0.333095
O O16 0.500000 0.500000 0.373869
O O17 0.000000 0.500000 0.345078
O O18 0.104611 0.250000 0.350304
#
# Coordination Sequence:
#
# PCOD9360730 Si02
#       8
#     8   8   8   8   8   8   8   8
#     4   9  21  38  66  89 130 180 221 268 348 383
#     4  11  22  40  64  94 134 182 220 279 331 382
#     4  10  20  38  62  91 126 183 218 275 332 390
#     4  11  22  45  69  97 131 173 221 282 336 407
#     4  10  20  35  55  93 134 178 233 274 314 391
#     4  10  23  43  67  96 139 176 225 283 338 407
#     4  12  27  46  76 106 131 174 226 283 354 418
#     4  11  23  37  60  96 136 183 230 276 332 394
#
# _framework density 21.399594
#
# number of rings (size 3 to 8) (size 9 to 14) (size 15 to 20)
#    0.000    1.500    2.500    2.250    3.500    5.500 
#    0.000    1.875    0.000    0.000    0.000    0.000 
#    0.000    0.000    0.000    0.000    0.000    0.000 
#
# Total GULP energy -178263.116934 kJ/mol
# GULP energy per Si atom -5570.722404 kJ/mol
# Density = 2.135089 g / cm^3
# Si number density = 21.399594 Si / 1000 Ang^3
#
#
#
# Elastic Constant Matrix: (Units=GPa)
#
#
# Indices 1 2 3 4 5 6 
#
# 1 53.5494 5.5751 4.3884 0.0000 0.0000 0.0000
# 2 5.5751 53.4526 21.2452 0.0000 0.0000 0.0000
# 3 4.3884 21.2452 112.2825 0.0000 0.0000 0.0000
# 4 0.0000 0.0000 0.0000 37.0482 0.0000 0.0000
# 5 0.0000 0.0000 0.0000 0.0000 3.6385 0.0000
# 6 0.0000 0.0000 0.0000 0.0000 0.0000 -26.1960
#
#
#
# Elastic Compliance Matrix: (Units=1/GPa)
#
#
# Indices 1 2 3 4 5 6 
#
# 1 0.018896 -0.001814 -0.000395 0.000000 0.000000 0.000000
# 2 -0.001814 0.020404 -0.003790 0.000000 0.000000 0.000000
# 3 -0.000395 -0.003790 0.009639 0.000000 0.000000 0.000000
# 4 0.000000 0.000000 0.000000 0.026992 0.000000 0.000000
# 5 0.000000 0.000000 0.000000 0.000000 0.274839 0.000000
# 6 0.000000 0.000000 0.000000 0.000000 0.000000 -0.038174
#
#
# Mechanical properties :
#
#
# Convention : Reuss Voigt Hill
#
# Bulk Modulus (GPa) = 27.07072 31.30023 29.18547
# Shear Modulus (GPa) = 14.84094 15.43652 15.13873
#
# Velocity S-wave (km/s) = 2.63632 2.68870 2.66264
# Velocity P-wave (km/s) = 4.68450 4.92921 4.80841
#
# Compressibility (1/GPa) = 0.03694028
#
# Stress axis : x y z
#
# Youngs Moduli (GPa) = 52.92248 49.01100 103.74932
#
# Poissons Ratio (x) = 0.08889 0.04102
# Poissons Ratio (y) = 0.09598 0.39318
# Poissons Ratio (z) = 0.02092 0.18574
#
# Static dielectric constant tensor:
#      x y z
#    x 1.869440 0.000000 0.000000 
#    y 0.000000 1.763900 0.000000 
#    z 0.000000 0.000000 1.813720 
# 
# From -- ./inp_files/13660.got.cif
#   From: 2010.05.17/outbox.cif.g08.bks.cpg/sg39_7_cif.got.tgz:13660.got - 2010.06.03 18:22:40.
