data_PCOD9360954
_publ_section_title
;
Structure prediction by ZEFSAII (Michael W. Deem and Ramdas Pophale) SiO2 
 PCOD9360954
Probable space group: A B M 2
;
_chemical_formula_sum "Si O2"
_cell_formula_units_Z 64
_cell_length_a 23.968448
_cell_length_b 7.631918
_cell_length_c 15.662109
_cell_angle_alpha 90.000000
_cell_angle_beta 90.000000
_cell_angle_gamma 90.000000
_cell_volume 2864.994887
_symmetry_space_group_name_H-M "A B M 2"
_symmetry_group_IT_number 39
_symmetry_cell_setting 'orthorhombic'
loop_
_space_group_symop_operation_xyz
x,y,z
-x,-y,z
-x,1/2+y,z
x,1/2-y,z
x,1/2+y,1/2+z
-x,1/2-y,1/2+z
-x,y,1/2+z
x,-y,1/2+z
loop_
_atom_site_type_symbol
_atom_site_label
_atom_site_fract_x
_atom_site_fract_y
_atom_site_fract_z
Si Si1 0.628316 0.041326 0.965480
Si Si2 0.858844 0.543374 0.352811
Si Si3 0.937208 0.958747 0.006523
Si Si4 0.771440 0.960176 0.625561
Si Si5 0.352566 0.035409 0.658543
Si Si6 0.563512 0.457027 0.303712
Si Si7 0.252072 0.461651 0.426124
Si Si8 0.893499 0.049980 0.681392
O O1 0.635305 0.250000 0.973191
O O2 0.684790 0.971875 0.919742
O O3 0.578343 0.010915 0.900347
O O4 0.626579 0.978332 0.063670
O O5 0.852337 0.750000 0.333978
O O6 0.892490 0.529145 0.440032
O O7 0.796760 0.468221 0.365762
O O8 0.894253 0.466163 0.274820
O O9 0.929392 0.750000 0.008688
O O10 0.925045 0.031837 0.101218
O O11 0.000000 0.000000 0.980360
O O12 0.777094 0.750000 0.636134
O O13 0.712505 0.016400 0.666865
O O14 0.765215 0.994601 0.524353
O O15 0.827590 0.047166 0.658661
O O16 0.352934 0.250000 0.658811
O O17 0.392484 0.970748 0.734157
O O18 0.500000 0.500000 0.281639
O O19 0.569506 0.250000 0.300957
O O20 0.252975 0.250000 0.415415
O O21 0.914394 0.250000 0.687565
#
# Coordination Sequence:
#
# PCOD9360954 Si02
#       8
#     8   8   8   8   8   8   8   8
#     4   9  18  36  59  84 112 149 189 230 279 338
#     4  10  20  37  59  86 117 153 189 229 279 339
#     4  11  24  42  60  82 113 152 193 239 284 330
#     4   9  16  32  58  84 112 151 190 225 275 339
#     4   8  18  36  57  81 113 149 187 231 281 336
#     4  11  23  39  56  80 112 149 191 238 284 336
#     4   8  15  30  56  84 113 149 186 221 274 340
#     4  10  22  36  55  87 121 148 183 233 284 332
#
# _framework density 22.338608000000001
#
# number of rings (size 3 to 8) (size 9 to 14) (size 15 to 20)
#    0.000    2.500    1.250    2.250    1.750    2.000 
#    0.000    7.500    0.000    0.000    0.000    0.000 
#    0.000    0.000    0.000    0.000    0.000    0.000 
#
# Total GULP energy -178616.172511 kJ/mol
# GULP energy per Si atom -5581.755391 kJ/mol
# Density = 2.228776 g / cm^3
# Si number density = 22.338608 Si / 1000 Ang^3
#
#
#
# Elastic Constant Matrix: (Units=GPa)
#
#
# Indices 1 2 3 4 5 6 
#
# 1 54.5561 -14.1613 -0.6474 0.0000 0.0000 0.0000
# 2 -14.1613 45.5789 -0.1266 0.0000 0.0000 0.0000
# 3 -0.6474 -0.1266 45.5097 0.0000 0.0000 0.0000
# 4 0.0000 0.0000 0.0000 6.8917 0.0000 0.0000
# 5 0.0000 0.0000 0.0000 0.0000 29.6806 0.0000
# 6 0.0000 0.0000 0.0000 0.0000 0.0000 15.6752
#
#
#
# Elastic Compliance Matrix: (Units=1/GPa)
#
#
# Indices 1 2 3 4 5 6 
#
# 1 0.019942 0.006197 0.000301 0.000000 0.000000 0.000000
# 2 0.006197 0.023866 0.000155 0.000000 0.000000 0.000000
# 3 0.000301 0.000155 0.021978 0.000000 0.000000 0.000000
# 4 0.000000 0.000000 0.000000 0.145102 0.000000 0.000000
# 5 0.000000 0.000000 0.000000 0.000000 0.033692 0.000000
# 6 0.000000 0.000000 0.000000 0.000000 0.000000 0.063795
#
#
# Mechanical properties :
#
#
# Convention : Reuss Voigt Hill
#
# Bulk Modulus (GPa) = 12.64383 12.86379 12.75381
# Shear Modulus (GPa) = 15.55532 21.15485 18.35508
#
# Velocity S-wave (km/s) = 2.64169 3.08069 2.86960
# Velocity P-wave (km/s) = 3.87002 4.29246 4.08671
#
# Compressibility (1/GPa) = 0.07908996
#
# Stress axis : x y z
#
# Youngs Moduli (GPa) = 50.14585 41.90113 45.49998
#
# Poissons Ratio (x) = -0.25965 -0.01369
# Poissons Ratio (y) = -0.31074 -0.00703
# Poissons Ratio (z) = -0.01509 -0.00647
#
# Static dielectric constant tensor:
#      x y z
#    x 1.810220 0.000000 0.000000 
#    y 0.000000 1.840150 0.000000 
#    z 0.000000 0.000000 1.865890 
# 
# From -- ./inp_files/10586.got.cif
#   From: 2010.05.17/outbox.cif.g08.bks.cpg/sg39_6_cif.got.tgz:10586.got - 2010.06.03 18:22:40.
