data_PCOD9360854
_publ_section_title
;
Structure prediction by ZEFSAII (Michael W. Deem and Ramdas Pophale) SiO2 
 PCOD9360854
Probable space group: A B M 2
;
_chemical_formula_sum "Si O2"
_cell_formula_units_Z 48
_cell_length_a 7.650194
_cell_length_b 29.224283
_cell_length_c 9.395329
_cell_angle_alpha 90.000000
_cell_angle_beta 90.000000
_cell_angle_gamma 90.000000
_cell_volume 2100.527182
_symmetry_space_group_name_H-M "A B M 2"
_symmetry_group_IT_number 39
_symmetry_cell_setting 'orthorhombic'
loop_
_space_group_symop_operation_xyz
x,y,z
-x,-y,z
-x,1/2+y,z
x,1/2-y,z
x,1/2+y,1/2+z
-x,1/2-y,1/2+z
-x,y,1/2+z
x,-y,1/2+z
loop_
_atom_site_type_symbol
_atom_site_label
_atom_site_fract_x
_atom_site_fract_y
_atom_site_fract_z
Si Si1 0.842485 0.896751 0.408040
Si Si2 0.987299 0.449848 0.655591
Si Si3 0.447238 0.199326 0.696149
Si Si4 0.533503 0.600321 0.753764
Si Si5 0.745381 0.200032 0.906705
Si Si6 0.617125 0.545549 0.000505
O O1 0.962252 0.913647 0.279925
O O2 0.647906 0.898980 0.342790
O O3 0.867603 0.842988 0.437293
O O4 0.875297 0.929368 0.542714
O O5 0.808037 0.457255 0.567032
O O6 0.000000 0.500000 0.723416
O O7 0.381725 0.250000 0.743926
O O8 0.378874 0.150285 0.752086
O O9 0.407274 0.198119 0.527818
O O10 0.646689 0.197491 0.754242
O O11 0.477720 0.583736 0.598509
O O12 0.638149 0.561924 0.838489
O O13 0.829492 0.250000 0.918944
O O14 0.500000 0.500000 0.006511
#
# Coordination Sequence:
#
# PCOD9360854 Si02
#       6
#     8   8   8   8   8   8
#     4  10  22  39  58  83 117 156 192 233 286 346
#     4  11  24  40  58  81 112 153 196 236 287 349
#     4   9  17  31  56  87 117 148 184 232 286 335
#     4  10  20  36  58  85 115 144 186 240 290 343
#     4   9  18  35  59  88 120 152 191 241 293 344
#     4  11  23  37  57  84 111 145 190 242 293 341
#
# _framework density 22.851406000000001
#
# number of rings (size 3 to 8) (size 9 to 14) (size 15 to 20)
#    0.000    2.000    0.000    4.000    0.000    6.667 
#    0.000    0.833    0.000    2.000    0.000    0.000 
#    0.000    0.000    0.000    0.000    0.000    0.000 
#
# Total GULP energy -133859.940602 kJ/mol
# GULP energy per Si atom -5577.497525 kJ/mol
# Density = 2.279939 g / cm^3
# Si number density = 22.851406 Si / 1000 Ang^3
#
#
#
# Elastic Constant Matrix: (Units=GPa)
#
#
# Indices 1 2 3 4 5 6 
#
# 1 45.6693 23.4611 7.8761 0.0000 0.0000 0.0000
# 2 23.4611 182.1936 33.2757 0.0000 0.0000 0.0000
# 3 7.8761 33.2757 90.6944 0.0000 0.0000 0.0000
# 4 0.0000 0.0000 0.0000 33.4479 0.0000 0.0000
# 5 0.0000 0.0000 0.0000 0.0000 11.2418 0.0000
# 6 0.0000 0.0000 0.0000 0.0000 0.0000 20.9232
#
#
#
# Elastic Compliance Matrix: (Units=1/GPa)
#
#
# Indices 1 2 3 4 5 6 
#
# 1 0.023532 -0.002848 -0.000999 0.000000 0.000000 0.000000
# 2 -0.002848 0.006228 -0.002038 0.000000 0.000000 0.000000
# 3 -0.000999 -0.002038 0.011860 0.000000 0.000000 0.000000
# 4 0.000000 0.000000 0.000000 0.029897 0.000000 0.000000
# 5 0.000000 0.000000 0.000000 0.000000 0.088954 0.000000
# 6 0.000000 0.000000 0.000000 0.000000 0.000000 0.047794
#
#
# Mechanical properties :
#
#
# Convention : Reuss Voigt Hill
#
# Bulk Modulus (GPa) = 33.49912 49.75368 41.62640
# Shear Modulus (GPa) = 21.74070 30.05219 25.89644
#
# Velocity S-wave (km/s) = 3.08781 3.63038 3.37004
# Velocity P-wave (km/s) = 5.23490 6.27637 5.77915
#
# Compressibility (1/GPa) = 0.02985153
#
# Stress axis : x y z
#
# Youngs Moduli (GPa) = 42.49575 160.57763 84.31454
#
# Poissons Ratio (x) = 0.45729 0.08420
# Poissons Ratio (y) = 0.12102 0.17180
# Poissons Ratio (z) = 0.04244 0.32719
#
# Static dielectric constant tensor:
#      x y z
#    x 1.869030 0.000000 0.000000 
#    y 0.000000 1.929860 0.000000 
#    z 0.000000 0.000000 1.841360 
# 
# From -- ./inp_files/2319.got.cif
#   From: 2010.05.17/outbox.cif.g08.bks.cpg/sg39_2_cif.got.tgz:2319.got - 2010.06.03 18:22:40.
