data_PCOD9360316
_publ_section_title
;
Structure prediction by ZEFSAII (Michael W. Deem and Ramdas Pophale) SiO2 
 PCOD9360316
Probable space group: A B M 2
;
_chemical_formula_sum "Si O2"
_cell_formula_units_Z 64
_cell_length_a 13.322422
_cell_length_b 18.794566
_cell_length_c 13.445581
_cell_angle_alpha 90.000000
_cell_angle_beta 90.000000
_cell_angle_gamma 90.000000
_cell_volume 3366.627457
_symmetry_space_group_name_H-M "A B M 2"
_symmetry_group_IT_number 39
_symmetry_cell_setting 'orthorhombic'
loop_
_space_group_symop_operation_xyz
x,y,z
-x,-y,z
-x,1/2+y,z
x,1/2-y,z
x,1/2+y,1/2+z
-x,1/2-y,1/2+z
-x,y,1/2+z
x,-y,1/2+z
loop_
_atom_site_type_symbol
_atom_site_label
_atom_site_fract_x
_atom_site_fract_y
_atom_site_fract_z
Si Si1 0.508219 0.416209 0.518590
Si Si2 0.405976 0.830125 0.854484
Si Si3 0.558997 0.669894 0.692671
Si Si4 0.891409 0.836367 0.185198
Si Si5 0.111453 0.837003 0.116211
Si Si6 0.239466 0.334434 0.805614
Si Si7 0.171363 0.665628 0.896754
Si Si8 0.279136 0.836906 0.526813
O O1 0.500000 0.500000 0.523819
O O2 0.464888 0.388331 0.415552
O O3 0.437005 0.383816 0.603369
O O4 0.617403 0.380496 0.532603
O O5 0.431564 0.750000 0.891235
O O6 0.449979 0.832774 0.743785
O O7 0.288384 0.840059 0.868402
O O8 0.576624 0.750000 0.655008
O O9 0.644475 0.656204 0.774043
O O10 0.890259 0.750000 0.190402
O O11 0.885589 0.863186 0.299124
O O12 0.795930 0.854713 0.116950
O O13 0.995613 0.856244 0.133400
O O14 0.119764 0.750000 0.115802
O O15 0.174044 0.862687 0.212972
O O16 0.149170 0.862298 0.007677
O O17 0.218796 0.250000 0.808026
O O18 0.228631 0.357057 0.920099
O O19 0.147384 0.750000 0.902054
O O20 0.297131 0.750000 0.526646
#
# Coordination Sequence:
#
# PCOD9360316 Si02
#       8
#     8   8   8   8   8   8   8   8
#     4  12  24  35  52  81 117 147 183 229 283 338
#     4  10  19  35  57  78 105 144 188 230 274 333
#     4  10  19  34  56  79 106 146 190 230 273 334
#     4   9  18  29  48  76 109 145 177 225 284 336
#     4   9  17  27  44  75 113 143 172 224 288 337
#     4   9  17  30  51  78 106 141 186 230 278 329
#     4   9  17  29  46  73 106 139 177 220 273 330
#     4  10  19  35  55  78 110 151 193 231 278 345
#
# _framework density 19.010121999999999
#
# number of rings (size 3 to 8) (size 9 to 14) (size 15 to 20)
#    0.000    2.250    1.250    2.625    1.750    4.500 
#    0.000    0.000    0.000    0.000    0.000    3.500 
#    0.000    0.000    0.000    0.000    0.000    0.000 
#
# Total GULP energy -178317.161553 kJ/mol
# GULP energy per Si atom -5572.411299 kJ/mol
# Density = 1.896685 g / cm^3
# Si number density = 19.010122 Si / 1000 Ang^3
#
#
#
# Elastic Constant Matrix: (Units=GPa)
#
#
# Indices 1 2 3 4 5 6 
#
# 1 36.1533 11.6161 26.2816 0.0000 0.0000 0.0000
# 2 11.6161 44.0307 19.4875 0.0000 0.0000 0.0000
# 3 26.2816 19.4875 106.2215 0.0000 0.0000 0.0000
# 4 0.0000 0.0000 0.0000 355.7104 0.0000 0.0000
# 5 0.0000 0.0000 0.0000 0.0000 28.6649 0.0000
# 6 0.0000 0.0000 0.0000 0.0000 0.0000 1.9682
#
#
#
# Elastic Compliance Matrix: (Units=1/GPa)
#
#
# Indices 1 2 3 4 5 6 
#
# 1 0.035076 -0.005891 -0.007598 0.000000 0.000000 0.000000
# 2 -0.005891 0.025708 -0.003259 0.000000 0.000000 0.000000
# 3 -0.007598 -0.003259 0.011892 0.000000 0.000000 0.000000
# 4 0.000000 0.000000 0.000000 0.002811 0.000000 0.000000
# 5 0.000000 0.000000 0.000000 0.000000 0.034886 0.000000
# 6 0.000000 0.000000 0.000000 0.000000 0.000000 0.508067
#
#
# Mechanical properties :
#
#
# Convention : Reuss Voigt Hill
#
# Bulk Modulus (GPa) = 25.52277 33.46398 29.49337
# Shear Modulus (GPa) = 7.51885 85.87006 46.69446
#
# Velocity S-wave (km/s) = 1.99092 6.72821 4.96148
# Velocity P-wave (km/s) = 4.32898 8.83175 6.95485
#
# Compressibility (1/GPa) = 0.03918070
#
# Stress axis : x y z
#
# Youngs Moduli (GPa) = 28.50953 38.89855 84.08995
#
# Poissons Ratio (x) = 0.22915 0.63890
# Poissons Ratio (y) = 0.16795 0.27404
# Poissons Ratio (z) = 0.21661 0.12676
#
# Static dielectric constant tensor:
#      x y z
#    x 1.676170 0.000000 0.000000 
#    y 0.000000 1.145180 0.000000 
#    z 0.000000 0.000000 1.706320 
# 
# From -- ./inp_files/6633.got.cif
#   From: 2010.05.17/outbox.cif.g08.bks.cpg/sg39_4_cif.got.tgz:6633.got - 2010.06.03 18:22:40.
