data_PCOD9360030
_publ_section_title
;
Structure prediction by ZEFSAII (Michael W. Deem and Ramdas Pophale) SiO2 
 PCOD9360030
Probable space group: A B M 2
;
_chemical_formula_sum "Si O2"
_cell_formula_units_Z 56
_cell_length_a 15.005279
_cell_length_b 7.948709
_cell_length_c 26.397205
_cell_angle_alpha 90.000000
_cell_angle_beta 90.000000
_cell_angle_gamma 90.000000
_cell_volume 3148.463174
_symmetry_space_group_name_H-M "A B M 2"
_symmetry_group_IT_number 39
_symmetry_cell_setting 'orthorhombic'
loop_
_space_group_symop_operation_xyz
x,y,z
-x,-y,z
-x,1/2+y,z
x,1/2-y,z
x,1/2+y,1/2+z
-x,1/2-y,1/2+z
-x,y,1/2+z
x,-y,1/2+z
loop_
_atom_site_type_symbol
_atom_site_label
_atom_site_fract_x
_atom_site_fract_y
_atom_site_fract_z
Si Si1 0.785005 0.547803 0.545600
Si Si2 0.898847 0.953015 0.835930
Si Si3 0.597677 0.452296 0.201093
Si Si4 0.597624 0.452486 0.084279
Si Si5 0.899307 0.549743 0.950320
Si Si6 0.785288 0.456186 0.241272
Si Si7 0.896671 0.452759 0.142684
O O1 0.782840 0.750000 0.549733
O O2 0.683838 0.486546 0.553706
O O3 0.829688 0.506448 0.492376
O O4 0.846347 0.485149 0.592177
O O5 0.893659 0.750000 0.837022
O O6 0.830558 0.013787 0.793294
O O7 0.882721 0.016466 0.893228
O O8 0.000000 0.000000 0.821853
O O9 0.500000 0.500000 0.220657
O O10 0.601987 0.250000 0.199372
O O11 0.604652 0.513355 0.142705
O O12 0.683646 0.511146 0.232115
O O13 0.500000 0.500000 0.064611
O O14 0.601143 0.250000 0.085809
O O15 0.896432 0.750000 0.947911
O O16 0.000000 0.500000 0.965119
O O17 0.785771 0.250000 0.241677
O O18 0.844736 0.509681 0.193086
O O19 0.891358 0.250000 0.142342
O O20 0.000000 0.500000 0.143221
#
# Coordination Sequence:
#
# PCOD9360030 Si02
#       7
#     8   8   8   8   8   8   8
#     4  10  19  32  49  69  96 127 157 191 236 285
#     4   9  18  32  50  70  92 123 161 197 232 273
#     4   9  16  29  48  69  94 123 153 188 230 279
#     4   9  17  30  48  70  95 124 156 192 234 282
#     4  10  20  33  49  70  94 124 164 202 235 275
#     4   9  16  30  50  68  92 125 154 185 232 283
#     4  10  19  30  44  66  95 124 152 183 226 281
#
# _framework density 17.786455
#
# number of rings (size 3 to 8) (size 9 to 14) (size 15 to 20)
#    0.000    2.571    1.429    1.286    0.000    2.857 
#    0.000    1.429    0.000    0.857    0.000    4.000 
#    0.000    0.000    0.000    0.000    0.000    0.000 
#
# Total GULP energy -156147.849002 kJ/mol
# GULP energy per Si atom -5576.708893 kJ/mol
# Density = 1.774597 g / cm^3
# Si number density = 17.786455 Si / 1000 Ang^3
#
#
#
# Elastic Constant Matrix: (Units=GPa)
#
#
# Indices 1 2 3 4 5 6 
#
# 1 201.7560 8.9016 103.7579 0.0000 0.0000 0.0000
# 2 8.9016 13.6138 7.5917 0.0000 0.0000 0.0000
# 3 103.7579 7.5917 105.7567 0.0000 0.0000 0.0000
# 4 0.0000 0.0000 0.0000 14.1460 0.0000 0.0000
# 5 0.0000 0.0000 0.0000 0.0000 24.6465 0.0000
# 6 0.0000 0.0000 0.0000 0.0000 0.0000 25.0157
#
#
#
# Elastic Compliance Matrix: (Units=1/GPa)
#
#
# Indices 1 2 3 4 5 6 
#
# 1 0.010020 -0.001114 -0.009751 0.000000 0.000000 0.000000
# 2 -0.001114 0.076642 -0.004408 0.000000 0.000000 0.000000
# 3 -0.009751 -0.004408 0.019339 0.000000 0.000000 0.000000
# 4 0.000000 0.000000 0.000000 0.070691 0.000000 0.000000
# 5 0.000000 0.000000 0.000000 0.000000 0.040574 0.000000
# 6 0.000000 0.000000 0.000000 0.000000 0.000000 0.039975
#
#
# Mechanical properties :
#
#
# Convention : Reuss Voigt Hill
#
# Bulk Modulus (GPa) = 13.25324 62.40323 37.82824
# Shear Modulus (GPa) = 15.97755 26.15332 21.06544
#
# Velocity S-wave (km/s) = 3.00041 3.83875 3.44518
# Velocity P-wave (km/s) = 4.41257 7.40330 6.09425
#
# Compressibility (1/GPa) = 0.07545327
#
# Stress axis : x y z
#
# Youngs Moduli (GPa) = 99.79750 13.04775 51.70969
#
# Poissons Ratio (x) = 0.01454 0.50422
# Poissons Ratio (y) = 0.11121 0.22796
# Poissons Ratio (z) = 0.97312 0.05752
#
# Static dielectric constant tensor:
#      x y z
#    x 1.593550 0.000000 0.000000 
#    y 0.000000 1.549470 0.000000 
#    z 0.000000 0.000000 1.608990 
# 
# From -- ./inp_files/15912.got.cif
#   From: 2010.05.17/outbox.cif.g08.bks.cpg/sg39_8_cif.got.tgz:15912.got - 2010.06.03 18:22:40.
