data_PCOD9360418
_publ_section_title
;
Structure prediction by ZEFSAII (Michael W. Deem and Ramdas Pophale) SiO2 
 PCOD9360418
Probable space group: A B M 2
;
_chemical_formula_sum "Si O2"
_cell_formula_units_Z 56
_cell_length_a 9.274938
_cell_length_b 14.356799
_cell_length_c 21.049486
_cell_angle_alpha 90.000000
_cell_angle_beta 90.000000
_cell_angle_gamma 90.000000
_cell_volume 2802.916310
_symmetry_space_group_name_H-M "A B M 2"
_symmetry_group_IT_number 39
_symmetry_cell_setting 'orthorhombic'
loop_
_space_group_symop_operation_xyz
x,y,z
-x,-y,z
-x,1/2+y,z
x,1/2-y,z
x,1/2+y,1/2+z
-x,1/2-y,1/2+z
-x,y,1/2+z
x,-y,1/2+z
loop_
_atom_site_type_symbol
_atom_site_label
_atom_site_fract_x
_atom_site_fract_y
_atom_site_fract_z
Si Si1 0.296415 0.140583 0.465560
Si Si2 0.089444 0.587450 0.581677
Si Si3 0.747149 0.645716 0.962448
Si Si4 0.500000 0.500000 0.942087
Si Si5 0.139110 0.355005 0.687404
Si Si6 0.656107 0.045931 0.103849
Si Si7 0.976644 0.858748 0.384860
Si Si8 0.000000 0.000000 0.281103
O O1 0.330121 0.250000 0.466197
O O2 0.325394 0.096015 0.534966
O O3 0.132127 0.129803 0.443710
O O4 0.393261 0.080115 0.416502
O O5 0.154972 0.647012 0.525424
O O6 0.227125 0.536718 0.612702
O O7 0.000000 0.500000 0.554256
O O8 0.983290 0.635766 0.631797
O O9 0.691376 0.750000 0.950770
O O10 0.620674 0.570954 0.971520
O O11 0.860000 0.619335 0.906948
O O12 0.135275 0.250000 0.712979
O O13 0.292247 0.378155 0.655022
O O14 0.100596 0.435480 0.737410
O O15 0.500000 0.000000 0.109518
O O16 0.971830 0.750000 0.367014
O O17 0.928413 0.925250 0.328269
#
# Coordination Sequence:
#
# PCOD9360418 Si02
#       8
#     8   8   8   4   8   8   8   4
#     4  11  21  37  61  93 127 160 198 246 311 382
#     4  10  19  35  62  91 119 160 197 251 316 373
#     4  11  22  37  58  90 126 160 201 251 312 380
#     4  12  22  32  52  84 132 168 188 230 296 378
#     4  11  23  41  64  89 121 163 213 263 311 363
#     4  11  20  37  63  95 127 162 199 249 316 379
#     4  10  23  39  64  92 117 157 210 261 312 364
#     4  12  22  40  66  90 118 162 216 272 302 344
#
# _framework density 19.979192000000001
#
# number of rings (size 3 to 8) (size 9 to 14) (size 15 to 20)
#    0.000    1.143    4.286    4.286    1.000    1.143 
#    0.000    2.143    6.286    0.000    0.000    0.000 
#    0.000    0.000    0.000    0.000    0.000    0.000 
#
# Total GULP energy -155994.659366 kJ/mol
# GULP energy per Si atom -5571.237835 kJ/mol
# Density = 1.993372 g / cm^3
# Si number density = 19.979192 Si / 1000 Ang^3
#
#
#
# Elastic Constant Matrix: (Units=GPa)
#
#
# Indices 1 2 3 4 5 6 
#
# 1 123.5841 57.5345 26.7826 0.0000 0.0000 0.0000
# 2 57.5345 150.7312 46.3123 0.0000 0.0000 0.0000
# 3 26.7826 46.3123 64.3611 0.0000 0.0000 0.0000
# 4 0.0000 0.0000 0.0000 20.7709 0.0000 0.0000
# 5 0.0000 0.0000 0.0000 0.0000 9.2578 0.0000
# 6 0.0000 0.0000 0.0000 0.0000 0.0000 28.2365
#
#
#
# Elastic Compliance Matrix: (Units=1/GPa)
#
#
# Indices 1 2 3 4 5 6 
#
# 1 0.010003 -0.003260 -0.001817 0.000000 0.000000 0.000000
# 2 -0.003260 0.009580 -0.005537 0.000000 0.000000 0.000000
# 3 -0.001817 -0.005537 0.020277 0.000000 0.000000 0.000000
# 4 0.000000 0.000000 0.000000 0.048144 0.000000 0.000000
# 5 0.000000 0.000000 0.000000 0.000000 0.108017 0.000000
# 6 0.000000 0.000000 0.000000 0.000000 0.000000 0.035415
#
#
# Mechanical properties :
#
#
# Convention : Reuss Voigt Hill
#
# Bulk Modulus (GPa) = 53.66752 66.65948 60.16350
# Shear Modulus (GPa) = 19.31432 25.52284 22.41858
#
# Velocity S-wave (km/s) = 3.11259 3.57805 3.35340
# Velocity P-wave (km/s) = 6.31171 7.10681 6.72103
#
# Compressibility (1/GPa) = 0.01863324
#
# Stress axis : x y z
#
# Youngs Moduli (GPa) = 99.96935 104.38568 49.31584
#
# Poissons Ratio (x) = 0.34030 0.08960
# Poissons Ratio (y) = 0.32590 0.27305
# Poissons Ratio (z) = 0.18162 0.57796
#
# Static dielectric constant tensor:
#      x y z
#    x 1.731720 0.000000 0.000000 
#    y 0.000000 1.736160 0.000000 
#    z 0.000000 0.000000 1.759780 
# 
# From -- ./inp_files/14111.got.cif
#   From: 2010.05.17/outbox.cif.g08.bks.cpg/sg39_8_cif.got.tgz:14111.got - 2010.06.03 18:22:40.
