data_PCOD9360750
_publ_section_title
;
Structure prediction by ZEFSAII (Michael W. Deem and Ramdas Pophale) SiO2 
 PCOD9360750
Probable space group: A B M 2
;
_chemical_formula_sum "Si O2"
_cell_formula_units_Z 64
_cell_length_a 17.567830
_cell_length_b 17.417176
_cell_length_c 9.515380
_cell_angle_alpha 90.000000
_cell_angle_beta 90.000000
_cell_angle_gamma 90.000000
_cell_volume 2911.534880
_symmetry_space_group_name_H-M "A B M 2"
_symmetry_group_IT_number 39
_symmetry_cell_setting 'orthorhombic'
loop_
_space_group_symop_operation_xyz
x,y,z
-x,-y,z
-x,1/2+y,z
x,1/2-y,z
x,1/2+y,1/2+z
-x,1/2-y,1/2+z
-x,y,1/2+z
x,-y,1/2+z
loop_
_atom_site_type_symbol
_atom_site_label
_atom_site_fract_x
_atom_site_fract_y
_atom_site_fract_z
Si Si1 0.013004 0.837524 0.079090
Si Si2 0.224218 0.839059 0.152554
Si Si3 0.785125 0.931291 0.172390
Si Si4 0.665693 0.059236 0.259411
Si Si5 0.689214 0.159300 0.878389
Si Si6 0.851320 0.660310 0.922833
Si Si7 0.943293 0.428301 0.833741
Si Si8 0.415753 0.968743 0.980976
O O1 0.038757 0.750000 0.091269
O O2 0.936015 0.839074 0.984507
O O3 0.985055 0.870725 0.225934
O O4 0.068871 0.889514 0.985851
O O5 0.212798 0.750000 0.126546
O O6 0.299205 0.856599 0.247724
O O7 0.252347 0.868423 0.001464
O O8 0.156805 0.861663 0.258907
O O9 0.733877 0.863296 0.238474
O O10 0.807597 0.902489 0.017466
O O11 0.863190 0.943990 0.258768
O O12 0.734101 0.005912 0.199768
O O13 0.599432 0.045656 0.145465
O O14 0.639660 0.032201 0.411282
O O15 0.675233 0.250000 0.888754
O O16 0.613118 0.108750 0.901997
O O17 0.824721 0.750000 0.937108
O O18 0.000000 0.500000 0.851226
O O19 0.500000 0.000000 0.957736
#
# Coordination Sequence:
#
# PCOD9360750 Si02
#       8
#     8   8   8   8   8   8   8   8
#     4  10  22  40  59  80 111 155 205 249 306 370
#     4   9  18  33  53  80 112 143 185 239 284 333
#     4  10  21  36  58  80 114 150 192 242 289 347
#     4  10  20  35  56  85 108 150 192 228 282 341
#     4   9  19  36  58  88 116 147 192 241 291 347
#     4   9  18  33  54  78 106 144 185 237 291 344
#     4  11  24  41  57  86 119 160 201 258 314 362
#     4  10  20  36  58  84 117 152 184 231 283 349
#
# _framework density 21.981532000000001
#
# number of rings (size 3 to 8) (size 9 to 14) (size 15 to 20)
#    0.000    2.250    0.000    2.250    1.750    2.500 
#    9.000    1.875    0.000    8.250    0.000    0.000 
#    0.000    0.000    0.000    0.000    0.000    0.000 
#
# Total GULP energy -178613.491096 kJ/mol
# GULP energy per Si atom -5581.671597 kJ/mol
# Density = 2.193150 g / cm^3
# Si number density = 21.981532 Si / 1000 Ang^3
#
#
#
# Elastic Constant Matrix: (Units=GPa)
#
#
# Indices 1 2 3 4 5 6 
#
# 1 104.4467 37.8061 7.8447 0.0000 0.0000 0.0000
# 2 37.8061 69.7267 10.2593 0.0000 0.0000 0.0000
# 3 7.8447 10.2593 82.1482 0.0000 0.0000 0.0000
# 4 0.0000 0.0000 0.0000 23.5804 0.0000 0.0000
# 5 0.0000 0.0000 0.0000 0.0000 29.8237 0.0000
# 6 0.0000 0.0000 0.0000 0.0000 0.0000 -6.5858
#
#
#
# Elastic Compliance Matrix: (Units=1/GPa)
#
#
# Indices 1 2 3 4 5 6 
#
# 1 0.011921 -0.006414 -0.000337 0.000000 0.000000 0.000000
# 2 -0.006414 0.018061 -0.001643 0.000000 0.000000 0.000000
# 3 -0.000337 -0.001643 0.012411 0.000000 0.000000 0.000000
# 4 0.000000 0.000000 0.000000 0.042408 0.000000 0.000000
# 5 0.000000 0.000000 0.000000 0.000000 0.033530 0.000000
# 6 0.000000 0.000000 0.000000 0.000000 0.000000 -0.151841
#
#
# Mechanical properties :
#
#
# Convention : Reuss Voigt Hill
#
# Bulk Modulus (GPa) = 39.05664 40.90464 39.98064
# Shear Modulus (GPa) = -610.85502 22.72440 -294.06531
#
# Velocity S-wave (km/s) = -16.68826 3.21876 -11.57881
# Velocity P-wave (km/s) = 18.80224 5.69762 12.67007
#
# Compressibility (1/GPa) = 0.02560384
#
# Stress axis : x y z
#
# Youngs Moduli (GPa) = 83.88347 55.36723 80.57666
#
# Poissons Ratio (x) = 0.35513 0.02719
# Poissons Ratio (y) = 0.53804 0.13240
# Poissons Ratio (z) = 0.02830 0.09097
#
# Static dielectric constant tensor:
#      x y z
#    x 1.816150 0.000000 0.000000 
#    y 0.000000 1.864270 0.000000 
#    z 0.000000 0.000000 1.800570 
# 
# From -- ./inp_files/6626.got.cif
#   From: 2010.05.17/outbox.cif.g08.bks.cpg/sg39_4_cif.got.tgz:6626.got - 2010.06.03 18:22:40.
