data_PCOD9360869
_publ_section_title
;
Structure prediction by ZEFSAII (Michael W. Deem and Ramdas Pophale) SiO2 
 PCOD9360869
Probable space group: A B M 2
;
_chemical_formula_sum "Si O2"
_cell_formula_units_Z 56
_cell_length_a 8.850573
_cell_length_b 18.595305
_cell_length_c 17.881890
_cell_angle_alpha 90.000000
_cell_angle_beta 90.000000
_cell_angle_gamma 90.000000
_cell_volume 2942.985440
_symmetry_space_group_name_H-M "A B M 2"
_symmetry_group_IT_number 39
_symmetry_cell_setting 'orthorhombic'
loop_
_space_group_symop_operation_xyz
x,y,z
-x,-y,z
-x,1/2+y,z
x,1/2-y,z
x,1/2+y,1/2+z
-x,1/2-y,1/2+z
-x,y,1/2+z
x,-y,1/2+z
loop_
_atom_site_type_symbol
_atom_site_label
_atom_site_fract_x
_atom_site_fract_y
_atom_site_fract_z
Si Si1 0.440074 0.923343 0.140230
Si Si2 0.827924 0.981565 0.828329
Si Si3 0.330046 0.334994 0.056392
Si Si4 0.108424 0.055205 0.666760
Si Si5 0.322233 0.836067 0.381707
Si Si6 0.394238 0.896942 0.799178
Si Si7 0.136849 0.665246 0.696444
O O1 0.515115 0.863237 0.089995
O O2 0.261727 0.920253 0.130271
O O3 0.501113 0.916862 0.226252
O O4 0.500000 0.000000 0.113263
O O5 0.837042 0.990262 0.738519
O O6 0.781347 0.899320 0.845788
O O7 0.689169 0.037320 0.843577
O O8 0.000000 0.000000 0.855751
O O9 0.326914 0.250000 0.061665
O O10 0.207573 0.360630 0.117098
O O11 0.309684 0.352163 0.970048
O O12 0.017208 0.121728 0.700426
O O13 0.000000 0.000000 0.623267
O O14 0.287731 0.750000 0.368782
O O15 0.491547 0.852545 0.351570
O O16 0.256430 0.852594 0.761682
O O17 0.111014 0.750000 0.694815
#
# Coordination Sequence:
#
# PCOD9360869 Si02
#       7
#     8   8   8   8   8   8   8
#     4  11  19  34  59  85 108 146 191 238 280 338
#     4  11  21  38  60  85 121 153 186 240 296 344
#     4   9  22  41  57  79 118 154 188 238 290 336
#     4  11  19  34  56  86 116 146 181 238 292 339
#     4  11  23  40  60  85 116 157 199 241 288 342
#     4  11  19  37  60  87 116 149 193 240 292 337
#     4  10  20  36  59  85 115 151 190 236 290 347
#
# _framework density 19.028297999999999
#
# number of rings (size 3 to 8) (size 9 to 14) (size 15 to 20)
#    0.000    1.429    5.714    1.714    0.000    2.857 
#    0.000    3.571    0.000    3.429    0.000    0.000 
#    0.000    0.000    0.000    0.000    0.000    0.000 
#
# Total GULP energy -155903.947624 kJ/mol
# GULP energy per Si atom -5567.998129 kJ/mol
# Density = 1.898499 g / cm^3
# Si number density = 19.028298 Si / 1000 Ang^3
#
#
#
# Elastic Constant Matrix: (Units=GPa)
#
#
# Indices 1 2 3 4 5 6 
#
# 1 110.6231 47.5046 9.9200 0.0000 0.0000 0.0000
# 2 47.5046 68.7938 23.3400 0.0000 0.0000 0.0000
# 3 9.9200 23.3400 51.5471 0.0000 0.0000 0.0000
# 4 0.0000 0.0000 0.0000 16.0405 0.0000 0.0000
# 5 0.0000 0.0000 0.0000 0.0000 9.2555 0.0000
# 6 0.0000 0.0000 0.0000 0.0000 0.0000 36.8337
#
#
#
# Elastic Compliance Matrix: (Units=1/GPa)
#
#
# Indices 1 2 3 4 5 6 
#
# 1 0.012997 -0.009601 0.001846 0.000000 0.000000 0.000000
# 2 -0.009601 0.024267 -0.009140 0.000000 0.000000 0.000000
# 3 0.001846 -0.009140 0.023183 0.000000 0.000000 0.000000
# 4 0.000000 0.000000 0.000000 0.062342 0.000000 0.000000
# 5 0.000000 0.000000 0.000000 0.000000 0.108044 0.000000
# 6 0.000000 0.000000 0.000000 0.000000 0.000000 0.027149
#
#
# Mechanical properties :
#
#
# Convention : Reuss Voigt Hill
#
# Bulk Modulus (GPa) = 37.51411 43.61037 40.56224
# Shear Modulus (GPa) = 16.63011 22.43923 19.53467
#
# Velocity S-wave (km/s) = 2.95950 3.43775 3.20755
# Velocity P-wave (km/s) = 5.60677 6.22302 5.92292
#
# Compressibility (1/GPa) = 0.02665663
#
# Stress axis : x y z
#
# Youngs Moduli (GPa) = 76.93929 41.20764 43.13499
#
# Poissons Ratio (x) = 0.39565 -0.07963
# Poissons Ratio (y) = 0.73873 0.39426
# Poissons Ratio (z) = -0.14204 0.37665
#
# Static dielectric constant tensor:
#      x y z
#    x 1.710820 0.000000 0.000000 
#    y 0.000000 1.767390 0.000000 
#    z 0.000000 0.000000 1.690520 
# 
# From -- ./inp_files/14140.got.cif
#   From: 2010.05.17/outbox.cif.g08.bks.cpg/sg39_8_cif.got.tgz:14140.got - 2010.06.03 18:22:40.
