data_PCOD9360932
_publ_section_title
;
Structure prediction by ZEFSAII (Michael W. Deem and Ramdas Pophale) SiO2 
 PCOD9360932
Probable space group: A B M 2
;
_chemical_formula_sum "Si O2"
_cell_formula_units_Z 48
_cell_length_a 8.204849
_cell_length_b 19.114544
_cell_length_c 14.644222
_cell_angle_alpha 90.000000
_cell_angle_beta 90.000000
_cell_angle_gamma 90.000000
_cell_volume 2296.681852
_symmetry_space_group_name_H-M "A B M 2"
_symmetry_group_IT_number 39
_symmetry_cell_setting 'orthorhombic'
loop_
_space_group_symop_operation_xyz
x,y,z
-x,-y,z
-x,1/2+y,z
x,1/2-y,z
x,1/2+y,1/2+z
-x,1/2-y,1/2+z
-x,y,1/2+z
x,-y,1/2+z
loop_
_atom_site_type_symbol
_atom_site_label
_atom_site_fract_x
_atom_site_fract_y
_atom_site_fract_z
Si Si1 0.739446 0.171140 0.007310
Si Si2 0.145659 0.327105 0.206107
Si Si3 0.912659 0.933320 0.626209
Si Si4 0.067638 0.825455 0.389453
Si Si5 0.388702 0.398046 0.336436
Si Si6 0.748668 0.953851 0.822206
O O1 0.707307 0.250000 0.042850
O O2 0.765391 0.108836 0.079006
O O3 0.615501 0.149086 0.927268
O O4 0.914930 0.173137 0.956954
O O5 0.170575 0.250000 0.167965
O O6 0.306939 0.356810 0.253051
O O7 0.060661 0.378875 0.137042
O O8 0.015773 0.323108 0.289267
O O9 0.844716 0.955933 0.726047
O O10 0.000000 0.000000 0.580933
O O11 0.155220 0.750000 0.401928
O O12 0.165799 0.897715 0.388657
O O13 0.566876 0.423817 0.310293
O O14 0.275478 0.466528 0.355289
#
# Coordination Sequence:
#
# PCOD9360932 Si02
#       6
#     8   8   8   8   8   8
#     4  10  22  38  58  87 119 154 193 244 301 353
#     4   9  17  33  56  80 110 151 194 240 284 342
#     4  11  21  36  59  89 119 153 196 249 299 350
#     4   8  17  32  54  79 107 143 193 239 278 339
#     4  10  20  37  57  83 118 153 198 240 287 354
#     4  10  21  36  57  88 113 153 201 240 290 353
#
# _framework density 20.899716000000002
#
# number of rings (size 3 to 8) (size 9 to 14) (size 15 to 20)
#    0.000    2.333    1.667    2.000    2.333    2.000 
#    0.000    5.000    0.000    0.000    0.000    0.000 
#    0.000    0.000    0.000    0.000    0.000    0.000 
#
# Total GULP energy -133796.542190 kJ/mol
# GULP energy per Si atom -5574.855925 kJ/mol
# Density = 2.085215 g / cm^3
# Si number density = 20.899716 Si / 1000 Ang^3
#
#
#
# Elastic Constant Matrix: (Units=GPa)
#
#
# Indices 1 2 3 4 5 6 
#
# 1 46.9512 25.1133 -5.0651 0.0000 0.0000 0.0000
# 2 25.1133 124.4701 6.9036 0.0000 0.0000 0.0000
# 3 -5.0651 6.9036 28.5972 0.0000 0.0000 0.0000
# 4 0.0000 0.0000 0.0000 7.3863 0.0000 0.0000
# 5 0.0000 0.0000 0.0000 0.0000 3.3904 0.0000
# 6 0.0000 0.0000 0.0000 0.0000 0.0000 25.2359
#
#
#
# Elastic Compliance Matrix: (Units=1/GPa)
#
#
# Indices 1 2 3 4 5 6 
#
# 1 0.024749 -0.005308 0.005665 0.000000 0.000000 0.000000
# 2 -0.005308 0.009281 -0.003181 0.000000 0.000000 0.000000
# 3 0.005665 -0.003181 0.036740 0.000000 0.000000 0.000000
# 4 0.000000 0.000000 0.000000 0.135385 0.000000 0.000000
# 5 0.000000 0.000000 0.000000 0.000000 0.294952 0.000000
# 6 0.000000 0.000000 0.000000 0.000000 0.000000 0.039626
#
#
# Mechanical properties :
#
#
# Convention : Reuss Voigt Hill
#
# Bulk Modulus (GPa) = 15.35560 28.21357 21.78458
# Shear Modulus (GPa) = 8.80146 18.74029 13.77088
#
# Velocity S-wave (km/s) = 2.05437 2.99771 2.56969
# Velocity P-wave (km/s) = 3.60423 5.05079 4.38753
#
# Compressibility (1/GPa) = 0.06512284
#
# Stress axis : x y z
#
# Youngs Moduli (GPa) = 40.40608 107.74324 27.21855
#
# Poissons Ratio (x) = 0.57185 -0.15419
# Poissons Ratio (y) = 0.21446 0.08657
# Poissons Ratio (z) = -0.22889 0.34269
#
# Static dielectric constant tensor:
#      x y z
#    x 1.710630 0.000000 0.000000 
#    y 0.000000 1.852680 0.000000 
#    z 0.000000 0.000000 1.783720 
# 
# From -- ./inp_files/8315.got.cif
#   From: 2010.05.17/outbox.cif.g08.bks.cpg/sg39_5_cif.got.tgz:8315.got - 2010.06.03 18:22:40.
