data_PCOD9360093
_publ_section_title
;
Structure prediction by ZEFSAII (Michael W. Deem and Ramdas Pophale) SiO2 
 PCOD9360093
Probable space group: A B M 2
;
_chemical_formula_sum "Si O2"
_cell_formula_units_Z 64
_cell_length_a 15.179686
_cell_length_b 8.636313
_cell_length_c 25.276422
_cell_angle_alpha 90.000000
_cell_angle_beta 90.000000
_cell_angle_gamma 90.000000
_cell_volume 3313.650951
_symmetry_space_group_name_H-M "A B M 2"
_symmetry_group_IT_number 39
_symmetry_cell_setting 'orthorhombic'
loop_
_space_group_symop_operation_xyz
x,y,z
-x,-y,z
-x,1/2+y,z
x,1/2-y,z
x,1/2+y,1/2+z
-x,1/2-y,1/2+z
-x,y,1/2+z
x,-y,1/2+z
loop_
_atom_site_type_symbol
_atom_site_label
_atom_site_fract_x
_atom_site_fract_y
_atom_site_fract_z
Si Si1 0.179013 0.063074 0.279770
Si Si2 0.899950 0.436014 0.997449
Si Si3 0.781551 0.936230 0.397692
Si Si4 0.407757 0.064214 0.867969
Si Si5 0.365061 0.566408 0.248789
Si Si6 0.592324 0.564882 0.133760
Si Si7 0.088103 0.933728 0.679756
Si Si8 0.777866 0.436963 0.591145
O O1 0.192465 0.250000 0.275436
O O2 0.173513 0.024948 0.341340
O O3 0.100866 0.018415 0.240521
O O4 0.263416 0.976724 0.256531
O O5 0.905760 0.250000 0.997778
O O6 0.845885 0.486089 0.944847
O O7 0.000000 0.500000 0.999986
O O8 0.837259 0.490950 0.045291
O O9 0.772220 0.750000 0.400673
O O10 0.682468 0.005252 0.395371
O O11 0.407899 0.250000 0.869473
O O12 0.403529 0.014258 0.805773
O O13 0.500000 0.000000 0.890122
O O14 0.378941 0.750000 0.243834
O O15 0.397383 0.487297 0.195051
O O16 0.500000 0.500000 0.113550
O O17 0.591329 0.750000 0.133161
O O18 0.676846 0.512537 0.099366
O O19 0.081289 0.750000 0.678205
O O20 0.172517 0.977149 0.645639
O O21 0.000000 0.000000 0.655419
O O22 0.778658 0.250000 0.584946
#
# Coordination Sequence:
#
# PCOD9360093 Si02
#       8
#     8   8   8   8   8   8   8   8
#     4   9  17  34  55  77 114 156 189 233 287 339
#     4  11  24  42  65  91 114 147 195 243 295 349
#     4   9  20  38  60  84 113 151 195 240 289 343
#     4  10  20  33  53  84 120 158 198 238 283 339
#     4  10  19  31  51  82 117 156 198 235 279 335
#     4  11  22  37  57  84 117 154 195 237 287 345
#     4  10  20  34  53  81 112 147 187 228 286 347
#     4  10  22  41  61  83 114 152 195 241 291 342
#
# _framework density 19.314043000000002
#
# number of rings (size 3 to 8) (size 9 to 14) (size 15 to 20)
#    0.000    2.000    1.250    2.250    0.000    7.000 
#    0.000    0.625    0.000    1.500    0.000    0.000 
#    0.000    0.000    0.000    0.000    0.000    0.000 
#
# Total GULP energy -178466.262091 kJ/mol
# GULP energy per Si atom -5577.070690 kJ/mol
# Density = 1.927008 g / cm^3
# Si number density = 19.314043 Si / 1000 Ang^3
#
#
#
# Elastic Constant Matrix: (Units=GPa)
#
#
# Indices 1 2 3 4 5 6 
#
# 1 174.9802 39.2480 71.0289 0.0000 0.0000 0.0000
# 2 39.2480 22.5275 33.6559 0.0000 0.0000 0.0000
# 3 71.0289 33.6559 99.4090 0.0000 0.0000 0.0000
# 4 0.0000 0.0000 0.0000 19.7509 0.0000 0.0000
# 5 0.0000 0.0000 0.0000 0.0000 35.0928 0.0000
# 6 0.0000 0.0000 0.0000 0.0000 0.0000 29.6642
#
#
#
# Elastic Compliance Matrix: (Units=1/GPa)
#
#
# Indices 1 2 3 4 5 6 
#
# 1 0.009664 -0.013195 -0.002438 0.000000 0.000000 0.000000
# 2 -0.013195 0.107839 -0.027082 0.000000 0.000000 0.000000
# 3 -0.002438 -0.027082 0.020970 0.000000 0.000000 0.000000
# 4 0.000000 0.000000 0.000000 0.050631 0.000000 0.000000
# 5 0.000000 0.000000 0.000000 0.000000 0.028496 0.000000
# 6 0.000000 0.000000 0.000000 0.000000 0.000000 0.033711
#
#
# Mechanical properties :
#
#
# Convention : Reuss Voigt Hill
#
# Bulk Modulus (GPa) = 18.85236 64.97583 41.91409
# Shear Modulus (GPa) = 14.10749 27.10052 20.60400
#
# Velocity S-wave (km/s) = 2.70557 3.74993 3.26972
# Velocity P-wave (km/s) = 4.42067 7.24321 6.00027
#
# Compressibility (1/GPa) = 0.05304375
#
# Stress axis : x y z
#
# Youngs Moduli (GPa) = 103.47513 9.27307 47.68663
#
# Poissons Ratio (x) = 0.12236 0.11625
# Poissons Ratio (y) = 1.36536 1.29145
# Poissons Ratio (z) = 0.25226 0.25113
#
# Static dielectric constant tensor:
#      x y z
#    x 1.671290 0.000000 0.000000 
#    y 0.000000 1.657620 0.000000 
#    z 0.000000 0.000000 1.690940 
# 
# From -- ./inp_files/16263.got.cif
#   From: 2010.05.17/outbox.cif.g08.bks.cpg/sg39_9_cif.got.tgz:16263.got - 2010.06.03 18:22:40.
