data_PCOD9360214
_publ_section_title
;
Structure prediction by ZEFSAII (Michael W. Deem and Ramdas Pophale) SiO2 
 PCOD9360214
Probable space group: A B M 2
;
_chemical_formula_sum "Si O2"
_cell_formula_units_Z 56
_cell_length_a 15.762977
_cell_length_b 8.778684
_cell_length_c 20.664380
_cell_angle_alpha 90.000000
_cell_angle_beta 90.000000
_cell_angle_gamma 90.000000
_cell_volume 2859.499584
_symmetry_space_group_name_H-M "A B M 2"
_symmetry_group_IT_number 39
_symmetry_cell_setting 'orthorhombic'
loop_
_space_group_symop_operation_xyz
x,y,z
-x,-y,z
-x,1/2+y,z
x,1/2-y,z
x,1/2+y,1/2+z
-x,1/2-y,1/2+z
-x,y,1/2+z
x,-y,1/2+z
loop_
_atom_site_type_symbol
_atom_site_label
_atom_site_fract_x
_atom_site_fract_y
_atom_site_fract_z
Si Si1 0.087453 0.573649 0.946580
Si Si2 0.859544 0.571473 0.593325
Si Si3 0.912077 0.931182 0.226694
Si Si4 0.265710 0.066039 0.771227
Si Si5 0.732132 0.932768 0.913947
Si Si6 0.320830 0.433248 0.052555
Si Si7 0.588863 0.567543 0.669928
O O1 0.090921 0.750000 0.927837
O O2 0.171786 0.491094 0.922154
O O3 0.000000 0.500000 0.924301
O O4 0.092201 0.564546 0.024988
O O5 0.848542 0.750000 0.610661
O O6 0.903571 0.484882 0.651981
O O7 0.768579 0.494943 0.580223
O O8 0.914515 0.750000 0.230826
O O9 0.826654 0.994725 0.259427
O O10 0.000000 0.000000 0.252895
O O11 0.257231 0.250000 0.768659
O O12 0.297930 0.021763 0.842740
O O13 0.333265 0.020725 0.716582
O O14 0.734037 0.750000 0.916298
O O15 0.679380 0.982379 0.977142
O O16 0.323255 0.250000 0.056382
O O17 0.391476 0.504219 0.098487
O O18 0.500000 0.500000 0.693219
O O19 0.585415 0.750000 0.668805
#
# Coordination Sequence:
#
# PCOD9360214 Si02
#       7
#     8   8   8   8   8   8   8
#     4  10  20  32  50  77 111 152 200 250 297 350
#     4  10  19  33  53  80 115 153 196 247 302 353
#     4  12  24  36  55  83 118 161 208 254 303 355
#     4  10  22  42  63  86 121 162 202 247 300 356
#     4   9  20  38  60  83 114 157 197 240 296 356
#     4  10  19  35  61  91 120 151 193 240 297 358
#     4  11  23  40  66  94 123 156 197 247 304 363
#
# _framework density 19.583846000000001
#
# number of rings (size 3 to 8) (size 9 to 14) (size 15 to 20)
#    0.000    1.714    1.429    3.429    0.000    5.143 
#    0.000    0.714    0.000    1.714    0.000    0.000 
#    0.000    0.000    0.000    0.000    0.000    0.000 
#
# Total GULP energy -156417.094052 kJ/mol
# GULP energy per Si atom -5586.324788 kJ/mol
# Density = 1.953927 g / cm^3
# Si number density = 19.583846 Si / 1000 Ang^3
#
#
#
# Elastic Constant Matrix: (Units=GPa)
#
#
# Indices 1 2 3 4 5 6 
#
# 1 83.9191 35.0691 42.1749 0.0000 0.0000 0.0000
# 2 35.0691 53.1296 29.7432 0.0000 0.0000 0.0000
# 3 42.1749 29.7432 118.3620 0.0000 0.0000 0.0000
# 4 0.0000 0.0000 0.0000 18.4116 0.0000 0.0000
# 5 0.0000 0.0000 0.0000 0.0000 -2.9530 0.0000
# 6 0.0000 0.0000 0.0000 0.0000 0.0000 28.4482
#
#
#
# Elastic Compliance Matrix: (Units=1/GPa)
#
#
# Indices 1 2 3 4 5 6 
#
# 1 0.017929 -0.009610 -0.003974 0.000000 0.000000 0.000000
# 2 -0.009610 0.027054 -0.003374 0.000000 0.000000 0.000000
# 3 -0.003974 -0.003374 0.010712 0.000000 0.000000 0.000000
# 4 0.000000 0.000000 0.000000 0.054314 0.000000 0.000000
# 5 0.000000 0.000000 0.000000 0.000000 -0.338634 0.000000
# 6 0.000000 0.000000 0.000000 0.000000 0.000000 0.035152
#
#
# Mechanical properties :
#
#
# Convention : Reuss Voigt Hill
#
# Bulk Modulus (GPa) = 45.91340 52.15389 49.03364
# Shear Modulus (GPa) = -32.83044 18.67625 -7.07709
#
# Velocity S-wave (km/s) = -4.09883 3.09148 -1.90305
# Velocity P-wave (km/s) = 1.04635 6.27948 4.50149
#
# Compressibility (1/GPa) = 0.02178014
#
# Stress axis : x y z
#
# Youngs Moduli (GPa) = 55.77505 36.96303 93.34921
#
# Poissons Ratio (x) = 0.35521 0.37094
# Poissons Ratio (y) = 0.53599 0.31498
# Poissons Ratio (z) = 0.22163 0.12472
#
# Static dielectric constant tensor:
#      x y z
#    x 1.677000 0.000000 0.000000 
#    y 0.000000 1.654080 0.000000 
#    z 0.000000 0.000000 1.729960 
# 
# From -- ./inp_files/14721.got.cif
#   From: 2010.05.17/outbox.cif.g08.bks.cpg/sg39_8_cif.got.tgz:14721.got - 2010.06.03 18:22:40.
