data_PCOD9360691
_publ_section_title
;
Structure prediction by ZEFSAII (Michael W. Deem and Ramdas Pophale) SiO2 
 PCOD9360691
Probable space group: A B M 2
;
_chemical_formula_sum "Si O2"
_cell_formula_units_Z 56
_cell_length_a 13.306158
_cell_length_b 10.199616
_cell_length_c 20.186446
_cell_angle_alpha 90.000000
_cell_angle_beta 90.000000
_cell_angle_gamma 90.000000
_cell_volume 2739.658063
_symmetry_space_group_name_H-M "A B M 2"
_symmetry_group_IT_number 39
_symmetry_cell_setting 'orthorhombic'
loop_
_space_group_symop_operation_xyz
x,y,z
-x,-y,z
-x,1/2+y,z
x,1/2-y,z
x,1/2+y,1/2+z
-x,1/2-y,1/2+z
-x,y,1/2+z
x,-y,1/2+z
loop_
_atom_site_type_symbol
_atom_site_label
_atom_site_fract_x
_atom_site_fract_y
_atom_site_fract_z
Si Si1 0.000000 0.000000 0.022970
Si Si2 0.500000 0.500000 0.268380
Si Si3 0.686173 0.602720 0.971294
Si Si4 0.710581 0.099193 0.220574
Si Si5 0.186173 0.897280 0.820056
Si Si6 0.897764 0.611878 0.900280
Si Si7 0.602236 0.388122 0.891071
Si Si8 0.789419 0.599193 0.570777
O O1 0.093549 0.942677 0.063652
O O2 0.954947 0.897048 0.970209
O O3 0.406451 0.557323 0.227699
O O4 0.454947 0.397048 0.321142
O O5 0.658818 0.750000 0.993378
O O6 0.780701 0.618190 0.921992
O O7 0.600728 0.523547 0.931897
O O8 0.725383 0.504578 0.028136
O O9 0.720918 0.250000 0.244984
O O10 0.750000 0.094935 0.145675
O O11 0.774617 0.995422 0.263215
O O12 0.158818 0.750000 0.797972
O O13 0.280701 0.881810 0.869359
O O14 0.100728 0.976453 0.859454
O O15 0.923083 0.750000 0.866194
O O16 0.576917 0.250000 0.925157
O O17 0.779082 0.750000 0.546367
#
# Coordination Sequence:
#
# PCOD9360691 Si02
#       8
#     4   4   8   8   8   8   8   8
#     4  10  20  34  58  86 112 148 198 248 298 354
#     4  10  20  34  58  86 112 148 198 248 298 354
#     4   9  18  32  52  79 109 142 181 229 284 339
#     4  10  21  38  60  85 117 158 201 244 291 349
#     4   9  18  32  52  79 109 142 181 229 284 339
#     4   9  17  30  51  78 107 138 177 229 286 344
#     4   9  17  30  51  78 107 138 177 229 286 344
#     4  10  21  38  60  85 117 158 201 244 291 349
#
# _framework density 20.440507
#
# number of rings (size 3 to 8) (size 9 to 14) (size 15 to 20)
#    0.000    2.571    0.000    1.714    0.000    9.714 
#    0.000    1.429    0.000    3.429    0.000    0.000 
#    0.000    0.000    0.000    0.000    0.000    0.000 
#
# Total GULP energy -155956.813634 kJ/mol
# GULP energy per Si atom -5569.886201 kJ/mol
# Density = 2.039398 g / cm^3
# Si number density = 20.440507 Si / 1000 Ang^3
#
#
#
# Elastic Constant Matrix: (Units=GPa)
#
#
# Indices 1 2 3 4 5 6 
#
# 1 110.1259 41.1768 40.4151 0.0000 0.0000 0.0000
# 2 41.1768 223.1059 63.3460 0.0000 0.0000 0.0000
# 3 40.4151 63.3460 62.7870 0.0000 0.0000 0.0000
# 4 0.0000 0.0000 0.0000 9.0802 0.0000 0.0000
# 5 0.0000 0.0000 0.0000 0.0000 34.9979 0.0000
# 6 0.0000 0.0000 0.0000 0.0000 0.0000 -19.0950
#
#
#
# Elastic Compliance Matrix: (Units=1/GPa)
#
#
# Indices 1 2 3 4 5 6 
#
# 1 0.011889 -0.000030 -0.007623 0.000000 0.000000 0.000000
# 2 -0.000030 0.006282 -0.006318 0.000000 0.000000 0.000000
# 3 -0.007623 -0.006318 0.027208 0.000000 0.000000 0.000000
# 4 0.000000 0.000000 0.000000 0.110130 0.000000 0.000000
# 5 0.000000 0.000000 0.000000 0.000000 0.028573 0.000000
# 6 0.000000 0.000000 0.000000 0.000000 0.000000 -0.052370
#
#
# Mechanical properties :
#
#
# Convention : Reuss Voigt Hill
#
# Bulk Modulus (GPa) = 57.34931 76.21050 66.77991
# Shear Modulus (GPa) = 30.21775 21.73537 25.97656
#
# Velocity S-wave (km/s) = 3.84907 3.26444 3.56875
# Velocity P-wave (km/s) = 6.91892 7.18149 7.05142
#
# Compressibility (1/GPa) = 0.01743700
#
# Stress axis : x y z
#
# Youngs Moduli (GPa) = 84.11026 159.19398 36.75397
#
# Poissons Ratio (x) = 0.00478 0.28016
# Poissons Ratio (y) = 0.00252 0.23222
# Poissons Ratio (z) = 0.64114 1.00583
#
# Static dielectric constant tensor:
#      x y z
#    x 1.834690 0.000000 0.000000 
#    y 0.000000 1.800440 0.000000 
#    z 0.000000 0.000000 1.688230 
# 
# From -- ./inp_files/14850.got.cif
#   From: 2010.05.17/outbox.cif.g08.bks.cpg/sg39_8_cif.got.tgz:14850.got - 2010.06.03 18:22:40.
