data_PCOD9360653
_publ_section_title
;
Structure prediction by ZEFSAII (Michael W. Deem and Ramdas Pophale) SiO2 
 PCOD9360653
Probable space group: A B M 2
;
_chemical_formula_sum "Si O2"
_cell_formula_units_Z 56
_cell_length_a 21.031740
_cell_length_b 8.653459
_cell_length_c 15.604666
_cell_angle_alpha 90.000000
_cell_angle_beta 90.000000
_cell_angle_gamma 90.000000
_cell_volume 2840.007076
_symmetry_space_group_name_H-M "A B M 2"
_symmetry_group_IT_number 39
_symmetry_cell_setting 'orthorhombic'
loop_
_space_group_symop_operation_xyz
x,y,z
-x,-y,z
-x,1/2+y,z
x,1/2-y,z
x,1/2+y,1/2+z
-x,1/2-y,1/2+z
-x,y,1/2+z
x,-y,1/2+z
loop_
_atom_site_type_symbol
_atom_site_label
_atom_site_fract_x
_atom_site_fract_y
_atom_site_fract_z
Si Si1 0.071125 0.936252 0.693150
Si Si2 0.435455 0.423810 0.293801
Si Si3 0.299857 0.561545 0.528217
Si Si4 0.839960 0.063356 0.538810
Si Si5 0.162182 0.435528 0.838726
Si Si6 0.702719 0.566291 0.338712
Si Si7 0.436010 0.577228 0.588781
O O1 0.070326 0.750000 0.693558
O O2 0.108291 0.991016 0.607182
O O3 0.109826 0.994539 0.775900
O O4 0.000000 0.000000 0.693953
O O5 0.500000 0.500000 0.327583
O O6 0.432439 0.250000 0.329107
O O7 0.365961 0.495973 0.308228
O O8 0.442209 0.415757 0.191289
O O9 0.300361 0.750000 0.516925
O O10 0.231780 0.525722 0.570544
O O11 0.297866 0.473742 0.438691
O O12 0.365895 0.512273 0.571196
O O13 0.844264 0.250000 0.536756
O O14 0.846595 0.013778 0.438956
O O15 0.159569 0.250000 0.837311
O O16 0.232086 0.489582 0.807323
O O17 0.705640 0.750000 0.320461
O O18 0.500000 0.500000 0.554863
O O19 0.435466 0.750000 0.553543
#
# Coordination Sequence:
#
# PCOD9360653 Si02
#       7
#     8   8   8   8   8   8   8
#     4  11  23  40  63  91 120 153 191 232 279 341
#     4   9  19  33  50  72 102 141 185 230 280 335
#     4   9  18  34  55  76 102 141 185 229 279 336
#     4   8  18  37  61  84 113 153 193 233 282 338
#     4  10  21  40  62  88 120 155 194 238 287 341
#     4  10  20  34  54  80 108 142 185 233 283 337
#     4   9  18  32  50  71 100 139 182 228 279 333
#
# _framework density 19.718260000000001
#
# number of rings (size 3 to 8) (size 9 to 14) (size 15 to 20)
#    0.000    2.571    0.000    2.143    2.000    2.857 
#    0.000   11.429    0.000    0.000    0.000    0.000 
#    0.000    0.000    0.000    0.000    0.000    0.000 
#
# Total GULP energy -155953.788989 kJ/mol
# GULP energy per Si atom -5569.778178 kJ/mol
# Density = 1.967338 g / cm^3
# Si number density = 19.718260 Si / 1000 Ang^3
#
#
#
# Elastic Constant Matrix: (Units=GPa)
#
#
# Indices 1 2 3 4 5 6 
#
# 1 225.7507 46.9432 70.0490 0.0000 0.0000 0.0000
# 2 46.9432 34.6267 17.8491 0.0000 0.0000 0.0000
# 3 70.0490 17.8491 62.6097 0.0000 0.0000 0.0000
# 4 0.0000 0.0000 0.0000 15.9072 0.0000 0.0000
# 5 0.0000 0.0000 0.0000 0.0000 69.1894 0.0000
# 6 0.0000 0.0000 0.0000 0.0000 0.0000 33.4141
#
#
#
# Elastic Compliance Matrix: (Units=1/GPa)
#
#
# Indices 1 2 3 4 5 6 
#
# 1 0.008147 -0.007439 -0.006994 0.000000 0.000000 0.000000
# 2 -0.007439 0.040648 -0.003265 0.000000 0.000000 0.000000
# 3 -0.006994 -0.003265 0.024728 0.000000 0.000000 0.000000
# 4 0.000000 0.000000 0.000000 0.062865 0.000000 0.000000
# 5 0.000000 0.000000 0.000000 0.000000 0.014453 0.000000
# 6 0.000000 0.000000 0.000000 0.000000 0.000000 0.029928
#
#
# Mechanical properties :
#
#
# Convention : Reuss Voigt Hill
#
# Bulk Modulus (GPa) = 26.22873 65.85218 46.04045
# Shear Modulus (GPa) = 21.84622 36.24519 29.04571
#
# Velocity S-wave (km/s) = 3.33215 4.29202 3.84218
# Velocity P-wave (km/s) = 5.30424 7.61781 6.56376
#
# Compressibility (1/GPa) = 0.03812613
#
# Stress axis : x y z
#
# Youngs Moduli (GPa) = 122.74745 24.60155 40.44048
#
# Poissons Ratio (x) = 0.18302 0.28284
# Poissons Ratio (y) = 0.91316 0.13203
# Poissons Ratio (z) = 0.85849 0.08032
#
# Static dielectric constant tensor:
#      x y z
#    x 1.732870 0.000000 0.000000 
#    y 0.000000 1.704900 0.000000 
#    z 0.000000 0.000000 1.701550 
# 
# From -- ./inp_files/10388.got.cif
#   From: 2010.05.17/outbox.cif.g08.bks.cpg/sg39_6_cif.got.tgz:10388.got - 2010.06.03 18:22:40.
