data_PCOD9360402
_publ_section_title
;
Structure prediction by ZEFSAII (Michael W. Deem and Ramdas Pophale) SiO2 
 PCOD9360402
Probable space group: A B M 2
;
_chemical_formula_sum "Si O2"
_cell_formula_units_Z 44
_cell_length_a 7.323348
_cell_length_b 25.429102
_cell_length_c 9.133925
_cell_angle_alpha 90.000000
_cell_angle_beta 90.000000
_cell_angle_gamma 90.000000
_cell_volume 1700.975808
_symmetry_space_group_name_H-M "A B M 2"
_symmetry_group_IT_number 39
_symmetry_cell_setting 'orthorhombic'
loop_
_space_group_symop_operation_xyz
x,y,z
-x,-y,z
-x,1/2+y,z
x,1/2-y,z
x,1/2+y,1/2+z
-x,1/2-y,1/2+z
-x,y,1/2+z
x,-y,1/2+z
loop_
_atom_site_type_symbol
_atom_site_label
_atom_site_fract_x
_atom_site_fract_y
_atom_site_fract_z
Si Si1 0.625553 0.750000 0.071671
Si Si2 0.309300 0.929475 0.813419
Si Si3 0.791410 0.518782 0.023749
Si Si4 0.088612 0.120565 0.859528
Si Si5 0.109577 0.810378 0.083361
Si Si6 0.557444 0.678883 0.356752
O O1 0.605708 0.705131 0.202532
O O2 0.608606 0.794778 0.941134
O O3 0.314845 0.961569 0.664752
O O4 0.451883 0.883132 0.835328
O O5 0.112523 0.900227 0.810857
O O6 0.302660 0.969836 0.946247
O O7 0.813103 0.567826 0.913044
O O8 0.000000 0.500000 0.063014
O O9 0.158524 0.154735 0.723253
O O10 0.045097 0.158625 0.995930
O O11 0.051442 0.750000 0.119416
O O12 0.279309 0.808029 0.972508
#
# Coordination Sequence:
#
# PCOD9360402 Si02
#       6
#     4   8   8   8   8   8
#     4  10  20  50  68  82 114 162 212 300 340 386
#     4  10  21  36  59  97 129 169 218 247 308 395
#     4  10  19  35  59  93 142 186 203 236 302 393
#     4  10  20  33  57  91 146 178 197 243 304 395
#     4  11  20  37  55  96 137 172 213 260 309 396
#     4  10  23  42  69  90 115 162 230 278 337 392
#
# _framework density 25.867505000000001
#
# number of rings (size 3 to 8) (size 9 to 14) (size 15 to 20)
#    0.000    1.818    3.636    2.182    5.091    0.000 
#    6.545    0.000    0.000    3.273    0.000    0.000 
#    0.000    0.000    0.000    0.000    0.000    0.000 
#
# Total GULP energy -122864.708313 kJ/mol
# GULP energy per Si atom -5584.759469 kJ/mol
# Density = 2.580863 g / cm^3
# Si number density = 25.867505 Si / 1000 Ang^3
#
#
#
# Elastic Constant Matrix: (Units=GPa)
#
#
# Indices 1 2 3 4 5 6 
#
# 1 54.0062 48.5546 29.8943 0.0000 0.0000 0.0000
# 2 48.5546 223.7392 92.5074 0.0000 0.0000 0.0000
# 3 29.8943 92.5074 183.3306 0.0000 0.0000 0.0000
# 4 0.0000 0.0000 0.0000 77.6395 0.0000 0.0000
# 5 0.0000 0.0000 0.0000 0.0000 29.0234 0.0000
# 6 0.0000 0.0000 0.0000 0.0000 0.0000 -45.3040
#
#
#
# Elastic Compliance Matrix: (Units=1/GPa)
#
#
# Indices 1 2 3 4 5 6 
#
# 1 0.023362 -0.004416 -0.001581 0.000000 0.000000 0.000000
# 2 -0.004416 0.006483 -0.002551 0.000000 0.000000 0.000000
# 3 -0.001581 -0.002551 0.007000 0.000000 0.000000 0.000000
# 4 0.000000 0.000000 0.000000 0.012880 0.000000 0.000000
# 5 0.000000 0.000000 0.000000 0.000000 0.034455 0.000000
# 6 0.000000 0.000000 0.000000 0.000000 0.000000 -0.022073
#
#
# Mechanical properties :
#
#
# Convention : Reuss Voigt Hill
#
# Bulk Modulus (GPa) = 50.63868 89.22096 69.92982
# Shear Modulus (GPa) = 58.28527 31.61310 44.94919
#
# Velocity S-wave (km/s) = 4.75196 3.49967 4.17306
# Velocity P-wave (km/s) = 7.05173 7.13419 7.09308
#
# Compressibility (1/GPa) = 0.01974775
#
# Stress axis : x y z
#
# Youngs Moduli (GPa) = 42.80470 154.25961 142.86452
#
# Poissons Ratio (x) = 0.68123 0.22588
# Poissons Ratio (y) = 0.18903 0.36444
# Poissons Ratio (z) = 0.06768 0.39351
#
# Static dielectric constant tensor:
#      x y z
#    x 2.304890 0.000000 0.000000 
#    y 0.000000 1.996000 0.000000 
#    z 0.000000 0.000000 1.932380 
# 
# From -- ./inp_files/2668.got.cif
#   From: 2010.05.17/outbox.cif.g08.bks.cpg/sg39_2_cif.got.tgz:2668.got - 2010.06.03 18:22:40.
