data_PCOD9360784
_publ_section_title
;
Structure prediction by ZEFSAII (Michael W. Deem and Ramdas Pophale) SiO2 
 PCOD9360784
Probable space group: A B M 2
;
_chemical_formula_sum "Si O2"
_cell_formula_units_Z 48
_cell_length_a 7.418997
_cell_length_b 10.284217
_cell_length_c 31.627203
_cell_angle_alpha 90.000000
_cell_angle_beta 90.000000
_cell_angle_gamma 90.000000
_cell_volume 2413.110522
_symmetry_space_group_name_H-M "A B M 2"
_symmetry_group_IT_number 39
_symmetry_cell_setting 'orthorhombic'
loop_
_space_group_symop_operation_xyz
x,y,z
-x,-y,z
-x,1/2+y,z
x,1/2-y,z
x,1/2+y,1/2+z
-x,1/2-y,1/2+z
-x,y,1/2+z
x,-y,1/2+z
loop_
_atom_site_type_symbol
_atom_site_label
_atom_site_fract_x
_atom_site_fract_y
_atom_site_fract_z
Si Si1 0.651203 0.604858 0.060950
Si Si2 0.218105 0.512320 0.740687
Si Si3 0.500000 0.500000 0.423225
Si Si4 0.439421 0.250000 0.365276
Si Si5 0.277906 0.250000 0.786985
Si Si6 0.842453 0.598338 0.975423
Si Si7 0.166699 0.901264 0.651830
Si Si8 0.154958 0.750000 0.799489
O O1 0.500000 0.500000 0.052742
O O2 0.574680 0.750000 0.055617
O O3 0.723329 0.592336 0.108489
O O4 0.806082 0.591783 0.025831
O O5 0.300275 0.379496 0.758539
O O6 0.274918 0.555339 0.693812
O O7 0.234002 0.625943 0.774785
O O8 0.000000 0.500000 0.736886
O O9 0.457935 0.377798 0.393474
O O10 0.335885 0.546971 0.452363
O O11 0.590006 0.250000 0.327463
O O12 0.241257 0.250000 0.345139
O O13 0.063143 0.250000 0.799388
O O14 0.876473 0.750000 0.964600
O O15 0.000000 0.500000 0.963706
O O16 0.108727 0.750000 0.658316
O O17 0.000000 0.000000 0.647241
#
# Coordination Sequence:
#
# PCOD9360784 Si02
#       8
#     8   8   4   4   4   8   8   4
#     4  10  22  41  62  93 135 174 216 267 319 382
#     4   9  18  35  59  84 122 165 213 264 316 373
#     4  12  26  46  68  98 140 166 218 280 342 406
#     4  12  26  42  68  94 126 174 212 272 342 402
#     4  10  22  40  60  91 123 164 221 263 324 396
#     4  11  25  45  74 103 133 178 222 268 336 403
#     4  10  20  35  58  90 127 169 221 265 314 377
#     4  10  20  40  64  85 123 168 207 271 324 378
#
# _framework density 19.891338000000001
#
# number of rings (size 3 to 8) (size 9 to 14) (size 15 to 20)
#    0.000    1.667    2.500    1.500    4.667    2.667 
#    3.000    0.000    0.000    0.000    0.000    0.000 
#    0.000    0.000    0.000    0.000    0.000    0.000 
#
# Total GULP energy -134031.645392 kJ/mol
# GULP energy per Si atom -5584.651891 kJ/mol
# Density = 1.984606 g / cm^3
# Si number density = 19.891338 Si / 1000 Ang^3
#
#
#
# Elastic Constant Matrix: (Units=GPa)
#
#
# Indices 1 2 3 4 5 6 
#
# 1 68.7579 48.8024 20.7751 0.0000 0.0000 0.0000
# 2 48.8024 176.0975 45.1102 0.0000 0.0000 0.0000
# 3 20.7751 45.1102 99.8592 0.0000 0.0000 0.0000
# 4 0.0000 0.0000 0.0000 34.1909 0.0000 0.0000
# 5 0.0000 0.0000 0.0000 0.0000 -104.6210 0.0000
# 6 0.0000 0.0000 0.0000 0.0000 0.0000 23.8543
#
#
#
# Elastic Compliance Matrix: (Units=1/GPa)
#
#
# Indices 1 2 3 4 5 6 
#
# 1 0.018363 -0.004648 -0.001720 0.000000 0.000000 0.000000
# 2 -0.004648 0.007598 -0.002465 0.000000 0.000000 0.000000
# 3 -0.001720 -0.002465 0.011486 0.000000 0.000000 0.000000
# 4 0.000000 0.000000 0.000000 0.029248 0.000000 0.000000
# 5 0.000000 0.000000 0.000000 0.000000 -0.009558 0.000000
# 6 0.000000 0.000000 0.000000 0.000000 0.000000 0.041921
#
#
# Mechanical properties :
#
#
# Convention : Reuss Voigt Hill
#
# Bulk Modulus (GPa) = 50.55953 63.78778 57.17365
# Shear Modulus (GPa) = 40.54540 6.01997 23.28268
#
# Velocity S-wave (km/s) = 4.51970 1.74155 3.42496
# Velocity P-wave (km/s) = 7.26016 6.01512 6.66677
#
# Compressibility (1/GPa) = 0.01977866
#
# Stress axis : x y z
#
# Youngs Moduli (GPa) = 54.45804 131.60659 87.06415
#
# Poissons Ratio (x) = 0.61173 0.14979
# Poissons Ratio (y) = 0.25313 0.21465
# Poissons Ratio (z) = 0.09369 0.32447
#
# Static dielectric constant tensor:
#      x y z
#    x 1.985440 0.000000 0.000000 
#    y 0.000000 1.677090 0.000000 
#    z 0.000000 0.000000 1.698160 
# 
# From -- ./inp_files/17722.got.cif
#   From: 2010.05.17/outbox.cif.g08.bks.cpg/sg39_9_cif.got.tgz:17722.got - 2010.06.03 18:22:40.
