data_PCOD9360272
_publ_section_title
;
Structure prediction by ZEFSAII (Michael W. Deem and Ramdas Pophale) SiO2 
 PCOD9360272
Probable space group: A B M 2
;
_chemical_formula_sum "Si O2"
_cell_formula_units_Z 64
_cell_length_a 10.965207
_cell_length_b 19.521309
_cell_length_c 16.038836
_cell_angle_alpha 90.000000
_cell_angle_beta 90.000000
_cell_angle_gamma 90.000000
_cell_volume 3433.196153
_symmetry_space_group_name_H-M "A B M 2"
_symmetry_group_IT_number 39
_symmetry_cell_setting 'orthorhombic'
loop_
_space_group_symop_operation_xyz
x,y,z
-x,-y,z
-x,1/2+y,z
x,1/2-y,z
x,1/2+y,1/2+z
-x,1/2-y,1/2+z
-x,y,1/2+z
x,-y,1/2+z
loop_
_atom_site_type_symbol
_atom_site_label
_atom_site_fract_x
_atom_site_fract_y
_atom_site_fract_z
Si Si1 0.378014 0.028882 0.335460
Si Si2 0.361130 0.676961 0.783303
Si Si3 0.866258 0.968521 0.901756
Si Si4 0.869320 0.171537 0.682397
Si Si5 0.076138 0.429632 0.719361
Si Si6 0.665267 0.458242 0.152552
Si Si7 0.499988 0.671777 0.605445
Si Si8 0.288815 0.908858 0.548112
O O1 0.245056 0.019872 0.376915
O O2 0.369656 0.991068 0.243831
O O3 0.500000 0.000000 0.378755
O O4 0.402169 0.108991 0.327340
O O5 0.386966 0.750000 0.824283
O O6 0.217095 0.670860 0.763904
O O7 0.425494 0.677181 0.692740
O O8 0.889283 0.927434 0.816599
O O9 0.799883 0.923902 0.971584
O O10 0.000000 0.000000 0.925132
O O11 0.877758 0.250000 0.654408
O O12 0.797952 0.124756 0.617272
O O13 0.996578 0.135782 0.698147
O O14 0.194862 0.436702 0.663528
O O15 0.000000 0.500000 0.709015
O O16 0.593281 0.390446 0.123929
O O17 0.658618 0.520315 0.086675
O O18 0.543213 0.750000 0.587286
O O19 0.402043 0.643200 0.538416
#
# Coordination Sequence:
#
# PCOD9360272 Si02
#       8
#     8   8   8   8   8   8   8   8
#     4  11  18  35  58  89 117 150 199 249 290 355
#     4   9  16  29  54  83 113 146 185 239 295 345
#     4  10  24  36  57  86 121 154 193 248 303 360
#     4  10  19  33  58  86 112 149 198 243 291 354
#     4  10  19  37  57  88 118 150 192 256 300 353
#     4  11  19  32  62  85 115 150 203 251 294 348
#     4  10  20  34  55  88 121 148 193 251 299 348
#     4  11  20  36  59  84 114 159 197 237 299 364
#
# _framework density 18.641521999999998
#
# number of rings (size 3 to 8) (size 9 to 14) (size 15 to 20)
#    0.000    1.750    5.000    3.000    1.750    1.500 
#    0.000    1.250    0.000    6.750    0.000    0.000 
#    0.000    0.000    0.000    0.000    0.000    0.000 
#
# Total GULP energy -178250.714118 kJ/mol
# GULP energy per Si atom -5570.334816 kJ/mol
# Density = 1.859909 g / cm^3
# Si number density = 18.641522 Si / 1000 Ang^3
#
#
#
# Elastic Constant Matrix: (Units=GPa)
#
#
# Indices 1 2 3 4 5 6 
#
# 1 110.7860 57.8030 21.3782 0.0000 0.0000 0.0000
# 2 57.8030 157.9423 26.4553 0.0000 0.0000 0.0000
# 3 21.3782 26.4553 18.0396 0.0000 0.0000 0.0000
# 4 0.0000 0.0000 0.0000 7.5665 0.0000 0.0000
# 5 0.0000 0.0000 0.0000 0.0000 16.4699 0.0000
# 6 0.0000 0.0000 0.0000 0.0000 0.0000 23.1979
#
#
#
# Elastic Compliance Matrix: (Units=1/GPa)
#
#
# Indices 1 2 3 4 5 6 
#
# 1 0.012566 -0.002790 -0.010800 0.000000 0.000000 0.000000
# 2 -0.002790 0.009012 -0.009911 0.000000 0.000000 0.000000
# 3 -0.010800 -0.009911 0.082767 0.000000 0.000000 0.000000
# 4 0.000000 0.000000 0.000000 0.132161 0.000000 0.000000
# 5 0.000000 0.000000 0.000000 0.000000 0.060717 0.000000
# 6 0.000000 0.000000 0.000000 0.000000 0.000000 0.043107
#
#
# Mechanical properties :
#
#
# Convention : Reuss Voigt Hill
#
# Bulk Modulus (GPa) = 17.43869 55.33790 36.38830
# Shear Modulus (GPa) = 12.30170 21.52229 16.91200
#
# Velocity S-wave (km/s) = 2.57166 3.40153 3.01528
# Velocity P-wave (km/s) = 4.26532 6.72138 5.62894
#
# Compressibility (1/GPa) = 0.05734376
#
# Stress axis : x y z
#
# Youngs Moduli (GPa) = 79.57877 110.95701 12.08206
#
# Poissons Ratio (x) = 0.30955 0.13049
# Poissons Ratio (y) = 0.22201 0.11974
# Poissons Ratio (z) = 0.85949 1.09968
#
# Static dielectric constant tensor:
#      x y z
#    x 1.680770 0.000000 0.000000 
#    y 0.000000 1.667560 0.000000 
#    z 0.000000 0.000000 1.674110 
# 
# From -- ./inp_files/12441.got.cif
#   From: 2010.05.17/outbox.cif.g08.bks.cpg/sg39_7_cif.got.tgz:12441.got - 2010.06.03 18:22:40.
