data_PCOD9360176
_publ_section_title
;
Structure prediction by ZEFSAII (Michael W. Deem and Ramdas Pophale) SiO2 
 PCOD9360176
Probable space group: A B M 2
;
_chemical_formula_sum "Si O2"
_cell_formula_units_Z 64
_cell_length_a 20.305283
_cell_length_b 8.644443
_cell_length_c 20.711285
_cell_angle_alpha 90.000000
_cell_angle_beta 90.000000
_cell_angle_gamma 90.000000
_cell_volume 3635.407565
_symmetry_space_group_name_H-M "A B M 2"
_symmetry_group_IT_number 39
_symmetry_cell_setting 'orthorhombic'
loop_
_space_group_symop_operation_xyz
x,y,z
-x,-y,z
-x,1/2+y,z
x,1/2-y,z
x,1/2+y,1/2+z
-x,1/2-y,1/2+z
-x,y,1/2+z
x,-y,1/2+z
loop_
_atom_site_type_symbol
_atom_site_label
_atom_site_fract_x
_atom_site_fract_y
_atom_site_fract_z
Si Si1 0.326138 0.563055 0.856790
Si Si2 0.820945 0.936536 0.310935
Si Si3 0.312899 0.063346 0.502724
Si Si4 0.656134 0.434256 0.638063
Si Si5 0.926975 0.437307 0.918278
Si Si6 0.427595 0.934127 0.252134
Si Si7 0.837492 0.062595 0.034094
Si Si8 0.200021 0.064224 0.673032
O O1 0.330345 0.750000 0.851926
O O2 0.251500 0.519065 0.837168
O O3 0.337464 0.520295 0.931601
O O4 0.377543 0.489526 0.807741
O O5 0.821666 0.750000 0.307241
O O6 0.877619 0.984375 0.360739
O O7 0.829069 0.004917 0.239835
O O8 0.316398 0.250000 0.509000
O O9 0.235381 0.020404 0.508426
O O10 0.348668 0.988352 0.563854
O O11 0.656284 0.250000 0.642197
O O12 0.600471 0.502107 0.684450
O O13 0.726325 0.497864 0.663993
O O14 0.928794 0.250000 0.918873
O O15 0.000000 0.500000 0.910198
O O16 0.893537 0.491804 0.985374
O O17 0.429254 0.750000 0.250182
O O18 0.500000 0.000000 0.264287
O O19 0.839540 0.250000 0.032972
O O20 0.839950 0.014939 0.108879
O O21 0.204432 0.250000 0.673482
#
# Coordination Sequence:
#
# PCOD9360176 Si02
#       8
#     8   8   8   8   8   8   8   8
#     4  10  19  35  60  87 115 149 188 237 290 341
#     4  10  19  33  56  82 113 149 186 233 288 340
#     4   9  17  33  58  85 111 144 187 234 283 334
#     4  11  21  35  55  83 117 149 184 231 284 338
#     4  10  20  36  55  78 109 151 191 233 285 344
#     4  12  25  41  60  84 116 154 194 237 285 345
#     4   8  15  31  53  76 104 140 182 225 277 330
#     4  10  19  32  55  83 109 140 184 237 283 334
#
# _framework density 17.604628000000002
#
# number of rings (size 3 to 8) (size 9 to 14) (size 15 to 20)
#    0.000    2.000    2.500    3.375    0.000    1.000 
#    0.000    4.375    0.000    6.000    0.000    0.000 
#    0.000    0.000    0.000    0.000    0.000    0.000 
#
# Total GULP energy -178594.706080 kJ/mol
# GULP energy per Si atom -5581.084565 kJ/mol
# Density = 1.756456 g / cm^3
# Si number density = 17.604628 Si / 1000 Ang^3
#
#
#
# Elastic Constant Matrix: (Units=GPa)
#
#
# Indices 1 2 3 4 5 6 
#
# 1 118.9798 40.9409 82.1523 0.0000 0.0000 0.0000
# 2 40.9409 49.5111 52.0384 0.0000 0.0000 0.0000
# 3 82.1523 52.0384 167.8766 0.0000 0.0000 0.0000
# 4 0.0000 0.0000 0.0000 29.7199 0.0000 0.0000
# 5 0.0000 0.0000 0.0000 0.0000 25.7375 0.0000
# 6 0.0000 0.0000 0.0000 0.0000 0.0000 24.0493
#
#
#
# Elastic Compliance Matrix: (Units=1/GPa)
#
#
# Indices 1 2 3 4 5 6 
#
# 1 0.013966 -0.006475 -0.004827 0.000000 0.000000 0.000000
# 2 -0.006475 0.032960 -0.007048 0.000000 0.000000 0.000000
# 3 -0.004827 -0.007048 0.010504 0.000000 0.000000 0.000000
# 4 0.000000 0.000000 0.000000 0.033648 0.000000 0.000000
# 5 0.000000 0.000000 0.000000 0.000000 0.038854 0.000000
# 6 0.000000 0.000000 0.000000 0.000000 0.000000 0.041581
#
#
# Mechanical properties :
#
#
# Convention : Reuss Voigt Hill
#
# Bulk Modulus (GPa) = 48.24247 76.29229 62.26738
# Shear Modulus (GPa) = 23.24261 26.65040 24.94651
#
# Velocity S-wave (km/s) = 3.63747 3.89502 3.76845
# Velocity P-wave (km/s) = 6.71598 7.97865 7.37439
#
# Compressibility (1/GPa) = 0.02072862
#
# Stress axis : x y z
#
# Youngs Moduli (GPa) = 71.60321 30.34021 95.20270
#
# Poissons Ratio (x) = 0.19644 0.45957
# Poissons Ratio (y) = 0.46361 0.67102
# Poissons Ratio (z) = 0.34565 0.21385
#
# Static dielectric constant tensor:
#      x y z
#    x 1.569800 0.000000 0.000000 
#    y 0.000000 1.597180 0.000000 
#    z 0.000000 0.000000 1.612420 
# 
# From -- ./inp_files/15052.got.cif
#   From: 2010.05.17/outbox.cif.g08.bks.cpg/sg39_8_cif.got.tgz:15052.got - 2010.06.03 18:22:40.
