data_PCOD9360435
_publ_section_title
;
Structure prediction by ZEFSAII (Michael W. Deem and Ramdas Pophale) SiO2 
 PCOD9360435
Probable space group: A B M 2
;
_chemical_formula_sum "Si O2"
_cell_formula_units_Z 48
_cell_length_a 14.603382
_cell_length_b 14.427450
_cell_length_c 11.032220
_cell_angle_alpha 90.000000
_cell_angle_beta 90.000000
_cell_angle_gamma 90.000000
_cell_volume 2324.373618
_symmetry_space_group_name_H-M "A B M 2"
_symmetry_group_IT_number 39
_symmetry_cell_setting 'orthorhombic'
loop_
_space_group_symop_operation_xyz
x,y,z
-x,-y,z
-x,1/2+y,z
x,1/2-y,z
x,1/2+y,1/2+z
-x,1/2-y,1/2+z
-x,y,1/2+z
x,-y,1/2+z
loop_
_atom_site_type_symbol
_atom_site_label
_atom_site_fract_x
_atom_site_fract_y
_atom_site_fract_z
Si Si1 0.514672 0.250000 0.376801
Si Si2 0.976379 0.144463 0.611698
Si Si3 0.369996 0.064581 0.915452
Si Si4 0.341383 0.956516 0.149759
Si Si5 0.168069 0.645857 0.395135
Si Si6 0.592307 0.750000 0.620412
Si Si7 0.872580 0.476318 0.174244
O O1 0.569287 0.343513 0.409955
O O2 0.434856 0.250000 0.478109
O O3 0.512586 0.250000 0.227467
O O4 0.995775 0.250000 0.651527
O O5 0.904004 0.149446 0.502933
O O6 0.067133 0.084877 0.580368
O O7 0.919952 0.074822 0.698598
O O8 0.377563 0.014816 0.783697
O O9 0.264874 0.099021 0.924590
O O10 0.388866 0.002962 0.033644
O O11 0.353267 0.845299 0.144076
O O12 0.234007 0.981737 0.143339
O O13 0.188012 0.750000 0.353662
O O14 0.122167 0.586520 0.291768
#
# Coordination Sequence:
#
# PCOD9360435 Si02
#       7
#     4   8   8   8   8   4   8
#     4  10  22  42  68  95 122 162 204 251 318 382
#     4  10  21  35  55  83 117 159 207 259 303 354
#     4  10  20  39  64  91 119 164 205 255 308 378
#     4  10  22  40  64  91 123 166 209 253 315 372
#     4  10  19  36  59  82 114 162 206 251 309 370
#     4  10  24  42  68  95 128 162 204 253 318 384
#     4  10  21  35  57  85 120 159 210 258 306 365
#
# _framework density 20.650725000000001
#
# number of rings (size 3 to 8) (size 9 to 14) (size 15 to 20)
#    0.000    2.000    2.500    0.500    4.667    4.667 
#    0.000    3.333    5.500    1.000    0.000    0.000 
#    0.000    0.000    0.000    0.000    0.000    0.000 
#
# Total GULP energy -133736.300114 kJ/mol
# GULP energy per Si atom -5572.345838 kJ/mol
# Density = 2.060372 g / cm^3
# Si number density = 20.650725 Si / 1000 Ang^3
#
#
#
# Elastic Constant Matrix: (Units=GPa)
#
#
# Indices 1 2 3 4 5 6 
#
# 1 49.2007 -5.8358 9.5513 0.0000 0.0000 0.0000
# 2 -5.8358 100.1707 53.3569 0.0000 0.0000 0.0000
# 3 9.5513 53.3569 86.0846 0.0000 0.0000 0.0000
# 4 0.0000 0.0000 0.0000 34.8773 0.0000 0.0000
# 5 0.0000 0.0000 0.0000 0.0000 11.2100 0.0000
# 6 0.0000 0.0000 0.0000 0.0000 0.0000 82.1645
#
#
#
# Elastic Compliance Matrix: (Units=1/GPa)
#
#
# Indices 1 2 3 4 5 6 
#
# 1 0.021701 0.003802 -0.004764 0.000000 0.000000 0.000000
# 2 0.003802 0.015569 -0.010072 0.000000 0.000000 0.000000
# 3 -0.004764 -0.010072 0.018388 0.000000 0.000000 0.000000
# 4 0.000000 0.000000 0.000000 0.028672 0.000000 0.000000
# 5 0.000000 0.000000 0.000000 0.000000 0.089206 0.000000
# 6 0.000000 0.000000 0.000000 0.000000 0.000000 0.012171
#
#
# Mechanical properties :
#
#
# Convention : Reuss Voigt Hill
#
# Bulk Modulus (GPa) = 29.77126 38.84451 34.30789
# Shear Modulus (GPa) = 22.83397 37.54260 30.18828
#
# Velocity S-wave (km/s) = 3.32885 4.26840 3.82756
# Velocity P-wave (km/s) = 5.40581 6.56837 6.01524
#
# Compressibility (1/GPa) = 0.03358944
#
# Stress axis : x y z
#
# Youngs Moduli (GPa) = 46.08126 64.22826 54.38332
#
# Poissons Ratio (x) = -0.24420 0.25910
# Poissons Ratio (y) = -0.17520 0.54775
# Poissons Ratio (z) = 0.21955 0.64691
#
# Static dielectric constant tensor:
#      x y z
#    x 1.772440 0.000000 0.000000 
#    y 0.000000 1.762900 0.000000 
#    z 0.000000 0.000000 1.819390 
# 
# From -- ./inp_files/6430.got.cif
#   From: 2010.05.17/outbox.cif.g08.bks.cpg/sg39_4_cif.got.tgz:6430.got - 2010.06.03 18:22:40.
