data_PCOD9360965
_publ_section_title
;
Structure prediction by ZEFSAII (Michael W. Deem and Ramdas Pophale) SiO2 
 PCOD9360965
Probable space group: A B M 2
;
_chemical_formula_sum "Si O2"
_cell_formula_units_Z 60
_cell_length_a 17.147432
_cell_length_b 9.473354
_cell_length_c 19.680835
_cell_angle_alpha 90.000000
_cell_angle_beta 90.000000
_cell_angle_gamma 90.000000
_cell_volume 3197.027529
_symmetry_space_group_name_H-M "A B M 2"
_symmetry_group_IT_number 39
_symmetry_cell_setting 'orthorhombic'
loop_
_space_group_symop_operation_xyz
x,y,z
-x,-y,z
-x,1/2+y,z
x,1/2-y,z
x,1/2+y,1/2+z
-x,1/2-y,1/2+z
-x,y,1/2+z
x,-y,1/2+z
loop_
_atom_site_type_symbol
_atom_site_label
_atom_site_fract_x
_atom_site_fract_y
_atom_site_fract_z
Si Si1 0.118983 0.585058 0.583270
Si Si2 0.292249 0.082380 0.928060
Si Si3 0.275507 0.091039 0.778930
Si Si4 0.286897 0.918882 0.645154
Si Si5 0.095480 0.902602 0.324747
Si Si6 0.000000 0.500000 0.699685
Si Si7 0.580671 0.081565 0.541819
Si Si8 0.129579 0.419465 0.449945
O O1 0.120391 0.750000 0.562817
O O2 0.206072 0.541246 0.607507
O O3 0.096319 0.487262 0.519430
O O4 0.062229 0.569163 0.648312
O O5 0.270340 0.250000 0.935243
O O6 0.316625 0.059506 0.850176
O O7 0.217101 0.986597 0.944629
O O8 0.364393 0.055230 0.976875
O O9 0.294818 0.250000 0.756581
O O10 0.184559 0.088441 0.799623
O O11 0.289025 0.983328 0.719351
O O12 0.285501 0.750000 0.647953
O O13 0.363298 0.962367 0.603836
O O14 0.083129 0.750000 0.358390
O O15 0.086984 0.023937 0.381500
O O16 0.046573 0.908353 0.255304
O O17 0.566959 0.250000 0.546069
O O18 0.500000 0.000000 0.539982
O O19 0.130206 0.250000 0.452199
#
# Coordination Sequence:
#
# PCOD9360965 Si02
#       8
#     8   8   8   8   8   4   8   8
#     4  11  23  41  63  87 123 164 201 254 313 362
#     4   9  18  38  62  86 119 158 196 242 306 362
#     4   9  18  34  59  86 114 152 194 240 290 355
#     4  10  20  37  60  86 120 161 197 241 301 363
#     4  10  22  40  60  85 120 157 195 250 314 360
#     4  12  24  40  64  92 116 156 214 260 300 364
#     4  10  21  38  61  89 122 159 200 246 303 361
#     4  11  23  38  62  90 116 154 208 253 294 363
#
# _framework density 18.767431999999999
#
# number of rings (size 3 to 8) (size 9 to 14) (size 15 to 20)
#    0.000    1.867    2.667    2.400    0.000    6.400 
#    0.000    0.667    0.000    3.200    0.000    0.000 
#    0.000    0.000    0.000    0.000    0.000    0.000 
#
# Total GULP energy -167368.372441 kJ/mol
# GULP energy per Si atom -5578.945748 kJ/mol
# Density = 1.872472 g / cm^3
# Si number density = 18.767432 Si / 1000 Ang^3
#
#
#
# Elastic Constant Matrix: (Units=GPa)
#
#
# Indices 1 2 3 4 5 6 
#
# 1 93.1717 40.1344 44.1141 0.0000 0.0000 0.0000
# 2 40.1344 86.1547 62.7580 0.0000 0.0000 0.0000
# 3 44.1141 62.7580 134.5643 0.0000 0.0000 0.0000
# 4 0.0000 0.0000 0.0000 34.5347 0.0000 0.0000
# 5 0.0000 0.0000 0.0000 0.0000 17.8655 0.0000
# 6 0.0000 0.0000 0.0000 0.0000 0.0000 -67.3462
#
#
#
# Elastic Compliance Matrix: (Units=1/GPa)
#
#
# Indices 1 2 3 4 5 6 
#
# 1 0.013892 -0.004777 -0.002326 0.000000 0.000000 0.000000
# 2 -0.004777 0.019222 -0.007399 0.000000 0.000000 0.000000
# 3 -0.002326 -0.007399 0.011645 0.000000 0.000000 0.000000
# 4 0.000000 0.000000 0.000000 0.028956 0.000000 0.000000
# 5 0.000000 0.000000 0.000000 0.000000 0.055974 0.000000
# 6 0.000000 0.000000 0.000000 0.000000 0.000000 -0.014849
#
#
# Mechanical properties :
#
#
# Convention : Reuss Voigt Hill
#
# Bulk Modulus (GPa) = 63.47345 67.54485 65.50915
# Shear Modulus (GPa) = 33.53565 8.13641 20.83603
#
# Velocity S-wave (km/s) = 4.23177 2.08442 3.33562
# Velocity P-wave (km/s) = 7.60077 6.47006 7.05809
#
# Compressibility (1/GPa) = 0.01575462
#
# Stress axis : x y z
#
# Youngs Moduli (GPa) = 71.98381 52.02461 85.87668
#
# Poissons Ratio (x) = 0.24851 0.19978
# Poissons Ratio (y) = 0.34386 0.63537
# Poissons Ratio (z) = 0.16746 0.38491
#
# Static dielectric constant tensor:
#      x y z
#    x 1.652090 0.000000 0.000000 
#    y 0.000000 1.651350 0.000000 
#    z 0.000000 0.000000 1.647760 
# 
# From -- ./inp_files/12935.got.cif
#   From: 2010.05.17/outbox.cif.g08.bks.cpg/sg39_7_cif.got.tgz:12935.got - 2010.06.03 18:22:40.
