data_PCOD9360762
_publ_section_title
;
Structure prediction by ZEFSAII (Michael W. Deem and Ramdas Pophale) SiO2 
 PCOD9360762
Probable space group: A B M 2
;
_chemical_formula_sum "Si O2"
_cell_formula_units_Z 56
_cell_length_a 19.830011
_cell_length_b 8.811447
_cell_length_c 16.167032
_cell_angle_alpha 90.000000
_cell_angle_beta 90.000000
_cell_angle_gamma 90.000000
_cell_volume 2824.883139
_symmetry_space_group_name_H-M "A B M 2"
_symmetry_group_IT_number 39
_symmetry_cell_setting 'orthorhombic'
loop_
_space_group_symop_operation_xyz
x,y,z
-x,-y,z
-x,1/2+y,z
x,1/2-y,z
x,1/2+y,1/2+z
-x,1/2-y,1/2+z
-x,y,1/2+z
x,-y,1/2+z
loop_
_atom_site_type_symbol
_atom_site_label
_atom_site_fract_x
_atom_site_fract_y
_atom_site_fract_z
Si Si1 0.425519 0.933203 0.778520
Si Si2 0.338637 0.931282 0.939131
Si Si3 0.930391 0.430771 0.933653
Si Si4 0.931986 0.430714 0.617241
Si Si5 0.651526 0.430747 0.610311
Si Si6 0.787711 0.571086 0.198999
Si Si7 0.793696 0.928280 0.871496
O O1 0.428251 0.750000 0.778999
O O2 0.383238 0.979036 0.859908
O O3 0.388759 0.977695 0.692878
O O4 0.500000 0.000000 0.781636
O O5 0.332083 0.750000 0.937243
O O6 0.265205 0.005719 0.928614
O O7 0.368251 0.984485 0.026673
O O8 0.933758 0.250000 0.932073
O O9 0.864497 0.489704 0.887577
O O10 0.000000 0.500000 0.899470
O O11 0.924965 0.490718 0.027877
O O12 0.940491 0.250000 0.606123
O O13 0.863124 0.455806 0.666742
O O14 0.000000 0.500000 0.656260
O O15 0.642216 0.250000 0.598844
O O16 0.730581 0.456965 0.630676
O O17 0.781535 0.750000 0.222750
O O18 0.773617 0.468384 0.277943
O O19 0.801070 0.750000 0.885224
#
# Coordination Sequence:
#
# PCOD9360762 Si02
#       7
#     8   8   8   8   8   8   8
#     4  10  23  43  67  94 132 170 207 258 314 374
#     4  11  23  42  66  95 129 169 214 260 314 374
#     4  11  22  38  59  83 117 158 205 259 315 375
#     4  10  20  35  57  83 116 158 202 255 314 372
#     4  10  21  41  66  93 127 167 211 260 314 372
#     4  10  21  39  60  83 119 161 205 257 315 368
#     4  12  24  38  60  89 121 160 209 261 315 374
#
# _framework density 19.823827999999999
#
# number of rings (size 3 to 8) (size 9 to 14) (size 15 to 20)
#    0.000    1.429    1.429    5.143    0.000    5.714 
#    0.000    4.286    0.000    0.000    0.000    0.000 
#    0.000    0.000    0.000    0.000    0.000    0.000 
#
# Total GULP energy -156527.773022 kJ/mol
# GULP energy per Si atom -5590.277608 kJ/mol
# Density = 1.977871 g / cm^3
# Si number density = 19.823828 Si / 1000 Ang^3
#
#
#
# Elastic Constant Matrix: (Units=GPa)
#
#
# Indices 1 2 3 4 5 6 
#
# 1 118.3622 42.0125 47.4586 0.0000 0.0000 0.0000
# 2 42.0125 82.0664 46.7567 0.0000 0.0000 0.0000
# 3 47.4586 46.7567 113.1837 0.0000 0.0000 0.0000
# 4 0.0000 0.0000 0.0000 33.4884 0.0000 0.0000
# 5 0.0000 0.0000 0.0000 0.0000 14.7103 0.0000
# 6 0.0000 0.0000 0.0000 0.0000 0.0000 28.8430
#
#
#
# Elastic Compliance Matrix: (Units=1/GPa)
#
#
# Indices 1 2 3 4 5 6 
#
# 1 0.011054 -0.003947 -0.003005 0.000000 0.000000 0.000000
# 2 -0.003947 0.017346 -0.005510 0.000000 0.000000 0.000000
# 3 -0.003005 -0.005510 0.012371 0.000000 0.000000 0.000000
# 4 0.000000 0.000000 0.000000 0.029861 0.000000 0.000000
# 5 0.000000 0.000000 0.000000 0.000000 0.067979 0.000000
# 6 0.000000 0.000000 0.000000 0.000000 0.000000 0.034670
#
#
# Mechanical properties :
#
#
# Convention : Reuss Voigt Hill
#
# Bulk Modulus (GPa) = 63.10397 65.11866 64.11132
# Shear Modulus (GPa) = 24.57136 27.23398 25.90267
#
# Velocity S-wave (km/s) = 3.52445 3.71050 3.61867
# Velocity P-wave (km/s) = 6.96160 7.16080 7.06190
#
# Compressibility (1/GPa) = 0.01584686
#
# Stress axis : x y z
#
# Youngs Moduli (GPa) = 90.46131 57.65181 80.83175
#
# Poissons Ratio (x) = 0.22757 0.24286
# Poissons Ratio (y) = 0.35708 0.44541
# Poissons Ratio (z) = 0.27179 0.31768
#
# Static dielectric constant tensor:
#      x y z
#    x 1.696480 0.000000 0.000000 
#    y 0.000000 1.664010 0.000000 
#    z 0.000000 0.000000 1.712220 
# 
# From -- ./inp_files/10391.got.cif
#   From: 2010.05.17/outbox.cif.g08.bks.cpg/sg39_6_cif.got.tgz:10391.got - 2010.06.03 18:22:40.
