data_PCOD9360441
_publ_section_title
;
Structure prediction by ZEFSAII (Michael W. Deem and Ramdas Pophale) SiO2 
 PCOD9360441
Probable space group: A B M 2
;
_chemical_formula_sum "Si O2"
_cell_formula_units_Z 64
_cell_length_a 14.880390
_cell_length_b 8.672288
_cell_length_c 25.130652
_cell_angle_alpha 90.000000
_cell_angle_beta 90.000000
_cell_angle_gamma 90.000000
_cell_volume 3243.035943
_symmetry_space_group_name_H-M "A B M 2"
_symmetry_group_IT_number 39
_symmetry_cell_setting 'orthorhombic'
loop_
_space_group_symop_operation_xyz
x,y,z
-x,-y,z
-x,1/2+y,z
x,1/2-y,z
x,1/2+y,1/2+z
-x,1/2-y,1/2+z
-x,y,1/2+z
x,-y,1/2+z
loop_
_atom_site_type_symbol
_atom_site_label
_atom_site_fract_x
_atom_site_fract_y
_atom_site_fract_z
Si Si1 0.717100 0.566230 0.159560
Si Si2 0.705266 0.064038 0.461763
Si Si3 0.865706 0.572055 0.322527
Si Si4 0.399070 0.066162 0.563593
Si Si5 0.344758 0.927126 0.849932
Si Si6 0.094687 0.064016 0.202223
Si Si7 0.906678 0.932287 0.934990
Si Si8 0.406194 0.568595 0.246007
O O1 0.713141 0.750000 0.150809
O O2 0.660105 0.482133 0.114476
O O3 0.820801 0.517757 0.166031
O O4 0.670919 0.523339 0.215307
O O5 0.702931 0.250000 0.459927
O O6 0.811101 0.014916 0.460039
O O7 0.652409 0.003172 0.512676
O O8 0.659277 0.995179 0.408939
O O9 0.896912 0.750000 0.327752
O O10 0.758275 0.572857 0.329404
O O11 0.890578 0.513300 0.263845
O O12 0.901024 0.476028 0.372456
O O13 0.404063 0.250000 0.559522
O O14 0.500000 0.000000 0.567652
O O15 0.377137 0.750000 0.849240
O O16 0.397672 0.031601 0.808339
O O17 0.093781 0.250000 0.203379
O O18 0.000000 0.000000 0.183293
O O19 0.910200 0.750000 0.940575
O O20 0.000000 0.000000 0.956676
O O21 0.500000 0.500000 0.226083
O O22 0.399913 0.750000 0.235923
#
# Coordination Sequence:
#
# PCOD9360441 Si02
#       8
#     8   8   8   8   8   8   8   8
#     4  11  23  44  66  89 124 162 203 257 311 363
#     4  10  22  41  63  92 125 161 205 256 309 363
#     4   9  17  32  53  81 119 164 206 247 297 353
#     4  12  26  46  71  97 119 154 203 256 313 372
#     4  10  19  36  59  87 125 164 202 250 307 365
#     4  10  21  36  57  87 123 164 205 249 301 359
#     4  10  20  33  54  86 124 165 208 251 300 357
#     4  12  24  38  59  89 123 162 204 250 306 374
#
# _framework density 19.734594999999999
#
# number of rings (size 3 to 8) (size 9 to 14) (size 15 to 20)
#    0.000    1.500    1.250    4.500    0.000    5.000 
#    0.000    3.125    0.000    0.000    0.000    0.000 
#    0.000    0.000    0.000    0.000    0.000    0.000 
#
# Total GULP energy -178808.375940 kJ/mol
# GULP energy per Si atom -5587.761748 kJ/mol
# Density = 1.968968 g / cm^3
# Si number density = 19.734595 Si / 1000 Ang^3
#
#
#
# Elastic Constant Matrix: (Units=GPa)
#
#
# Indices 1 2 3 4 5 6 
#
# 1 124.5648 19.3212 42.4643 0.0000 0.0000 0.0000
# 2 19.3212 51.9187 7.9958 0.0000 0.0000 0.0000
# 3 42.4643 7.9958 88.0032 0.0000 0.0000 0.0000
# 4 0.0000 0.0000 0.0000 31.4366 0.0000 0.0000
# 5 0.0000 0.0000 0.0000 0.0000 23.8069 0.0000
# 6 0.0000 0.0000 0.0000 0.0000 0.0000 31.3702
#
#
#
# Elastic Compliance Matrix: (Units=1/GPa)
#
#
# Indices 1 2 3 4 5 6 
#
# 1 0.010060 -0.003039 -0.004578 0.000000 0.000000 0.000000
# 2 -0.003039 0.020452 -0.000392 0.000000 0.000000 0.000000
# 3 -0.004578 -0.000392 0.013608 0.000000 0.000000 0.000000
# 4 0.000000 0.000000 0.000000 0.031810 0.000000 0.000000
# 5 0.000000 0.000000 0.000000 0.000000 0.042005 0.000000
# 6 0.000000 0.000000 0.000000 0.000000 0.000000 0.031877
#
#
# Mechanical properties :
#
#
# Convention : Reuss Voigt Hill
#
# Bulk Modulus (GPa) = 35.58425 44.89439 40.23932
# Shear Modulus (GPa) = 28.53926 30.30309 29.42117
#
# Velocity S-wave (km/s) = 3.80696 3.92284 3.86533
# Velocity P-wave (km/s) = 6.11510 6.58154 6.35260
#
# Compressibility (1/GPa) = 0.02810232
#
# Stress axis : x y z
#
# Youngs Moduli (GPa) = 99.40369 48.89481 73.48645
#
# Poissons Ratio (x) = 0.14858 0.33643
# Poissons Ratio (y) = 0.30206 0.02881
# Poissons Ratio (z) = 0.45509 0.01917
#
# Static dielectric constant tensor:
#      x y z
#    x 1.678280 0.000000 0.000000 
#    y 0.000000 1.667560 0.000000 
#    z 0.000000 0.000000 1.674820 
# 
# From -- ./inp_files/16244.got.cif
#   From: 2010.05.17/outbox.cif.g08.bks.cpg/sg39_9_cif.got.tgz:16244.got - 2010.06.03 18:22:40.
