data_PCOD9360885
_publ_section_title
;
Structure prediction by ZEFSAII (Michael W. Deem and Ramdas Pophale) SiO2 
 PCOD9360885
Probable space group: A B M 2
;
_chemical_formula_sum "Si O2"
_cell_formula_units_Z 64
_cell_length_a 19.399254
_cell_length_b 8.007501
_cell_length_c 20.534323
_cell_angle_alpha 90.000000
_cell_angle_beta 90.000000
_cell_angle_gamma 90.000000
_cell_volume 3189.792408
_symmetry_space_group_name_H-M "A B M 2"
_symmetry_group_IT_number 39
_symmetry_cell_setting 'orthorhombic'
loop_
_space_group_symop_operation_xyz
x,y,z
-x,-y,z
-x,1/2+y,z
x,1/2-y,z
x,1/2+y,1/2+z
-x,1/2-y,1/2+z
-x,y,1/2+z
x,-y,1/2+z
loop_
_atom_site_type_symbol
_atom_site_label
_atom_site_fract_x
_atom_site_fract_y
_atom_site_fract_z
Si Si1 0.920710 0.448591 0.358560
Si Si2 0.810663 0.950126 0.608605
Si Si3 0.337715 0.053943 0.823613
Si Si4 0.422055 0.450044 0.202625
Si Si5 0.659673 0.048198 0.575478
Si Si6 0.579833 0.452154 0.447366
Si Si7 0.920736 0.949112 0.505088
Si Si8 0.195807 0.455370 0.758712
O O1 0.918479 0.250000 0.356252
O O2 0.899806 0.499123 0.431900
O O3 0.868489 0.510594 0.303119
O O4 0.000000 0.500000 0.348168
O O5 0.818486 0.750000 0.612757
O O6 0.871452 0.016309 0.562128
O O7 0.809313 0.012083 0.683515
O O8 0.737927 0.988374 0.574766
O O9 0.324892 0.250000 0.835560
O O10 0.370856 0.983468 0.889453
O O11 0.266421 0.986268 0.793594
O O12 0.395044 0.032519 0.768271
O O13 0.500000 0.500000 0.188905
O O14 0.417080 0.250000 0.208961
O O15 0.374142 0.506683 0.143227
O O16 0.659951 0.250000 0.574633
O O17 0.612598 0.990938 0.515564
O O18 0.500000 0.500000 0.439747
O O19 0.581789 0.250000 0.446103
O O20 0.917594 0.750000 0.506870
O O21 0.000000 0.000000 0.514621
O O22 0.197117 0.250000 0.757465
#
# Coordination Sequence:
#
# PCOD9360885 Si02
#       8
#     8   8   8   8   8   8   8   8
#     4  10  20  36  60  86 115 151 187 228 274 326
#     4  10  21  38  59  83 113 148 188 229 274 331
#     4  10  20  37  59  81 109 146 186 229 277 333
#     4  11  22  36  56  82 110 145 184 228 277 329
#     4  10  22  38  56  82 112 143 186 231 276 331
#     4  10  22  38  57  81 109 143 186 231 279 335
#     4  10  21  37  58  86 116 149 187 228 274 327
#     4   9  19  36  58  83 111 149 188 224 275 332
#
# _framework density 20.064001999999999
#
# number of rings (size 3 to 8) (size 9 to 14) (size 15 to 20)
#    0.000    2.000    1.250    2.625    1.750    4.000 
#    0.000    2.500    0.000    0.000    0.000    0.000 
#    0.000    0.000    0.000    0.000    0.000    0.000 
#
# Total GULP energy -178670.236797 kJ/mol
# GULP energy per Si atom -5583.444900 kJ/mol
# Density = 2.001834 g / cm^3
# Si number density = 20.064002 Si / 1000 Ang^3
#
#
#
# Elastic Constant Matrix: (Units=GPa)
#
#
# Indices 1 2 3 4 5 6 
#
# 1 96.7160 -2.0170 41.1524 0.0000 0.0000 0.0000
# 2 -2.0170 15.3742 1.2188 0.0000 0.0000 0.0000
# 3 41.1524 1.2188 97.9613 0.0000 0.0000 0.0000
# 4 0.0000 0.0000 0.0000 7.4762 0.0000 0.0000
# 5 0.0000 0.0000 0.0000 0.0000 1660.8634 0.0000
# 6 0.0000 0.0000 0.0000 0.0000 0.0000 14.4939
#
#
#
# Elastic Compliance Matrix: (Units=1/GPa)
#
#
# Indices 1 2 3 4 5 6 
#
# 1 0.012656 0.002084 -0.005343 0.000000 0.000000 0.000000
# 2 0.002084 0.065451 -0.001690 0.000000 0.000000 0.000000
# 3 -0.005343 -0.001690 0.012474 0.000000 0.000000 0.000000
# 4 0.000000 0.000000 0.000000 0.133758 0.000000 0.000000
# 5 0.000000 0.000000 0.000000 0.000000 0.000602 0.000000
# 6 0.000000 0.000000 0.000000 0.000000 0.000000 0.068995
#
#
# Mechanical properties :
#
#
# Convention : Reuss Voigt Hill
#
# Bulk Modulus (GPa) = 12.39401 32.30666 22.35034
# Shear Modulus (GPa) = 15.11818 347.87985 181.49902
#
# Velocity S-wave (km/s) = 2.74797 13.18186 9.52137
# Velocity P-wave (km/s) = 4.03226 15.74226 11.49082
#
# Compressibility (1/GPa) = 0.08068411
#
# Stress axis : x y z
#
# Youngs Moduli (GPa) = 79.01196 15.27855 80.16974
#
# Poissons Ratio (x) = -0.03184 0.42832
# Poissons Ratio (y) = -0.16466 0.13547
# Poissons Ratio (z) = 0.42214 0.02582
#
# Static dielectric constant tensor:
#      x y z
#    x 1.662880 0.000000 0.000000 
#    y 0.000000 1.720260 0.000000 
#    z 0.000000 0.000000 1.706500 
# 
# From -- ./inp_files/13156.got.cif
#   From: 2010.05.17/outbox.cif.g08.bks.cpg/sg39_7_cif.got.tgz:13156.got - 2010.06.03 18:22:40.
