data_PCOD9360504
_publ_section_title
;
Structure prediction by ZEFSAII (Michael W. Deem and Ramdas Pophale) SiO2 
 PCOD9360504
Probable space group: A B M 2
;
_chemical_formula_sum "Si O2"
_cell_formula_units_Z 56
_cell_length_a 5.016181
_cell_length_b 27.299856
_cell_length_c 16.766069
_cell_angle_alpha 90.000000
_cell_angle_beta 90.000000
_cell_angle_gamma 90.000000
_cell_volume 2295.962573
_symmetry_space_group_name_H-M "A B M 2"
_symmetry_group_IT_number 39
_symmetry_cell_setting 'orthorhombic'
loop_
_space_group_symop_operation_xyz
x,y,z
-x,-y,z
-x,1/2+y,z
x,1/2-y,z
x,1/2+y,1/2+z
-x,1/2-y,1/2+z
-x,y,1/2+z
x,-y,1/2+z
loop_
_atom_site_type_symbol
_atom_site_label
_atom_site_fract_x
_atom_site_fract_y
_atom_site_fract_z
Si Si1 0.612704 0.617147 0.701480
Si Si2 0.750000 0.872922 0.398245
Si Si3 0.098373 0.693018 0.312728
Si Si4 0.866151 0.955058 0.820428
Si Si5 0.112704 0.617147 0.595011
Si Si6 0.598374 0.306982 0.483762
Si Si7 0.633849 0.955058 0.976062
O O1 0.725660 0.664733 0.747719
O O2 0.663884 0.572914 0.762912
O O3 0.313847 0.613912 0.669854
O O4 0.813847 0.613912 0.626636
O O5 0.687840 0.832844 0.468573
O O6 0.536304 0.911924 0.433552
O O7 0.812159 0.832844 0.327917
O O8 0.963696 0.911924 0.362939
O O9 0.068353 0.750000 0.294463
O O10 0.250000 0.687473 0.398245
O O11 0.750000 0.981196 0.898245
O O12 0.000000 0.000000 0.773960
O O13 0.225660 0.664733 0.548771
O O14 0.163884 0.572914 0.533578
O O15 0.568354 0.250000 0.502027
O O16 0.500000 0.000000 0.022531
#
# Coordination Sequence:
#
# PCOD9360504 Si02
#       7
#     8   8   8   8   8   8   8
#     4  11  27  44  67  99 146 186 223 282 351 419
#     4  10  19  38  64  96 130 160 221 286 344 388
#     4  10  23  42  71 101 130 178 236 289 345 412
#     4  11  24  41  71  99 130 180 238 290 340 405
#     4  11  27  44  67  99 146 186 223 282 351 419
#     4  10  23  42  71 101 130 178 236 289 345 412
#     4  11  24  41  71  99 130 180 238 290 340 405
#
# _framework density 24.390640999999999
#
# number of rings (size 3 to 8) (size 9 to 14) (size 15 to 20)
#    0.000    1.429    1.429    3.857   16.000    2.286 
#    0.000    0.000    0.000    0.000    0.000    0.000 
#    0.000    0.000    0.000    0.000    0.000    0.000 
#
# Total GULP energy -156013.264997 kJ/mol
# GULP energy per Si atom -5571.902321 kJ/mol
# Density = 2.433513 g / cm^3
# Si number density = 24.390641 Si / 1000 Ang^3
#
#
#
# Elastic Constant Matrix: (Units=GPa)
#
#
# Indices 1 2 3 4 5 6 
#
# 1 61.4450 -8.3867 6.1012 0.0000 0.0000 0.0000
# 2 -8.3867 146.4600 6.5610 0.0000 0.0000 0.0000
# 3 6.1012 6.5610 88.0901 0.0000 0.0000 0.0000
# 4 0.0000 0.0000 0.0000 -12.1412 0.0000 0.0000
# 5 0.0000 0.0000 0.0000 0.0000 54.3637 0.0000
# 6 0.0000 0.0000 0.0000 0.0000 0.0000 3.8631
#
#
#
# Elastic Compliance Matrix: (Units=1/GPa)
#
#
# Indices 1 2 3 4 5 6 
#
# 1 0.016532 0.001001 -0.001220 0.000000 0.000000 0.000000
# 2 0.001001 0.006911 -0.000584 0.000000 0.000000 0.000000
# 3 -0.001220 -0.000584 0.011480 0.000000 0.000000 0.000000
# 4 0.000000 0.000000 0.000000 -0.082364 0.000000 0.000000
# 5 0.000000 0.000000 0.000000 0.000000 0.018395 0.000000
# 6 0.000000 0.000000 0.000000 0.000000 0.000000 0.258859
#
#
# Mechanical properties :
#
#
# Convention : Reuss Voigt Hill
#
# Bulk Modulus (GPa) = 30.01293 33.83845 31.92569
# Shear Modulus (GPa) = 20.61648 28.66510 24.64079
#
# Velocity S-wave (km/s) = 2.91049 3.43191 3.18190
# Velocity P-wave (km/s) = 4.86070 5.44129 5.15917
#
# Compressibility (1/GPa) = 0.03331897
#
# Stress axis : x y z
#
# Youngs Moduli (GPa) = 60.48692 144.69042 87.10810
#
# Poissons Ratio (x) = -0.14488 0.10624
# Poissons Ratio (y) = -0.06057 0.05088
# Poissons Ratio (z) = 0.07377 0.08452
#
# Static dielectric constant tensor:
#      x y z
#    x 2.320200 0.000000 0.000000 
#    y 0.000000 1.889500 0.000000 
#    z 0.000000 0.000000 1.977430 
# 
# From -- ./inp_files/7665.got.cif
#   From: 2010.05.17/outbox.cif.g08.bks.cpg/sg39_4_cif.got.tgz:7665.got - 2010.06.03 18:22:40.
