data_PCOD9360706
_publ_section_title
;
Structure prediction by ZEFSAII (Michael W. Deem and Ramdas Pophale) SiO2 
 PCOD9360706
Probable space group: A B M 2
;
_chemical_formula_sum "Si O2"
_cell_formula_units_Z 60
_cell_length_a 23.960966
_cell_length_b 7.489347
_cell_length_c 15.424413
_cell_angle_alpha 90.000000
_cell_angle_beta 90.000000
_cell_angle_gamma 90.000000
_cell_volume 2767.941589
_symmetry_space_group_name_H-M "A B M 2"
_symmetry_group_IT_number 39
_symmetry_cell_setting 'orthorhombic'
loop_
_space_group_symop_operation_xyz
x,y,z
-x,-y,z
-x,1/2+y,z
x,1/2-y,z
x,1/2+y,1/2+z
-x,1/2-y,1/2+z
-x,y,1/2+z
x,-y,1/2+z
loop_
_atom_site_type_symbol
_atom_site_label
_atom_site_fract_x
_atom_site_fract_y
_atom_site_fract_z
Si Si1 0.142800 0.953812 0.721080
Si Si2 0.563592 0.535641 0.489182
Si Si3 0.927313 0.250000 0.285292
Si Si4 0.644685 0.040377 0.841043
Si Si5 0.231506 0.032218 0.364625
Si Si6 0.174019 0.463635 0.537178
Si Si7 0.940872 0.461585 0.941241
Si Si8 0.436310 0.461773 0.685550
O O1 0.125760 0.750000 0.737772
O O2 0.182291 0.023530 0.799450
O O3 0.092663 0.092530 0.716576
O O4 0.178120 0.958216 0.632615
O O5 0.500000 0.500000 0.461412
O O6 0.569366 0.750000 0.492663
O O7 0.607628 0.464650 0.419726
O O8 0.570511 0.466755 0.587489
O O9 0.939870 0.408635 0.358077
O O10 0.651631 0.250000 0.859847
O O11 0.707465 0.968626 0.836544
O O12 0.608988 0.026725 0.753734
O O13 0.229553 0.250000 0.361401
O O14 0.216825 0.977006 0.462477
O O15 0.179601 0.250000 0.544619
O O16 0.112806 0.504876 0.499123
O O17 0.937024 0.250000 0.919429
O O18 0.000000 0.500000 0.986189
O O19 0.500000 0.500000 0.713561
O O20 0.430351 0.250000 0.681788
#
# Coordination Sequence:
#
# PCOD9360706 Si02
#       8
#     8   8   4   8   8   8   8   8
#     4  11  23  40  66  95 126 167 217 258 307 376
#     4   9  19  34  54  76 108 148 189 235 293 357
#     4  12  22  42  66  96 126 170 208 260 308 374
#     4  10  20  36  57  82 117 151 189 245 300 351
#     4   9  20  39  60  87 121 159 202 250 309 370
#     4  10  21  40  66  91 125 166 209 258 310 371
#     4  11  23  41  70  96 129 169 208 254 315 371
#     4  10  20  35  53  79 109 148 193 238 294 358
#
# _framework density 21.676756999999998
#
# number of rings (size 3 to 8) (size 9 to 14) (size 15 to 20)
#    0.000    1.867    2.667    1.200    0.933    3.200 
#    1.200    2.000    0.000    0.000    0.000    0.000 
#    0.000    0.000    0.000    0.000    0.000    0.000 
#
# Total GULP energy -167035.122662 kJ/mol
# GULP energy per Si atom -5567.837422 kJ/mol
# Density = 2.162742 g / cm^3
# Si number density = 21.676757 Si / 1000 Ang^3
#
#
#
# Elastic Constant Matrix: (Units=GPa)
#
#
# Indices 1 2 3 4 5 6 
#
# 1 59.8543 5.6723 -1.1167 0.0000 0.0000 0.0000
# 2 5.6723 97.2867 3.8856 0.0000 0.0000 0.0000
# 3 -1.1167 3.8856 58.9290 0.0000 0.0000 0.0000
# 4 0.0000 0.0000 0.0000 -11.0018 0.0000 0.0000
# 5 0.0000 0.0000 0.0000 0.0000 -0.8582 0.0000
# 6 0.0000 0.0000 0.0000 0.0000 0.0000 9.8682
#
#
#
# Elastic Compliance Matrix: (Units=1/GPa)
#
#
# Indices 1 2 3 4 5 6 
#
# 1 0.016809 -0.000995 0.000384 0.000000 0.000000 0.000000
# 2 -0.000995 0.010365 -0.000702 0.000000 0.000000 0.000000
# 3 0.000384 -0.000702 0.017023 0.000000 0.000000 0.000000
# 4 0.000000 0.000000 0.000000 -0.090894 0.000000 0.000000
# 5 0.000000 0.000000 0.000000 0.000000 -1.165282 0.000000
# 6 0.000000 0.000000 0.000000 0.000000 0.000000 0.101336
#
#
# Mechanical properties :
#
#
# Convention : Reuss Voigt Hill
#
# Bulk Modulus (GPa) = 24.05592 25.88362 24.96977
# Shear Modulus (GPa) = -4.56972 13.44357 4.43692
#
# Velocity S-wave (km/s) = -1.45351 2.49305 1.43224
# Velocity P-wave (km/s) = 2.88179 4.50041 3.77879
#
# Compressibility (1/GPa) = 0.04156981
#
# Stress axis : x y z
#
# Youngs Moduli (GPa) = 59.49293 96.47870 58.74352
#
# Poissons Ratio (x) = 0.09603 -0.02257
# Poissons Ratio (y) = 0.05922 0.04126
# Poissons Ratio (z) = -0.02285 0.06776
#
# Static dielectric constant tensor:
#      x y z
#    x 1.815860 0.000000 0.000000 
#    y 0.000000 1.824160 0.000000 
#    z 0.000000 0.000000 1.801560 
# 
# From -- ./inp_files/10512.got.cif
#   From: 2010.05.17/outbox.cif.g08.bks.cpg/sg39_6_cif.got.tgz:10512.got - 2010.06.03 18:22:40.
