data_PCOD9360590
_publ_section_title
;
Structure prediction by ZEFSAII (Michael W. Deem and Ramdas Pophale) SiO2 
 PCOD9360590
Probable space group: A B M 2
;
_chemical_formula_sum "Si O2"
_cell_formula_units_Z 44
_cell_length_a 13.481878
_cell_length_b 13.484742
_cell_length_c 13.958097
_cell_angle_alpha 90.000000
_cell_angle_beta 90.000000
_cell_angle_gamma 90.000000
_cell_volume 2537.577100
_symmetry_space_group_name_H-M "A B M 2"
_symmetry_group_IT_number 39
_symmetry_cell_setting 'orthorhombic'
loop_
_space_group_symop_operation_xyz
x,y,z
-x,-y,z
-x,1/2+y,z
x,1/2-y,z
x,1/2+y,1/2+z
-x,1/2-y,1/2+z
-x,y,1/2+z
x,-y,1/2+z
loop_
_atom_site_type_symbol
_atom_site_label
_atom_site_fract_x
_atom_site_fract_y
_atom_site_fract_z
Si Si1 0.631672 0.865872 0.881590
Si Si2 0.500000 0.500000 0.243020
Si Si3 0.363118 0.131596 0.106304
Si Si4 0.946219 0.635440 0.695875
Si Si5 0.135328 0.133831 0.900460
Si Si6 0.140577 0.551588 0.604687
O O1 0.609341 0.750000 0.862825
O O2 0.571485 0.935799 0.811161
O O3 0.750026 0.879673 0.869896
O O4 0.610684 0.885572 0.994140
O O5 0.563917 0.572915 0.175907
O O6 0.365535 0.250000 0.122423
O O7 0.250862 0.092197 0.120391
O O8 0.921469 0.750000 0.679231
O O9 0.931685 0.614848 0.808432
O O10 0.875530 0.561162 0.637453
O O11 0.057935 0.612266 0.663558
O O12 0.125036 0.250000 0.929389
O O13 0.116159 0.067563 0.992896
#
# Coordination Sequence:
#
# PCOD9360590 Si02
#       6
#     8   4   8   8   8   8
#     4   9  19  35  53  74 104 140 172 206 260 324
#     4  12  20  32  56  82 102 128 174 230 264 292
#     4  10  21  37  56  78 105 139 176 213 261 318
#     4  10  20  33  54  82 106 135 179 219 251 300
#     4   9  18  35  55  74 103 142 175 206 257 319
#     4  10  20  35  56  77 107 143 175 211 259 312
#
# _framework density 17.339375
#
# number of rings (size 3 to 8) (size 9 to 14) (size 15 to 20)
#    0.000    2.182    0.000    4.909    0.000    2.909 
#    0.000    0.909    0.000   17.455    0.000    0.000 
#    0.000    0.000    0.000    0.000    0.000    0.000 
#
# Total GULP energy -122788.483608 kJ/mol
# GULP energy per Si atom -5581.294709 kJ/mol
# Density = 1.729991 g / cm^3
# Si number density = 17.339375 Si / 1000 Ang^3
#
#
#
# Elastic Constant Matrix: (Units=GPa)
#
#
# Indices 1 2 3 4 5 6 
#
# 1 79.1165 53.3321 68.8432 0.0000 0.0000 0.0000
# 2 53.3321 121.6289 79.9094 0.0000 0.0000 0.0000
# 3 68.8432 79.9094 118.0920 0.0000 0.0000 0.0000
# 4 0.0000 0.0000 0.0000 33.7799 0.0000 0.0000
# 5 0.0000 0.0000 0.0000 0.0000 29.2583 0.0000
# 6 0.0000 0.0000 0.0000 0.0000 0.0000 22.9237
#
#
#
# Elastic Compliance Matrix: (Units=1/GPa)
#
#
# Indices 1 2 3 4 5 6 
#
# 1 0.026103 -0.002607 -0.013453 0.000000 0.000000 0.000000
# 2 -0.002607 0.015063 -0.008673 0.000000 0.000000 0.000000
# 3 -0.013453 -0.008673 0.022179 0.000000 0.000000 0.000000
# 4 0.000000 0.000000 0.000000 0.029603 0.000000 0.000000
# 5 0.000000 0.000000 0.000000 0.000000 0.034178 0.000000
# 6 0.000000 0.000000 0.000000 0.000000 0.000000 0.043623
#
#
# Mechanical properties :
#
#
# Convention : Reuss Voigt Hill
#
# Bulk Modulus (GPa) = 72.04925 80.33409 76.19167
# Shear Modulus (GPa) = 22.23785 24.97589 23.60687
#
# Velocity S-wave (km/s) = 3.58509 3.79940 3.69380
# Velocity P-wave (km/s) = 7.66680 8.10421 7.88854
#
# Compressibility (1/GPa) = 0.01387939
#
# Stress axis : x y z
#
# Youngs Moduli (GPa) = 38.30949 66.38850 45.08770
#
# Poissons Ratio (x) = 0.17310 0.60656
# Poissons Ratio (y) = 0.09989 0.39103
# Poissons Ratio (z) = 0.51537 0.57576
#
# Static dielectric constant tensor:
#      x y z
#    x 1.572910 0.000000 0.000000 
#    y 0.000000 1.583570 0.000000 
#    z 0.000000 0.000000 1.577210 
# 
# From -- ./inp_files/6361.got.cif
#   From: 2010.05.17/outbox.cif.g08.bks.cpg/sg39_4_cif.got.tgz:6361.got - 2010.06.03 18:22:40.
