data_PCOD9360942
_publ_section_title
;
Structure prediction by ZEFSAII (Michael W. Deem and Ramdas Pophale) SiO2 
 PCOD9360942
Probable space group: A B M 2
;
_chemical_formula_sum "Si O2"
_cell_formula_units_Z 64
_cell_length_a 14.517785
_cell_length_b 9.616497
_cell_length_c 24.576174
_cell_angle_alpha 90.000000
_cell_angle_beta 90.000000
_cell_angle_gamma 90.000000
_cell_volume 3431.085450
_symmetry_space_group_name_H-M "A B M 2"
_symmetry_group_IT_number 39
_symmetry_cell_setting 'orthorhombic'
loop_
_space_group_symop_operation_xyz
x,y,z
-x,-y,z
-x,1/2+y,z
x,1/2-y,z
x,1/2+y,1/2+z
-x,1/2-y,1/2+z
-x,y,1/2+z
x,-y,1/2+z
loop_
_atom_site_type_symbol
_atom_site_label
_atom_site_fract_x
_atom_site_fract_y
_atom_site_fract_z
Si Si1 0.202762 0.405018 0.953120
Si Si2 0.765896 0.582067 0.275459
Si Si3 0.409648 0.906419 0.842590
Si Si4 0.091785 0.088531 0.065099
Si Si5 0.406332 0.590478 0.087600
Si Si6 0.249858 0.582112 0.649511
Si Si7 0.608774 0.968368 0.464844
Si Si8 0.095398 0.917789 0.867247
O O1 0.178677 0.250000 0.932881
O O2 0.164611 0.522526 0.912944
O O3 0.153192 0.426520 0.010883
O O4 0.312741 0.414141 0.961244
O O5 0.762209 0.750000 0.277428
O O6 0.675194 0.533782 0.307981
O O7 0.762758 0.543011 0.212543
O O8 0.856559 0.545281 0.309666
O O9 0.430282 0.750000 0.823533
O O10 0.500000 0.000000 0.838159
O O11 0.380960 0.897527 0.906035
O O12 0.065894 0.250000 0.069350
O O13 0.156923 0.053766 0.115909
O O14 0.000000 0.000000 0.061889
O O15 0.500000 0.500000 0.090119
O O16 0.420050 0.750000 0.106082
O O17 0.330784 0.506854 0.122101
O O18 0.375249 0.597094 0.024105
O O19 0.268157 0.750000 0.645429
O O20 0.500000 0.000000 0.466025
O O21 0.084919 0.750000 0.871698
O O22 0.000000 0.000000 0.873603
#
# Coordination Sequence:
#
# PCOD9360942 Si02
#       8
#     8   8   8   8   8   8   8   8
#     4  11  22  39  63  92 122 159 198 243 297 359
#     4   9  20  39  62  84 115 157 200 246 300 350
#     4  10  20  37  58  86 117 153 193 235 290 351
#     4  10  22  39  60  87 117 152 195 244 300 356
#     4  11  23  38  60  90 123 160 199 244 297 358
#     4  10  21  41  63  84 116 159 203 252 301 350
#     4  10  21  36  59  91 124 154 190 237 290 354
#     4  11  23  41  62  90 122 157 200 248 303 363
#
# _framework density 18.652989000000002
#
# number of rings (size 3 to 8) (size 9 to 14) (size 15 to 20)
#    0.000    1.750    2.500    1.500    0.000    7.500 
#    0.000    3.125    0.000    0.000    0.000    0.000 
#    0.000    0.000    0.000    0.000    0.000    0.000 
#
# Total GULP energy -178366.831326 kJ/mol
# GULP energy per Si atom -5573.963479 kJ/mol
# Density = 1.861053 g / cm^3
# Si number density = 18.652989 Si / 1000 Ang^3
#
#
#
# Elastic Constant Matrix: (Units=GPa)
#
#
# Indices 1 2 3 4 5 6 
#
# 1 124.7778 58.6935 40.6842 0.0000 0.0000 0.0000
# 2 58.6935 88.1205 32.1961 0.0000 0.0000 0.0000
# 3 40.6842 32.1961 96.8053 0.0000 0.0000 0.0000
# 4 0.0000 0.0000 0.0000 6.4234 0.0000 0.0000
# 5 0.0000 0.0000 0.0000 0.0000 12.9075 0.0000
# 6 0.0000 0.0000 0.0000 0.0000 0.0000 19.7777
#
#
#
# Elastic Compliance Matrix: (Units=1/GPa)
#
#
# Indices 1 2 3 4 5 6 
#
# 1 0.012295 -0.007173 -0.002782 0.000000 0.000000 0.000000
# 2 -0.007173 0.017103 -0.002673 0.000000 0.000000 0.000000
# 3 -0.002782 -0.002673 0.012388 0.000000 0.000000 0.000000
# 4 0.000000 0.000000 0.000000 0.155681 0.000000 0.000000
# 5 0.000000 0.000000 0.000000 0.000000 0.077474 0.000000
# 6 0.000000 0.000000 0.000000 0.000000 0.000000 0.050562
#
#
# Mechanical properties :
#
#
# Convention : Reuss Voigt Hill
#
# Bulk Modulus (GPa) = 60.49720 63.65014 62.07367
# Shear Modulus (GPa) = 14.03432 19.69704 16.86568
#
# Velocity S-wave (km/s) = 2.74595 3.25310 3.01022
# Velocity P-wave (km/s) = 6.52358 6.95036 6.74035
#
# Compressibility (1/GPa) = 0.01652969
#
# Stress axis : x y z
#
# Youngs Moduli (GPa) = 81.33159 58.47056 80.72189
#
# Poissons Ratio (x) = 0.41942 0.22454
# Poissons Ratio (y) = 0.58340 0.21581
# Poissons Ratio (z) = 0.22624 0.15632
#
# Static dielectric constant tensor:
#      x y z
#    x 1.649570 0.000000 0.000000 
#    y 0.000000 1.664300 0.000000 
#    z 0.000000 0.000000 1.645850 
# 
# From -- ./inp_files/16229.got.cif
#   From: 2010.05.17/outbox.cif.g08.bks.cpg/sg39_9_cif.got.tgz:16229.got - 2010.06.03 18:22:40.
