data_PCOD9360836
_publ_section_title
;
Structure prediction by ZEFSAII (Michael W. Deem and Ramdas Pophale) SiO2 
 PCOD9360836
Probable space group: A B M 2
;
_chemical_formula_sum "Si O2"
_cell_formula_units_Z 48
_cell_length_a 9.514931
_cell_length_b 8.609064
_cell_length_c 31.601856
_cell_angle_alpha 90.000000
_cell_angle_beta 90.000000
_cell_angle_gamma 90.000000
_cell_volume 2588.654972
_symmetry_space_group_name_H-M "A B M 2"
_symmetry_group_IT_number 39
_symmetry_cell_setting 'orthorhombic'
loop_
_space_group_symop_operation_xyz
x,y,z
-x,-y,z
-x,1/2+y,z
x,1/2-y,z
x,1/2+y,1/2+z
-x,1/2-y,1/2+z
-x,y,1/2+z
x,-y,1/2+z
loop_
_atom_site_type_symbol
_atom_site_label
_atom_site_fract_x
_atom_site_fract_y
_atom_site_fract_z
Si Si1 0.157420 0.562531 0.689610
Si Si2 0.156839 0.064657 0.439073
Si Si3 0.342759 0.937210 0.610636
Si Si4 0.658123 0.063131 0.771229
Si Si5 0.158570 0.064241 0.848246
Si Si6 0.657430 0.936722 0.014876
O O1 0.151255 0.750000 0.688982
O O2 0.235503 0.509531 0.646739
O O3 0.252698 0.516813 0.729704
O O4 0.000000 0.500000 0.693017
O O5 0.154043 0.250000 0.436075
O O6 0.207485 0.995125 0.394302
O O7 0.248310 0.009822 0.478513
O O8 0.000000 0.000000 0.444899
O O9 0.350023 0.750000 0.612353
O O10 0.298015 0.980055 0.562856
O O11 0.500000 0.000000 0.618064
O O12 0.654677 0.250000 0.773297
O O13 0.500000 0.000000 0.768894
O O14 0.739424 0.997726 0.811920
O O15 0.153538 0.250000 0.847922
O O16 0.000000 0.000000 0.841648
O O17 0.659130 0.750000 0.011435
O O18 0.500000 0.000000 0.009940
#
# Coordination Sequence:
#
# PCOD9360836 Si02
#       6
#     8   8   8   8   8   8
#     4  10  22  38  57  83 114 148 187 230 277 331
#     4  11  22  38  59  84 114 149 189 232 282 335
#     4   9  19  36  57  82 112 147 187 231 278 330
#     4  11  23  39  59  85 115 148 188 232 281 334
#     4  11  22  39  61  85 114 148 187 231 281 334
#     4  10  20  36  57  83 115 150 190 234 282 334
#
# _framework density 18.542446999999999
#
# number of rings (size 3 to 8) (size 9 to 14) (size 15 to 20)
#    0.000    1.667    0.000    6.000    0.000    5.333 
#    0.000    5.000    0.000    0.000    0.000    0.000 
#    0.000    0.000    0.000    0.000    0.000    0.000 
#
# Total GULP energy -134115.943530 kJ/mol
# GULP energy per Si atom -5588.164314 kJ/mol
# Density = 1.850024 g / cm^3
# Si number density = 18.542447 Si / 1000 Ang^3
#
#
#
# Elastic Constant Matrix: (Units=GPa)
#
#
# Indices 1 2 3 4 5 6 
#
# 1 128.9862 49.1554 125.7763 0.0000 0.0000 0.0000
# 2 49.1554 97.9799 68.0252 0.0000 0.0000 0.0000
# 3 125.7763 68.0252 205.0440 0.0000 0.0000 0.0000
# 4 0.0000 0.0000 0.0000 24.4172 0.0000 0.0000
# 5 0.0000 0.0000 0.0000 0.0000 45.1076 0.0000
# 6 0.0000 0.0000 0.0000 0.0000 0.0000 37.0834
#
#
#
# Elastic Compliance Matrix: (Units=1/GPa)
#
#
# Indices 1 2 3 4 5 6 
#
# 1 0.019569 -0.001927 -0.011364 0.000000 0.000000 0.000000
# 2 -0.001927 0.013450 -0.003280 0.000000 0.000000 0.000000
# 3 -0.011364 -0.003280 0.012936 0.000000 0.000000 0.000000
# 4 0.000000 0.000000 0.000000 0.040955 0.000000 0.000000
# 5 0.000000 0.000000 0.000000 0.000000 0.022169 0.000000
# 6 0.000000 0.000000 0.000000 0.000000 0.000000 0.026966
#
#
# Mechanical properties :
#
#
# Convention : Reuss Voigt Hill
#
# Bulk Modulus (GPa) = 78.05250 101.99154 90.02202
# Shear Modulus (GPa) = 28.82523 33.92519 31.37521
#
# Velocity S-wave (km/s) = 3.94706 4.28202 4.11795
# Velocity P-wave (km/s) = 7.93459 8.92028 8.44183
#
# Compressibility (1/GPa) = 0.01281189
#
# Stress axis : x y z
#
# Youngs Moduli (GPa) = 51.10199 74.34751 77.30318
#
# Poissons Ratio (x) = 0.14330 0.87849
# Poissons Ratio (y) = 0.09850 0.25355
# Poissons Ratio (z) = 0.58073 0.24385
#
# Static dielectric constant tensor:
#      x y z
#    x 1.585670 0.000000 0.000000 
#    y 0.000000 1.628920 0.000000 
#    z 0.000000 0.000000 1.643880 
# 
# From -- ./inp_files/17586.got.cif
#   From: 2010.05.17/outbox.cif.g08.bks.cpg/sg39_9_cif.got.tgz:17586.got - 2010.06.03 18:22:40.
