data_PCOD9360608
_publ_section_title
;
Structure prediction by ZEFSAII (Michael W. Deem and Ramdas Pophale) SiO2 
 PCOD9360608
Probable space group: A B M 2
;
_chemical_formula_sum "Si O2"
_cell_formula_units_Z 56
_cell_length_a 20.348913
_cell_length_b 9.339144
_cell_length_c 14.726412
_cell_angle_alpha 90.000000
_cell_angle_beta 90.000000
_cell_angle_gamma 90.000000
_cell_volume 2798.628377
_symmetry_space_group_name_H-M "A B M 2"
_symmetry_group_IT_number 39
_symmetry_cell_setting 'orthorhombic'
loop_
_space_group_symop_operation_xyz
x,y,z
-x,-y,z
-x,1/2+y,z
x,1/2-y,z
x,1/2+y,1/2+z
-x,1/2-y,1/2+z
-x,y,1/2+z
x,-y,1/2+z
loop_
_atom_site_type_symbol
_atom_site_label
_atom_site_fract_x
_atom_site_fract_y
_atom_site_fract_z
Si Si1 0.068776 0.920961 0.724620
Si Si2 0.561810 0.589234 0.303398
Si Si3 0.306003 0.410613 0.561339
Si Si4 0.820995 0.083398 0.574206
Si Si5 0.163051 0.419576 0.858500
Si Si6 0.706829 0.586719 0.344573
Si Si7 0.437987 0.589280 0.586425
O O1 0.060438 0.750000 0.737308
O O2 0.117218 0.943268 0.638887
O O3 0.105317 0.993109 0.810087
O O4 0.000000 0.000000 0.710049
O O5 0.500000 0.500000 0.338252
O O6 0.562172 0.750000 0.342987
O O7 0.634977 0.528689 0.318086
O O8 0.553365 0.600841 0.195134
O O9 0.315511 0.250000 0.597216
O O10 0.241181 0.486281 0.599716
O O11 0.294279 0.402089 0.453398
O O12 0.370557 0.505246 0.573017
O O13 0.801615 0.250000 0.583990
O O14 0.838206 0.061388 0.467885
O O15 0.159052 0.250000 0.839405
O O16 0.231652 0.486782 0.822930
O O17 0.714302 0.750000 0.307359
O O18 0.500000 0.500000 0.551090
O O19 0.435216 0.750000 0.548581
#
# Coordination Sequence:
#
# PCOD9360608 Si02
#       7
#     8   8   8   8   8   8   8
#     4  11  24  42  64  91 122 157 195 236 286 348
#     4   9  19  34  51  72 102 141 185 231 282 337
#     4  10  20  34  55  82 111 143 186 236 287 344
#     4   9  21  41  62  86 121 160 197 239 290 346
#     4  10  21  39  62  91 122 155 197 243 290 345
#     4   9  19  36  55  79 110 147 187 231 287 344
#     4  10  20  34  51  73 105 145 188 236 288 344
#
# _framework density 20.009802000000001
#
# number of rings (size 3 to 8) (size 9 to 14) (size 15 to 20)
#    0.000    2.286    0.000    1.714    2.000    4.571 
#    0.000    2.857    0.000    0.000    0.000    0.000 
#    0.000    0.000    0.000    0.000    0.000    0.000 
#
# Total GULP energy -156349.612536 kJ/mol
# GULP energy per Si atom -5583.914733 kJ/mol
# Density = 1.996426 g / cm^3
# Si number density = 20.009802 Si / 1000 Ang^3
#
#
#
# Elastic Constant Matrix: (Units=GPa)
#
#
# Indices 1 2 3 4 5 6 
#
# 1 169.5579 118.0590 24.8853 0.0000 0.0000 0.0000
# 2 118.0590 159.9278 36.6613 0.0000 0.0000 0.0000
# 3 24.8853 36.6613 47.3177 0.0000 0.0000 0.0000
# 4 0.0000 0.0000 0.0000 8.7327 0.0000 0.0000
# 5 0.0000 0.0000 0.0000 0.0000 34.2886 0.0000
# 6 0.0000 0.0000 0.0000 0.0000 0.0000 39.2321
#
#
#
# Elastic Compliance Matrix: (Units=1/GPa)
#
#
# Indices 1 2 3 4 5 6 
#
# 1 0.012153 -0.009127 0.000680 0.000000 0.000000 0.000000
# 2 -0.009127 0.014458 -0.006402 0.000000 0.000000 0.000000
# 3 0.000680 -0.006402 0.025736 0.000000 0.000000 0.000000
# 4 0.000000 0.000000 0.000000 0.114512 0.000000 0.000000
# 5 0.000000 0.000000 0.000000 0.000000 0.029164 0.000000
# 6 0.000000 0.000000 0.000000 0.000000 0.000000 0.025489
#
#
# Mechanical properties :
#
#
# Convention : Reuss Voigt Hill
#
# Bulk Modulus (GPa) = 44.15119 81.77940 62.96529
# Shear Modulus (GPa) = 19.32292 29.59719 24.46006
#
# Velocity S-wave (km/s) = 3.11090 3.85012 3.50008
# Velocity P-wave (km/s) = 5.91745 7.79250 6.91879
#
# Compressibility (1/GPa) = 0.02264945
#
# Stress axis : x y z
#
# Youngs Moduli (GPa) = 82.28462 69.16538 38.85605
#
# Poissons Ratio (x) = 0.63129 -0.02643
# Poissons Ratio (y) = 0.75103 0.24875
# Poissons Ratio (z) = -0.05597 0.44278
#
# Static dielectric constant tensor:
#      x y z
#    x 1.672560 0.000000 0.000000 
#    y 0.000000 1.716580 0.000000 
#    z 0.000000 0.000000 1.732100 
# 
# From -- ./inp_files/10384.got.cif
#   From: 2010.05.17/outbox.cif.g08.bks.cpg/sg39_6_cif.got.tgz:10384.got - 2010.06.03 18:22:40.
