data_PCOD9360086
_publ_section_title
;
Structure prediction by ZEFSAII (Michael W. Deem and Ramdas Pophale) SiO2 
 PCOD9360086
Probable space group: A B M 2
;
_chemical_formula_sum "Si O2"
_cell_formula_units_Z 64
_cell_length_a 16.635278
_cell_length_b 9.486731
_cell_length_c 22.080100
_cell_angle_alpha 90.000000
_cell_angle_beta 90.000000
_cell_angle_gamma 90.000000
_cell_volume 3484.557899
_symmetry_space_group_name_H-M "A B M 2"
_symmetry_group_IT_number 39
_symmetry_cell_setting 'orthorhombic'
loop_
_space_group_symop_operation_xyz
x,y,z
-x,-y,z
-x,1/2+y,z
x,1/2-y,z
x,1/2+y,1/2+z
-x,1/2-y,1/2+z
-x,y,1/2+z
x,-y,1/2+z
loop_
_atom_site_type_symbol
_atom_site_label
_atom_site_fract_x
_atom_site_fract_y
_atom_site_fract_z
Si Si1 0.241305 0.583802 0.310310
Si Si2 0.706046 0.903221 0.076526
Si Si3 0.426336 0.907751 0.127156
Si Si4 0.421050 0.912727 0.272981
Si Si5 0.784447 0.908223 0.951647
Si Si6 0.083101 0.919417 0.760929
Si Si7 0.110687 0.091573 0.117944
Si Si8 0.925352 0.415782 0.002397
O O1 0.231150 0.750000 0.292014
O O2 0.330439 0.535864 0.288771
O O3 0.243304 0.579367 0.383184
O O4 0.164114 0.493544 0.287556
O O5 0.669000 0.750000 0.090430
O O6 0.793599 0.905233 0.107203
O O7 0.654900 0.027483 0.102851
O O8 0.718232 0.915519 0.004427
O O9 0.436692 0.750000 0.106575
O O10 0.424890 0.911686 0.200014
O O11 0.500000 0.000000 0.105085
O O12 0.426933 0.750000 0.294266
O O13 0.500000 0.000000 0.293948
O O14 0.821319 0.750000 0.959221
O O15 0.847548 0.028354 0.967706
O O16 0.080350 0.750000 0.774806
O O17 0.089980 0.932641 0.687707
O O18 0.000000 0.000000 0.779493
O O19 0.081158 0.250000 0.100763
O O20 0.082420 0.972296 0.071444
O O21 0.934088 0.250000 0.999351
O O22 0.000000 0.500000 0.975096
#
# Coordination Sequence:
#
# PCOD9360086 Si02
#       8
#     8   8   8   8   8   8   8   8
#     4  10  21  39  60  80 108 147 188 231 276 322
#     4   9  17  32  53  76 103 134 169 212 264 319
#     4  10  19  31  50  78 109 137 168 208 258 318
#     4   9  19  35  57  85 112 140 177 221 271 326
#     4   9  20  38  56  74 102 140 179 219 266 320
#     4  11  23  37  55  81 113 149 187 228 275 328
#     4   9  19  35  54  78 108 140 174 216 271 329
#     4  11  21  33  53  78 104 135 175 223 271 320
#
# _framework density 18.366748999999999
#
# number of rings (size 3 to 8) (size 9 to 14) (size 15 to 20)
#    0.000    2.250    0.000    3.750    0.000    6.000 
#    0.000    0.625    0.000    1.500    0.000    0.000 
#    0.000    0.000    0.000    0.000    0.000    0.000 
#
# Total GULP energy -178351.817158 kJ/mol
# GULP energy per Si atom -5573.494286 kJ/mol
# Density = 1.832495 g / cm^3
# Si number density = 18.366749 Si / 1000 Ang^3
#
#
#
# Elastic Constant Matrix: (Units=GPa)
#
#
# Indices 1 2 3 4 5 6 
#
# 1 113.4697 68.3843 13.1610 0.0000 0.0000 0.0000
# 2 68.3843 138.0127 19.4251 0.0000 0.0000 0.0000
# 3 13.1610 19.4251 21.9643 0.0000 0.0000 0.0000
# 4 0.0000 0.0000 0.0000 20.1234 0.0000 0.0000
# 5 0.0000 0.0000 0.0000 0.0000 -11.8812 0.0000
# 6 0.0000 0.0000 0.0000 0.0000 0.0000 33.9236
#
#
#
# Elastic Compliance Matrix: (Units=1/GPa)
#
#
# Indices 1 2 3 4 5 6 
#
# 1 0.012669 -0.005949 -0.002329 0.000000 0.000000 0.000000
# 2 -0.005949 0.011070 -0.006225 0.000000 0.000000 0.000000
# 3 -0.002329 -0.006225 0.052430 0.000000 0.000000 0.000000
# 4 0.000000 0.000000 0.000000 0.049693 0.000000 0.000000
# 5 0.000000 0.000000 0.000000 0.000000 -0.084166 0.000000
# 6 0.000000 0.000000 0.000000 0.000000 0.000000 0.029478
#
#
# Mechanical properties :
#
#
# Convention : Reuss Voigt Hill
#
# Bulk Modulus (GPa) = 21.20432 52.82082 37.01257
# Shear Modulus (GPa) = 43.14025 19.93157 31.53591
#
# Velocity S-wave (km/s) = 4.85172 3.29781 4.14818
# Velocity P-wave (km/s) = 6.55406 6.58195 6.56802
#
# Compressibility (1/GPa) = 0.04716019
#
# Stress axis : x y z
#
# Youngs Moduli (GPa) = 78.93557 90.33640 19.07311
#
# Poissons Ratio (x) = 0.53744 0.04443
# Poissons Ratio (y) = 0.46961 0.11873
# Poissons Ratio (z) = 0.18388 0.56236
#
# Static dielectric constant tensor:
#      x y z
#    x 1.690220 0.000000 0.000000 
#    y 0.000000 1.648680 0.000000 
#    z 0.000000 0.000000 1.619800 
# 
# From -- ./inp_files/16236.got.cif
#   From: 2010.05.17/outbox.cif.g08.bks.cpg/sg39_9_cif.got.tgz:16236.got - 2010.06.03 18:22:40.
