data_PCOD9360468
_publ_section_title
;
Structure prediction by ZEFSAII (Michael W. Deem and Ramdas Pophale) SiO2 
 PCOD9360468
Probable space group: A B M 2
;
_chemical_formula_sum "Si O2"
_cell_formula_units_Z 64
_cell_length_a 9.597737
_cell_length_b 18.295530
_cell_length_c 18.161873
_cell_angle_alpha 90.000000
_cell_angle_beta 90.000000
_cell_angle_gamma 90.000000
_cell_volume 3189.146534
_symmetry_space_group_name_H-M "A B M 2"
_symmetry_group_IT_number 39
_symmetry_cell_setting 'orthorhombic'
loop_
_space_group_symop_operation_xyz
x,y,z
-x,-y,z
-x,1/2+y,z
x,1/2-y,z
x,1/2+y,1/2+z
-x,1/2-y,1/2+z
-x,y,1/2+z
x,-y,1/2+z
loop_
_atom_site_type_symbol
_atom_site_label
_atom_site_fract_x
_atom_site_fract_y
_atom_site_fract_z
Si Si1 0.818168 0.327603 0.548940
Si Si2 0.226087 0.544255 0.903352
Si Si3 0.385004 0.059732 0.675029
Si Si4 0.835746 0.011118 0.568453
Si Si5 0.443150 0.333993 0.393588
Si Si6 0.271303 0.611088 0.326602
Si Si7 0.010045 0.831854 0.396727
Si Si8 0.492991 0.672120 0.058641
O O1 0.856280 0.250000 0.585168
O O2 0.831224 0.403482 0.589262
O O3 0.907297 0.333716 0.474484
O O4 0.653579 0.325561 0.534801
O O5 0.349356 0.596448 0.872129
O O6 0.231180 0.469704 0.856771
O O7 0.094373 0.599355 0.896559
O O8 0.228604 0.514170 0.988713
O O9 0.251936 0.028599 0.631238
O O10 0.329289 0.103434 0.744755
O O11 0.463277 0.109138 0.615139
O O12 0.500000 0.000000 0.698507
O O13 0.000000 0.000000 0.562653
O O14 0.415184 0.250000 0.367972
O O15 0.601762 0.354152 0.373295
O O16 0.414958 0.334239 0.481484
O O17 0.130936 0.657450 0.336537
O O18 0.945868 0.750000 0.390444
O O19 0.457063 0.750000 0.093721
#
# Coordination Sequence:
#
# PCOD9360468 Si02
#       8
#     8   8   8   8   8   8   8   8
#     4  10  19  36  64  96 126 158 208 261 318 380
#     4  12  22  39  66  98 127 166 217 273 312 374
#     4  12  26  42  62  93 130 170 214 267 329 390
#     4  12  22  39  64  97 129 172 213 266 323 377
#     4  11  22  39  65  96 127 164 216 269 317 374
#     4  12  25  42  64  94 128 172 219 265 325 387
#     4  11  22  39  67  97 129 166 211 266 323 380
#     4  10  20  37  64  96 124 163 210 263 319 377
#
# _framework density 20.068066000000002
#
# number of rings (size 3 to 8) (size 9 to 14) (size 15 to 20)
#    0.000    0.750    6.250    2.250    0.000    2.000 
#    0.000    0.625    0.000    2.250    0.000    0.000 
#    0.000    0.000    0.000    0.000    0.000    0.000 
#
# Total GULP energy -178340.501186 kJ/mol
# GULP energy per Si atom -5573.140662 kJ/mol
# Density = 2.002239 g / cm^3
# Si number density = 20.068066 Si / 1000 Ang^3
#
#
#
# Elastic Constant Matrix: (Units=GPa)
#
#
# Indices 1 2 3 4 5 6 
#
# 1 40.0855 17.7483 2.3260 0.0000 0.0000 0.0000
# 2 17.7483 114.9237 1.9923 0.0000 0.0000 0.0000
# 3 2.3260 1.9923 53.4894 0.0000 0.0000 0.0000
# 4 0.0000 0.0000 0.0000 16.0063 0.0000 0.0000
# 5 0.0000 0.0000 0.0000 0.0000 19.1914 0.0000
# 6 0.0000 0.0000 0.0000 0.0000 0.0000 15.9904
#
#
#
# Elastic Compliance Matrix: (Units=1/GPa)
#
#
# Indices 1 2 3 4 5 6 
#
# 1 0.026832 -0.004126 -0.001013 0.000000 0.000000 0.000000
# 2 -0.004126 0.009342 -0.000169 0.000000 0.000000 0.000000
# 3 -0.001013 -0.000169 0.018746 0.000000 0.000000 0.000000
# 4 0.000000 0.000000 0.000000 0.062475 0.000000 0.000000
# 5 0.000000 0.000000 0.000000 0.000000 0.052107 0.000000
# 6 0.000000 0.000000 0.000000 0.000000 0.000000 0.062537
#
#
# Mechanical properties :
#
#
# Convention : Reuss Voigt Hill
#
# Bulk Modulus (GPa) = 22.57143 28.07017 25.32080
# Shear Modulus (GPa) = 19.42327 22.66642 21.04485
#
# Velocity S-wave (km/s) = 3.11444 3.36442 3.24184
# Velocity P-wave (km/s) = 4.91984 5.39539 5.16309
#
# Compressibility (1/GPa) = 0.04430380
#
# Stress axis : x y z
#
# Youngs Moduli (GPa) = 37.26834 107.04808 53.34576
#
# Poissons Ratio (x) = 0.44171 0.05405
# Poissons Ratio (y) = 0.15378 0.00899
# Poissons Ratio (z) = 0.03776 0.01804
#
# Static dielectric constant tensor:
#      x y z
#    x 1.448220 0.000000 0.000000 
#    y 0.000000 1.729870 0.000000 
#    z 0.000000 0.000000 1.678010 
# 
# From -- ./inp_files/14244.got.cif
#   From: 2010.05.17/outbox.cif.g08.bks.cpg/sg39_8_cif.got.tgz:14244.got - 2010.06.03 18:22:40.
