data_PCOD9360054
_publ_section_title
;
Structure prediction by ZEFSAII (Michael W. Deem and Ramdas Pophale) SiO2 
 PCOD9360054
Probable space group: A B M 2
;
_chemical_formula_sum "Si O2"
_cell_formula_units_Z 56
_cell_length_a 12.442657
_cell_length_b 14.453848
_cell_length_c 14.743337
_cell_angle_alpha 90.000000
_cell_angle_beta 90.000000
_cell_angle_gamma 90.000000
_cell_volume 2651.504724
_symmetry_space_group_name_H-M "A B M 2"
_symmetry_group_IT_number 39
_symmetry_cell_setting 'orthorhombic'
loop_
_space_group_symop_operation_xyz
x,y,z
-x,-y,z
-x,1/2+y,z
x,1/2-y,z
x,1/2+y,1/2+z
-x,1/2-y,1/2+z
-x,y,1/2+z
x,-y,1/2+z
loop_
_atom_site_type_symbol
_atom_site_label
_atom_site_fract_x
_atom_site_fract_y
_atom_site_fract_z
Si Si1 0.784559 0.853599 0.667410
Si Si2 0.971412 0.392678 0.944010
Si Si3 0.625834 0.004974 0.078161
Si Si4 0.981521 0.354623 0.644410
Si Si5 0.256271 0.862958 0.703475
Si Si6 0.258748 0.551339 0.901522
Si Si7 0.823921 0.152753 0.372192
O O1 0.785381 0.750000 0.625923
O O2 0.690309 0.915782 0.631112
O O3 0.772680 0.843660 0.773899
O O4 0.902060 0.901340 0.656567
O O5 0.843322 0.385506 0.934467
O O6 0.000000 0.500000 0.946515
O O7 0.045892 0.352031 0.865085
O O8 0.023400 0.353143 0.035340
O O9 0.500000 0.000000 0.095613
O O10 0.679257 0.910994 0.120125
O O11 0.646832 0.039284 0.974508
O O12 0.996187 0.250000 0.677462
O O13 0.869961 0.386589 0.686482
O O14 0.267518 0.750000 0.705845
O O15 0.285930 0.910703 0.800787
O O16 0.213535 0.446277 0.906415
O O17 0.795821 0.250000 0.420021
#
# Coordination Sequence:
#
# PCOD9360054 Si02
#       7
#     8   8   8   8   8   8   8
#     4  10  21  40  65  96 131 173 221 277 340 415
#     4  10  19  30  56  96 140 179 213 266 338 418
#     4  12  27  47  72  95 133 186 245 297 352 414
#     4  10  20  35  62  98 140 178 213 269 350 428
#     4  11  25  45  72 106 141 179 232 296 362 430
#     4  11  23  42  66  99 136 183 230 293 349 415
#     4  10  20  36  61  95 132 173 220 268 337 421
#
# _framework density 21.120083999999999
#
# number of rings (size 3 to 8) (size 9 to 14) (size 15 to 20)
#    0.000    1.429    2.857    3.000    0.000    5.714 
#    0.000    0.000    0.000    0.000    0.000    0.000 
#    0.000    0.000    0.000    0.000    0.000    0.000 
#
# Total GULP energy -155919.233058 kJ/mol
# GULP energy per Si atom -5568.544038 kJ/mol
# Density = 2.107201 g / cm^3
# Si number density = 21.120084 Si / 1000 Ang^3
#
#
#
# Elastic Constant Matrix: (Units=GPa)
#
#
# Indices 1 2 3 4 5 6 
#
# 1 130.5682 35.9790 25.0060 0.0000 0.0000 0.0000
# 2 35.9790 126.3912 21.4982 0.0000 0.0000 0.0000
# 3 25.0060 21.4982 77.3536 0.0000 0.0000 0.0000
# 4 0.0000 0.0000 0.0000 18.0581 0.0000 0.0000
# 5 0.0000 0.0000 0.0000 0.0000 14.5378 0.0000
# 6 0.0000 0.0000 0.0000 0.0000 0.0000 5.3790
#
#
#
# Elastic Compliance Matrix: (Units=1/GPa)
#
#
# Indices 1 2 3 4 5 6 
#
# 1 0.008659 -0.002087 -0.002219 0.000000 0.000000 0.000000
# 2 -0.002087 0.008808 -0.001773 0.000000 0.000000 0.000000
# 3 -0.002219 -0.001773 0.014138 0.000000 0.000000 0.000000
# 4 0.000000 0.000000 0.000000 0.055377 0.000000 0.000000
# 5 0.000000 0.000000 0.000000 0.000000 0.068786 0.000000
# 6 0.000000 0.000000 0.000000 0.000000 0.000000 0.185910
#
#
# Mechanical properties :
#
#
# Convention : Reuss Voigt Hill
#
# Bulk Modulus (GPa) = 51.42598 55.47550 53.45074
# Shear Modulus (GPa) = 13.87662 24.38362 19.13012
#
# Velocity S-wave (km/s) = 2.56605 3.40151 3.01288
# Velocity P-wave (km/s) = 5.76035 6.46148 6.12097
#
# Compressibility (1/GPa) = 0.01944542
#
# Stress axis : x y z
#
# Youngs Moduli (GPa) = 115.48634 113.53638 70.73252
#
# Poissons Ratio (x) = 0.23700 0.15696
# Poissons Ratio (y) = 0.24107 0.12541
# Poissons Ratio (z) = 0.25627 0.20131
#
# Static dielectric constant tensor:
#      x y z
#    x 1.746780 0.000000 0.000000 
#    y 0.000000 1.852520 0.000000 
#    z 0.000000 0.000000 1.860040 
# 
# From -- ./inp_files/9310.got.cif
#   From: 2010.05.17/outbox.cif.g08.bks.cpg/sg39_5_cif.got.tgz:9310.got - 2010.06.03 18:22:40.
