data_PCOD9360738
_publ_section_title
;
Structure prediction by ZEFSAII (Michael W. Deem and Ramdas Pophale) SiO2 
 PCOD9360738
Probable space group: A B M 2
;
_chemical_formula_sum "Si O2"
_cell_formula_units_Z 64
_cell_length_a 20.892289
_cell_length_b 18.603538
_cell_length_c 8.603373
_cell_angle_alpha 90.000000
_cell_angle_beta 90.000000
_cell_angle_gamma 90.000000
_cell_volume 3343.877220
_symmetry_space_group_name_H-M "A B M 2"
_symmetry_group_IT_number 39
_symmetry_cell_setting 'orthorhombic'
loop_
_space_group_symop_operation_xyz
x,y,z
-x,-y,z
-x,1/2+y,z
x,1/2-y,z
x,1/2+y,1/2+z
-x,1/2-y,1/2+z
-x,y,1/2+z
x,-y,1/2+z
loop_
_atom_site_type_symbol
_atom_site_label
_atom_site_fract_x
_atom_site_fract_y
_atom_site_fract_z
Si Si1 0.699100 0.072865 0.158250
Si Si2 0.195971 0.832349 0.655582
Si Si3 0.442784 0.333446 0.982977
Si Si4 0.683580 0.086072 0.528061
Si Si5 0.579503 0.166887 0.112038
Si Si6 0.938496 0.913446 0.510704
Si Si7 0.812323 0.167973 0.029749
Si Si8 0.925544 0.927033 0.140167
O O1 0.692009 0.077624 0.343355
O O2 0.640032 0.116600 0.082364
O O3 0.764015 0.112258 0.107992
O O4 0.695498 0.990658 0.106297
O O5 0.183594 0.750000 0.611242
O O6 0.263059 0.859266 0.589507
O O7 0.138444 0.883625 0.600197
O O8 0.197550 0.836080 0.843373
O O9 0.435373 0.250000 0.033900
O O10 0.387275 0.382230 0.055714
O O11 0.434164 0.334980 0.797003
O O12 0.514397 0.356081 0.027416
O O13 0.593550 0.250000 0.069491
O O14 0.885267 0.855942 0.559279
O O15 0.935154 0.923200 0.325356
O O16 0.010602 0.895716 0.560918
O O17 0.921474 0.990244 0.587457
O O18 0.800201 0.250000 0.080078
#
# Coordination Sequence:
#
# PCOD9360738 Si02
#       8
#     8   8   8   8   8   8   8   8
#     4  11  23  38  57  82 112 146 186 230 275 326
#     4  10  22  39  58  82 112 145 183 228 277 329
#     4   9  19  36  57  81 109 142 181 224 271 325
#     4  11  23  38  57  82 112 146 186 230 275 326
#     4   9  19  36  57  81 109 142 181 224 271 325
#     4  10  20  35  56  81 110 144 182 224 270 323
#     4  10  22  39  58  82 112 145 183 228 277 329
#     4  10  20  35  56  81 110 144 182 224 270 323
#
# _framework density 19.13946
#
# number of rings (size 3 to 8) (size 9 to 14) (size 15 to 20)
#    0.000    2.000    0.000    3.750    0.000    8.500 
#    0.000    5.000    0.000    0.000    0.000    0.000 
#    0.000    0.000    0.000    0.000    0.000    0.000 
#
# Total GULP energy -178773.200036 kJ/mol
# GULP energy per Si atom -5586.662501 kJ/mol
# Density = 1.909590 g / cm^3
# Si number density = 19.139460 Si / 1000 Ang^3
#
#
#
# Elastic Constant Matrix: (Units=GPa)
#
#
# Indices 1 2 3 4 5 6 
#
# 1 33.5662 -15.2608 -1.2920 0.0000 0.0000 0.0000
# 2 -15.2608 22.9352 -1.9132 0.0000 0.0000 0.0000
# 3 -1.2920 -1.9132 13.8525 0.0000 0.0000 0.0000
# 4 0.0000 0.0000 0.0000 13.3426 0.0000 0.0000
# 5 0.0000 0.0000 0.0000 0.0000 27.4694 0.0000
# 6 0.0000 0.0000 0.0000 0.0000 0.0000 31.0875
#
#
#
# Elastic Compliance Matrix: (Units=1/GPa)
#
#
# Indices 1 2 3 4 5 6 
#
# 1 0.043608 0.029698 0.008169 0.000000 0.000000 0.000000
# 2 0.029698 0.064334 0.011655 0.000000 0.000000 0.000000
# 3 0.008169 0.011655 0.074560 0.000000 0.000000 0.000000
# 4 0.000000 0.000000 0.000000 0.074948 0.000000 0.000000
# 5 0.000000 0.000000 0.000000 0.000000 0.036404 0.000000
# 6 0.000000 0.000000 0.000000 0.000000 0.000000 0.032167
#
#
# Mechanical properties :
#
#
# Convention : Reuss Voigt Hill
#
# Bulk Modulus (GPa) = 3.55182 3.71357 3.63270
# Shear Modulus (GPa) = 15.58470 20.30121 17.94296
#
# Velocity S-wave (km/s) = 2.85664 3.26037 3.06516
# Velocity P-wave (km/s) = 3.56936 4.01470 3.79856
#
# Compressibility (1/GPa) = 0.28154549
#
# Stress axis : x y z
#
# Youngs Moduli (GPa) = 22.93147 15.54393 13.41193
#
# Poissons Ratio (x) = -0.46162 -0.10956
# Poissons Ratio (y) = -0.68101 -0.15632
# Poissons Ratio (z) = -0.18732 -0.18116
#
# Static dielectric constant tensor:
#      x y z
#    x 1.648370 0.000000 0.000000 
#    y 0.000000 1.643740 0.000000 
#    z 0.000000 0.000000 1.651410 
# 
# From -- ./inp_files/4025.got.cif
#   From: 2010.05.17/outbox.cif.g08.bks.cpg/sg39_3_cif.got.tgz:4025.got - 2010.06.03 18:22:40.
