data_PCOD9360861
_publ_section_title
;
Structure prediction by ZEFSAII (Michael W. Deem and Ramdas Pophale) SiO2 
 PCOD9360861
Probable space group: A B M 2
;
_chemical_formula_sum "Si O2"
_cell_formula_units_Z 56
_cell_length_a 5.214735
_cell_length_b 31.473940
_cell_length_c 14.553073
_cell_angle_alpha 90.000000
_cell_angle_beta 90.000000
_cell_angle_gamma 90.000000
_cell_volume 2388.570498
_symmetry_space_group_name_H-M "A B M 2"
_symmetry_group_IT_number 39
_symmetry_cell_setting 'orthorhombic'
loop_
_space_group_symop_operation_xyz
x,y,z
-x,-y,z
-x,1/2+y,z
x,1/2-y,z
x,1/2+y,1/2+z
-x,1/2-y,1/2+z
-x,y,1/2+z
x,-y,1/2+z
loop_
_atom_site_type_symbol
_atom_site_label
_atom_site_fract_x
_atom_site_fract_y
_atom_site_fract_z
Si Si1 0.144832 0.830126 0.488660
Si Si2 0.654443 0.870443 0.265461
Si Si3 0.236965 0.526871 0.522507
Si Si4 0.980429 0.298942 0.172528
Si Si5 0.413250 0.293726 0.834182
Si Si6 0.484628 0.893486 0.081678
Si Si7 0.907084 0.586410 0.418478
O O1 0.952704 0.813760 0.567184
O O2 0.217642 0.794114 0.417933
O O3 0.386504 0.850911 0.541671
O O4 0.050091 0.868997 0.427199
O O5 0.852154 0.837489 0.216353
O O6 0.550345 0.838466 0.342476
O O7 0.444716 0.884417 0.189421
O O8 0.763557 0.910420 0.321559
O O9 0.500000 0.500000 0.508787
O O10 0.306578 0.568457 0.581288
O O11 0.000000 0.500000 0.563016
O O12 0.106449 0.548061 0.431845
O O13 0.087735 0.250000 0.170574
O O14 0.731548 0.295582 0.236684
O O15 0.569014 0.250000 0.838480
O O16 0.275241 0.910713 0.009432
#
# Coordination Sequence:
#
# PCOD9360861 Si02
#       7
#     8   8   8   8   8   8   8
#     4  10  20  36  58  89 124 174 237 279 343 413
#     4  11  22  39  63  95 131 173 234 285 340 425
#     4  11  23  45  76 104 141 181 220 278 353 423
#     4  10  21  37  55  82 127 176 228 293 345 398
#     4  11  21  35  57  88 132 179 232 294 349 394
#     4  10  22  40  68  96 127 184 224 282 345 416
#     4  11  21  40  68  99 136 182 229 282 352 418
#
# _framework density 23.444986
#
# number of rings (size 3 to 8) (size 9 to 14) (size 15 to 20)
#    0.000    1.429    4.286    1.714    0.000    0.000 
#    0.000    0.714    3.143    0.000    0.000    0.000 
#    0.000    0.000    0.000    0.000    0.000    0.000 
#
# Total GULP energy -156007.406750 kJ/mol
# GULP energy per Si atom -5571.693098 kJ/mol
# Density = 2.339162 g / cm^3
# Si number density = 23.444986 Si / 1000 Ang^3
#
#
#
# Elastic Constant Matrix: (Units=GPa)
#
#
# Indices 1 2 3 4 5 6 
#
# 1 70.5593 21.4223 11.5301 0.0000 0.0000 0.0000
# 2 21.4223 101.3586 15.8447 0.0000 0.0000 0.0000
# 3 11.5301 15.8447 94.4707 0.0000 0.0000 0.0000
# 4 0.0000 0.0000 0.0000 8.6608 0.0000 0.0000
# 5 0.0000 0.0000 0.0000 0.0000 25.0566 0.0000
# 6 0.0000 0.0000 0.0000 0.0000 0.0000 8.5976
#
#
#
# Elastic Compliance Matrix: (Units=1/GPa)
#
#
# Indices 1 2 3 4 5 6 
#
# 1 0.015313 -0.003024 -0.001362 0.000000 0.000000 0.000000
# 2 -0.003024 0.010729 -0.001430 0.000000 0.000000 0.000000
# 3 -0.001362 -0.001430 0.010991 0.000000 0.000000 0.000000
# 4 0.000000 0.000000 0.000000 0.115463 0.000000 0.000000
# 5 0.000000 0.000000 0.000000 0.000000 0.039910 0.000000
# 6 0.000000 0.000000 0.000000 0.000000 0.000000 0.116312
#
#
# Mechanical properties :
#
#
# Convention : Reuss Voigt Hill
#
# Bulk Modulus (GPa) = 39.36780 40.44253 39.90517
# Shear Modulus (GPa) = 15.20605 22.96909 19.08757
#
# Velocity S-wave (km/s) = 2.54950 3.13341 2.85641
# Velocity P-wave (km/s) = 5.04922 5.51167 5.28550
#
# Compressibility (1/GPa) = 0.02540147
#
# Stress axis : x y z
#
# Youngs Moduli (GPa) = 65.30407 93.20885 90.98020
#
# Poissons Ratio (x) = 0.28182 0.12390
# Poissons Ratio (y) = 0.19745 0.13014
# Poissons Ratio (z) = 0.08893 0.13332
#
# Static dielectric constant tensor:
#      x y z
#    x 2.025850 0.000000 0.000000 
#    y 0.000000 1.911360 0.000000 
#    z 0.000000 0.000000 1.896300 
# 
# From -- ./inp_files/7663.got.cif
#   From: 2010.05.17/outbox.cif.g08.bks.cpg/sg39_4_cif.got.tgz:7663.got - 2010.06.03 18:22:40.
