data_PCOD9360636
_publ_section_title
;
Structure prediction by ZEFSAII (Michael W. Deem and Ramdas Pophale) SiO2 
 PCOD9360636
Probable space group: A B M 2
;
_chemical_formula_sum "Si O2"
_cell_formula_units_Z 56
_cell_length_a 20.957061
_cell_length_b 8.006711
_cell_length_c 15.899352
_cell_angle_alpha 90.000000
_cell_angle_beta 90.000000
_cell_angle_gamma 90.000000
_cell_volume 2667.865648
_symmetry_space_group_name_H-M "A B M 2"
_symmetry_group_IT_number 39
_symmetry_cell_setting 'orthorhombic'
loop_
_space_group_symop_operation_xyz
x,y,z
-x,-y,z
-x,1/2+y,z
x,1/2-y,z
x,1/2+y,1/2+z
-x,1/2-y,1/2+z
-x,y,1/2+z
x,-y,1/2+z
loop_
_atom_site_type_symbol
_atom_site_label
_atom_site_fract_x
_atom_site_fract_y
_atom_site_fract_z
Si Si1 0.840817 0.547765 0.529920
Si Si2 0.073509 0.951859 0.183415
Si Si3 0.433736 0.048078 0.610867
Si Si4 0.297786 0.561455 0.047556
Si Si5 0.568348 0.559008 0.301400
Si Si6 0.837989 0.550363 0.834735
Si Si7 0.300018 0.942345 0.366454
O O1 0.837688 0.750000 0.531864
O O2 0.894688 0.491631 0.595358
O O3 0.771747 0.484073 0.563896
O O4 0.849895 0.501535 0.431860
O O5 0.077446 0.750000 0.183644
O O6 0.114224 0.015897 0.263643
O O7 0.000000 0.000000 0.189545
O O8 0.433100 0.250000 0.618948
O O9 0.366207 0.989792 0.573300
O O10 0.500000 0.000000 0.565185
O O11 0.436815 0.960519 0.701240
O O12 0.296410 0.750000 0.082446
O O13 0.299707 0.560191 0.946889
O O14 0.500000 0.500000 0.336521
O O15 0.578373 0.750000 0.325882
O O16 0.631357 0.457713 0.324782
O O17 0.844391 0.750000 0.833218
O O18 0.763422 0.512971 0.814083
O O19 0.291302 0.750000 0.394453
#
# Coordination Sequence:
#
# PCOD9360636 Si02
#       7
#     8   8   8   8   8   8   8
#     4   9  19  37  60  84 114 151 192 237 285 338
#     4  10  22  39  60  87 117 153 192 232 283 346
#     4  10  20  34  53  76 106 144 183 227 279 331
#     4   9  19  35  56  79 106 143 186 228 277 335
#     4  11  22  36  53  76 108 144 186 232 280 333
#     4   9  20  38  60  85 117 153 192 236 286 342
#     4  10  20  35  57  81 108 142 184 231 281 336
#
# _framework density 20.990561
#
# number of rings (size 3 to 8) (size 9 to 14) (size 15 to 20)
#    0.000    2.286    0.000    3.000    2.000    4.000 
#    0.000    4.286    0.000    0.000    0.000    0.000 
#    0.000    0.000    0.000    0.000    0.000    0.000 
#
# Total GULP energy -156042.038295 kJ/mol
# GULP energy per Si atom -5572.929939 kJ/mol
# Density = 2.094279 g / cm^3
# Si number density = 20.990561 Si / 1000 Ang^3
#
#
#
# Elastic Constant Matrix: (Units=GPa)
#
#
# Indices 1 2 3 4 5 6 
#
# 1 194.9116 10.8173 69.3860 0.0000 0.0000 0.0000
# 2 10.8173 42.2704 -1.2393 0.0000 0.0000 0.0000
# 3 69.3860 -1.2393 60.3998 0.0000 0.0000 0.0000
# 4 0.0000 0.0000 0.0000 20.7414 0.0000 0.0000
# 5 0.0000 0.0000 0.0000 0.0000 60.5430 0.0000
# 6 0.0000 0.0000 0.0000 0.0000 0.0000 21.0267
#
#
#
# Elastic Compliance Matrix: (Units=1/GPa)
#
#
# Indices 1 2 3 4 5 6 
#
# 1 0.008956 -0.002595 -0.010342 0.000000 0.000000 0.000000
# 2 -0.002595 0.024423 0.003482 0.000000 0.000000 0.000000
# 3 -0.010342 0.003482 0.028508 0.000000 0.000000 0.000000
# 4 0.000000 0.000000 0.000000 0.048213 0.000000 0.000000
# 5 0.000000 0.000000 0.000000 0.000000 0.016517 0.000000
# 6 0.000000 0.000000 0.000000 0.000000 0.000000 0.047558
#
#
# Mechanical properties :
#
#
# Convention : Reuss Voigt Hill
#
# Bulk Modulus (GPa) = 23.26740 50.61220 36.93980
# Shear Modulus (GPa) = 24.10667 35.03678 29.57172
#
# Velocity S-wave (km/s) = 3.39256 4.08998 3.75748
# Velocity P-wave (km/s) = 5.14341 6.81675 6.03833
#
# Compressibility (1/GPa) = 0.04297858
#
# Stress axis : x y z
#
# Youngs Moduli (GPa) = 111.65562 40.94433 35.07756
#
# Poissons Ratio (x) = 0.10626 0.36277
# Poissons Ratio (y) = 0.28976 -0.12215
# Poissons Ratio (z) = 1.15472 -0.14258
#
# Static dielectric constant tensor:
#      x y z
#    x 1.833190 0.000000 0.000000 
#    y 0.000000 1.765970 0.000000 
#    z 0.000000 0.000000 1.743090 
# 
# From -- ./inp_files/10336.got.cif
#   From: 2010.05.17/outbox.cif.g08.bks.cpg/sg39_6_cif.got.tgz:10336.got - 2010.06.03 18:22:40.
