data_PCOD9360432
_publ_section_title
;
Structure prediction by ZEFSAII (Michael W. Deem and Ramdas Pophale) SiO2 
 PCOD9360432
Probable space group: A B M 2
;
_chemical_formula_sum "Si O2"
_cell_formula_units_Z 64
_cell_length_a 8.493455
_cell_length_b 16.695146
_cell_length_c 21.874330
_cell_angle_alpha 90.000000
_cell_angle_beta 90.000000
_cell_angle_gamma 90.000000
_cell_volume 3101.768428
_symmetry_space_group_name_H-M "A B M 2"
_symmetry_group_IT_number 39
_symmetry_cell_setting 'orthorhombic'
loop_
_space_group_symop_operation_xyz
x,y,z
-x,-y,z
-x,1/2+y,z
x,1/2-y,z
x,1/2+y,1/2+z
-x,1/2-y,1/2+z
-x,y,1/2+z
x,-y,1/2+z
loop_
_atom_site_type_symbol
_atom_site_label
_atom_site_fract_x
_atom_site_fract_y
_atom_site_fract_z
Si Si1 0.890276 0.919064 0.269840
Si Si2 0.199780 0.659005 0.275874
Si Si3 0.694845 0.412407 0.895645
Si Si4 0.664983 0.345330 0.152130
Si Si5 0.661890 0.901002 0.899414
Si Si6 0.678408 0.655076 0.025665
Si Si7 0.714303 0.654198 0.157166
Si Si8 0.686663 0.153275 0.020435
O O1 0.790456 0.911801 0.332470
O O2 0.784011 0.901576 0.210238
O O3 0.014184 0.846708 0.270317
O O4 0.000000 0.000000 0.268349
O O5 0.256959 0.750000 0.280600
O O6 0.268519 0.619625 0.214536
O O7 0.250023 0.615545 0.336964
O O8 0.519894 0.374224 0.888875
O O9 0.667830 0.504985 0.910693
O O10 0.765978 0.375003 0.957741
O O11 0.700806 0.250000 0.153337
O O12 0.476135 0.352316 0.154545
O O13 0.737690 0.374955 0.088042
O O14 0.742768 0.861523 0.958399
O O15 0.666346 0.750000 0.034084
O O16 0.761642 0.627537 0.087977
O O17 0.497222 0.625261 0.019786
O O18 0.750736 0.750000 0.166703
O O19 0.688496 0.250000 0.020289
#
# Coordination Sequence:
#
# PCOD9360432 Si02
#       8
#     8   8   8   8   8   8   8   8
#     4  12  24  40  52  76 121 160 190 236 281 343
#     4  11  22  37  59  82 112 154 194 233 280 338
#     4  10  21  36  57  81 117 150 188 234 290 340
#     4   8  16  34  60  90 113 136 184 244 290 335
#     4  10  19  36  58  87 112 147 188 238 289 339
#     4   8  15  31  58  88 113 135 177 239 290 336
#     4   9  18  36  62  86 110 145 190 241 292 343
#     4   8  15  31  57  87 114 139 176 234 289 336
#
# _framework density 20.633389999999999
#
# number of rings (size 3 to 8) (size 9 to 14) (size 15 to 20)
#    0.000    2.500    1.250    3.000    0.000    1.500 
#    2.250    1.250    0.000    3.000    0.000    0.000 
#    0.000    0.000    0.000    0.000    0.000    0.000 
#
# Total GULP energy -178137.236713 kJ/mol
# GULP energy per Si atom -5566.788647 kJ/mol
# Density = 2.058643 g / cm^3
# Si number density = 20.633390 Si / 1000 Ang^3
#
#
#
# Elastic Constant Matrix: (Units=GPa)
#
#
# Indices 1 2 3 4 5 6 
#
# 1 26.4269 4.3569 43.8757 0.0000 0.0000 0.0000
# 2 4.3569 34.9617 40.5920 0.0000 0.0000 0.0000
# 3 43.8757 40.5920 232.1312 0.0000 0.0000 0.0000
# 4 0.0000 0.0000 0.0000 45.0101 0.0000 0.0000
# 5 0.0000 0.0000 0.0000 0.0000 -33.3743 0.0000
# 6 0.0000 0.0000 0.0000 0.0000 0.0000 18.1872
#
#
#
# Elastic Compliance Matrix: (Units=1/GPa)
#
#
# Indices 1 2 3 4 5 6 
#
# 1 0.056372 0.006708 -0.011828 0.000000 0.000000 0.000000
# 2 0.006708 0.036687 -0.007683 0.000000 0.000000 0.000000
# 3 -0.011828 -0.007683 0.007887 0.000000 0.000000 0.000000
# 4 0.000000 0.000000 0.000000 0.022217 0.000000 0.000000
# 5 0.000000 0.000000 0.000000 0.000000 -0.029963 0.000000
# 6 0.000000 0.000000 0.000000 0.000000 0.000000 0.054984
#
#
# Mechanical properties :
#
#
# Convention : Reuss Voigt Hill
#
# Bulk Modulus (GPa) = 13.27326 52.35212 32.81269
# Shear Modulus (GPa) = 25.13769 19.61093 22.37431
#
# Velocity S-wave (km/s) = 3.49420 3.08628 3.29656
# Velocity P-wave (km/s) = 4.76720 6.17477 5.51606
#
# Compressibility (1/GPa) = 0.07533944
#
# Stress axis : x y z
#
# Youngs Moduli (GPa) = 17.73933 27.25728 126.78954
#
# Poissons Ratio (x) = -0.18283 1.49966
# Poissons Ratio (y) = -0.11899 0.97416
# Poissons Ratio (z) = 0.20982 0.20942
#
# Static dielectric constant tensor:
#      x y z
#    x 1.753270 0.000000 0.000000 
#    y 0.000000 1.736960 0.000000 
#    z 0.000000 0.000000 1.821530 
# 
# From -- ./inp_files/14230.got.cif
#   From: 2010.05.17/outbox.cif.g08.bks.cpg/sg39_8_cif.got.tgz:14230.got - 2010.06.03 18:22:40.
