data_PCOD9360905
_publ_section_title
;
Structure prediction by ZEFSAII (Michael W. Deem and Ramdas Pophale) SiO2 
 PCOD9360905
Probable space group: A B M 2
;
_chemical_formula_sum "Si O2"
_cell_formula_units_Z 64
_cell_length_a 11.383527
_cell_length_b 20.891841
_cell_length_c 14.347582
_cell_angle_alpha 90.000000
_cell_angle_beta 90.000000
_cell_angle_gamma 90.000000
_cell_volume 3412.182642
_symmetry_space_group_name_H-M "A B M 2"
_symmetry_group_IT_number 39
_symmetry_cell_setting 'orthorhombic'
loop_
_space_group_symop_operation_xyz
x,y,z
-x,-y,z
-x,1/2+y,z
x,1/2-y,z
x,1/2+y,1/2+z
-x,1/2-y,1/2+z
-x,y,1/2+z
x,-y,1/2+z
loop_
_atom_site_type_symbol
_atom_site_label
_atom_site_fract_x
_atom_site_fract_y
_atom_site_fract_z
Si Si1 0.131199 0.060843 0.460540
Si Si2 0.262387 0.823264 0.049055
Si Si3 0.241747 0.822662 0.438045
Si Si4 0.202731 0.035537 0.254830
Si Si5 0.466193 0.820681 0.552123
Si Si6 0.873683 0.566708 0.051378
Si Si7 0.719296 0.109910 0.248667
Si Si8 0.538569 0.071548 0.705798
O O1 0.196280 0.125945 0.485743
O O2 0.134129 0.050399 0.349837
O O3 0.004365 0.065829 0.509182
O O4 0.187608 0.996861 0.507131
O O5 0.219808 0.750000 0.044225
O O6 0.399304 0.824237 0.022281
O O7 0.259166 0.850314 0.154588
O O8 0.198092 0.750000 0.442266
O O9 0.378421 0.822851 0.466233
O O10 0.182544 0.868821 0.512989
O O11 0.230746 0.852393 0.336403
O O12 0.138143 0.061041 0.162307
O O13 0.336643 0.063645 0.257900
O O14 0.220052 0.959349 0.243549
O O15 0.449668 0.750000 0.597958
O O16 0.441748 0.878986 0.621728
O O17 0.578151 0.097631 0.257949
O O18 0.500000 0.000000 0.673569
#
# Coordination Sequence:
#
# PCOD9360905 Si02
#       8
#     8   8   8   8   8   8   8   8
#     4  11  25  40  66  92 118 167 206 258 310 361
#     4  10  21  40  61  91 128 163 206 253 309 367
#     4  11  22  38  61  92 126 166 207 249 309 372
#     4  11  21  41  63  93 124 154 213 256 310 363
#     4   9  19  35  58  87 126 166 197 247 310 369
#     4  11  24  43  63  90 122 165 208 258 306 365
#     4  10  20  36  61  93 126 165 202 254 308 367
#     4   9  19  34  58  91 124 160 201 256 304 364
#
# _framework density 18.756322000000001
#
# number of rings (size 3 to 8) (size 9 to 14) (size 15 to 20)
#    0.000    1.750    3.750    0.375    1.750    4.000 
#    0.000    1.250    0.000    0.000    0.000    0.000 
#    0.000    0.000    0.000    0.000    0.000    0.000 
#
# Total GULP energy -178496.429767 kJ/mol
# GULP energy per Si atom -5578.013430 kJ/mol
# Density = 1.871363 g / cm^3
# Si number density = 18.756322 Si / 1000 Ang^3
#
#
#
# Elastic Constant Matrix: (Units=GPa)
#
#
# Indices 1 2 3 4 5 6 
#
# 1 40.9042 26.3042 32.5285 0.0000 0.0000 0.0000
# 2 26.3042 137.0750 43.3029 0.0000 0.0000 0.0000
# 3 32.5285 43.3029 114.0256 0.0000 0.0000 0.0000
# 4 0.0000 0.0000 0.0000 23.5868 0.0000 0.0000
# 5 0.0000 0.0000 0.0000 0.0000 7.0541 0.0000
# 6 0.0000 0.0000 0.0000 0.0000 0.0000 18.6258
#
#
#
# Elastic Compliance Matrix: (Units=1/GPa)
#
#
# Indices 1 2 3 4 5 6 
#
# 1 0.033321 -0.003854 -0.008042 0.000000 0.000000 0.000000
# 2 -0.003854 0.008735 -0.002218 0.000000 0.000000 0.000000
# 3 -0.008042 -0.002218 0.011907 0.000000 0.000000 0.000000
# 4 0.000000 0.000000 0.000000 0.042397 0.000000 0.000000
# 5 0.000000 0.000000 0.000000 0.000000 0.141762 0.000000
# 6 0.000000 0.000000 0.000000 0.000000 0.000000 0.053689
#
#
# Mechanical properties :
#
#
# Convention : Reuss Voigt Hill
#
# Bulk Modulus (GPa) = 38.85722 55.14178 46.99950
# Shear Modulus (GPa) = 15.21533 22.51129 18.86331
#
# Velocity S-wave (km/s) = 2.85127 3.46814 3.17472
# Velocity P-wave (km/s) = 5.62152 6.74539 6.20893
#
# Compressibility (1/GPa) = 0.02573524
#
# Stress axis : x y z
#
# Youngs Moduli (GPa) = 30.01125 114.47566 83.98765
#
# Poissons Ratio (x) = 0.44114 0.67544
# Poissons Ratio (y) = 0.11565 0.18629
# Poissons Ratio (z) = 0.24135 0.25392
#
# Static dielectric constant tensor:
#      x y z
#    x 1.702660 0.000000 0.000000 
#    y 0.000000 1.666660 0.000000 
#    z 0.000000 0.000000 1.613690 
# 
# From -- ./inp_files/9478.got.cif
#   From: 2010.05.17/outbox.cif.g08.bks.cpg/sg39_5_cif.got.tgz:9478.got - 2010.06.03 18:22:40.
