data_PCOD9360476
_publ_section_title
;
Structure prediction by ZEFSAII (Michael W. Deem and Ramdas Pophale) SiO2 
 PCOD9360476
Probable space group: A B M 2
;
_chemical_formula_sum "Si O2"
_cell_formula_units_Z 64
_cell_length_a 8.174062
_cell_length_b 17.974812
_cell_length_c 18.512947
_cell_angle_alpha 90.000000
_cell_angle_beta 90.000000
_cell_angle_gamma 90.000000
_cell_volume 2720.055980
_symmetry_space_group_name_H-M "A B M 2"
_symmetry_group_IT_number 39
_symmetry_cell_setting 'orthorhombic'
loop_
_space_group_symop_operation_xyz
x,y,z
-x,-y,z
-x,1/2+y,z
x,1/2-y,z
x,1/2+y,1/2+z
-x,1/2-y,1/2+z
-x,y,1/2+z
x,-y,1/2+z
loop_
_atom_site_type_symbol
_atom_site_label
_atom_site_fract_x
_atom_site_fract_y
_atom_site_fract_z
Si Si1 0.679345 0.065573 0.180250
Si Si2 0.024938 0.664470 0.124423
Si Si3 0.105020 0.667764 0.821904
Si Si4 0.675029 0.480026 0.523272
Si Si5 0.493731 0.664579 0.790433
Si Si6 0.175582 0.379574 0.478009
Si Si7 0.443612 0.837706 0.457979
Si Si8 0.875114 0.942095 0.211977
O O1 0.817308 0.127053 0.162985
O O2 0.545197 0.111903 0.224185
O O3 0.663590 0.018442 0.104054
O O4 0.731136 0.997028 0.231923
O O5 0.012024 0.750000 0.141044
O O6 0.863491 0.622424 0.153180
O O7 0.065789 0.650515 0.042059
O O8 0.039437 0.750000 0.806220
O O9 0.296833 0.665264 0.798938
O O10 0.100675 0.650539 0.905134
O O11 0.037207 0.598241 0.778203
O O12 0.500000 0.500000 0.488232
O O13 0.808951 0.531131 0.484563
O O14 0.671401 0.392332 0.505654
O O15 0.544799 0.750000 0.775760
O O16 0.561330 0.644883 0.871189
O O17 0.364613 0.349558 0.481748
O O18 0.405816 0.750000 0.466817
O O19 0.000000 0.000000 0.175228
#
# Coordination Sequence:
#
# PCOD9360476 Si02
#       8
#     8   8   8   8   8   8   8   8
#     4  10  21  35  55  83 120 152 196 237 297 366
#     4  10  19  37  61  78 106 153 206 256 291 343
#     4  10  20  36  59  88 118 147 194 252 307 364
#     4   9  19  32  50  83 114 152 188 230 287 355
#     4   9  19  34  59  91 120 157 196 241 301 368
#     4   9  18  34  60  85 108 149 203 248 299 354
#     4   9  17  33  55  86 124 153 192 239 294 366
#     4  10  23  38  53  80 113 155 198 248 300 349
#
# _framework density 23.528928000000001
#
# number of rings (size 3 to 8) (size 9 to 14) (size 15 to 20)
#    0.000    2.500    0.000    2.625    3.500    0.000 
#    0.000    5.000    0.000    0.000    0.000    0.000 
#    0.000    0.000    0.000    0.000    0.000    0.000 
#
# Total GULP energy -178278.396051 kJ/mol
# GULP energy per Si atom -5571.199877 kJ/mol
# Density = 2.347537 g / cm^3
# Si number density = 23.528928 Si / 1000 Ang^3
#
#
#
# Elastic Constant Matrix: (Units=GPa)
#
#
# Indices 1 2 3 4 5 6 
#
# 1 26.7012 24.3813 19.9972 0.0000 0.0000 0.0000
# 2 24.3813 162.0641 46.5667 0.0000 0.0000 0.0000
# 3 19.9972 46.5667 108.2092 0.0000 0.0000 0.0000
# 4 0.0000 0.0000 0.0000 -3.1406 0.0000 0.0000
# 5 0.0000 0.0000 0.0000 0.0000 17.5918 0.0000
# 6 0.0000 0.0000 0.0000 0.0000 0.0000 7.2589
#
#
#
# Elastic Compliance Matrix: (Units=1/GPa)
#
#
# Indices 1 2 3 4 5 6 
#
# 1 0.047051 -0.005226 -0.006446 0.000000 0.000000 0.000000
# 2 -0.005226 0.007622 -0.002314 0.000000 0.000000 0.000000
# 3 -0.006446 -0.002314 0.011428 0.000000 0.000000 0.000000
# 4 0.000000 0.000000 0.000000 -0.318415 0.000000 0.000000
# 5 0.000000 0.000000 0.000000 0.000000 0.056845 0.000000
# 6 0.000000 0.000000 0.000000 0.000000 0.000000 0.137762
#
#
# Mechanical properties :
#
#
# Convention : Reuss Voigt Hill
#
# Bulk Modulus (GPa) = 26.22709 53.20723 39.71716
# Shear Modulus (GPa) = -293.68665 18.07731 -137.80467
#
# Velocity S-wave (km/s) = -11.18438 2.77483 -7.66129
# Velocity P-wave (km/s) = 12.47462 5.73837 7.83222
#
# Compressibility (1/GPa) = 0.03812852
#
# Stress axis : x y z
#
# Youngs Moduli (GPa) = 21.25333 131.20667 87.50114
#
# Poissons Ratio (x) = 0.68573 0.56404
# Poissons Ratio (y) = 0.11108 0.20248
# Poissons Ratio (z) = 0.13700 0.30361
#
# Static dielectric constant tensor:
#      x y z
#    x 2.004520 0.000000 0.000000 
#    y 0.000000 1.972040 0.000000 
#    z 0.000000 0.000000 1.950560 
# 
# From -- ./inp_files/12429.got.cif
#   From: 2010.05.17/outbox.cif.g08.bks.cpg/sg39_7_cif.got.tgz:12429.got - 2010.06.03 18:22:40.
