data_PCOD9360953
_publ_section_title
;
Structure prediction by ZEFSAII (Michael W. Deem and Ramdas Pophale) SiO2 
 PCOD9360953
Probable space group: A B M 2
;
_chemical_formula_sum "Si O2"
_cell_formula_units_Z 64
_cell_length_a 21.987836
_cell_length_b 14.998549
_cell_length_c 10.016881
_cell_angle_alpha 90.000000
_cell_angle_beta 90.000000
_cell_angle_gamma 90.000000
_cell_volume 3303.423468
_symmetry_space_group_name_H-M "A B M 2"
_symmetry_group_IT_number 39
_symmetry_cell_setting 'orthorhombic'
loop_
_space_group_symop_operation_xyz
x,y,z
-x,-y,z
-x,1/2+y,z
x,1/2-y,z
x,1/2+y,1/2+z
-x,1/2-y,1/2+z
-x,y,1/2+z
x,-y,1/2+z
loop_
_atom_site_type_symbol
_atom_site_label
_atom_site_fract_x
_atom_site_fract_y
_atom_site_fract_z
Si Si1 0.834595 0.855428 0.282060
Si Si2 0.941893 0.849977 0.932317
Si Si3 0.195148 0.645887 0.472217
Si Si4 0.266301 0.026994 0.410081
Si Si5 0.966723 0.585821 0.213227
Si Si6 0.552004 0.645573 0.744167
Si Si7 0.563280 0.145775 0.554819
Si Si8 0.347312 0.503550 0.157170
O O1 0.845860 0.750000 0.312769
O O2 0.788529 0.904537 0.381474
O O3 0.898156 0.909187 0.269810
O O4 0.805266 0.858126 0.133606
O O5 0.937682 0.750000 0.882323
O O6 0.872936 0.884468 0.930815
O O7 0.989202 0.895329 0.835995
O O8 0.963013 0.849881 0.085709
O O9 0.204893 0.750000 0.435263
O O10 0.241151 0.574400 0.413863
O O11 0.313821 0.031736 0.289068
O O12 0.299123 0.041583 0.550984
O O13 0.000000 0.500000 0.150998
O O14 0.568433 0.750000 0.724481
O O15 0.491542 0.628673 0.657899
O O16 0.604573 0.579402 0.696932
O O17 0.541679 0.632321 0.902330
O O18 0.581529 0.250000 0.568174
O O19 0.617242 0.078163 0.587650
#
# Coordination Sequence:
#
# PCOD9360953 Si02
#       8
#     8   8   8   8   8   8   8   8
#     4  10  22  42  62  84 122 168 208 254 313 374
#     4  10  20  37  59  86 115 151 196 245 308 370
#     4   9  20  40  63  83 119 167 205 247 311 382
#     4  12  24  41  62  91 121 162 216 255 301 365
#     4  11  21  36  60  88 117 151 195 251 309 369
#     4  10  23  43  66  95 129 163 202 253 310 367
#     4  10  23  43  67  95 128 166 205 250 311 372
#     4  12  25  40  65  94 126 164 207 259 307 361
#
# _framework density 19.373839
#
# number of rings (size 3 to 8) (size 9 to 14) (size 15 to 20)
#    0.000    1.500    2.500    3.375    1.750    4.000 
#    2.250    0.000    0.000    0.000    0.000    0.000 
#    0.000    0.000    0.000    0.000    0.000    0.000 
#
# Total GULP energy -178548.727969 kJ/mol
# GULP energy per Si atom -5579.647749 kJ/mol
# Density = 1.932974 g / cm^3
# Si number density = 19.373839 Si / 1000 Ang^3
#
#
#
# Elastic Constant Matrix: (Units=GPa)
#
#
# Indices 1 2 3 4 5 6 
#
# 1 51.8078 36.0815 10.5016 0.0000 0.0000 0.0000
# 2 36.0815 73.2660 9.6139 0.0000 0.0000 0.0000
# 3 10.5016 9.6139 62.0505 0.0000 0.0000 0.0000
# 4 0.0000 0.0000 0.0000 26.0255 0.0000 0.0000
# 5 0.0000 0.0000 0.0000 0.0000 38.3822 0.0000
# 6 0.0000 0.0000 0.0000 0.0000 0.0000 12.4613
#
#
#
# Elastic Compliance Matrix: (Units=1/GPa)
#
#
# Indices 1 2 3 4 5 6 
#
# 1 0.029858 -0.014333 -0.002833 0.000000 0.000000 0.000000
# 2 -0.014333 0.020812 -0.000799 0.000000 0.000000 0.000000
# 3 -0.002833 -0.000799 0.016719 0.000000 0.000000 0.000000
# 4 0.000000 0.000000 0.000000 0.038424 0.000000 0.000000
# 5 0.000000 0.000000 0.000000 0.000000 0.026054 0.000000
# 6 0.000000 0.000000 0.000000 0.000000 0.000000 0.080248
#
#
# Mechanical properties :
#
#
# Convention : Reuss Voigt Hill
#
# Bulk Modulus (GPa) = 31.78521 33.27980 32.53251
# Shear Modulus (GPa) = 19.34006 24.10228 21.72117
#
# Velocity S-wave (km/s) = 3.16295 3.53095 3.35200
# Velocity P-wave (km/s) = 5.45718 5.81709 5.64001
#
# Compressibility (1/GPa) = 0.03146117
#
# Stress axis : x y z
#
# Youngs Moduli (GPa) = 33.49157 48.04882 59.81188
#
# Poissons Ratio (x) = 0.68867 0.16942
# Poissons Ratio (y) = 0.48002 0.04778
# Poissons Ratio (z) = 0.09487 0.03839
#
# Static dielectric constant tensor:
#      x y z
#    x 1.681680 0.000000 0.000000 
#    y 0.000000 1.673660 0.000000 
#    z 0.000000 0.000000 1.658130 
# 
# From -- ./inp_files/4097.got.cif
#   From: 2010.05.17/outbox.cif.g08.bks.cpg/sg39_3_cif.got.tgz:4097.got - 2010.06.03 18:22:40.
