data_PCOD9360595
_publ_section_title
;
Structure prediction by ZEFSAII (Michael W. Deem and Ramdas Pophale) SiO2 
 PCOD9360595
Probable space group: A B M 2
;
_chemical_formula_sum "Si O2"
_cell_formula_units_Z 64
_cell_length_a 7.120718
_cell_length_b 17.102569
_cell_length_c 19.715955
_cell_angle_alpha 90.000000
_cell_angle_beta 90.000000
_cell_angle_gamma 90.000000
_cell_volume 2401.059688
_symmetry_space_group_name_H-M "A B M 2"
_symmetry_group_IT_number 39
_symmetry_cell_setting 'orthorhombic'
loop_
_space_group_symop_operation_xyz
x,y,z
-x,-y,z
-x,1/2+y,z
x,1/2-y,z
x,1/2+y,1/2+z
-x,1/2-y,1/2+z
-x,y,1/2+z
x,-y,1/2+z
loop_
_atom_site_type_symbol
_atom_site_label
_atom_site_fract_x
_atom_site_fract_y
_atom_site_fract_z
Si Si1 0.109682 0.835821 0.900090
Si Si2 0.277058 0.483568 0.222617
Si Si3 0.211611 0.001157 0.375171
Si Si4 0.109682 0.164179 0.045143
Si Si5 0.455820 0.335151 0.222617
Si Si6 0.702420 0.161302 0.086573
Si Si7 0.788389 0.998843 0.070062
Si Si8 0.297580 0.338698 0.858660
O O1 0.198513 0.750000 0.894161
O O2 0.252793 0.907402 0.889062
O O3 0.930202 0.839806 0.849639
O O4 0.000000 0.839044 0.972617
O O5 0.500000 0.500000 0.222617
O O6 0.203743 0.510282 0.294151
O O7 0.721507 0.609078 0.222617
O O8 0.203743 0.510281 0.151082
O O9 0.323296 0.923183 0.397499
O O10 0.000000 0.000000 0.401898
O O11 0.198512 0.250000 0.051072
O O12 0.252793 0.092598 0.056171
O O13 0.930202 0.160194 0.095594
O O14 0.376410 0.250000 0.222617
O O15 0.586096 0.343723 0.156134
O O16 0.586096 0.343723 0.289100
O O17 0.665469 0.250000 0.057780
O O18 0.676704 0.076817 0.047734
O O19 0.000000 0.000000 0.043336
O O20 0.334531 0.250000 0.887453
#
# Coordination Sequence:
#
# PCOD9360595 Si02
#       8
#     8   8   8   8   8   8   8   8
#     4   9  19  35  55  80 109 142 186 239 284 327
#     4  12  21  34  53  80 118 144 178 231 282 335
#     4  10  20  33  55  83 110 143 182 229 283 334
#     4   9  19  35  55  80 109 142 186 239 284 327
#     4  10  20  34  52  76 109 152 186 218 280 350
#     4   9  17  31  51  76 106 144 184 218 272 340
#     4  10  20  33  55  83 110 143 182 229 283 334
#     4   9  17  31  51  76 106 144 184 218 272 340
#
# _framework density 26.654897999999999
#
# number of rings (size 3 to 8) (size 9 to 14) (size 15 to 20)
#    0.000    2.250    2.500    0.375    0.000    8.500 
#    0.000    1.250    0.000    1.500    0.000    7.000 
#    0.000    0.000    0.000    0.000    0.000    0.000 
#
# Total GULP energy -178361.920862 kJ/mol
# GULP energy per Si atom -5573.810027 kJ/mol
# Density = 2.659423 g / cm^3
# Si number density = 26.654898 Si / 1000 Ang^3
#
#
#
# Elastic Constant Matrix: (Units=GPa)
#
#
# Indices 1 2 3 4 5 6 
#
# 1 85.5982 5.1586 15.1692 0.0000 0.0000 0.0000
# 2 5.1586 314.6753 11.7790 0.0000 0.0000 0.0000
# 3 15.1692 11.7790 119.2298 0.0000 0.0000 0.0000
# 4 0.0000 0.0000 0.0000 20.7373 0.0000 0.0000
# 5 0.0000 0.0000 0.0000 0.0000 -13.0355 0.0000
# 6 0.0000 0.0000 0.0000 0.0000 0.0000 22.0682
#
#
#
# Elastic Compliance Matrix: (Units=1/GPa)
#
#
# Indices 1 2 3 4 5 6 
#
# 1 0.011958 -0.000140 -0.001508 0.000000 0.000000 0.000000
# 2 -0.000140 0.003191 -0.000298 0.000000 0.000000 0.000000
# 3 -0.001508 -0.000298 0.008608 0.000000 0.000000 0.000000
# 4 0.000000 0.000000 0.000000 0.048222 0.000000 0.000000
# 5 0.000000 0.000000 0.000000 0.000000 -0.076714 0.000000
# 6 0.000000 0.000000 0.000000 0.000000 0.000000 0.045314
#
#
# Mechanical properties :
#
#
# Convention : Reuss Voigt Hill
#
# Bulk Modulus (GPa) = 50.33139 64.85744 57.59441
# Shear Modulus (GPa) = 97.86188 38.44711 68.15449
#
# Velocity S-wave (km/s) = 6.06581 3.80202 5.06209
# Velocity P-wave (km/s) = 8.24514 6.60749 7.47132
#
# Compressibility (1/GPa) = 0.01986832
#
# Stress axis : x y z
#
# Youngs Moduli (GPa) = 83.62552 313.35152 116.16612
#
# Poissons Ratio (x) = 0.04374 0.17513
# Poissons Ratio (y) = 0.01167 0.03456
# Poissons Ratio (z) = 0.12607 0.09323
#
# Static dielectric constant tensor:
#      x y z
#    x 1.997240 0.000000 0.000000 
#    y 0.000000 2.425850 0.000000 
#    z 0.000000 0.000000 2.174390 
# 
# From -- ./inp_files/14565.got.cif
#   From: 2010.05.17/outbox.cif.g08.bks.cpg/sg39_8_cif.got.tgz:14565.got - 2010.06.03 18:22:40.
