data_PCOD9360283
_publ_section_title
;
Structure prediction by ZEFSAII (Michael W. Deem and Ramdas Pophale) SiO2 
 PCOD9360283
Probable space group: A B M 2
;
_chemical_formula_sum "Si O2"
_cell_formula_units_Z 60
_cell_length_a 17.978557
_cell_length_b 13.892629
_cell_length_c 12.454457
_cell_angle_alpha 90.000000
_cell_angle_beta 90.000000
_cell_angle_gamma 90.000000
_cell_volume 3110.742531
_symmetry_space_group_name_H-M "A B M 2"
_symmetry_group_IT_number 39
_symmetry_cell_setting 'orthorhombic'
loop_
_space_group_symop_operation_xyz
x,y,z
-x,-y,z
-x,1/2+y,z
x,1/2-y,z
x,1/2+y,1/2+z
-x,1/2-y,1/2+z
-x,y,1/2+z
x,-y,1/2+z
loop_
_atom_site_type_symbol
_atom_site_label
_atom_site_fract_x
_atom_site_fract_y
_atom_site_fract_z
Si Si1 0.912791 0.354954 0.358250
Si Si2 0.873958 0.366689 0.113452
Si Si3 0.332722 0.956543 0.325821
Si Si4 0.301336 0.363238 0.599488
Si Si5 0.584299 0.976604 0.019709
Si Si6 0.767108 0.143629 0.491659
Si Si7 0.000000 0.000000 0.997378
Si Si8 0.322511 0.360785 0.185942
O O1 0.946562 0.250000 0.342398
O O2 0.879326 0.381454 0.242524
O O3 0.849054 0.350614 0.448240
O O4 0.969668 0.423116 0.413786
O O5 0.888261 0.250000 0.093315
O O6 0.787144 0.384726 0.080731
O O7 0.934900 0.441253 0.063068
O O8 0.407639 0.945841 0.395258
O O9 0.325770 0.063975 0.281261
O O10 0.319239 0.887350 0.224650
O O11 0.272370 0.931823 0.415532
O O12 0.312285 0.250000 0.578069
O O13 0.360311 0.432033 0.538797
O O14 0.500000 0.000000 0.046749
O O15 0.615582 0.894417 0.099323
O O16 0.732174 0.250000 0.473482
O O17 0.753242 0.124320 0.616559
O O18 0.329526 0.250000 0.216925
#
# Coordination Sequence:
#
# PCOD9360283 Si02
#       8
#     8   8   8   8   8   8   4   8
#     4  10  21  37  58  84 117 156 198 241 291 356
#     4  10  22  40  60  88 120 154 204 250 291 357
#     4  10  19  33  61  84 113 145 195 237 290 345
#     4  10  21  39  64  87 112 154 202 246 291 349
#     4  10  23  39  56  86 121 153 191 242 297 357
#     4   9  17  33  57  82 108 145 192 237 283 343
#     4  12  24  34  62  86 126 160 196 244 312 340
#     4   9  20  36  56  83 115 147 185 238 289 341
#
# _framework density 19.288
#
# number of rings (size 3 to 8) (size 9 to 14) (size 15 to 20)
#    0.000    2.133    1.333    1.200    5.600    3.733 
#    0.000    0.000    0.000    0.000    0.000    0.000 
#    0.000    0.000    0.000    0.000    0.000    0.000 
#
# Total GULP energy -167002.860744 kJ/mol
# GULP energy per Si atom -5566.762025 kJ/mol
# Density = 1.924410 g / cm^3
# Si number density = 19.288000 Si / 1000 Ang^3
#
#
#
# Elastic Constant Matrix: (Units=GPa)
#
#
# Indices 1 2 3 4 5 6 
#
# 1 87.7731 34.0543 15.8782 0.0000 0.0000 0.0000
# 2 34.0543 78.9774 17.9122 0.0000 0.0000 0.0000
# 3 15.8782 17.9122 51.0715 0.0000 0.0000 0.0000
# 4 0.0000 0.0000 0.0000 21.6889 0.0000 0.0000
# 5 0.0000 0.0000 0.0000 0.0000 19.5251 0.0000
# 6 0.0000 0.0000 0.0000 0.0000 0.0000 7.8401
#
#
#
# Elastic Compliance Matrix: (Units=1/GPa)
#
#
# Indices 1 2 3 4 5 6 
#
# 1 0.013952 -0.005467 -0.002420 0.000000 0.000000 0.000000
# 2 -0.005467 0.015898 -0.003876 0.000000 0.000000 0.000000
# 3 -0.002420 -0.003876 0.021692 0.000000 0.000000 0.000000
# 4 0.000000 0.000000 0.000000 0.046107 0.000000 0.000000
# 5 0.000000 0.000000 0.000000 0.000000 0.051216 0.000000
# 6 0.000000 0.000000 0.000000 0.000000 0.000000 0.127550
#
#
# Mechanical properties :
#
#
# Convention : Reuss Voigt Hill
#
# Bulk Modulus (GPa) = 35.69447 39.27904 37.48675
# Shear Modulus (GPa) = 16.16655 19.80930 17.98792
#
# Velocity S-wave (km/s) = 2.89825 3.20820 3.05716
# Velocity P-wave (km/s) = 5.45399 5.84227 5.65147
#
# Compressibility (1/GPa) = 0.02801555
#
# Stress axis : x y z
#
# Youngs Moduli (GPa) = 71.67464 62.89975 46.09919
#
# Poissons Ratio (x) = 0.34387 0.11157
# Poissons Ratio (y) = 0.39185 0.17869
# Poissons Ratio (z) = 0.17347 0.24382
#
# Static dielectric constant tensor:
#      x y z
#    x 1.430580 0.000000 0.000000 
#    y 0.000000 1.205140 0.000000 
#    z 0.000000 0.000000 1.681940 
# 
# From -- ./inp_files/6856.got.cif
#   From: 2010.05.17/outbox.cif.g08.bks.cpg/sg39_4_cif.got.tgz:6856.got - 2010.06.03 18:22:40.
