data_PCOD9360810
_publ_section_title
;
Structure prediction by ZEFSAII (Michael W. Deem and Ramdas Pophale) SiO2 
 PCOD9360810
Probable space group: A B M 2
;
_chemical_formula_sum "Si O2"
_cell_formula_units_Z 64
_cell_length_a 9.305824
_cell_length_b 19.165903
_cell_length_c 15.973677
_cell_angle_alpha 90.000000
_cell_angle_beta 90.000000
_cell_angle_gamma 90.000000
_cell_volume 2848.977496
_symmetry_space_group_name_H-M "A B M 2"
_symmetry_group_IT_number 39
_symmetry_cell_setting 'orthorhombic'
loop_
_space_group_symop_operation_xyz
x,y,z
-x,-y,z
-x,1/2+y,z
x,1/2-y,z
x,1/2+y,1/2+z
-x,1/2-y,1/2+z
-x,y,1/2+z
x,-y,1/2+z
loop_
_atom_site_type_symbol
_atom_site_label
_atom_site_fract_x
_atom_site_fract_y
_atom_site_fract_z
Si Si1 0.469958 0.671993 0.372150
Si Si2 0.657230 0.527224 0.855089
Si Si3 0.184467 0.913213 0.207000
Si Si4 0.931846 0.828543 0.274548
Si Si5 0.989182 0.424523 0.042859
Si Si6 0.464670 0.330637 0.672865
Si Si7 0.241039 0.110453 0.423609
Si Si8 0.765055 0.830067 0.097432
O O1 0.415132 0.750000 0.388598
O O2 0.365745 0.606306 0.387213
O O3 0.505138 0.667767 0.272186
O O4 0.617353 0.657781 0.421424
O O5 0.500000 0.500000 0.826243
O O6 0.762344 0.531523 0.775485
O O7 0.706770 0.469802 0.921245
O O8 0.080458 0.938011 0.133881
O O9 0.326971 0.879615 0.166878
O O10 0.091869 0.855186 0.256145
O O11 0.933737 0.750000 0.307984
O O12 0.847681 0.876188 0.339167
O O13 0.845260 0.828186 0.187481
O O14 0.000000 0.500000 0.000157
O O15 0.139449 0.384560 0.046565
O O16 0.871337 0.377602 0.996701
O O17 0.428888 0.250000 0.653771
O O18 0.600973 0.350816 0.616589
O O19 0.767659 0.750000 0.065482
#
# Coordination Sequence:
#
# PCOD9360810 Si02
#       8
#     8   8   8   8   8   8   8   8
#     4   9  17  35  63  95 124 160 212 267 322 373
#     4   9  21  37  62  95 123 161 213 270 316 377
#     4  10  22  37  63  90 121 159 210 267 315 368
#     4  10  20  35  62  95 121 158 212 260 311 372
#     4  11  27  41  57  88 130 174 210 255 314 383
#     4   9  16  34  65  96 121 150 200 265 312 360
#     4  11  22  38  61  86 130 173 211 257 325 384
#     4   9  19  39  65  92 123 159 205 259 310 373
#
# _framework density 22.464200000000002
#
# number of rings (size 3 to 8) (size 9 to 14) (size 15 to 20)
#    0.000    2.250    1.250    0.750    5.250    2.000 
#    0.000    5.625    0.000    1.500    0.000    0.000 
#    0.000    0.000    0.000    0.000    0.000    0.000 
#
# Total GULP energy -178775.660809 kJ/mol
# GULP energy per Si atom -5586.739400 kJ/mol
# Density = 2.241307 g / cm^3
# Si number density = 22.464200 Si / 1000 Ang^3
#
#
#
# Elastic Constant Matrix: (Units=GPa)
#
#
# Indices 1 2 3 4 5 6 
#
# 1 90.9706 32.4930 11.9205 0.0000 0.0000 0.0000
# 2 32.4930 104.6376 10.8815 0.0000 0.0000 0.0000
# 3 11.9205 10.8815 22.4901 0.0000 0.0000 0.0000
# 4 0.0000 0.0000 0.0000 -14.4839 0.0000 0.0000
# 5 0.0000 0.0000 0.0000 0.0000 34.5478 0.0000
# 6 0.0000 0.0000 0.0000 0.0000 0.0000 16.5481
#
#
#
# Elastic Compliance Matrix: (Units=1/GPa)
#
#
# Indices 1 2 3 4 5 6 
#
# 1 0.012909 -0.003472 -0.005162 0.000000 0.000000 0.000000
# 2 -0.003472 0.010997 -0.003480 0.000000 0.000000 0.000000
# 3 -0.005162 -0.003480 0.048884 0.000000 0.000000 0.000000
# 4 0.000000 0.000000 0.000000 -0.069042 0.000000 0.000000
# 5 0.000000 0.000000 0.000000 0.000000 0.028945 0.000000
# 6 0.000000 0.000000 0.000000 0.000000 0.000000 0.060430
#
#
# Mechanical properties :
#
#
# Convention : Reuss Voigt Hill
#
# Bulk Modulus (GPa) = 20.59277 36.52091 28.55684
# Shear Modulus (GPa) = 37.44196 18.17594 27.80895
#
# Velocity S-wave (km/s) = 4.08700 2.84757 3.52223
# Velocity P-wave (km/s) = 5.60877 5.20617 5.41121
#
# Compressibility (1/GPa) = 0.04856074
#
# Stress axis : x y z
#
# Youngs Moduli (GPa) = 77.46477 90.93525 20.45647
#
# Poissons Ratio (x) = 0.31571 0.10561
# Poissons Ratio (y) = 0.26894 0.07120
# Poissons Ratio (z) = 0.39991 0.31650
#
# Static dielectric constant tensor:
#      x y z
#    x 1.809440 0.000000 0.000000 
#    y 0.000000 1.833460 0.000000 
#    z 0.000000 0.000000 1.844400 
# 
# From -- ./inp_files/11941.got.cif
#   From: 2010.05.17/outbox.cif.g08.bks.cpg/sg39_6_cif.got.tgz:11941.got - 2010.06.03 18:22:40.
