data_PCOD9360263
_publ_section_title
;
Structure prediction by ZEFSAII (Michael W. Deem and Ramdas Pophale) SiO2 
 PCOD9360263
Probable space group: A B M 2
;
_chemical_formula_sum "Si O2"
_cell_formula_units_Z 64
_cell_length_a 24.557042
_cell_length_b 8.820752
_cell_length_c 15.719044
_cell_angle_alpha 90.000000
_cell_angle_beta 90.000000
_cell_angle_gamma 90.000000
_cell_volume 3404.926915
_symmetry_space_group_name_H-M "A B M 2"
_symmetry_group_IT_number 39
_symmetry_cell_setting 'orthorhombic'
loop_
_space_group_symop_operation_xyz
x,y,z
-x,-y,z
-x,1/2+y,z
x,1/2-y,z
x,1/2+y,1/2+z
-x,1/2-y,1/2+z
-x,y,1/2+z
x,-y,1/2+z
loop_
_atom_site_type_symbol
_atom_site_label
_atom_site_fract_x
_atom_site_fract_y
_atom_site_fract_z
Si Si1 0.134743 0.432454 0.192100
Si Si2 0.556608 0.569435 0.292379
Si Si3 0.556317 0.430997 0.591244
Si Si4 0.744981 0.431922 0.189164
Si Si5 0.676136 0.567315 0.036285
Si Si6 0.940009 0.932472 0.544988
Si Si7 0.940696 0.567986 0.349319
Si Si8 0.669350 0.931915 0.846985
O O1 0.135134 0.250000 0.187342
O O2 0.195699 0.494983 0.193019
O O3 0.102097 0.499080 0.111862
O O4 0.102699 0.478580 0.278215
O O5 0.500000 0.500000 0.324548
O O6 0.554903 0.750000 0.299754
O O7 0.560792 0.529790 0.191631
O O8 0.610153 0.504547 0.335947
O O9 0.500000 0.500000 0.557959
O O10 0.552331 0.250000 0.584284
O O11 0.612831 0.478655 0.548511
O O12 0.749499 0.250000 0.189281
O O13 0.713133 0.487081 0.105717
O O14 0.708805 0.479211 0.270647
O O15 0.678971 0.750000 0.048912
O O16 0.692535 0.531384 0.939887
O O17 0.941508 0.750000 0.552196
O O18 0.926120 0.973085 0.446759
O O19 0.000000 0.000000 0.562150
O O20 0.945131 0.750000 0.346454
O O21 0.000000 0.500000 0.330133
O O22 0.662749 0.750000 0.842730
#
# Coordination Sequence:
#
# PCOD9360263 Si02
#       8
#     8   8   8   8   8   8   8   8
#     4  11  23  39  60  85 115 156 198 239 286 337
#     4  10  19  33  56  84 114 149 185 228 284 344
#     4   9  18  32  54  81 110 144 181 223 277 337
#     4  11  24  41  59  83 113 149 193 243 290 337
#     4  10  21  40  61  83 112 149 189 233 286 345
#     4  10  20  37  60  90 125 157 193 236 283 338
#     4   9  20  37  59  88 122 157 191 231 281 334
#     4  10  22  39  60  84 113 147 188 237 290 346
#
# _framework density 18.796292000000001
#
# number of rings (size 3 to 8) (size 9 to 14) (size 15 to 20)
#    0.000    2.000    1.250    1.875    0.000    6.000 
#    0.000    3.750    0.000    0.000    0.000    0.000 
#    0.000    0.000    0.000    0.000    0.000    0.000 
#
# Total GULP energy -178745.473834 kJ/mol
# GULP energy per Si atom -5585.796057 kJ/mol
# Density = 1.875351 g / cm^3
# Si number density = 18.796292 Si / 1000 Ang^3
#
#
#
# Elastic Constant Matrix: (Units=GPa)
#
#
# Indices 1 2 3 4 5 6 
#
# 1 157.0732 46.8377 99.1424 0.0000 0.0000 0.0000
# 2 46.8377 34.7581 50.9651 0.0000 0.0000 0.0000
# 3 99.1424 50.9651 136.5028 0.0000 0.0000 0.0000
# 4 0.0000 0.0000 0.0000 23.1714 0.0000 0.0000
# 5 0.0000 0.0000 0.0000 0.0000 -9.8639 0.0000
# 6 0.0000 0.0000 0.0000 0.0000 0.0000 37.3076
#
#
#
# Elastic Compliance Matrix: (Units=1/GPa)
#
#
# Indices 1 2 3 4 5 6 
#
# 1 0.012669 -0.007911 -0.006248 0.000000 0.000000 0.000000
# 2 -0.007911 0.068514 -0.019835 0.000000 0.000000 0.000000
# 3 -0.006248 -0.019835 0.019269 0.000000 0.000000 0.000000
# 4 0.000000 0.000000 0.000000 0.043157 0.000000 0.000000
# 5 0.000000 0.000000 0.000000 0.000000 -0.101380 0.000000
# 6 0.000000 0.000000 0.000000 0.000000 0.000000 0.026804
#
#
# Mechanical properties :
#
#
# Convention : Reuss Voigt Hill
#
# Bulk Modulus (GPa) = 30.80238 80.24717 55.52477
# Shear Modulus (GPa) = 33.81981 18.88227 26.35104
#
# Velocity S-wave (km/s) = 4.24640 3.17294 3.74829
# Velocity P-wave (km/s) = 6.36125 7.49728 6.95251
#
# Compressibility (1/GPa) = 0.03246503
#
# Stress axis : x y z
#
# Youngs Moduli (GPa) = 78.93303 14.59559 51.89552
#
# Poissons Ratio (x) = 0.11546 0.32424
# Poissons Ratio (y) = 0.62440 1.02935
# Poissons Ratio (z) = 0.49317 0.28950
#
# Static dielectric constant tensor:
#      x y z
#    x 1.610820 0.000000 0.000000 
#    y 0.000000 1.631210 0.000000 
#    z 0.000000 0.000000 1.669370 
# 
# From -- ./inp_files/10696.got.cif
#   From: 2010.05.17/outbox.cif.g08.bks.cpg/sg39_6_cif.got.tgz:10696.got - 2010.06.03 18:22:40.
