data_PCOD9360561
_publ_section_title
;
Structure prediction by ZEFSAII (Michael W. Deem and Ramdas Pophale) SiO2 
 PCOD9360561
Probable space group: A B M 2
;
_chemical_formula_sum "Si O2"
_cell_formula_units_Z 64
_cell_length_a 7.696185
_cell_length_b 15.741451
_cell_length_c 25.126835
_cell_angle_alpha 90.000000
_cell_angle_beta 90.000000
_cell_angle_gamma 90.000000
_cell_volume 3044.093925
_symmetry_space_group_name_H-M "A B M 2"
_symmetry_group_IT_number 39
_symmetry_cell_setting 'orthorhombic'
loop_
_space_group_symop_operation_xyz
x,y,z
-x,-y,z
-x,1/2+y,z
x,1/2-y,z
x,1/2+y,1/2+z
-x,1/2-y,1/2+z
-x,y,1/2+z
x,-y,1/2+z
loop_
_atom_site_type_symbol
_atom_site_label
_atom_site_fract_x
_atom_site_fract_y
_atom_site_fract_z
Si Si1 0.376578 0.584365 0.902680
Si Si2 0.178727 0.651790 0.306339
Si Si3 0.234093 0.151971 0.292625
Si Si4 0.718692 0.843946 0.920637
Si Si5 0.801799 0.345360 0.535151
Si Si6 0.213267 0.506273 0.225700
Si Si7 0.861157 0.422640 0.005723
Si Si8 0.211400 0.996850 0.606768
O O1 0.500000 0.500000 0.902601
O O2 0.288414 0.604733 0.846846
O O3 0.515931 0.658420 0.910187
O O4 0.241800 0.586350 0.951242
O O5 0.246853 0.750000 0.304293
O O6 0.199578 0.618063 0.367081
O O7 0.258877 0.583905 0.265390
O O8 0.975181 0.656978 0.293813
O O9 0.297831 0.250000 0.288659
O O10 0.280856 0.084615 0.246688
O O11 0.798486 0.750000 0.925218
O O12 0.733596 0.882988 0.979039
O O13 0.739020 0.250000 0.541490
O O14 0.751122 0.402724 0.585072
O O15 0.009772 0.348345 0.524869
O O16 0.273767 0.519833 0.165160
O O17 0.000000 0.500000 0.226195
O O18 0.000000 0.500000 0.999504
O O19 0.740979 0.444040 0.056588
O O20 0.000000 0.000000 0.610006
#
# Coordination Sequence:
#
# PCOD9360561 Si02
#       8
#     8   8   8   8   8   8   8   8
#     4  12  22  32  51  75 103 140 174 213 270 324
#     4   9  18  34  56  80 107 140 176 219 269 322
#     4  10  21  34  51  78 109 140 178 220 261 313
#     4  10  20  33  50  75 105 133 167 212 263 317
#     4   9  17  31  53  76 100 135 171 208 261 318
#     4   9  17  31  52  76 104 136 174 221 269 311
#     4   9  19  34  51  73 103 133 169 215 261 314
#     4   8  16  31  48  73 103 129 166 216 258 303
#
# _framework density 21.024318999999998
#
# number of rings (size 3 to 8) (size 9 to 14) (size 15 to 20)
#    0.000    2.750    0.000    3.375    0.000    4.000 
#    0.000    6.875    0.000    6.750    0.000    3.500 
#    0.000    0.000    0.000    0.000    0.000    0.000 
#
# Total GULP energy -178190.661019 kJ/mol
# GULP energy per Si atom -5568.458157 kJ/mol
# Density = 2.097647 g / cm^3
# Si number density = 21.024319 Si / 1000 Ang^3
#
#
#
# Elastic Constant Matrix: (Units=GPa)
#
#
# Indices 1 2 3 4 5 6 
#
# 1 19.3840 0.4078 -2.2745 0.0000 0.0000 0.0000
# 2 0.4078 81.8024 29.4404 0.0000 0.0000 0.0000
# 3 -2.2745 29.4404 120.6935 0.0000 0.0000 0.0000
# 4 0.0000 0.0000 0.0000 14.9942 0.0000 0.0000
# 5 0.0000 0.0000 0.0000 0.0000 -11.7412 0.0000
# 6 0.0000 0.0000 0.0000 0.0000 0.0000 12.3443
#
#
#
# Elastic Compliance Matrix: (Units=1/GPa)
#
#
# Indices 1 2 3 4 5 6 
#
# 1 0.051737 -0.000667 0.001138 0.000000 0.000000 0.000000
# 2 -0.000667 0.013410 -0.003284 0.000000 0.000000 0.000000
# 3 0.001138 -0.003284 0.009108 0.000000 0.000000 0.000000
# 4 0.000000 0.000000 0.000000 0.066692 0.000000 0.000000
# 5 0.000000 0.000000 0.000000 0.000000 -0.085170 0.000000
# 6 0.000000 0.000000 0.000000 0.000000 0.000000 0.081009
#
#
# Mechanical properties :
#
#
# Convention : Reuss Voigt Hill
#
# Bulk Modulus (GPa) = 14.57136 30.78081 22.67608
# Shear Modulus (GPa) = 30.25031 16.07321 23.16176
#
# Velocity S-wave (km/s) = 3.79730 2.76797 3.32273
# Velocity P-wave (km/s) = 5.11583 4.98878 5.05270
#
# Compressibility (1/GPa) = 0.06862777
#
# Stress axis : x y z
#
# Youngs Moduli (GPa) = 19.32867 74.57322 109.79551
#
# Poissons Ratio (x) = 0.04977 -0.12492
# Poissons Ratio (y) = 0.01290 0.36052
# Poissons Ratio (z) = -0.02199 0.24486
#
# Static dielectric constant tensor:
#      x y z
#    x 1.795320 0.000000 0.000000 
#    y 0.000000 1.846790 0.000000 
#    z 0.000000 0.000000 1.784670 
# 
# From -- ./inp_files/15760.got.cif
#   From: 2010.05.17/outbox.cif.g08.bks.cpg/sg39_8_cif.got.tgz:15760.got - 2010.06.03 18:22:40.
