data_PCOD9360419
_publ_section_title
;
Structure prediction by ZEFSAII (Michael W. Deem and Ramdas Pophale) SiO2 
 PCOD9360419
Probable space group: A B M 2
;
_chemical_formula_sum "Si O2"
_cell_formula_units_Z 40
_cell_length_a 9.743416
_cell_length_b 20.016805
_cell_length_c 8.925429
_cell_angle_alpha 90.000000
_cell_angle_beta 90.000000
_cell_angle_gamma 90.000000
_cell_volume 1740.744787
_symmetry_space_group_name_H-M "A B M 2"
_symmetry_group_IT_number 39
_symmetry_cell_setting 'orthorhombic'
loop_
_space_group_symop_operation_xyz
x,y,z
-x,-y,z
-x,1/2+y,z
x,1/2-y,z
x,1/2+y,1/2+z
-x,1/2-y,1/2+z
-x,y,1/2+z
x,-y,1/2+z
loop_
_atom_site_type_symbol
_atom_site_label
_atom_site_fract_x
_atom_site_fract_y
_atom_site_fract_z
Si Si1 0.813983 0.677462 0.835320
Si Si2 0.431732 0.173129 0.604531
Si Si3 0.141036 0.463399 0.723278
Si Si4 0.748966 0.174975 0.680694
Si Si5 0.261680 0.067965 0.411275
O O1 0.873763 0.750000 0.794533
O O2 0.665505 0.674458 0.751745
O O3 0.881434 0.611687 0.775405
O O4 0.808118 0.672136 0.013794
O O5 0.425164 0.250000 0.540960
O O6 0.586932 0.161329 0.654811
O O7 0.378892 0.113872 0.494259
O O8 0.173586 0.459080 0.548628
O O9 0.268308 0.501664 0.806115
O O10 0.000000 0.500000 0.752829
O O11 0.766124 0.250000 0.738075
O O12 0.802323 0.121956 0.798422
#
# Coordination Sequence:
#
# PCOD9360419 Si02
#       5
#     8   8   8   8   8
#     4   9  19  37  61  91 124 160 207 256 306 375
#     4   9  18  35  61  93 130 168 202 243 300 370
#     4  11  24  43  63  85 121 167 213 266 322 363
#     4  10  19  35  62  95 130 165 201 248 308 375
#     4  11  22  38  61  90 123 166 213 251 303 375
#
# _framework density 22.978669
#
# number of rings (size 3 to 8) (size 9 to 14) (size 15 to 20)
#    0.000    2.000    0.000    3.600    0.000    4.000 
#    0.000   20.000    0.000    8.400    0.000    0.000 
#    0.000    0.000    0.000    0.000    0.000    0.000 
#
# Total GULP energy -111600.493655 kJ/mol
# GULP energy per Si atom -5580.024683 kJ/mol
# Density = 2.292637 g / cm^3
# Si number density = 22.978669 Si / 1000 Ang^3
#
#
#
# Elastic Constant Matrix: (Units=GPa)
#
#
# Indices 1 2 3 4 5 6 
#
# 1 29.4142 1.9287 -0.1320 0.0000 0.0000 0.0000
# 2 1.9287 114.7846 58.4147 0.0000 0.0000 0.0000
# 3 -0.1320 58.4147 121.4857 0.0000 0.0000 0.0000
# 4 0.0000 0.0000 0.0000 55.1674 0.0000 0.0000
# 5 0.0000 0.0000 0.0000 0.0000 5.0947 0.0000
# 6 0.0000 0.0000 0.0000 0.0000 0.0000 17.6303
#
#
#
# Elastic Compliance Matrix: (Units=1/GPa)
#
#
# Indices 1 2 3 4 5 6 
#
# 1 0.034050 -0.000782 0.000413 0.000000 0.000000 0.000000
# 2 -0.000782 0.011552 -0.005556 0.000000 0.000000 0.000000
# 3 0.000413 -0.005556 0.010903 0.000000 0.000000 0.000000
# 4 0.000000 0.000000 0.000000 0.018127 0.000000 0.000000
# 5 0.000000 0.000000 0.000000 0.000000 0.196282 0.000000
# 6 0.000000 0.000000 0.000000 0.000000 0.000000 0.056720
#
#
# Mechanical properties :
#
#
# Convention : Reuss Voigt Hill
#
# Bulk Modulus (GPa) = 22.39326 42.90079 32.64703
# Shear Modulus (GPa) = 14.10952 29.27669 21.69311
#
# Velocity S-wave (km/s) = 2.48065 3.57330 3.07588
# Velocity P-wave (km/s) = 4.23924 5.97788 5.18200
#
# Compressibility (1/GPa) = 0.04465629
#
# Stress axis : x y z
#
# Youngs Moduli (GPa) = 29.36824 86.56178 91.71586
#
# Poissons Ratio (x) = 0.06773 -0.03790
# Poissons Ratio (y) = 0.02298 0.50954
# Poissons Ratio (z) = -0.01214 0.48091
#
# Static dielectric constant tensor:
#      x y z
#    x 1.875860 0.000000 0.000000 
#    y 0.000000 1.889770 0.000000 
#    z 0.000000 0.000000 1.868650 
# 
# From -- ./inp_files/2509.got.cif
#   From: 2010.05.17/outbox.cif.g08.bks.cpg/sg39_2_cif.got.tgz:2509.got - 2010.06.03 18:22:40.
