data_PCOD9360668
_publ_section_title
;
Structure prediction by ZEFSAII (Michael W. Deem and Ramdas Pophale) SiO2 
 PCOD9360668
Probable space group: A B M 2
;
_chemical_formula_sum "Si O2"
_cell_formula_units_Z 52
_cell_length_a 17.927333
_cell_length_b 13.264709
_cell_length_c 12.517625
_cell_angle_alpha 90.000000
_cell_angle_beta 90.000000
_cell_angle_gamma 90.000000
_cell_volume 2976.701932
_symmetry_space_group_name_H-M "A B M 2"
_symmetry_group_IT_number 39
_symmetry_cell_setting 'orthorhombic'
loop_
_space_group_symop_operation_xyz
x,y,z
-x,-y,z
-x,1/2+y,z
x,1/2-y,z
x,1/2+y,1/2+z
-x,1/2-y,1/2+z
-x,y,1/2+z
x,-y,1/2+z
loop_
_atom_site_type_symbol
_atom_site_label
_atom_site_fract_x
_atom_site_fract_y
_atom_site_fract_z
Si Si1 0.621531 0.369357 0.393110
Si Si2 0.254863 0.497114 0.012095
Si Si3 0.500000 0.000000 0.516319
Si Si4 0.039542 0.635850 0.079910
Si Si5 0.885418 0.943052 0.147647
Si Si6 0.855840 0.633481 0.382175
Si Si7 0.624279 0.370630 0.137177
O O1 0.615547 0.250000 0.414099
O O2 0.692894 0.417353 0.452203
O O3 0.551851 0.429750 0.442492
O O4 0.626299 0.383567 0.265292
O O5 0.209374 0.562883 0.926313
O O6 0.192624 0.444748 0.086096
O O7 0.305628 0.572890 0.082452
O O8 0.552300 0.927617 0.588177
O O9 0.053198 0.750000 0.113103
O O10 0.084206 0.557712 0.153849
O O11 0.952129 0.612143 0.084602
O O12 0.074280 0.620887 0.962496
O O13 0.877311 0.895173 0.263033
O O14 0.832775 0.750000 0.387804
O O15 0.623765 0.250000 0.114583
#
# Coordination Sequence:
#
# PCOD9360668 Si02
#       7
#     8   8   4   8   8   8   8
#     4  10  21  36  55  81 110 139 174 216 259 305
#     4  10  21  36  53  78 108 140 176 216 259 312
#     4  10  20  36  58  82 108 136 174 214 254 306
#     4   9  20  36  53  75 103 136 176 221 270 319
#     4  10  20  34  55  78 104 136 177 224 266 308
#     4  10  20  36  56  77 104 139 178 219 265 318
#     4  10  20  36  57  79 107 141 172 208 258 311
#
# _framework density 17.468997999999999
#
# number of rings (size 3 to 8) (size 9 to 14) (size 15 to 20)
#    0.000    2.154    0.000    2.769    0.000    6.769 
#    0.000    0.769    0.000   12.923    0.000    0.000 
#    0.000    0.000    0.000    0.000    0.000    0.000 
#
# Total GULP energy -145069.854537 kJ/mol
# GULP energy per Si atom -5579.609790 kJ/mol
# Density = 1.742924 g / cm^3
# Si number density = 17.468998 Si / 1000 Ang^3
#
#
#
# Elastic Constant Matrix: (Units=GPa)
#
#
# Indices 1 2 3 4 5 6 
#
# 1 119.9246 44.5948 48.7210 0.0000 0.0000 0.0000
# 2 44.5948 107.2328 54.1038 0.0000 0.0000 0.0000
# 3 48.7210 54.1038 70.9861 0.0000 0.0000 0.0000
# 4 0.0000 0.0000 0.0000 32.1450 0.0000 0.0000
# 5 0.0000 0.0000 0.0000 0.0000 11.1696 0.0000
# 6 0.0000 0.0000 0.0000 0.0000 0.0000 13.6619
#
#
#
# Elastic Compliance Matrix: (Units=1/GPa)
#
#
# Indices 1 2 3 4 5 6 
#
# 1 0.011677 -0.001320 -0.007008 0.000000 0.000000 0.000000
# 2 -0.001320 0.015302 -0.010756 0.000000 0.000000 0.000000
# 3 -0.007008 -0.010756 0.027095 0.000000 0.000000 0.000000
# 4 0.000000 0.000000 0.000000 0.031109 0.000000 0.000000
# 5 0.000000 0.000000 0.000000 0.000000 0.089529 0.000000
# 6 0.000000 0.000000 0.000000 0.000000 0.000000 0.073196
#
#
# Mechanical properties :
#
#
# Convention : Reuss Voigt Hill
#
# Bulk Modulus (GPa) = 62.87516 65.88697 64.38106
# Shear Modulus (GPa) = 17.15984 21.44357 19.30171
#
# Velocity S-wave (km/s) = 3.13757 3.50740 3.32763
# Velocity P-wave (km/s) = 7.01401 7.36212 7.19018
#
# Compressibility (1/GPa) = 0.01590453
#
# Stress axis : x y z
#
# Youngs Moduli (GPa) = 85.64171 65.35271 36.90653
#
# Poissons Ratio (x) = 0.08627 0.25864
# Poissons Ratio (y) = 0.11305 0.39698
# Poissons Ratio (z) = 0.60018 0.70296
#
# Static dielectric constant tensor:
#      x y z
#    x 1.582390 0.000000 0.000000 
#    y 0.000000 1.590950 0.000000 
#    z 0.000000 0.000000 1.560610 
# 
# From -- ./inp_files/6840.got.cif
#   From: 2010.05.17/outbox.cif.g08.bks.cpg/sg39_4_cif.got.tgz:6840.got - 2010.06.03 18:22:40.
