data_PCOD9360660
_publ_section_title
;
Structure prediction by ZEFSAII (Michael W. Deem and Ramdas Pophale) SiO2 
 PCOD9360660
Probable space group: A B M 2
;
_chemical_formula_sum "Si O2"
_cell_formula_units_Z 56
_cell_length_a 24.356822
_cell_length_b 8.814434
_cell_length_c 14.707382
_cell_angle_alpha 90.000000
_cell_angle_beta 90.000000
_cell_angle_gamma 90.000000
_cell_volume 3157.551373
_symmetry_space_group_name_H-M "A B M 2"
_symmetry_group_IT_number 39
_symmetry_cell_setting 'orthorhombic'
loop_
_space_group_symop_operation_xyz
x,y,z
-x,-y,z
-x,1/2+y,z
x,1/2-y,z
x,1/2+y,1/2+z
-x,1/2-y,1/2+z
-x,y,1/2+z
x,-y,1/2+z
loop_
_atom_site_type_symbol
_atom_site_label
_atom_site_fract_x
_atom_site_fract_y
_atom_site_fract_z
Si Si1 0.060332 0.068280 0.827340
Si Si2 0.646219 0.068036 0.319595
Si Si3 0.848071 0.932796 0.974329
Si Si4 0.442442 0.567792 0.170032
Si Si5 0.142354 0.066843 0.184375
Si Si6 0.442601 0.067935 0.969831
Si Si7 0.233573 0.568944 0.831643
O O1 0.057558 0.250000 0.822857
O O2 0.098494 0.026167 0.914001
O O3 0.091473 0.005498 0.738288
O O4 0.000000 0.000000 0.835234
O O5 0.653783 0.250000 0.319022
O O6 0.608800 0.026958 0.233115
O O7 0.608539 0.029108 0.406209
O O8 0.705033 0.990782 0.321542
O O9 0.843206 0.750000 0.973124
O O10 0.796575 0.001156 0.920170
O O11 0.852782 0.981009 0.079317
O O12 0.500000 0.500000 0.205253
O O13 0.447126 0.750000 0.166794
O O14 0.434840 0.500817 0.069695
O O15 0.136637 0.250000 0.186228
O O16 0.196050 0.026446 0.244247
O O17 0.447567 0.250000 0.974435
O O18 0.500000 0.000000 0.934131
O O19 0.233481 0.750000 0.838278
#
# Coordination Sequence:
#
# PCOD9360660 Si02
#       7
#     8   8   8   8   8   8   8
#     4  10  20  34  54  81 111 142 174 214 257 302
#     4  10  22  37  53  74 104 139 173 211 260 313
#     4   9  19  37  58  77 105 143 177 212 260 309
#     4  10  20  35  54  77 104 135 170 212 260 313
#     4   9  19  37  57  78 105 139 177 216 259 308
#     4  10  20  35  54  76 102 134 169 210 259 312
#     4  10  21  35  54  79 105 134 174 221 262 305
#
# _framework density 17.735261999999999
#
# number of rings (size 3 to 8) (size 9 to 14) (size 15 to 20)
#    0.000    2.286    0.000    3.000    0.000    5.714 
#    0.000    5.714    0.000    0.000    0.000    0.000 
#    0.000    0.000    0.000    0.000    0.000    0.000 
#
# Total GULP energy -156284.134502 kJ/mol
# GULP energy per Si atom -5581.576232 kJ/mol
# Density = 1.769490 g / cm^3
# Si number density = 17.735262 Si / 1000 Ang^3
#
#
#
# Elastic Constant Matrix: (Units=GPa)
#
#
# Indices 1 2 3 4 5 6 
#
# 1 165.0489 50.4230 76.2605 0.0000 0.0000 0.0000
# 2 50.4230 38.1563 39.4457 0.0000 0.0000 0.0000
# 3 76.2605 39.4457 140.5685 0.0000 0.0000 0.0000
# 4 0.0000 0.0000 0.0000 21.3410 0.0000 0.0000
# 5 0.0000 0.0000 0.0000 0.0000 11.3678 0.0000
# 6 0.0000 0.0000 0.0000 0.0000 0.0000 34.1194
#
#
#
# Elastic Compliance Matrix: (Units=1/GPa)
#
#
# Indices 1 2 3 4 5 6 
#
# 1 0.010802 -0.011574 -0.002612 0.000000 0.000000 0.000000
# 2 -0.011574 0.049318 -0.007561 0.000000 0.000000 0.000000
# 3 -0.002612 -0.007561 0.010653 0.000000 0.000000 0.000000
# 4 0.000000 0.000000 0.000000 0.046858 0.000000 0.000000
# 5 0.000000 0.000000 0.000000 0.000000 0.087968 0.000000
# 6 0.000000 0.000000 0.000000 0.000000 0.000000 0.029309
#
#
# Mechanical properties :
#
#
# Convention : Reuss Voigt Hill
#
# Bulk Modulus (GPa) = 36.65723 75.11466 55.88595
# Shear Modulus (GPa) = 17.39166 25.20861 21.30014
#
# Velocity S-wave (km/s) = 3.13489 3.77421 3.46931
# Velocity P-wave (km/s) = 5.81527 7.83825 6.90129
#
# Compressibility (1/GPa) = 0.02727975
#
# Stress axis : x y z
#
# Youngs Moduli (GPa) = 92.57920 20.27642 93.87185
#
# Poissons Ratio (x) = 0.23467 0.24522
# Poissons Ratio (y) = 1.07147 0.70974
# Poissons Ratio (z) = 0.24184 0.15330
#
# Static dielectric constant tensor:
#      x y z
#    x 1.576440 0.000000 0.000000 
#    y 0.000000 1.593840 0.000000 
#    z 0.000000 0.000000 1.601460 
# 
# From -- ./inp_files/10352.got.cif
#   From: 2010.05.17/outbox.cif.g08.bks.cpg/sg39_6_cif.got.tgz:10352.got - 2010.06.03 18:22:40.
