data_PCOD9360319
_publ_section_title
;
Structure prediction by ZEFSAII (Michael W. Deem and Ramdas Pophale) SiO2 
 PCOD9360319
Probable space group: A B M 2
;
_chemical_formula_sum "Si O2"
_cell_formula_units_Z 64
_cell_length_a 8.546786
_cell_length_b 24.829809
_cell_length_c 15.837683
_cell_angle_alpha 90.000000
_cell_angle_beta 90.000000
_cell_angle_gamma 90.000000
_cell_volume 3360.994911
_symmetry_space_group_name_H-M "A B M 2"
_symmetry_group_IT_number 39
_symmetry_cell_setting 'orthorhombic'
loop_
_space_group_symop_operation_xyz
x,y,z
-x,-y,z
-x,1/2+y,z
x,1/2-y,z
x,1/2+y,1/2+z
-x,1/2-y,1/2+z
-x,y,1/2+z
x,-y,1/2+z
loop_
_atom_site_type_symbol
_atom_site_label
_atom_site_fract_x
_atom_site_fract_y
_atom_site_fract_z
Si Si1 0.159460 0.534774 0.881620
Si Si2 0.093096 0.686859 0.259076
Si Si3 0.875979 0.313224 0.597262
Si Si4 0.348677 0.065804 0.919244
Si Si5 0.175264 0.012061 0.190312
Si Si6 0.616844 0.597114 0.096888
Si Si7 0.981474 0.632409 0.931959
Si Si8 0.645499 0.097430 0.236823
O O1 0.300218 0.496913 0.912566
O O2 0.170647 0.542865 0.780478
O O3 0.000000 0.500000 0.892223
O O4 0.124093 0.590442 0.927561
O O5 0.133603 0.750000 0.260571
O O6 0.020797 0.668986 0.348540
O O7 0.242460 0.648898 0.243255
O O8 0.971141 0.677463 0.183347
O O9 0.842882 0.250000 0.589168
O O10 0.720841 0.349238 0.596391
O O11 0.975875 0.333771 0.517315
O O12 0.181696 0.098094 0.926626
O O13 0.420666 0.084271 0.830293
O O14 0.439765 0.082331 0.002993
O O15 0.253453 0.955045 0.211829
O O16 0.271734 0.047560 0.125176
O O17 0.000000 0.000000 0.160414
O O18 0.484231 0.603083 0.166171
#
# Coordination Sequence:
#
# PCOD9360319 Si02
#       8
#     8   8   8   8   8   8   8   8
#     4   8  14  28  51  78 108 138 173 215 263 320
#     4  10  20  36  57  79 107 145 185 226 277 335
#     4  10  21  35  54  83 112 140 182 231 276 330
#     4   8  18  33  51  76 107 143 180 221 270 327
#     4  10  19  34  56  81 111 143 178 224 272 326
#     4  11  21  35  56  80 109 147 185 226 281 334
#     4   9  16  31  55  82 106 137 178 222 273 326
#     4  10  21  38  55  79 111 143 186 231 276 330
#
# _framework density 19.041981
#
# number of rings (size 3 to 8) (size 9 to 14) (size 15 to 20)
#    0.000    2.500    0.000    4.500    0.000    4.000 
#    0.000    7.500    0.000    0.000    0.000    0.000 
#    0.000    0.000    0.000    0.000    0.000    0.000 
#
# Total GULP energy -178715.499666 kJ/mol
# GULP energy per Si atom -5584.859365 kJ/mol
# Density = 1.899864 g / cm^3
# Si number density = 19.041981 Si / 1000 Ang^3
#
#
#
# Elastic Constant Matrix: (Units=GPa)
#
#
# Indices 1 2 3 4 5 6 
#
# 1 38.5426 25.1909 37.7327 0.0000 0.0000 0.0000
# 2 25.1909 86.5568 53.8699 0.0000 0.0000 0.0000
# 3 37.7327 53.8699 126.7306 0.0000 0.0000 0.0000
# 4 0.0000 0.0000 0.0000 25.5910 0.0000 0.0000
# 5 0.0000 0.0000 0.0000 0.0000 28.8740 0.0000
# 6 0.0000 0.0000 0.0000 0.0000 0.0000 -28.7597
#
#
#
# Elastic Compliance Matrix: (Units=1/GPa)
#
#
# Indices 1 2 3 4 5 6 
#
# 1 0.038473 -0.005531 -0.009104 0.000000 0.000000 0.000000
# 2 -0.005531 0.016504 -0.005369 0.000000 0.000000 0.000000
# 3 -0.009104 -0.005369 0.012883 0.000000 0.000000 0.000000
# 4 0.000000 0.000000 0.000000 0.039076 0.000000 0.000000
# 5 0.000000 0.000000 0.000000 0.000000 0.034633 0.000000
# 6 0.000000 0.000000 0.000000 0.000000 0.000000 -0.034771
#
#
# Mechanical properties :
#
#
# Convention : Reuss Voigt Hill
#
# Bulk Modulus (GPa) = 35.90229 53.93521 44.91875
# Shear Modulus (GPa) = 32.03281 14.14350 23.08815
#
# Velocity S-wave (km/s) = 4.10594 2.72831 3.48586
# Velocity P-wave (km/s) = 6.43222 6.18957 6.31206
#
# Compressibility (1/GPa) = 0.02785338
#
# Stress axis : x y z
#
# Youngs Moduli (GPa) = 25.99246 60.59116 77.61939
#
# Poissons Ratio (x) = 0.33513 0.70663
# Poissons Ratio (y) = 0.14376 0.41671
# Poissons Ratio (z) = 0.23663 0.32529
#
# Static dielectric constant tensor:
#      x y z
#    x 1.668340 0.000000 0.000000 
#    y 0.000000 1.641190 0.000000 
#    z 0.000000 0.000000 1.681180 
# 
# From -- ./inp_files/8781.got.cif
#   From: 2010.05.17/outbox.cif.g08.bks.cpg/sg39_5_cif.got.tgz:8781.got - 2010.06.03 18:22:40.
