data_PCOD9360917
_publ_section_title
;
Structure prediction by ZEFSAII (Michael W. Deem and Ramdas Pophale) SiO2 
 PCOD9360917
Probable space group: A B M 2
;
_chemical_formula_sum "Si O2"
_cell_formula_units_Z 64
_cell_length_a 23.964581
_cell_length_b 8.746884
_cell_length_c 15.579832
_cell_angle_alpha 90.000000
_cell_angle_beta 90.000000
_cell_angle_gamma 90.000000
_cell_volume 3265.772874
_symmetry_space_group_name_H-M "A B M 2"
_symmetry_group_IT_number 39
_symmetry_cell_setting 'orthorhombic'
loop_
_space_group_symop_operation_xyz
x,y,z
-x,-y,z
-x,1/2+y,z
x,1/2-y,z
x,1/2+y,1/2+z
-x,1/2-y,1/2+z
-x,y,1/2+z
x,-y,1/2+z
loop_
_atom_site_type_symbol
_atom_site_label
_atom_site_fract_x
_atom_site_fract_y
_atom_site_fract_z
Si Si1 0.621116 0.568429 0.320380
Si Si2 0.366736 0.568869 0.502290
Si Si3 0.263296 0.929624 0.260858
Si Si4 0.127340 0.433298 0.503062
Si Si5 0.746559 0.569922 0.555230
Si Si6 0.561004 0.067264 0.156227
Si Si7 0.060992 0.567472 0.658910
Si Si8 0.145216 0.065643 0.310166
O O1 0.614090 0.750000 0.320834
O O2 0.610026 0.499278 0.413932
O O3 0.684622 0.524680 0.295712
O O4 0.582756 0.493850 0.247482
O O5 0.374119 0.750000 0.505225
O O6 0.301404 0.526058 0.509431
O O7 0.397039 0.491863 0.583113
O O8 0.272162 0.750000 0.279541
O O9 0.259629 0.947345 0.157728
O O10 0.205131 0.987399 0.299323
O O11 0.122020 0.250000 0.513535
O O12 0.191038 0.474030 0.528192
O O13 0.085423 0.513110 0.568050
O O14 0.119773 0.471190 0.403156
O O15 0.738626 0.750000 0.534161
O O16 0.560146 0.250000 0.156401
O O17 0.500000 0.000000 0.138973
O O18 0.057925 0.750000 0.660778
O O19 0.104431 0.518465 0.733082
O O20 0.000000 0.500000 0.673701
O O21 0.152963 0.250000 0.306491
#
# Coordination Sequence:
#
# PCOD9360917 Si02
#       8
#     8   8   8   8   8   8   8   8
#     4  12  25  43  67  96 131 173 215 264 319 376
#     4  12  25  42  67  99 132 171 214 262 318 380
#     4  11  21  36  63  97 130 166 208 256 312 374
#     4  10  21  40  63  89 122 160 201 250 307 367
#     4  10  20  36  62  94 131 169 204 254 315 373
#     4  12  26  47  70  96 129 168 217 268 319 379
#     4  11  24  41  61  86 117 157 205 256 307 367
#     4  10  22  39  62  91 124 162 204 250 309 372
#
# _framework density 19.597200000000001
#
# number of rings (size 3 to 8) (size 9 to 14) (size 15 to 20)
#    0.000    1.000    2.500    4.875    0.000    4.000 
#    0.000    3.750    0.000    0.000    0.000    0.000 
#    0.000    0.000    0.000    0.000    0.000    0.000 
#
# Total GULP energy -179083.268568 kJ/mol
# GULP energy per Si atom -5596.352143 kJ/mol
# Density = 1.955260 g / cm^3
# Si number density = 19.597200 Si / 1000 Ang^3
#
#
#
# Elastic Constant Matrix: (Units=GPa)
#
#
# Indices 1 2 3 4 5 6 
#
# 1 49.9313 10.2179 -17.5529 0.0000 0.0000 0.0000
# 2 10.2179 98.2440 19.2099 0.0000 0.0000 0.0000
# 3 -17.5529 19.2099 62.3627 0.0000 0.0000 0.0000
# 4 0.0000 0.0000 0.0000 28.1112 0.0000 0.0000
# 5 0.0000 0.0000 0.0000 0.0000 4.6741 0.0000
# 6 0.0000 0.0000 0.0000 0.0000 0.0000 32.6156
#
#
#
# Elastic Compliance Matrix: (Units=1/GPa)
#
#
# Indices 1 2 3 4 5 6 
#
# 1 0.023615 -0.003996 0.007878 0.000000 0.000000 0.000000
# 2 -0.003996 0.011507 -0.004670 0.000000 0.000000 0.000000
# 3 0.007878 -0.004670 0.019691 0.000000 0.000000 0.000000
# 4 0.000000 0.000000 0.000000 0.035573 0.000000 0.000000
# 5 0.000000 0.000000 0.000000 0.000000 0.213947 0.000000
# 6 0.000000 0.000000 0.000000 0.000000 0.000000 0.030660
#
#
# Mechanical properties :
#
#
# Convention : Reuss Voigt Hill
#
# Bulk Modulus (GPa) = 18.78404 26.03197 22.40801
# Shear Modulus (GPa) = 14.11173 26.32435 20.21804
#
# Velocity S-wave (km/s) = 2.68636 3.66904 3.21546
# Velocity P-wave (km/s) = 4.38496 5.59120 5.02441
#
# Compressibility (1/GPa) = 0.05323668
#
# Stress axis : x y z
#
# Youngs Moduli (GPa) = 42.34649 86.90025 50.78475
#
# Poissons Ratio (x) = 0.34729 -0.40007
# Poissons Ratio (y) = 0.16923 0.23714
# Poissons Ratio (z) = -0.33360 0.40579
#
# Static dielectric constant tensor:
#      x y z
#    x 1.662540 0.000000 0.000000 
#    y 0.000000 1.659080 0.000000 
#    z 0.000000 0.000000 1.683260 
# 
# From -- ./inp_files/10657.got.cif
#   From: 2010.05.17/outbox.cif.g08.bks.cpg/sg39_6_cif.got.tgz:10657.got - 2010.06.03 18:22:40.
