data_PCOD9360926
_publ_section_title
;
Structure prediction by ZEFSAII (Michael W. Deem and Ramdas Pophale) SiO2 
 PCOD9360926
Probable space group: A B M 2
;
_chemical_formula_sum "Si O2"
_cell_formula_units_Z 60
_cell_length_a 7.289504
_cell_length_b 21.011132
_cell_length_c 17.293077
_cell_angle_alpha 90.000000
_cell_angle_beta 90.000000
_cell_angle_gamma 90.000000
_cell_volume 2648.620310
_symmetry_space_group_name_H-M "A B M 2"
_symmetry_group_IT_number 39
_symmetry_cell_setting 'orthorhombic'
loop_
_space_group_symop_operation_xyz
x,y,z
-x,-y,z
-x,1/2+y,z
x,1/2-y,z
x,1/2+y,1/2+z
-x,1/2-y,1/2+z
-x,y,1/2+z
x,-y,1/2+z
loop_
_atom_site_type_symbol
_atom_site_label
_atom_site_fract_x
_atom_site_fract_y
_atom_site_fract_z
Si Si1 0.816819 0.972647 0.979980
Si Si2 0.731932 0.323856 0.753538
Si Si3 0.794316 0.826206 0.544274
Si Si4 0.301981 0.677517 0.212471
Si Si5 0.756390 0.373534 0.366267
Si Si6 0.700639 0.250000 0.473876
Si Si7 0.212026 0.360934 0.080050
Si Si8 0.339182 0.597477 0.900109
O O1 0.878247 0.923304 0.912871
O O2 0.715137 0.029943 0.937027
O O3 0.722858 0.928364 0.045005
O O4 0.000000 0.000000 0.018062
O O5 0.792882 0.250000 0.766553
O O6 0.511151 0.320268 0.741363
O O7 0.798897 0.351545 0.671718
O O8 0.761630 0.370972 0.825783
O O9 0.789747 0.750000 0.538756
O O10 0.708934 0.847664 0.625716
O O11 0.696287 0.853575 0.469708
O O12 0.006546 0.846788 0.548615
O O13 0.230630 0.750000 0.210757
O O14 0.197563 0.637413 0.277213
O O15 0.745213 0.306051 0.409536
O O16 0.552511 0.403049 0.376466
O O17 0.670672 0.194738 0.540828
#
# Coordination Sequence:
#
# PCOD9360926 Si02
#       8
#     8   8   8   8   8   4   8   8
#     4  11  24  44  63  87 128 178 223 260 318 398
#     4  10  21  41  67  99 131 165 215 278 337 383
#     4  11  22  37  62  97 131 164 211 272 323 385
#     4   9  20  37  62  98 132 156 206 267 334 390
#     4  10  22  40  68  94 128 170 215 278 324 395
#     4  10  20  36  68  96 124 166 216 264 344 372
#     4  11  22  41  63  93 133 170 218 268 322 399
#     4  11  24  42  64  97 129 169 221 267 329 395
#
# _framework density 22.653302
#
# number of rings (size 3 to 8) (size 9 to 14) (size 15 to 20)
#    0.000    1.600    3.333    0.800    5.600    1.067 
#    2.400    0.667    0.000    0.000    0.000    0.000 
#    0.000    0.000    0.000    0.000    0.000    0.000 
#
# Total GULP energy -167152.354385 kJ/mol
# GULP energy per Si atom -5571.745146 kJ/mol
# Density = 2.260174 g / cm^3
# Si number density = 22.653302 Si / 1000 Ang^3
#
#
#
# Elastic Constant Matrix: (Units=GPa)
#
#
# Indices 1 2 3 4 5 6 
#
# 1 41.4325 20.5478 9.6313 0.0000 0.0000 0.0000
# 2 20.5478 146.3241 60.2108 0.0000 0.0000 0.0000
# 3 9.6313 60.2108 182.3862 0.0000 0.0000 0.0000
# 4 0.0000 0.0000 0.0000 32.5367 0.0000 0.0000
# 5 0.0000 0.0000 0.0000 0.0000 26.2185 0.0000
# 6 0.0000 0.0000 0.0000 0.0000 0.0000 6.6752
#
#
#
# Elastic Compliance Matrix: (Units=1/GPa)
#
#
# Indices 1 2 3 4 5 6 
#
# 1 0.025948 -0.003564 -0.000194 0.000000 0.000000 0.000000
# 2 -0.003564 0.008398 -0.002584 0.000000 0.000000 0.000000
# 3 -0.000194 -0.002584 0.006346 0.000000 0.000000 0.000000
# 4 0.000000 0.000000 0.000000 0.030734 0.000000 0.000000
# 5 0.000000 0.000000 0.000000 0.000000 0.038141 0.000000
# 6 0.000000 0.000000 0.000000 0.000000 0.000000 0.149809
#
#
# Mechanical properties :
#
#
# Convention : Reuss Voigt Hill
#
# Bulk Modulus (GPa) = 35.70346 61.21364 48.45855
# Shear Modulus (GPa) = 17.76849 31.73626 24.75237
#
# Velocity S-wave (km/s) = 2.80369 3.74699 3.30913
# Velocity P-wave (km/s) = 5.12601 6.76761 6.00319
#
# Compressibility (1/GPa) = 0.02800849
#
# Stress axis : x y z
#
# Youngs Moduli (GPa) = 38.53827 119.07563 157.57414
#
# Poissons Ratio (x) = 0.42440 0.03051
# Poissons Ratio (y) = 0.13736 0.40721
# Poissons Ratio (z) = 0.00746 0.30772
#
# Static dielectric constant tensor:
#      x y z
#    x 1.977930 0.000000 0.000000 
#    y 0.000000 1.835000 0.000000 
#    z 0.000000 0.000000 1.841440 
# 
# From -- ./inp_files/11808.got.cif
#   From: 2010.05.17/outbox.cif.g08.bks.cpg/sg39_6_cif.got.tgz:11808.got - 2010.06.03 18:22:40.
