data_PCOD9360084
_publ_section_title
;
Structure prediction by ZEFSAII (Michael W. Deem and Ramdas Pophale) SiO2 
 PCOD9360084
Probable space group: A B M 2
;
_chemical_formula_sum "Si O2"
_cell_formula_units_Z 56
_cell_length_a 15.803780
_cell_length_b 8.671952
_cell_length_c 20.640532
_cell_angle_alpha 90.000000
_cell_angle_beta 90.000000
_cell_angle_gamma 90.000000
_cell_volume 2828.777100
_symmetry_space_group_name_H-M "A B M 2"
_symmetry_group_IT_number 39
_symmetry_cell_setting 'orthorhombic'
loop_
_space_group_symop_operation_xyz
x,y,z
-x,-y,z
-x,1/2+y,z
x,1/2-y,z
x,1/2+y,1/2+z
-x,1/2-y,1/2+z
-x,y,1/2+z
x,-y,1/2+z
loop_
_atom_site_type_symbol
_atom_site_label
_atom_site_fract_x
_atom_site_fract_y
_atom_site_fract_z
Si Si1 0.910506 0.067091 0.444100
Si Si2 0.824705 0.934558 0.323059
Si Si3 0.230138 0.565505 0.189039
Si Si4 0.587077 0.935277 0.219999
Si Si5 0.224090 0.064464 0.544672
Si Si6 0.365454 0.936160 0.862367
Si Si7 0.412093 0.564003 0.004489
O O1 0.913196 0.250000 0.443654
O O2 0.892277 0.005883 0.371572
O O3 0.835673 0.009992 0.491128
O O4 0.000000 0.000000 0.466814
O O5 0.831867 0.750000 0.322458
O O6 0.733139 0.976095 0.354087
O O7 0.820461 0.995458 0.249659
O O8 0.233115 0.750000 0.195776
O O9 0.326120 0.501461 0.191608
O O10 0.195555 0.527649 0.117743
O O11 0.588491 0.750000 0.216547
O O12 0.591311 0.985703 0.295787
O O13 0.500000 0.000000 0.191753
O O14 0.221133 0.250000 0.535593
O O15 0.322885 0.018982 0.536738
O O16 0.369804 0.750000 0.864346
O O17 0.402954 0.992472 0.929769
O O18 0.500000 0.500000 0.031591
O O19 0.416383 0.750000 0.005788
#
# Coordination Sequence:
#
# PCOD9360084 Si02
#       7
#     8   8   8   8   8   8   8
#     4  12  25  42  69 100 127 158 201 251 307 374
#     4  10  19  38  64  90 122 157 196 249 309 365
#     4  10  21  37  59  87 119 162 208 252 310 370
#     4  10  19  31  49  76 111 157 208 262 314 367
#     4  10  22  42  63  86 127 171 207 256 311 366
#     4   8  15  29  51  76 108 150 194 246 305 356
#     4  10  19  33  52  79 116 161 207 252 304 356
#
# _framework density 19.79654
#
# number of rings (size 3 to 8) (size 9 to 14) (size 15 to 20)
#    0.000    2.000    1.429    3.857    0.000    2.286 
#    0.000    2.857    0.000    3.429    0.000    0.000 
#    0.000    0.000    0.000    0.000    0.000    0.000 
#
# Total GULP energy -156328.277761 kJ/mol
# GULP energy per Si atom -5583.152777 kJ/mol
# Density = 1.975148 g / cm^3
# Si number density = 19.796540 Si / 1000 Ang^3
#
#
#
# Elastic Constant Matrix: (Units=GPa)
#
#
# Indices 1 2 3 4 5 6 
#
# 1 90.0767 33.3229 41.5933 0.0000 0.0000 0.0000
# 2 33.3229 62.1796 46.3278 0.0000 0.0000 0.0000
# 3 41.5933 46.3278 124.1827 0.0000 0.0000 0.0000
# 4 0.0000 0.0000 0.0000 16.9353 0.0000 0.0000
# 5 0.0000 0.0000 0.0000 0.0000 -5.9939 0.0000
# 6 0.0000 0.0000 0.0000 0.0000 0.0000 29.0095
#
#
#
# Elastic Compliance Matrix: (Units=1/GPa)
#
#
# Indices 1 2 3 4 5 6 
#
# 1 0.014475 -0.005741 -0.002707 0.000000 0.000000 0.000000
# 2 -0.005741 0.024550 -0.007236 0.000000 0.000000 0.000000
# 3 -0.002707 -0.007236 0.011659 0.000000 0.000000 0.000000
# 4 0.000000 0.000000 0.000000 0.059048 0.000000 0.000000
# 5 0.000000 0.000000 0.000000 0.000000 -0.166835 0.000000
# 6 0.000000 0.000000 0.000000 0.000000 0.000000 0.034471
#
#
# Mechanical properties :
#
#
# Convention : Reuss Voigt Hill
#
# Bulk Modulus (GPa) = 51.76695 57.65855 54.71275
# Shear Modulus (GPa) = 329.49678 18.33651 173.91664
#
# Velocity S-wave (km/s) = 12.91522 3.04673 9.38311
# Velocity P-wave (km/s) = 15.76738 6.44714 12.04524
#
# Compressibility (1/GPa) = 0.01931734
#
# Stress axis : x y z
#
# Youngs Moduli (GPa) = 69.08362 40.73269 85.77342
#
# Poissons Ratio (x) = 0.23384 0.23215
# Poissons Ratio (y) = 0.39660 0.62065
# Poissons Ratio (z) = 0.18698 0.29474
#
# Static dielectric constant tensor:
#      x y z
#    x 1.694510 0.000000 0.000000 
#    y 0.000000 1.663160 0.000000 
#    z 0.000000 0.000000 1.720330 
# 
# From -- ./inp_files/14746.got.cif
#   From: 2010.05.17/outbox.cif.g08.bks.cpg/sg39_8_cif.got.tgz:14746.got - 2010.06.03 18:22:40.
