data_PCOD9360957
_publ_section_title
;
Structure prediction by ZEFSAII (Michael W. Deem and Ramdas Pophale) SiO2 
 PCOD9360957
Probable space group: A B M 2
;
_chemical_formula_sum "Si O2"
_cell_formula_units_Z 64
_cell_length_a 17.616095
_cell_length_b 7.715182
_cell_length_c 20.608516
_cell_angle_alpha 90.000000
_cell_angle_beta 90.000000
_cell_angle_gamma 90.000000
_cell_volume 2800.931830
_symmetry_space_group_name_H-M "A B M 2"
_symmetry_group_IT_number 39
_symmetry_cell_setting 'orthorhombic'
loop_
_space_group_symop_operation_xyz
x,y,z
-x,-y,z
-x,1/2+y,z
x,1/2-y,z
x,1/2+y,1/2+z
-x,1/2-y,1/2+z
-x,y,1/2+z
x,-y,1/2+z
loop_
_atom_site_type_symbol
_atom_site_label
_atom_site_fract_x
_atom_site_fract_y
_atom_site_fract_z
Si Si1 0.415454 0.543421 0.982290
Si Si2 0.198179 0.545857 0.846162
Si Si3 0.085339 0.456942 0.732873
Si Si4 0.416385 0.541973 0.699139
Si Si5 0.629415 0.037659 0.840026
Si Si6 0.701463 0.047150 0.592696
Si Si7 0.083587 0.459025 0.452737
Si Si8 0.874161 0.548919 0.591825
O O1 0.500000 0.500000 0.005845
O O2 0.406065 0.750000 0.982575
O O3 0.406959 0.480685 0.907917
O O4 0.350062 0.470611 0.028630
O O5 0.207668 0.750000 0.859127
O O6 0.148443 0.526574 0.781705
O O7 0.283079 0.478126 0.839469
O O8 0.148882 0.472200 0.905405
O O9 0.094182 0.250000 0.732116
O O10 0.098569 0.527448 0.660058
O O11 0.000000 0.500000 0.754119
O O12 0.500000 0.500000 0.673870
O O13 0.409155 0.750000 0.700028
O O14 0.408267 0.477500 0.773027
O O15 0.349873 0.477223 0.652013
O O16 0.626694 0.250000 0.839265
O O17 0.716798 0.250000 0.604200
O O18 0.782977 0.958995 0.587578
O O19 0.090986 0.250000 0.454895
O O20 0.093000 0.529014 0.525678
O O21 0.000000 0.500000 0.427389
O O22 0.898034 0.750000 0.592923
#
# Coordination Sequence:
#
# PCOD9360957 Si02
#       8
#     8   8   8   8   8   8   8   8
#     4  11  22  38  60  85 116 151 189 233 281 335
#     4  10  20  37  60  83 111 148 188 231 281 334
#     4  11  23  38  58  85 116 150 188 232 283 338
#     4  10  21  37  57  82 111 145 186 228 274 328
#     4   9  19  37  60  83 110 148 189 231 280 331
#     4  11  23  38  59  86 114 148 189 232 282 338
#     4  10  21  37  58  83 111 147 188 230 280 334
#     4  10  22  40  60  83 112 147 188 233 282 334
#
# _framework density 22.849536000000001
#
# number of rings (size 3 to 8) (size 9 to 14) (size 15 to 20)
#    0.000    1.750    0.000    4.125    0.000    8.000 
#    0.000    3.750    0.000    0.000    0.000    0.000 
#    0.000    0.000    0.000    0.000    0.000    0.000 
#
# Total GULP energy -178986.271856 kJ/mol
# GULP energy per Si atom -5593.320995 kJ/mol
# Density = 2.279753 g / cm^3
# Si number density = 22.849536 Si / 1000 Ang^3
#
#
#
# Elastic Constant Matrix: (Units=GPa)
#
#
# Indices 1 2 3 4 5 6 
#
# 1 99.5502 -16.7822 4.2688 0.0000 0.0000 0.0000
# 2 -16.7822 38.3088 -5.8695 0.0000 0.0000 0.0000
# 3 4.2688 -5.8695 94.0750 0.0000 0.0000 0.0000
# 4 0.0000 0.0000 0.0000 14.3002 0.0000 0.0000
# 5 0.0000 0.0000 0.0000 0.0000 42.4984 0.0000
# 6 0.0000 0.0000 0.0000 0.0000 0.0000 21.7333
#
#
#
# Elastic Compliance Matrix: (Units=1/GPa)
#
#
# Indices 1 2 3 4 5 6 
#
# 1 0.010850 0.004723 -0.000198 0.000000 0.000000 0.000000
# 2 0.004723 0.028411 0.001558 0.000000 0.000000 0.000000
# 3 -0.000198 0.001558 0.010736 0.000000 0.000000 0.000000
# 4 0.000000 0.000000 0.000000 0.069929 0.000000 0.000000
# 5 0.000000 0.000000 0.000000 0.000000 0.023530 0.000000
# 6 0.000000 0.000000 0.000000 0.000000 0.000000 0.046012
#
#
# Mechanical properties :
#
#
# Convention : Reuss Voigt Hill
#
# Bulk Modulus (GPa) = 16.08645 21.68535 18.88590
# Shear Modulus (GPa) = 25.24956 32.39418 28.82187
#
# Velocity S-wave (km/s) = 3.32781 3.76934 3.55544
# Velocity P-wave (km/s) = 4.67132 5.33433 5.01380
#
# Compressibility (1/GPa) = 0.06216411
#
# Stress axis : x y z
#
# Youngs Moduli (GPa) = 92.16734 35.19717 93.14449
#
# Poissons Ratio (x) = -0.16623 0.01841
# Poissons Ratio (y) = -0.43529 -0.14515
# Poissons Ratio (z) = 0.01822 -0.05485
#
# Static dielectric constant tensor:
#      x y z
#    x 1.785000 0.000000 0.000000 
#    y 0.000000 1.864630 0.000000 
#    z 0.000000 0.000000 1.862520 
# 
# From -- ./inp_files/16266.got.cif
#   From: 2010.05.17/outbox.cif.g08.bks.cpg/sg39_9_cif.got.tgz:16266.got - 2010.06.03 18:22:40.
