data_PCOD9360007
_publ_section_title
;
Structure prediction by ZEFSAII (Michael W. Deem and Ramdas Pophale) SiO2 
 PCOD9360007
Probable space group: A B M 2
;
_chemical_formula_sum "Si O2"
_cell_formula_units_Z 48
_cell_length_a 7.342814
_cell_length_b 17.020143
_cell_length_c 14.925053
_cell_angle_alpha 90.000000
_cell_angle_beta 90.000000
_cell_angle_gamma 90.000000
_cell_volume 1865.269607
_symmetry_space_group_name_H-M "A B M 2"
_symmetry_group_IT_number 39
_symmetry_cell_setting 'orthorhombic'
loop_
_space_group_symop_operation_xyz
x,y,z
-x,-y,z
-x,1/2+y,z
x,1/2-y,z
x,1/2+y,1/2+z
-x,1/2-y,1/2+z
-x,y,1/2+z
x,-y,1/2+z
loop_
_atom_site_type_symbol
_atom_site_label
_atom_site_fract_x
_atom_site_fract_y
_atom_site_fract_z
Si Si1 0.217311 0.501775 0.365070
Si Si2 0.105983 0.886176 0.133746
Si Si3 0.242065 0.459905 0.069189
Si Si4 0.112081 0.664149 0.329307
Si Si5 0.535054 0.833168 0.548763
Si Si6 0.297643 0.663381 0.855867
O O1 0.247178 0.497006 0.472655
O O2 0.312828 0.426715 0.319187
O O3 0.000000 0.500000 0.346451
O O4 0.252337 0.593448 0.345434
O O5 0.268200 0.836252 0.093937
O O6 0.930384 0.901361 0.072708
O O7 0.049563 0.848744 0.226973
O O8 0.195703 0.973584 0.141841
O O9 0.418414 0.407332 0.079324
O O10 0.194543 0.750000 0.342013
O O11 0.919490 0.662082 0.381714
O O12 0.442681 0.750000 0.570214
O O13 0.578552 0.835648 0.443700
O O14 0.323948 0.750000 0.810331
#
# Coordination Sequence:
#
# PCOD9360007 Si02
#       6
#     8   8   8   8   8   8
#     4  10  18  37  64  91 126 172 226 281 333 402
#     4  11  22  41  66  98 140 178 225 283 351 422
#     4  11  23  39  68 102 127 181 237 284 347 424
#     4  10  22  38  65  99 136 182 228 279 349 419
#     4  11  23  41  67  98 139 179 230 297 351 409
#     4   9  19  36  60  92 127 175 228 282 340 400
#
# _framework density 25.733543999999998
#
# number of rings (size 3 to 8) (size 9 to 14) (size 15 to 20)
#    0.000    1.667    3.333    2.000    7.000    2.000 
#    0.000    1.667    3.667    4.000    0.000    0.000 
#    0.000    0.000    0.000    0.000    0.000    0.000 
#
# Total GULP energy -134021.767653 kJ/mol
# GULP energy per Si atom -5584.240319 kJ/mol
# Density = 2.567497 g / cm^3
# Si number density = 25.733544 Si / 1000 Ang^3
#
#
#
# Elastic Constant Matrix: (Units=GPa)
#
#
# Indices 1 2 3 4 5 6 
#
# 1 98.5137 25.0811 10.7433 0.0000 0.0000 0.0000
# 2 25.0811 215.8147 10.2971 0.0000 0.0000 0.0000
# 3 10.7433 10.2971 36.6554 0.0000 0.0000 0.0000
# 4 0.0000 0.0000 0.0000 21.9827 0.0000 0.0000
# 5 0.0000 0.0000 0.0000 0.0000 12.2964 0.0000
# 6 0.0000 0.0000 0.0000 0.0000 0.0000 17.2937
#
#
#
# Elastic Compliance Matrix: (Units=1/GPa)
#
#
# Indices 1 2 3 4 5 6 
#
# 1 0.010744 -0.001113 -0.002836 0.000000 0.000000 0.000000
# 2 -0.001113 0.004812 -0.001025 0.000000 0.000000 0.000000
# 3 -0.002836 -0.001025 0.028400 0.000000 0.000000 0.000000
# 4 0.000000 0.000000 0.000000 0.045490 0.000000 0.000000
# 5 0.000000 0.000000 0.000000 0.000000 0.081325 0.000000
# 6 0.000000 0.000000 0.000000 0.000000 0.000000 0.057825
#
#
# Mechanical properties :
#
#
# Convention : Reuss Voigt Hill
#
# Bulk Modulus (GPa) = 29.40632 49.24740 39.32686
# Shear Modulus (GPa) = 20.00955 30.63871 25.32413
#
# Velocity S-wave (km/s) = 2.79151 3.45427 3.14042
# Velocity P-wave (km/s) = 4.67355 5.92354 5.33528
#
# Compressibility (1/GPa) = 0.03400629
#
# Stress axis : x y z
#
# Youngs Moduli (GPa) = 93.07873 207.81774 35.21076
#
# Poissons Ratio (x) = 0.23135 0.09986
# Poissons Ratio (y) = 0.10362 0.03611
# Poissons Ratio (z) = 0.26398 0.21311
#
# Static dielectric constant tensor:
#      x y z
#    x 1.991800 0.000000 0.000000 
#    y 0.000000 2.164140 0.000000 
#    z 0.000000 0.000000 2.008740 
# 
# From -- ./inp_files/11708.got.cif
#   From: 2010.05.17/outbox.cif.g08.bks.cpg/sg39_6_cif.got.tgz:11708.got - 2010.06.03 18:22:40.
