data_PCOD9360043
_publ_section_title
;
Structure prediction by ZEFSAII (Michael W. Deem and Ramdas Pophale) SiO2 
 PCOD9360043
Probable space group: A B M 2
;
_chemical_formula_sum "Si O2"
_cell_formula_units_Z 56
_cell_length_a 15.818651
_cell_length_b 7.663315
_cell_length_c 21.150465
_cell_angle_alpha 90.000000
_cell_angle_beta 90.000000
_cell_angle_gamma 90.000000
_cell_volume 2563.929280
_symmetry_space_group_name_H-M "A B M 2"
_symmetry_group_IT_number 39
_symmetry_cell_setting 'orthorhombic'
loop_
_space_group_symop_operation_xyz
x,y,z
-x,-y,z
-x,1/2+y,z
x,1/2-y,z
x,1/2+y,1/2+z
-x,1/2-y,1/2+z
-x,y,1/2+z
x,-y,1/2+z
loop_
_atom_site_type_symbol
_atom_site_label
_atom_site_fract_x
_atom_site_fract_y
_atom_site_fract_z
Si Si1 0.778210 0.952595 0.512850
Si Si2 0.904847 0.043063 0.753864
Si Si3 0.591378 0.540112 0.701103
Si Si4 0.623935 0.044141 0.339956
Si Si5 0.591190 0.458589 0.478996
Si Si6 0.231516 0.957589 0.148110
Si Si7 0.813540 0.961933 0.374585
O O1 0.804140 0.750000 0.512398
O O2 0.800660 0.030497 0.580954
O O3 0.813523 0.028370 0.446924
O O4 0.675761 0.963373 0.509060
O O5 0.896336 0.250000 0.755670
O O6 0.883981 0.977848 0.824919
O O7 0.835017 0.980201 0.704228
O O8 0.000000 0.000000 0.735068
O O9 0.500000 0.500000 0.672437
O O10 0.599184 0.750000 0.704302
O O11 0.593076 0.470058 0.773436
O O12 0.675584 0.472936 0.666695
O O13 0.604419 0.250000 0.339998
O O14 0.590357 0.971522 0.406367
O O15 0.724501 0.019167 0.344465
O O16 0.500000 0.500000 0.507932
O O17 0.602706 0.250000 0.478236
O O18 0.241979 0.750000 0.138763
O O19 0.813375 0.750000 0.377339
#
# Coordination Sequence:
#
# PCOD9360043 Si02
#       7
#     8   8   8   8   8   8   8
#     4   9  19  36  57  79 109 149 188 229 283 338
#     4  11  23  39  63  91 116 146 184 231 286 344
#     4  10  20  32  49  76 110 150 193 235 282 329
#     4   9  17  30  49  74 106 142 185 236 286 332
#     4  10  19  30  47  73 106 147 193 241 285 333
#     4  10  21  39  60  83 117 156 191 236 285 335
#     4   9  18  34  57  84 110 140 181 228 279 335
#
# _framework density 21.841474000000002
#
# number of rings (size 3 to 8) (size 9 to 14) (size 15 to 20)
#    0.000    2.286    1.429    1.286    0.000    3.429 
#    0.000    2.143    0.000    1.714    0.000    0.000 
#    0.000    0.000    0.000    0.000    0.000    0.000 
#
# Total GULP energy -156250.340805 kJ/mol
# GULP energy per Si atom -5580.369314 kJ/mol
# Density = 2.179176 g / cm^3
# Si number density = 21.841474 Si / 1000 Ang^3
#
#
#
# Elastic Constant Matrix: (Units=GPa)
#
#
# Indices 1 2 3 4 5 6 
#
# 1 86.3653 -13.0799 47.4594 0.0000 0.0000 0.0000
# 2 -13.0799 41.6805 5.6930 0.0000 0.0000 0.0000
# 3 47.4594 5.6930 149.0698 0.0000 0.0000 0.0000
# 4 0.0000 0.0000 0.0000 3.3754 0.0000 0.0000
# 5 0.0000 0.0000 0.0000 0.0000 -6.4442 0.0000
# 6 0.0000 0.0000 0.0000 0.0000 0.0000 20.9091
#
#
#
# Elastic Compliance Matrix: (Units=1/GPa)
#
#
# Indices 1 2 3 4 5 6 
#
# 1 0.015173 0.005450 -0.005039 0.000000 0.000000 0.000000
# 2 0.005450 0.026075 -0.002731 0.000000 0.000000 0.000000
# 3 -0.005039 -0.002731 0.008417 0.000000 0.000000 0.000000
# 4 0.000000 0.000000 0.000000 0.296258 0.000000 0.000000
# 5 0.000000 0.000000 0.000000 0.000000 -0.155179 0.000000
# 6 0.000000 0.000000 0.000000 0.000000 0.000000 0.047826
#
#
# Mechanical properties :
#
#
# Convention : Reuss Voigt Hill
#
# Bulk Modulus (GPa) = 22.20979 39.69562 30.95270
# Shear Modulus (GPa) = 19.36345 19.37095 19.36720
#
# Velocity S-wave (km/s) = 2.98072 2.98130 2.98101
# Velocity P-wave (km/s) = 4.69435 5.48313 5.10400
#
# Compressibility (1/GPa) = 0.04502519
#
# Stress axis : x y z
#
# Youngs Moduli (GPa) = 65.90668 38.35058 118.81075
#
# Poissons Ratio (x) = -0.20900 0.59866
# Poissons Ratio (y) = -0.35917 0.32445
# Poissons Ratio (z) = 0.33209 0.10473
#
# Static dielectric constant tensor:
#      x y z
#    x 1.759640 0.000000 0.000000 
#    y 0.000000 1.442530 0.000000 
#    z 0.000000 0.000000 1.859580 
# 
# From -- ./inp_files/14757.got.cif
#   From: 2010.05.17/outbox.cif.g08.bks.cpg/sg39_8_cif.got.tgz:14757.got - 2010.06.03 18:22:40.
