data_PCOD9360930
_publ_section_title
;
Structure prediction by ZEFSAII (Michael W. Deem and Ramdas Pophale) SiO2 
 PCOD9360930
Probable space group: A B M 2
;
_chemical_formula_sum "Si O2"
_cell_formula_units_Z 64
_cell_length_a 13.410772
_cell_length_b 25.036489
_cell_length_c 9.022512
_cell_angle_alpha 90.000000
_cell_angle_beta 90.000000
_cell_angle_gamma 90.000000
_cell_volume 3029.386410
_symmetry_space_group_name_H-M "A B M 2"
_symmetry_group_IT_number 39
_symmetry_cell_setting 'orthorhombic'
loop_
_space_group_symop_operation_xyz
x,y,z
-x,-y,z
-x,1/2+y,z
x,1/2-y,z
x,1/2+y,1/2+z
-x,1/2-y,1/2+z
-x,y,1/2+z
x,-y,1/2+z
loop_
_atom_site_type_symbol
_atom_site_label
_atom_site_fract_x
_atom_site_fract_y
_atom_site_fract_z
Si Si1 0.506332 0.643195 0.369250
Si Si2 0.722351 0.991286 0.146344
Si Si3 0.034030 0.187364 0.327377
Si Si4 0.195107 0.615409 0.688066
Si Si5 0.853202 0.188019 0.140203
Si Si6 0.634621 0.189206 0.597797
Si Si7 0.595419 0.463015 0.395074
Si Si8 0.705299 0.106946 0.011759
O O1 0.435667 0.683940 0.455344
O O2 0.566650 0.669240 0.235354
O O3 0.435147 0.593550 0.328509
O O4 0.588762 0.618350 0.482818
O O5 0.684612 0.008647 0.307378
O O6 0.808553 0.946773 0.140605
O O7 0.733300 0.048486 0.069831
O O8 0.630555 0.960903 0.064772
O O9 0.052789 0.250000 0.289395
O O10 0.095399 0.147777 0.221091
O O11 0.073909 0.180518 0.495447
O O12 0.918475 0.177599 0.287341
O O13 0.269552 0.650653 0.588256
O O14 0.247891 0.613307 0.848768
O O15 0.822524 0.250000 0.139488
O O16 0.759068 0.150222 0.115623
O O17 0.666658 0.250000 0.623479
O O18 0.500000 0.500000 0.384384
#
# Coordination Sequence:
#
# PCOD9360930 Si02
#       8
#     8   8   8   8   8   8   8   8
#     4  11  22  36  53  80 112 152 193 234 283 335
#     4  12  21  37  55  84 115 150 194 240 279 334
#     4   9  18  37  63  86 109 142 186 235 287 348
#     4  10  20  37  57  82 111 149 188 232 285 347
#     4   9  19  38  63  87 111 141 186 237 289 348
#     4  11  22  36  53  77 112 152 191 232 283 342
#     4  12  22  34  57  80 112 153 199 240 274 326
#     4  10  21  36  57  83 112 149 188 232 285 343
#
# _framework density 21.126391000000002
#
# number of rings (size 3 to 8) (size 9 to 14) (size 15 to 20)
#    0.000    1.500    3.750    2.625    0.000    3.500 
#    2.250    0.625    0.000    6.000    0.000    0.000 
#    0.000    0.000    0.000    0.000    0.000    0.000 
#
# Total GULP energy -178624.498031 kJ/mol
# GULP energy per Si atom -5582.015563 kJ/mol
# Density = 2.107831 g / cm^3
# Si number density = 21.126391 Si / 1000 Ang^3
#
#
#
# Elastic Constant Matrix: (Units=GPa)
#
#
# Indices 1 2 3 4 5 6 
#
# 1 30.6627 21.5069 -0.3520 0.0000 0.0000 0.0000
# 2 21.5069 109.7499 -1.2231 0.0000 0.0000 0.0000
# 3 -0.3520 -1.2231 24.2037 0.0000 0.0000 0.0000
# 4 0.0000 0.0000 0.0000 12.2073 0.0000 0.0000
# 5 0.0000 0.0000 0.0000 0.0000 26.9926 0.0000
# 6 0.0000 0.0000 0.0000 0.0000 0.0000 27.8057
#
#
#
# Elastic Compliance Matrix: (Units=1/GPa)
#
#
# Indices 1 2 3 4 5 6 
#
# 1 0.037811 -0.007408 0.000176 0.000000 0.000000 0.000000
# 2 -0.007408 0.010568 0.000426 0.000000 0.000000 0.000000
# 3 0.000176 0.000426 0.041340 0.000000 0.000000 0.000000
# 4 0.000000 0.000000 0.000000 0.081918 0.000000 0.000000
# 5 0.000000 0.000000 0.000000 0.000000 0.037047 0.000000
# 6 0.000000 0.000000 0.000000 0.000000 0.000000 0.035964
#
#
# Mechanical properties :
#
#
# Convention : Reuss Voigt Hill
#
# Bulk Modulus (GPa) = 13.13933 22.72000 17.92966
# Shear Modulus (GPa) = 17.62869 23.04675 20.33772
#
# Velocity S-wave (km/s) = 2.89180 3.30646 3.10606
# Velocity P-wave (km/s) = 4.16928 5.03533 4.62263
#
# Compressibility (1/GPa) = 0.07610738
#
# Stress axis : x y z
#
# Youngs Moduli (GPa) = 26.44761 94.62549 24.18959
#
# Poissons Ratio (x) = 0.70094 -0.00425
# Poissons Ratio (y) = 0.19591 -0.01031
# Poissons Ratio (z) = -0.00464 -0.04034
#
# Static dielectric constant tensor:
#      x y z
#    x 1.733760 0.000000 0.000000 
#    y 0.000000 1.777800 0.000000 
#    z 0.000000 0.000000 1.807600 
# 
# From -- ./inp_files/3503.got.cif
#   From: 2010.05.17/outbox.cif.g08.bks.cpg/sg39_2_cif.got.tgz:3503.got - 2010.06.03 18:22:40.
