data_PCOD9360856
_publ_section_title
;
Structure prediction by ZEFSAII (Michael W. Deem and Ramdas Pophale) SiO2 
 PCOD9360856
Probable space group: A B M 2
;
_chemical_formula_sum "Si O2"
_cell_formula_units_Z 64
_cell_length_a 14.377718
_cell_length_b 8.563583
_cell_length_c 26.750199
_cell_angle_alpha 90.000000
_cell_angle_beta 90.000000
_cell_angle_gamma 90.000000
_cell_volume 3293.612405
_symmetry_space_group_name_H-M "A B M 2"
_symmetry_group_IT_number 39
_symmetry_cell_setting 'orthorhombic'
loop_
_space_group_symop_operation_xyz
x,y,z
-x,-y,z
-x,1/2+y,z
x,1/2-y,z
x,1/2+y,1/2+z
-x,1/2-y,1/2+z
-x,y,1/2+z
x,-y,1/2+z
loop_
_atom_site_type_symbol
_atom_site_label
_atom_site_fract_x
_atom_site_fract_y
_atom_site_fract_z
Si Si1 0.604973 0.061692 0.180410
Si Si2 0.710019 0.439354 0.079586
Si Si3 0.104919 0.437720 0.845708
Si Si4 0.604754 0.435728 0.482721
Si Si5 0.895864 0.438366 0.124769
Si Si6 0.105404 0.938257 0.235064
Si Si7 0.285347 0.064364 0.387278
Si Si8 0.605794 0.938234 0.791351
O O1 0.603836 0.250000 0.179984
O O2 0.660713 0.011668 0.131455
O O3 0.641844 0.016932 0.235675
O O4 0.500000 0.000000 0.176868
O O5 0.705477 0.250000 0.076544
O O6 0.818200 0.485722 0.084881
O O7 0.657588 0.509594 0.032581
O O8 0.103453 0.250000 0.847576
O O9 0.140046 0.487317 0.789757
O O10 0.179675 0.503264 0.884219
O O11 0.000000 0.500000 0.852330
O O12 0.500000 0.500000 0.482787
O O13 0.601278 0.250000 0.480831
O O14 0.659973 0.498466 0.434746
O O15 0.900384 0.250000 0.124945
O O16 0.859400 0.486995 0.180370
O O17 0.000000 0.500000 0.117076
O O18 0.108316 0.750000 0.235407
O O19 0.000000 0.000000 0.234668
O O20 0.286073 0.250000 0.388974
O O21 0.337010 0.006379 0.337206
O O22 0.606834 0.750000 0.794699
O O23 0.500000 0.000000 0.794512
#
# Coordination Sequence:
#
# PCOD9360856 Si02
#       8
#     8   8   8   8   8   8   8   8
#     4   9  19  34  56  83 118 156 192 237 297 363
#     4  10  21  38  61  89 120 158 202 248 301 358
#     4  10  20  36  59  88 125 164 206 250 301 358
#     4  12  26  46  69  92 118 152 198 253 310 369
#     4   9  18  33  55  83 121 162 203 246 293 346
#     4   8  15  28  50  78 114 158 199 239 285 340
#     4  12  25  41  62  89 120 157 205 254 305 362
#     4  10  20  36  58  86 121 159 196 243 302 366
#
# _framework density 19.431552
#
# number of rings (size 3 to 8) (size 9 to 14) (size 15 to 20)
#    0.000    2.000    0.000    3.750    1.750    3.000 
#    0.000    0.625    0.000    1.500    0.000    0.000 
#    0.000    0.000    0.000    0.000    0.000    0.000 
#
# Total GULP energy -178626.010562 kJ/mol
# GULP energy per Si atom -5582.062830 kJ/mol
# Density = 1.938732 g / cm^3
# Si number density = 19.431552 Si / 1000 Ang^3
#
#
#
# Elastic Constant Matrix: (Units=GPa)
#
#
# Indices 1 2 3 4 5 6 
#
# 1 144.0131 50.4183 102.8623 0.0000 0.0000 0.0000
# 2 50.4183 79.4172 56.3025 0.0000 0.0000 0.0000
# 3 102.8623 56.3025 153.7614 0.0000 0.0000 0.0000
# 4 0.0000 0.0000 0.0000 27.4022 0.0000 0.0000
# 5 0.0000 0.0000 0.0000 0.0000 38.6599 0.0000
# 6 0.0000 0.0000 0.0000 0.0000 0.0000 25.3057
#
#
#
# Elastic Compliance Matrix: (Units=1/GPa)
#
#
# Indices 1 2 3 4 5 6 
#
# 1 0.013805 -0.002994 -0.008139 0.000000 0.000000 0.000000
# 2 -0.002994 0.017656 -0.004462 0.000000 0.000000 0.000000
# 3 -0.008139 -0.004462 0.013582 0.000000 0.000000 0.000000
# 4 0.000000 0.000000 0.000000 0.036493 0.000000 0.000000
# 5 0.000000 0.000000 0.000000 0.000000 0.025867 0.000000
# 6 0.000000 0.000000 0.000000 0.000000 0.000000 0.039517
#
#
# Mechanical properties :
#
#
# Convention : Reuss Voigt Hill
#
# Bulk Modulus (GPa) = 72.18642 88.48422 80.33532
# Shear Modulus (GPa) = 27.36296 29.44748 28.40522
#
# Velocity S-wave (km/s) = 3.75663 3.89710 3.82751
# Velocity P-wave (km/s) = 7.48639 8.11696 7.80805
#
# Compressibility (1/GPa) = 0.01385302
#
# Stress axis : x y z
#
# Youngs Moduli (GPa) = 72.43494 56.63818 73.62557
#
# Poissons Ratio (x) = 0.16959 0.59925
# Poissons Ratio (y) = 0.21689 0.32851
# Poissons Ratio (z) = 0.58955 0.25272
#
# Static dielectric constant tensor:
#      x y z
#    x 1.672120 0.000000 0.000000 
#    y 0.000000 1.662890 0.000000 
#    z 0.000000 0.000000 1.688450 
# 
# From -- ./inp_files/16248.got.cif
#   From: 2010.05.17/outbox.cif.g08.bks.cpg/sg39_9_cif.got.tgz:16248.got - 2010.06.03 18:22:40.
