data_PCOD9360925
_publ_section_title
;
Structure prediction by ZEFSAII (Michael W. Deem and Ramdas Pophale) SiO2 
 PCOD9360925
Probable space group: A B M 2
;
_chemical_formula_sum "Si O2"
_cell_formula_units_Z 40
_cell_length_a 7.924753
_cell_length_b 18.518727
_cell_length_c 12.786714
_cell_angle_alpha 90.000000
_cell_angle_beta 90.000000
_cell_angle_gamma 90.000000
_cell_volume 1876.531313
_symmetry_space_group_name_H-M "A B M 2"
_symmetry_group_IT_number 39
_symmetry_cell_setting 'orthorhombic'
loop_
_space_group_symop_operation_xyz
x,y,z
-x,-y,z
-x,1/2+y,z
x,1/2-y,z
x,1/2+y,1/2+z
-x,1/2-y,1/2+z
-x,y,1/2+z
x,-y,1/2+z
loop_
_atom_site_type_symbol
_atom_site_label
_atom_site_fract_x
_atom_site_fract_y
_atom_site_fract_z
Si Si1 0.658204 0.597389 0.360760
Si Si2 0.343564 0.835349 0.071827
Si Si3 0.709948 0.664265 0.809546
Si Si4 0.362546 0.435600 0.139659
Si Si5 0.824866 0.538109 0.937392
O O1 0.734975 0.636038 0.463390
O O2 0.477177 0.635397 0.340524
O O3 0.724506 0.597038 0.242251
O O4 0.679202 0.513091 0.389165
O O5 0.364993 0.750000 0.064604
O O6 0.260383 0.850490 0.185475
O O7 0.523129 0.875639 0.082255
O O8 0.720557 0.750000 0.826237
O O9 0.825992 0.615612 0.882584
O O10 0.500000 0.500000 0.162849
O O11 0.222379 0.459912 0.058659
O O12 0.000000 0.500000 0.917754
#
# Coordination Sequence:
#
# PCOD9360925 Si02
#       5
#     8   8   8   8   8
#     4  11  21  38  63  95 122 160 219 269 315 379
#     4  10  20  36  66  97 122 156 209 273 326 369
#     4  10  21  41  68  96 126 164 216 275 325 376
#     4  11  21  37  62  89 121 161 218 270 317 370
#     4  12  25  40  61  93 135 175 211 260 324 398
#
# _framework density 21.315923999999999
#
# number of rings (size 3 to 8) (size 9 to 14) (size 15 to 20)
#    0.000    1.200    4.000    3.600    0.000    1.600 
#    0.000    2.000    0.000    0.000    0.000    0.000 
#    0.000    0.000    0.000    0.000    0.000    0.000 
#
# Total GULP energy -111494.769237 kJ/mol
# GULP energy per Si atom -5574.738462 kJ/mol
# Density = 2.126741 g / cm^3
# Si number density = 21.315924 Si / 1000 Ang^3
#
#
#
# Elastic Constant Matrix: (Units=GPa)
#
#
# Indices 1 2 3 4 5 6 
#
# 1 60.3111 29.7397 31.0004 0.0000 0.0000 0.0000
# 2 29.7397 123.6335 56.9222 0.0000 0.0000 0.0000
# 3 31.0004 56.9222 161.4097 0.0000 0.0000 0.0000
# 4 0.0000 0.0000 0.0000 41.3063 0.0000 0.0000
# 5 0.0000 0.0000 0.0000 0.0000 -6.4194 0.0000
# 6 0.0000 0.0000 0.0000 0.0000 0.0000 16.2523
#
#
#
# Elastic Compliance Matrix: (Units=1/GPa)
#
#
# Indices 1 2 3 4 5 6 
#
# 1 0.019630 -0.003565 -0.002513 0.000000 0.000000 0.000000
# 2 -0.003565 0.010304 -0.002949 0.000000 0.000000 0.000000
# 3 -0.002513 -0.002949 0.007718 0.000000 0.000000 0.000000
# 4 0.000000 0.000000 0.000000 0.024209 0.000000 0.000000
# 5 0.000000 0.000000 0.000000 0.000000 -0.155779 0.000000
# 6 0.000000 0.000000 0.000000 0.000000 0.000000 0.061530
#
#
# Mechanical properties :
#
#
# Convention : Reuss Voigt Hill
#
# Bulk Modulus (GPa) = 51.02533 64.51990 57.77261
# Shear Modulus (GPa) = -640.96240 25.40732 -307.77754
#
# Velocity S-wave (km/s) = -17.35942 3.45619 -12.02921
# Velocity P-wave (km/s) = 19.43732 6.80156 12.87533
#
# Compressibility (1/GPa) = 0.01959811
#
# Stress axis : x y z
#
# Youngs Moduli (GPa) = 50.94165 97.05239 129.56668
#
# Poissons Ratio (x) = 0.34599 0.32560
# Poissons Ratio (y) = 0.18161 0.38209
# Poissons Ratio (z) = 0.12802 0.28620
#
# Static dielectric constant tensor:
#      x y z
#    x 1.785590 0.000000 0.000000 
#    y 0.000000 1.770270 0.000000 
#    z 0.000000 0.000000 1.826450 
# 
# From -- ./inp_files/4921.got.cif
#   From: 2010.05.17/outbox.cif.g08.bks.cpg/sg39_3_cif.got.tgz:4921.got - 2010.06.03 18:22:40.
