data_PCOD9360882
_publ_section_title
;
Structure prediction by ZEFSAII (Michael W. Deem and Ramdas Pophale) SiO2 
 PCOD9360882
Probable space group: A B M 2
;
_chemical_formula_sum "Si O2"
_cell_formula_units_Z 48
_cell_length_a 13.510558
_cell_length_b 19.198057
_cell_length_c 8.528984
_cell_angle_alpha 90.000000
_cell_angle_beta 90.000000
_cell_angle_gamma 90.000000
_cell_volume 2212.217699
_symmetry_space_group_name_H-M "A B M 2"
_symmetry_group_IT_number 39
_symmetry_cell_setting 'orthorhombic'
loop_
_space_group_symop_operation_xyz
x,y,z
-x,-y,z
-x,1/2+y,z
x,1/2-y,z
x,1/2+y,1/2+z
-x,1/2-y,1/2+z
-x,y,1/2+z
x,-y,1/2+z
loop_
_atom_site_type_symbol
_atom_site_label
_atom_site_fract_x
_atom_site_fract_y
_atom_site_fract_z
Si Si1 0.206783 0.324891 0.276520
Si Si2 0.688698 0.328662 0.113582
Si Si3 0.980292 0.168672 0.586517
Si Si4 0.141178 0.102789 0.795098
Si Si5 0.402293 0.042730 0.501552
Si Si6 0.266086 0.475079 0.229632
O O1 0.243876 0.250000 0.214691
O O2 0.242956 0.329323 0.455812
O O3 0.090946 0.325895 0.239639
O O4 0.240907 0.395698 0.197221
O O5 0.657923 0.250000 0.143403
O O6 0.756208 0.356565 0.256069
O O7 0.597819 0.379085 0.068128
O O8 0.007798 0.250000 0.550585
O O9 0.915843 0.133440 0.446976
O O10 0.070086 0.121010 0.647187
O O11 0.176239 0.021850 0.799229
O O12 0.369721 0.031649 0.323503
O O13 0.500000 0.000000 0.532496
O O14 0.300397 0.015000 0.577019
#
# Coordination Sequence:
#
# PCOD9360882 Si02
#       6
#     8   8   8   8   8   8
#     4   9  19  36  57  79 108 149 190 228 272 324
#     4   9  18  35  57  81 111 145 183 229 281 331
#     4  11  21  34  54  80 113 150 188 225 267 324
#     4  11  22  35  56  83 113 150 188 228 272 325
#     4  10  20  36  60  84 110 144 184 231 283 339
#     4  10  21  38  58  83 113 146 185 231 283 331
#
# _framework density 21.697683999999999
#
# number of rings (size 3 to 8) (size 9 to 14) (size 15 to 20)
#    0.000    2.000    0.000    4.000    0.000    2.000 
#    0.000    2.500    0.000   12.000    0.000    0.000 
#    0.000    0.000    0.000    0.000    0.000    0.000 
#
# Total GULP energy -133641.827409 kJ/mol
# GULP energy per Si atom -5568.409475 kJ/mol
# Density = 2.164830 g / cm^3
# Si number density = 21.697684 Si / 1000 Ang^3
#
#
#
# Elastic Constant Matrix: (Units=GPa)
#
#
# Indices 1 2 3 4 5 6 
#
# 1 87.2530 53.4864 28.2832 0.0000 0.0000 0.0000
# 2 53.4864 175.8032 20.5986 0.0000 0.0000 0.0000
# 3 28.2832 20.5986 40.1200 0.0000 0.0000 0.0000
# 4 0.0000 0.0000 0.0000 18.6651 0.0000 0.0000
# 5 0.0000 0.0000 0.0000 0.0000 31.3815 0.0000
# 6 0.0000 0.0000 0.0000 0.0000 0.0000 28.1345
#
#
#
# Elastic Compliance Matrix: (Units=1/GPa)
#
#
# Indices 1 2 3 4 5 6 
#
# 1 0.017204 -0.004057 -0.010045 0.000000 0.000000 0.000000
# 2 -0.004057 0.007009 -0.000738 0.000000 0.000000 0.000000
# 3 -0.010045 -0.000738 0.032386 0.000000 0.000000 0.000000
# 4 0.000000 0.000000 0.000000 0.053576 0.000000 0.000000
# 5 0.000000 0.000000 0.000000 0.000000 0.031866 0.000000
# 6 0.000000 0.000000 0.000000 0.000000 0.000000 0.035544
#
#
# Mechanical properties :
#
#
# Convention : Reuss Voigt Hill
#
# Bulk Modulus (GPa) = 37.15080 56.43474 46.79277
# Shear Modulus (GPa) = 23.12257 29.02341 26.07299
#
# Velocity S-wave (km/s) = 3.26800 3.66133 3.47024
# Velocity P-wave (km/s) = 5.60348 6.62871 6.13754
#
# Compressibility (1/GPa) = 0.02691732
#
# Stress axis : x y z
#
# Youngs Moduli (GPa) = 58.12527 142.67227 30.87760
#
# Poissons Ratio (x) = 0.57885 0.31017
# Poissons Ratio (y) = 0.23583 0.02280
# Poissons Ratio (z) = 0.58389 0.10535
#
# Static dielectric constant tensor:
#      x y z
#    x 1.757560 0.000000 0.000000 
#    y 0.000000 1.851060 0.000000 
#    z 0.000000 0.000000 1.846000 
# 
# From -- ./inp_files/3261.got.cif
#   From: 2010.05.17/outbox.cif.g08.bks.cpg/sg39_2_cif.got.tgz:3261.got - 2010.06.03 18:22:40.
