data_PCOD9360586
_publ_section_title
;
Structure prediction by ZEFSAII (Michael W. Deem and Ramdas Pophale) SiO2 
 PCOD9360586
Probable space group: A B M 2
;
_chemical_formula_sum "Si O2"
_cell_formula_units_Z 64
_cell_length_a 14.009759
_cell_length_b 28.864871
_cell_length_c 9.633329
_cell_angle_alpha 90.000000
_cell_angle_beta 90.000000
_cell_angle_gamma 90.000000
_cell_volume 3895.620819
_symmetry_space_group_name_H-M "A B M 2"
_symmetry_group_IT_number 39
_symmetry_cell_setting 'orthorhombic'
loop_
_space_group_symop_operation_xyz
x,y,z
-x,-y,z
-x,1/2+y,z
x,1/2-y,z
x,1/2+y,1/2+z
-x,1/2-y,1/2+z
-x,y,1/2+z
x,-y,1/2+z
loop_
_atom_site_type_symbol
_atom_site_label
_atom_site_fract_x
_atom_site_fract_y
_atom_site_fract_z
Si Si1 0.210809 0.567622 0.267220
Si Si2 0.578330 0.948836 0.702591
Si Si3 0.922674 0.098793 0.018589
Si Si4 0.849165 0.898660 0.055702
Si Si5 0.946779 0.699259 0.425532
Si Si6 0.877399 0.300393 0.620672
Si Si7 0.408244 0.454509 0.375117
Si Si8 0.196504 0.457921 0.307517
O O1 0.319277 0.575063 0.217694
O O2 0.136193 0.581935 0.150310
O O3 0.191659 0.596895 0.403478
O O4 0.194129 0.513463 0.306100
O O5 0.562521 0.956808 0.537638
O O6 0.486972 0.927245 0.782685
O O7 0.593741 0.996371 0.791538
O O8 0.035797 0.096729 0.047083
O O9 0.899554 0.152357 0.981803
O O10 0.889129 0.065742 0.892938
O O11 0.822017 0.848556 0.117988
O O12 0.809867 0.939469 0.151330
O O13 0.905871 0.750000 0.465999
O O14 0.942467 0.697255 0.259159
O O15 0.053144 0.698606 0.487701
O O16 0.828155 0.250000 0.624027
O O17 0.297467 0.440321 0.369493
#
# Coordination Sequence:
#
# PCOD9360586 Si02
#       8
#     8   8   8   8   8   8   8   8
#     4  11  24  34  50  72 106 138 181 209 246 298
#     4  10  20  34  53  74  95 129 167 221 264 302
#     4  11  21  37  48  73 104 139 178 212 244 296
#     4  11  23  33  52  72 102 146 174 212 247 294
#     4   9  18  32  52  71  94 127 168 217 265 300
#     4   9  18  33  51  72  94 126 170 217 264 301
#     4  10  20  33  54  72  97 127 169 219 265 302
#     4  11  22  36  50  72 102 142 177 211 245 295
#
# _framework density 16.428704
#
# number of rings (size 3 to 8) (size 9 to 14) (size 15 to 20)
#    0.000    1.750    2.500    3.000   12.250    3.000 
#    0.000    0.000    0.000    0.000    0.000    0.000 
#    0.000    6.000    0.000    0.000    0.000    0.000 
#
# Total GULP energy -178139.653155 kJ/mol
# GULP energy per Si atom -5566.864161 kJ/mol
# Density = 1.639131 g / cm^3
# Si number density = 16.428704 Si / 1000 Ang^3
#
#
#
# Elastic Constant Matrix: (Units=GPa)
#
#
# Indices 1 2 3 4 5 6 
#
# 1 51.3307 7.1587 13.2286 0.0000 0.0000 0.0000
# 2 7.1587 57.8900 -3.8575 0.0000 0.0000 0.0000
# 3 13.2286 -3.8575 93.5733 0.0000 0.0000 0.0000
# 4 0.0000 0.0000 0.0000 20.6964 0.0000 0.0000
# 5 0.0000 0.0000 0.0000 0.0000 14.4583 0.0000
# 6 0.0000 0.0000 0.0000 0.0000 0.0000 -2.3754
#
#
#
# Elastic Compliance Matrix: (Units=1/GPa)
#
#
# Indices 1 2 3 4 5 6 
#
# 1 0.020647 -0.002755 -0.003033 0.000000 0.000000 0.000000
# 2 -0.002755 0.017689 0.001119 0.000000 0.000000 0.000000
# 3 -0.003033 0.001119 0.011162 0.000000 0.000000 0.000000
# 4 0.000000 0.000000 0.000000 0.048318 0.000000 0.000000
# 5 0.000000 0.000000 0.000000 0.000000 0.069164 0.000000
# 6 0.000000 0.000000 0.000000 0.000000 0.000000 -0.420974
#
#
# Mechanical properties :
#
#
# Convention : Reuss Voigt Hill
#
# Bulk Modulus (GPa) = 24.90030 26.20597 25.55313
# Shear Modulus (GPa) = -21.61990 18.97346 -1.32322
#
# Velocity S-wave (km/s) = -3.63158 3.40206 -0.89843
# Velocity P-wave (km/s) = 1.54759 5.60518 3.80939
#
# Compressibility (1/GPa) = 0.04016016
#
# Stress axis : x y z
#
# Youngs Moduli (GPa) = 48.43248 56.53096 89.59257
#
# Poissons Ratio (x) = 0.15576 0.27169
# Poissons Ratio (y) = 0.13345 -0.10023
# Poissons Ratio (z) = 0.14687 -0.06324
#
# Static dielectric constant tensor:
#      x y z
#    x 1.595170 0.000000 0.000000 
#    y 0.000000 1.581800 0.000000 
#    z 0.000000 0.000000 1.578930 
# 
# From -- ./inp_files/3578.got.cif
#   From: 2010.05.17/outbox.cif.g08.bks.cpg/sg39_2_cif.got.tgz:3578.got - 2010.06.03 18:22:40.
