data_PCOD9360671
_publ_section_title
;
Structure prediction by ZEFSAII (Michael W. Deem and Ramdas Pophale) SiO2 
 PCOD9360671
Probable space group: A B M 2
;
_chemical_formula_sum "Si O2"
_cell_formula_units_Z 40
_cell_length_a 9.886939
_cell_length_b 8.744594
_cell_length_c 26.413154
_cell_angle_alpha 90.000000
_cell_angle_beta 90.000000
_cell_angle_gamma 90.000000
_cell_volume 2283.609120
_symmetry_space_group_name_H-M "A B M 2"
_symmetry_group_IT_number 39
_symmetry_cell_setting 'orthorhombic'
loop_
_space_group_symop_operation_xyz
x,y,z
-x,-y,z
-x,1/2+y,z
x,1/2-y,z
x,1/2+y,1/2+z
-x,1/2-y,1/2+z
-x,y,1/2+z
x,-y,1/2+z
loop_
_atom_site_type_symbol
_atom_site_label
_atom_site_fract_x
_atom_site_fract_y
_atom_site_fract_z
Si Si1 0.151946 0.066735 0.142630
Si Si2 0.151255 0.932978 0.530328
Si Si3 0.351389 0.432649 0.447534
Si Si4 0.649502 0.066546 0.830274
Si Si5 0.847992 0.432668 0.246722
O O1 0.147841 0.250000 0.148692
O O2 0.208405 0.030673 0.086806
O O3 0.212124 0.991997 0.193047
O O4 0.000000 0.000000 0.140900
O O5 0.143210 0.750000 0.526503
O O6 0.244879 0.999147 0.486630
O O7 0.000000 0.000000 0.526469
O O8 0.500000 0.500000 0.457436
O O9 0.355535 0.250000 0.452415
O O10 0.316598 0.469237 0.388981
O O11 0.647944 0.250000 0.824425
O O12 0.500000 0.000000 0.820532
O O13 0.756346 0.993069 0.792245
O O14 0.855229 0.250000 0.246370
O O15 0.000000 0.500000 0.251364
#
# Coordination Sequence:
#
# PCOD9360671 Si02
#       5
#     8   8   8   8   8
#     4   9  17  31  51  76 106 139 173 213 261 312
#     4  10  20  34  55  81 109 140 176 217 261 309
#     4  10  21  37  57  78 105 140 176 216 264 315
#     4  10  21  38  57  78 105 139 176 216 264 317
#     4  11  21  34  55  81 108 140 176 218 262 309
#
# _framework density 17.516131000000001
#
# number of rings (size 3 to 8) (size 9 to 14) (size 15 to 20)
#    0.000    2.000    0.000    5.400    0.000    5.600 
#    0.000    1.000    0.000    4.800    0.000    0.000 
#    0.000    0.000    0.000    0.000    0.000    0.000 
#
# Total GULP energy -111592.802370 kJ/mol
# GULP energy per Si atom -5579.640118 kJ/mol
# Density = 1.747626 g / cm^3
# Si number density = 17.516131 Si / 1000 Ang^3
#
#
#
# Elastic Constant Matrix: (Units=GPa)
#
#
# Indices 1 2 3 4 5 6 
#
# 1 79.0191 52.4282 98.5836 0.0000 0.0000 0.0000
# 2 52.4282 110.8506 86.3479 0.0000 0.0000 0.0000
# 3 98.5836 86.3479 174.8418 0.0000 0.0000 0.0000
# 4 0.0000 0.0000 0.0000 30.7408 0.0000 0.0000
# 5 0.0000 0.0000 0.0000 0.0000 -53.9762 0.0000
# 6 0.0000 0.0000 0.0000 0.0000 0.0000 31.6797
#
#
#
# Elastic Compliance Matrix: (Units=1/GPa)
#
#
# Indices 1 2 3 4 5 6 
#
# 1 0.043052 -0.002362 -0.023108 0.000000 0.000000 0.000000
# 2 -0.002362 0.014791 -0.005973 0.000000 0.000000 0.000000
# 3 -0.023108 -0.005973 0.021699 0.000000 0.000000 0.000000
# 4 0.000000 0.000000 0.000000 0.032530 0.000000 0.000000
# 5 0.000000 0.000000 0.000000 0.000000 -0.018527 0.000000
# 6 0.000000 0.000000 0.000000 0.000000 0.000000 0.031566
#
#
# Mechanical properties :
#
#
# Convention : Reuss Voigt Hill
#
# Bulk Modulus (GPa) = 60.03977 93.27010 76.65494
# Shear Modulus (GPa) = 25.83339 10.17898 18.00619
#
# Velocity S-wave (km/s) = 3.84452 2.41326 3.20969
# Velocity P-wave (km/s) = 7.35244 7.81849 7.58905
#
# Compressibility (1/GPa) = 0.01665563
#
# Stress axis : x y z
#
# Youngs Moduli (GPa) = 23.22797 67.60919 46.08560
#
# Poissons Ratio (x) = 0.15966 1.06495
# Poissons Ratio (y) = 0.05485 0.27528
# Poissons Ratio (z) = 0.53675 0.40384
#
# Static dielectric constant tensor:
#      x y z
#    x 1.551980 0.000000 0.000000 
#    y 0.000000 1.583680 0.000000 
#    z 0.000000 0.000000 1.626090 
# 
# From -- ./inp_files/14364.got.cif
#   From: 2010.05.17/outbox.cif.g08.bks.cpg/sg39_8_cif.got.tgz:14364.got - 2010.06.03 18:22:40.
