data_PCOD9360968
_publ_section_title
;
Structure prediction by ZEFSAII (Michael W. Deem and Ramdas Pophale) SiO2 
 PCOD9360968
Probable space group: A B M 2
;
_chemical_formula_sum "Si O2"
_cell_formula_units_Z 64
_cell_length_a 25.531834
_cell_length_b 8.647718
_cell_length_c 15.144837
_cell_angle_alpha 90.000000
_cell_angle_beta 90.000000
_cell_angle_gamma 90.000000
_cell_volume 3343.860372
_symmetry_space_group_name_H-M "A B M 2"
_symmetry_group_IT_number 39
_symmetry_cell_setting 'orthorhombic'
loop_
_space_group_symop_operation_xyz
x,y,z
-x,-y,z
-x,1/2+y,z
x,1/2-y,z
x,1/2+y,1/2+z
-x,1/2-y,1/2+z
-x,y,1/2+z
x,-y,1/2+z
loop_
_atom_site_type_symbol
_atom_site_label
_atom_site_fract_x
_atom_site_fract_y
_atom_site_fract_z
Si Si1 0.943118 0.564338 0.513880
Si Si2 0.251995 0.062619 0.368761
Si Si3 0.668751 0.563500 0.519877
Si Si4 0.135074 0.935570 0.369954
Si Si5 0.446762 0.435086 0.219155
Si Si6 0.553198 0.064911 0.018707
Si Si7 0.668794 0.563501 0.217744
Si Si8 0.056355 0.564066 0.218276
O O1 0.943700 0.750000 0.508471
O O2 0.897795 0.497606 0.452829
O O3 0.935201 0.517859 0.616384
O O4 0.000000 0.500000 0.486331
O O5 0.250015 0.250000 0.368908
O O6 0.285456 0.013123 0.454368
O O7 0.285343 0.012918 0.283099
O O8 0.193746 0.998267 0.369106
O O9 0.669736 0.750000 0.524580
O O10 0.610703 0.521580 0.483372
O O11 0.674702 0.499902 0.618786
O O12 0.135951 0.750000 0.372022
O O13 0.102528 0.986224 0.283127
O O14 0.500000 0.500000 0.261063
O O15 0.450593 0.250000 0.217573
O O16 0.445842 0.499752 0.118874
O O17 0.389232 0.478730 0.254299
O O18 0.549325 0.250000 0.020590
O O19 0.500000 0.000000 0.976680
O O20 0.669695 0.750000 0.213295
O O21 0.053736 0.750000 0.220672
O O22 0.000000 0.500000 0.247229
#
# Coordination Sequence:
#
# PCOD9360968 Si02
#       8
#     8   8   8   8   8   8   8   8
#     4  10  20  37  60  87 117 149 180 216 262 314
#     4  10  22  40  56  74 103 143 184 222 266 319
#     4   9  19  35  55  75 101 137 176 217 268 323
#     4  11  23  38  56  82 112 145 184 227 267 310
#     4   9  15  25  44  71  99 128 163 208 260 319
#     4   9  15  25  44  71  98 127 163 207 259 319
#     4   9  19  35  55  76 102 136 176 220 269 320
#     4   9  20  37  58  84 115 145 176 213 259 310
#
# _framework density 19.139554
#
# number of rings (size 3 to 8) (size 9 to 14) (size 15 to 20)
#    0.000    2.500    0.000    2.625    0.000    5.500 
#    0.000    4.375    0.000    0.000    0.000    0.000 
#    0.000    0.000    0.000    0.000    0.000    0.000 
#
# Total GULP energy -178522.857254 kJ/mol
# GULP energy per Si atom -5578.839289 kJ/mol
# Density = 1.909599 g / cm^3
# Si number density = 19.139554 Si / 1000 Ang^3
#
#
#
# Elastic Constant Matrix: (Units=GPa)
#
#
# Indices 1 2 3 4 5 6 
#
# 1 231.9629 48.3866 97.7584 0.0000 0.0000 0.0000
# 2 48.3866 33.4816 25.1555 0.0000 0.0000 0.0000
# 3 97.7584 25.1555 100.1548 0.0000 0.0000 0.0000
# 4 0.0000 0.0000 0.0000 15.0184 0.0000 0.0000
# 5 0.0000 0.0000 0.0000 0.0000 -23.9084 0.0000
# 6 0.0000 0.0000 0.0000 0.0000 0.0000 34.5651
#
#
#
# Elastic Compliance Matrix: (Units=1/GPa)
#
#
# Indices 1 2 3 4 5 6 
#
# 1 0.008648 -0.007588 -0.006535 0.000000 0.000000 0.000000
# 2 -0.007588 0.043472 -0.003512 0.000000 0.000000 0.000000
# 3 -0.006535 -0.003512 0.017246 0.000000 0.000000 0.000000
# 4 0.000000 0.000000 0.000000 0.066585 0.000000 0.000000
# 5 0.000000 0.000000 0.000000 0.000000 -0.041826 0.000000
# 6 0.000000 0.000000 0.000000 0.000000 0.000000 0.028931
#
#
# Mechanical properties :
#
#
# Convention : Reuss Voigt Hill
#
# Bulk Modulus (GPa) = 29.33029 78.68891 54.00960
# Shear Modulus (GPa) = 29.46537 18.08829 23.77683
#
# Velocity S-wave (km/s) = 3.92790 3.07754 3.52843
# Velocity P-wave (km/s) = 5.99408 7.33695 6.69925
#
# Compressibility (1/GPa) = 0.03409445
#
# Stress axis : x y z
#
# Youngs Moduli (GPa) = 115.63255 23.00347 57.98539
#
# Poissons Ratio (x) = 0.17455 0.37896
# Poissons Ratio (y) = 0.87740 0.20367
# Poissons Ratio (z) = 0.75570 0.08080
#
# Static dielectric constant tensor:
#      x y z
#    x 1.670260 0.000000 0.000000 
#    y 0.000000 1.647590 0.000000 
#    z 0.000000 0.000000 1.678130 
# 
# From -- ./inp_files/10565.got.cif
#   From: 2010.05.17/outbox.cif.g08.bks.cpg/sg39_6_cif.got.tgz:10565.got - 2010.06.03 18:22:40.
