data_PCOD9360819
_publ_section_title
;
Structure prediction by ZEFSAII (Michael W. Deem and Ramdas Pophale) SiO2 
 PCOD9360819
Probable space group: A B M 2
;
_chemical_formula_sum "Si O2"
_cell_formula_units_Z 56
_cell_length_a 23.443401
_cell_length_b 8.834780
_cell_length_c 15.477558
_cell_angle_alpha 90.000000
_cell_angle_beta 90.000000
_cell_angle_gamma 90.000000
_cell_volume 3205.669873
_symmetry_space_group_name_H-M "A B M 2"
_symmetry_group_IT_number 39
_symmetry_cell_setting 'orthorhombic'
loop_
_space_group_symop_operation_xyz
x,y,z
-x,-y,z
-x,1/2+y,z
x,1/2-y,z
x,1/2+y,1/2+z
-x,1/2-y,1/2+z
-x,y,1/2+z
x,-y,1/2+z
loop_
_atom_site_type_symbol
_atom_site_label
_atom_site_fract_x
_atom_site_fract_y
_atom_site_fract_z
Si Si1 0.143844 0.432236 0.293310
Si Si2 0.644089 0.571698 0.168394
Si Si3 0.623094 0.427488 0.857206
Si Si4 0.269137 0.570127 0.285191
Si Si5 0.061440 0.068557 0.448613
Si Si6 0.438627 0.431178 0.015693
Si Si7 0.062316 0.067777 0.648705
O O1 0.145824 0.250000 0.288687
O O2 0.207240 0.498524 0.293640
O O3 0.109387 0.476986 0.380084
O O4 0.108535 0.497797 0.212710
O O5 0.658525 0.750000 0.159641
O O6 0.606162 0.558135 0.256018
O O7 0.700576 0.479885 0.194916
O O8 0.608843 0.520935 0.085918
O O9 0.625799 0.250000 0.878217
O O10 0.686471 0.500370 0.855076
O O11 0.582346 0.512076 0.922688
O O12 0.267246 0.750000 0.292069
O O13 0.056452 0.250000 0.445190
O O14 0.074393 0.027852 0.548223
O O15 0.000000 0.000000 0.425455
O O16 0.500000 0.500000 0.036148
O O17 0.442057 0.250000 0.017496
O O18 0.061102 0.250000 0.656718
O O19 0.000000 0.000000 0.669612
#
# Coordination Sequence:
#
# PCOD9360819 Si02
#       7
#     8   8   8   8   8   8   8
#     4  11  21  36  56  81 109 145 186 231 277 330
#     4   8  19  39  58  79 112 149 182 225 277 327
#     4   9  19  39  59  81 112 149 183 226 277 325
#     4  10  20  37  59  82 109 147 190 232 279 335
#     4   9  20  36  55  78 109 143 180 224 278 331
#     4  11  22  37  59  89 117 146 186 227 272 330
#     4  10  20  36  55  80 110 143 181 228 279 335
#
# _framework density 17.469048999999998
#
# number of rings (size 3 to 8) (size 9 to 14) (size 15 to 20)
#    0.857    1.429    0.000    3.000    0.000    4.571 
#    2.571    1.429    0.000    0.000    0.000    0.000 
#    0.000    0.000    0.000    0.000    0.000    0.000 
#
# Total GULP energy -156020.291608 kJ/mol
# GULP energy per Si atom -5572.153272 kJ/mol
# Density = 1.742929 g / cm^3
# Si number density = 17.469049 Si / 1000 Ang^3
#
#
#
# Elastic Constant Matrix: (Units=GPa)
#
#
# Indices 1 2 3 4 5 6 
#
# 1 56.3602 16.5845 4.3329 0.0000 0.0000 0.0000
# 2 16.5845 56.6857 11.3920 0.0000 0.0000 0.0000
# 3 4.3329 11.3920 28.0343 0.0000 0.0000 0.0000
# 4 0.0000 0.0000 0.0000 -20.9883 0.0000 0.0000
# 5 0.0000 0.0000 0.0000 0.0000 10.5423 0.0000
# 6 0.0000 0.0000 0.0000 0.0000 0.0000 33.2156
#
#
#
# Elastic Compliance Matrix: (Units=1/GPa)
#
#
# Indices 1 2 3 4 5 6 
#
# 1 0.019429 -0.005533 -0.000755 0.000000 0.000000 0.000000
# 2 -0.005533 0.020785 -0.007591 0.000000 0.000000 0.000000
# 3 -0.000755 -0.007591 0.038872 0.000000 0.000000 0.000000
# 4 0.000000 0.000000 0.000000 -0.047646 0.000000 0.000000
# 5 0.000000 0.000000 0.000000 0.000000 0.094856 0.000000
# 6 0.000000 0.000000 0.000000 0.000000 0.000000 0.030106
#
#
# Mechanical properties :
#
#
# Convention : Reuss Voigt Hill
#
# Bulk Modulus (GPa) = 19.48203 22.85545 21.16874
# Shear Modulus (GPa) = 24.84220 11.80529 18.32375
#
# Velocity S-wave (km/s) = 3.77512 2.60240 3.24223
# Velocity P-wave (km/s) = 5.49351 4.70551 5.11471
#
# Compressibility (1/GPa) = 0.05132936
#
# Stress axis : x y z
#
# Youngs Moduli (GPa) = 51.46928 48.11067 25.72540
#
# Poissons Ratio (x) = 0.26618 0.01941
# Poissons Ratio (y) = 0.28476 0.19529
# Poissons Ratio (z) = 0.03884 0.36522
#
# Static dielectric constant tensor:
#      x y z
#    x 1.562680 0.000000 0.000000 
#    y 0.000000 1.582690 0.000000 
#    z 0.000000 0.000000 1.601390 
# 
# From -- ./inp_files/10410.got.cif
#   From: 2010.05.17/outbox.cif.g08.bks.cpg/sg39_6_cif.got.tgz:10410.got - 2010.06.03 18:22:40.
