data_PCOD9360699
_publ_section_title
;
Structure prediction by ZEFSAII (Michael W. Deem and Ramdas Pophale) SiO2 
 PCOD9360699
Probable space group: A B M 2
;
_chemical_formula_sum "Si O2"
_cell_formula_units_Z 48
_cell_length_a 15.735035
_cell_length_b 11.393194
_cell_length_c 13.644931
_cell_angle_alpha 90.000000
_cell_angle_beta 90.000000
_cell_angle_gamma 90.000000
_cell_volume 2446.158250
_symmetry_space_group_name_H-M "A B M 2"
_symmetry_group_IT_number 39
_symmetry_cell_setting 'orthorhombic'
loop_
_space_group_symop_operation_xyz
x,y,z
-x,-y,z
-x,1/2+y,z
x,1/2-y,z
x,1/2+y,1/2+z
-x,1/2-y,1/2+z
-x,y,1/2+z
x,-y,1/2+z
loop_
_atom_site_type_symbol
_atom_site_label
_atom_site_fract_x
_atom_site_fract_y
_atom_site_fract_z
Si Si1 0.086219 0.750000 0.482800
Si Si2 0.363189 0.611418 0.093837
Si Si3 0.104776 0.250000 0.557981
Si Si4 0.641108 0.111198 0.867142
Si Si5 0.102988 0.508734 0.575308
Si Si6 0.227122 0.010400 0.740652
Si Si7 0.845948 0.750000 0.783048
Si Si8 0.500000 0.500000 0.725044
O O1 0.127121 0.627327 0.517954
O O2 0.084074 0.750000 0.366248
O O3 0.992037 0.750000 0.525266
O O4 0.340343 0.750000 0.097356
O O5 0.293369 0.537005 0.152848
O O6 0.450376 0.589299 0.153181
O O7 0.367579 0.573398 0.980494
O O8 0.136556 0.382583 0.532062
O O9 0.114475 0.250000 0.675251
O O10 0.631694 0.250000 0.866752
O O11 0.730434 0.076065 0.817586
O O12 0.569254 0.057183 0.796910
O O13 0.140946 0.523684 0.684519
O O14 0.000000 0.500000 0.577333
O O15 0.210541 0.134482 0.792298
#
# Coordination Sequence:
#
# PCOD9360699 Si02
#       8
#     4   8   4   8   8   8   4   4
#     4  10  20  34  62  88 109 148 204 262 289 349
#     4  10  20  37  60  82 119 157 185 232 292 355
#     4   8  18  40  58  80 118 152 194 248 315 359
#     4  10  22  37  59  91 120 149 197 241 291 355
#     4   9  19  37  60  84 121 156 202 255 302 343
#     4  10  21  37  59  83 120 162 195 239 298 359
#     4  10  20  38  62  80 115 160 202 236 304 378
#     4  10  20  38  62  88 116 148 194 234 292 344
#
# _framework density 19.622606000000001
#
# number of rings (size 3 to 8) (size 9 to 14) (size 15 to 20)
#    0.000    2.333    0.833    1.000    3.500    0.000 
#    0.000   20.000    1.833    0.000    0.000    0.000 
#    0.000    0.000    0.000    0.000    0.000    0.000 
#
# Total GULP energy -133723.318981 kJ/mol
# GULP energy per Si atom -5571.804958 kJ/mol
# Density = 1.957794 g / cm^3
# Si number density = 19.622606 Si / 1000 Ang^3
#
#
#
# Elastic Constant Matrix: (Units=GPa)
#
#
# Indices 1 2 3 4 5 6 
#
# 1 36.9867 8.0347 20.6709 0.0000 0.0000 0.0000
# 2 8.0347 94.2158 43.8172 0.0000 0.0000 0.0000
# 3 20.6709 43.8172 98.9972 0.0000 0.0000 0.0000
# 4 0.0000 0.0000 0.0000 13.9023 0.0000 0.0000
# 5 0.0000 0.0000 0.0000 0.0000 105.1288 0.0000
# 6 0.0000 0.0000 0.0000 0.0000 0.0000 19.3549
#
#
#
# Elastic Compliance Matrix: (Units=1/GPa)
#
#
# Indices 1 2 3 4 5 6 
#
# 1 0.030624 0.000456 -0.006596 0.000000 0.000000 0.000000
# 2 0.000456 0.013372 -0.006014 0.000000 0.000000 0.000000
# 3 -0.006596 -0.006014 0.014140 0.000000 0.000000 0.000000
# 4 0.000000 0.000000 0.000000 0.071931 0.000000 0.000000
# 5 0.000000 0.000000 0.000000 0.000000 0.009512 0.000000
# 6 0.000000 0.000000 0.000000 0.000000 0.000000 0.051667
#
#
# Mechanical properties :
#
#
# Convention : Reuss Voigt Hill
#
# Bulk Modulus (GPa) = 29.56082 41.69391 35.62737
# Shear Modulus (GPa) = 22.04296 38.18900 30.11598
#
# Velocity S-wave (km/s) = 3.35527 4.41633 3.92185
# Velocity P-wave (km/s) = 5.48706 6.87745 6.22122
#
# Compressibility (1/GPa) = 0.03382856
#
# Stress axis : x y z
#
# Youngs Moduli (GPa) = 32.65391 74.78388 70.71939
#
# Poissons Ratio (x) = -0.03411 0.46649
# Poissons Ratio (y) = -0.01490 0.42529
# Poissons Ratio (z) = 0.21540 0.44973
#
# Static dielectric constant tensor:
#      x y z
#    x 1.708850 0.000000 0.000000 
#    y 0.000000 1.729840 0.000000 
#    z 0.000000 0.000000 1.666570 
# 
# From -- ./inp_files/6821.got.cif
#   From: 2010.05.17/outbox.cif.g08.bks.cpg/sg39_4_cif.got.tgz:6821.got - 2010.06.03 18:22:40.
