data_PCOD9360017
_publ_section_title
;
Structure prediction by ZEFSAII (Michael W. Deem and Ramdas Pophale) SiO2 
 PCOD9360017
Probable space group: A B M 2
;
_chemical_formula_sum "Si O2"
_cell_formula_units_Z 28
_cell_length_a 11.293926
_cell_length_b 5.595645
_cell_length_c 17.920527
_cell_angle_alpha 90.000000
_cell_angle_beta 90.000000
_cell_angle_gamma 90.000000
_cell_volume 1132.519971
_symmetry_space_group_name_H-M "A B M 2"
_symmetry_group_IT_number 39
_symmetry_cell_setting 'orthorhombic'
loop_
_space_group_symop_operation_xyz
x,y,z
-x,-y,z
-x,1/2+y,z
x,1/2-y,z
x,1/2+y,1/2+z
-x,1/2-y,1/2+z
-x,y,1/2+z
x,-y,1/2+z
loop_
_atom_site_type_symbol
_atom_site_label
_atom_site_fract_x
_atom_site_fract_y
_atom_site_fract_z
Si Si1 0.924945 0.750000 0.589751
Si Si2 0.072427 0.250000 0.258297
Si Si3 0.328312 0.750000 0.695742
Si Si4 0.693224 0.250000 0.186498
Si Si5 0.074615 0.750000 0.926195
Si Si6 0.350042 0.750000 0.367184
Si Si7 0.632483 0.250000 0.872049
O O1 0.824448 0.750000 0.652677
O O2 0.000000 0.500000 0.594368
O O3 0.866497 0.750000 0.507645
O O4 0.185100 0.250000 0.203961
O O5 0.000000 0.500000 0.252547
O O6 0.123799 0.250000 0.342094
O O7 0.363551 0.498554 0.661590
O O8 0.369646 0.750000 0.781507
O O9 0.686198 0.250000 0.278295
O O10 0.000000 0.500000 0.926956
O O11 0.490639 0.750000 0.382914
O O12 0.311207 0.497235 0.399642
#
# Coordination Sequence:
#
# PCOD9360017 Si02
#       7
#     4   4   4   4   4   4   4
#     4  10  19  30  43  58  81 112 142 171 201 236
#     4  10  19  30  43  58  81 112 142 171 201 236
#     4  10  19  28  40  61  86 108 135 165 203 250
#     4  10  19  28  40  61  86 108 135 165 203 250
#     4   8  16  30  44  56  72 104 146 176 198 228
#     4   8  14  25  39  54  76 102 129 161 195 237
#     4   8  14  25  39  54  76 102 129 161 195 237
#
# _framework density 24.723628000000001
#
# number of rings (size 3 to 8) (size 9 to 14) (size 15 to 20)
#    0.000    2.857    0.000    1.714    0.000    3.429 
#    0.000    0.000    0.000    0.000    0.000    0.000 
#    0.000   36.571    0.000    0.000    0.000   52.286 
#
# Total GULP energy -77990.458795 kJ/mol
# GULP energy per Si atom -5570.747057 kJ/mol
# Density = 2.466736 g / cm^3
# Si number density = 24.723628 Si / 1000 Ang^3
#
#
#
# Elastic Constant Matrix: (Units=GPa)
#
#
# Indices 1 2 3 4 5 6 
#
# 1 87.2957 47.4054 17.2778 0.0000 0.0000 0.0000
# 2 47.4054 316.8913 13.0157 0.0000 0.0000 0.0000
# 3 17.2778 13.0157 77.0459 0.0000 0.0000 0.0000
# 4 0.0000 0.0000 0.0000 16.5167 0.0000 0.0000
# 5 0.0000 0.0000 0.0000 0.0000 11.9405 0.0000
# 6 0.0000 0.0000 0.0000 0.0000 0.0000 15.4293
#
#
#
# Elastic Compliance Matrix: (Units=1/GPa)
#
#
# Indices 1 2 3 4 5 6 
#
# 1 0.012965 -0.001833 -0.002598 0.000000 0.000000 0.000000
# 2 -0.001833 0.003437 -0.000170 0.000000 0.000000 0.000000
# 3 -0.002598 -0.000170 0.013590 0.000000 0.000000 0.000000
# 4 0.000000 0.000000 0.000000 0.060545 0.000000 0.000000
# 5 0.000000 0.000000 0.000000 0.000000 0.083749 0.000000
# 6 0.000000 0.000000 0.000000 0.000000 0.000000 0.064812
#
#
# Mechanical properties :
#
#
# Convention : Reuss Voigt Hill
#
# Bulk Modulus (GPa) = 48.09594 70.73673 59.41634
# Shear Modulus (GPa) = 19.59031 35.67955 27.63493
#
# Velocity S-wave (km/s) = 2.81796 3.80298 3.34691
# Velocity P-wave (km/s) = 5.48485 6.92508 6.24661
#
# Compressibility (1/GPa) = 0.02079178
#
# Stress axis : x y z
#
# Youngs Moduli (GPa) = 77.13220 290.96884 73.58091
#
# Poissons Ratio (x) = 0.53328 0.19115
# Poissons Ratio (y) = 0.14137 0.01248
# Poissons Ratio (z) = 0.20037 0.04934
#
# Static dielectric constant tensor:
#      x y z
#    x 2.247350 0.000000 0.000000 
#    y 0.000000 2.069480 0.000000 
#    z 0.000000 0.000000 1.906220 
# 
# From -- ./inp_files/14306.got.cif
#   From: 2010.05.17/outbox.cif.g08.bks.cpg/sg39_8_cif.got.tgz:14306.got - 2010.06.03 18:22:40.
