data_PCOD9360877
_publ_section_title
;
Structure prediction by ZEFSAII (Michael W. Deem and Ramdas Pophale) SiO2 
 PCOD9360877
Probable space group: A B M 2
;
_chemical_formula_sum "Si O2"
_cell_formula_units_Z 64
_cell_length_a 16.930984
_cell_length_b 14.045741
_cell_length_c 11.389000
_cell_angle_alpha 90.000000
_cell_angle_beta 90.000000
_cell_angle_gamma 90.000000
_cell_volume 2708.397774
_symmetry_space_group_name_H-M "A B M 2"
_symmetry_group_IT_number 39
_symmetry_cell_setting 'orthorhombic'
loop_
_space_group_symop_operation_xyz
x,y,z
-x,-y,z
-x,1/2+y,z
x,1/2-y,z
x,1/2+y,1/2+z
-x,1/2-y,1/2+z
-x,y,1/2+z
x,-y,1/2+z
loop_
_atom_site_type_symbol
_atom_site_label
_atom_site_fract_x
_atom_site_fract_y
_atom_site_fract_z
Si Si1 0.472016 0.634552 0.071540
Si Si2 0.952507 0.855212 0.552978
Si Si3 0.119251 0.361406 0.965083
Si Si4 0.151459 0.991817 0.173362
Si Si5 0.285997 0.362133 0.901627
Si Si6 0.545949 0.363831 0.323656
Si Si7 0.187902 0.856916 0.867917
Si Si8 0.300902 0.952951 0.041011
O O1 0.468477 0.750000 0.069608
O O2 0.499495 0.606799 0.204182
O O3 0.385303 0.590379 0.064172
O O4 0.516666 0.604282 0.952324
O O5 0.968441 0.750000 0.602980
O O6 0.875954 0.851324 0.471433
O O7 0.024900 0.879154 0.464648
O O8 0.925016 0.924054 0.658219
O O9 0.125832 0.250000 0.995818
O O10 0.191655 0.374587 0.872086
O O11 0.141716 0.434336 0.065713
O O12 0.156519 0.062731 0.281437
O O13 0.234803 0.941789 0.142131
O O14 0.294585 0.250000 0.932255
O O15 0.359849 0.383720 0.816839
O O16 0.302952 0.435342 0.007585
O O17 0.537899 0.250000 0.326232
O O18 0.197314 0.750000 0.818138
O O19 0.266845 0.896909 0.927413
#
# Coordination Sequence:
#
# PCOD9360877 Si02
#       8
#     8   8   8   8   8   8   8   8
#     4  10  21  42  69 100 136 175 223 283 348 418
#     4   9  19  37  61  88 125 167 219 280 338 403
#     4   9  17  34  59  86 123 169 216 274 339 399
#     4  10  20  36  59  88 124 167 216 272 335 400
#     4   9  19  38  61  89 129 174 221 275 337 412
#     4   9  20  40  67  97 134 176 222 281 348 417
#     4  10  21  39  63  93 128 171 224 279 336 412
#     4  10  22  38  63  93 129 173 221 273 339 405
#
# _framework density 23.630206000000001
#
# number of rings (size 3 to 8) (size 9 to 14) (size 15 to 20)
#    0.000    2.500    0.000    1.125    1.750    1.500 
#    4.500    9.375    0.000    7.500    0.000    0.000 
#    0.000    0.000    0.000    0.000    0.000    0.000 
#
# Total GULP energy -178254.522826 kJ/mol
# GULP energy per Si atom -5570.453838 kJ/mol
# Density = 2.357642 g / cm^3
# Si number density = 23.630206 Si / 1000 Ang^3
#
#
#
# Elastic Constant Matrix: (Units=GPa)
#
#
# Indices 1 2 3 4 5 6 
#
# 1 104.9978 28.8993 49.7606 0.0000 0.0000 0.0000
# 2 28.8993 124.2536 38.5215 0.0000 0.0000 0.0000
# 3 49.7606 38.5215 110.2900 0.0000 0.0000 0.0000
# 4 0.0000 0.0000 0.0000 2.5363 0.0000 0.0000
# 5 0.0000 0.0000 0.0000 0.0000 31.4771 0.0000
# 6 0.0000 0.0000 0.0000 0.0000 0.0000 158.9793
#
#
#
# Elastic Compliance Matrix: (Units=1/GPa)
#
#
# Indices 1 2 3 4 5 6 
#
# 1 0.012293 -0.001278 -0.005100 0.000000 0.000000 0.000000
# 2 -0.001278 0.009158 -0.002622 0.000000 0.000000 0.000000
# 3 -0.005100 -0.002622 0.012284 0.000000 0.000000 0.000000
# 4 0.000000 0.000000 0.000000 0.394277 0.000000 0.000000
# 5 0.000000 0.000000 0.000000 0.000000 0.031769 0.000000
# 6 0.000000 0.000000 0.000000 0.000000 0.000000 0.006290
#
#
# Mechanical properties :
#
#
# Convention : Reuss Voigt Hill
#
# Bulk Modulus (GPa) = 63.55354 63.76713 63.66034
# Shear Modulus (GPa) = 10.21835 53.42252 31.82044
#
# Velocity S-wave (km/s) = 2.08175 4.75992 3.67359
# Velocity P-wave (km/s) = 5.72116 7.56658 6.70763
#
# Compressibility (1/GPa) = 0.01573476
#
# Stress axis : x y z
#
# Youngs Moduli (GPa) = 81.34919 109.19154 81.40808
#
# Poissons Ratio (x) = 0.13955 0.41517
# Poissons Ratio (y) = 0.10396 0.21346
# Poissons Ratio (z) = 0.41487 0.28631
#
# Static dielectric constant tensor:
#      x y z
#    x 1.954370 0.000000 0.000000 
#    y 0.000000 1.929200 0.000000 
#    z 0.000000 0.000000 1.958800 
# 
# From -- ./inp_files/6907.got.cif
#   From: 2010.05.17/outbox.cif.g08.bks.cpg/sg39_4_cif.got.tgz:6907.got - 2010.06.03 18:22:40.
