data_PCOD9360769
_publ_section_title
;
Structure prediction by ZEFSAII (Michael W. Deem and Ramdas Pophale) SiO2 
 PCOD9360769
Probable space group: A B M 2
;
_chemical_formula_sum "Si O2"
_cell_formula_units_Z 56
_cell_length_a 14.622484
_cell_length_b 14.445960
_cell_length_c 14.150469
_cell_angle_alpha 90.000000
_cell_angle_beta 90.000000
_cell_angle_gamma 90.000000
_cell_volume 2989.085908
_symmetry_space_group_name_H-M "A B M 2"
_symmetry_group_IT_number 39
_symmetry_cell_setting 'orthorhombic'
loop_
_space_group_symop_operation_xyz
x,y,z
-x,-y,z
-x,1/2+y,z
x,1/2-y,z
x,1/2+y,1/2+z
-x,1/2-y,1/2+z
-x,y,1/2+z
x,-y,1/2+z
loop_
_atom_site_type_symbol
_atom_site_label
_atom_site_fract_x
_atom_site_fract_y
_atom_site_fract_z
Si Si1 0.784468 0.138233 0.805560
Si Si2 0.596317 0.451926 0.027469
Si Si3 0.891197 0.497223 0.175589
Si Si4 0.606180 0.639191 0.727182
Si Si5 0.208378 0.002207 0.976722
Si Si6 0.201399 0.860129 0.316288
Si Si7 0.420587 0.139487 0.324483
O O1 0.795810 0.250000 0.809646
O O2 0.849160 0.086047 0.731129
O O3 0.678059 0.116154 0.779879
O O4 0.798689 0.087460 0.907167
O O5 0.500000 0.500000 0.046229
O O6 0.620016 0.394983 0.121055
O O7 0.685150 0.513713 0.005631
O O8 0.581063 0.393312 0.932386
O O9 0.858031 0.408091 0.234983
O O10 0.000000 0.500000 0.173809
O O11 0.850071 0.492433 0.070852
O O12 0.602449 0.750000 0.724926
O O13 0.693225 0.614581 0.791169
O O14 0.510607 0.604858 0.770885
O O15 0.178354 0.089509 0.914084
O O16 0.191748 0.750000 0.319187
O O17 0.425559 0.250000 0.324461
#
# Coordination Sequence:
#
# PCOD9360769 Si02
#       7
#     8   8   8   8   8   8   8
#     4   9  21  41  65  88 121 160 202 247 301 361
#     4  11  21  31  55  85 120 160 199 238 291 355
#     4  11  24  42  62  89 122 153 199 260 314 364
#     4  10  20  35  57  85 120 160 201 242 287 350
#     4  10  22  39  60  92 123 159 200 249 304 357
#     4  10  22  42  65  90 122 162 201 248 301 360
#     4   9  19  36  55  83 119 156 197 242 288 349
#
# _framework density 18.734825000000001
#
# number of rings (size 3 to 8) (size 9 to 14) (size 15 to 20)
#    0.000    2.000    1.429    1.286    2.000    6.286 
#    0.000    0.714    0.000    0.000    0.000    0.000 
#    0.000    0.000    0.000    0.000    0.000    0.000 
#
# Total GULP energy -156297.875228 kJ/mol
# GULP energy per Si atom -5582.066972 kJ/mol
# Density = 1.869218 g / cm^3
# Si number density = 18.734825 Si / 1000 Ang^3
#
#
#
# Elastic Constant Matrix: (Units=GPa)
#
#
# Indices 1 2 3 4 5 6 
#
# 1 115.1736 28.7265 44.8435 0.0000 0.0000 0.0000
# 2 28.7265 89.9913 19.8850 0.0000 0.0000 0.0000
# 3 44.8435 19.8850 107.8698 0.0000 0.0000 0.0000
# 4 0.0000 0.0000 0.0000 4.4489 0.0000 0.0000
# 5 0.0000 0.0000 0.0000 0.0000 -63.7498 0.0000
# 6 0.0000 0.0000 0.0000 0.0000 0.0000 19.8344
#
#
#
# Elastic Compliance Matrix: (Units=1/GPa)
#
#
# Indices 1 2 3 4 5 6 
#
# 1 0.010907 -0.002585 -0.004058 0.000000 0.000000 0.000000
# 2 -0.002585 0.012197 -0.001174 0.000000 0.000000 0.000000
# 3 -0.004058 -0.001174 0.011174 0.000000 0.000000 0.000000
# 4 0.000000 0.000000 0.000000 0.224776 0.000000 0.000000
# 5 0.000000 0.000000 0.000000 0.000000 -0.015686 0.000000
# 6 0.000000 0.000000 0.000000 0.000000 0.000000 0.050418
#
#
# Mechanical properties :
#
#
# Convention : Reuss Voigt Hill
#
# Bulk Modulus (GPa) = 53.63523 55.54942 54.59232
# Shear Modulus (GPa) = 15.84117 6.74533 11.29325
#
# Velocity S-wave (km/s) = 2.91098 1.89954 2.45785
# Velocity P-wave (km/s) = 6.32370 5.87586 6.10389
#
# Compressibility (1/GPa) = 0.01864446
#
# Stress axis : x y z
#
# Youngs Moduli (GPa) = 91.68205 81.98912 89.49583
#
# Poissons Ratio (x) = 0.21195 0.36316
# Poissons Ratio (y) = 0.23701 0.10504
# Poissons Ratio (z) = 0.37203 0.09623
#
# Static dielectric constant tensor:
#      x y z
#    x 1.658490 0.000000 0.000000 
#    y 0.000000 1.677300 0.000000 
#    z 0.000000 0.000000 1.625590 
# 
# From -- ./inp_files/6462.got.cif
#   From: 2010.05.17/outbox.cif.g08.bks.cpg/sg39_4_cif.got.tgz:6462.got - 2010.06.03 18:22:40.
