data_PCOD9360020
_publ_section_title
;
Structure prediction by ZEFSAII (Michael W. Deem and Ramdas Pophale) SiO2 
 PCOD9360020
Probable space group: A B M 2
;
_chemical_formula_sum "Si O2"
_cell_formula_units_Z 64
_cell_length_a 10.945787
_cell_length_b 11.148719
_cell_length_c 26.269224
_cell_angle_alpha 90.000000
_cell_angle_beta 90.000000
_cell_angle_gamma 90.000000
_cell_volume 3205.672900
_symmetry_space_group_name_H-M "A B M 2"
_symmetry_group_IT_number 39
_symmetry_cell_setting 'orthorhombic'
loop_
_space_group_symop_operation_xyz
x,y,z
-x,-y,z
-x,1/2+y,z
x,1/2-y,z
x,1/2+y,1/2+z
-x,1/2-y,1/2+z
-x,y,1/2+z
x,-y,1/2+z
loop_
_atom_site_type_symbol
_atom_site_label
_atom_site_fract_x
_atom_site_fract_y
_atom_site_fract_z
Si Si1 0.848054 0.119958 0.574610
Si Si2 0.554914 0.619741 0.827590
Si Si3 0.879389 0.379534 0.237835
Si Si4 0.120611 0.379534 0.531998
Si Si5 0.157666 0.616123 0.918748
Si Si6 0.842334 0.616123 0.851085
Si Si7 0.151946 0.119958 0.195223
Si Si8 0.554914 0.119741 0.942243
O O1 0.799689 0.250000 0.556838
O O2 0.829747 0.110680 0.634916
O O3 0.993897 0.122907 0.563053
O O4 0.805859 0.997834 0.547763
O O5 0.500000 0.500000 0.802903
O O6 0.527321 0.750000 0.803876
O O7 0.699975 0.608786 0.834834
O O8 0.500000 0.623530 0.884916
O O9 0.817534 0.250000 0.229886
O O10 0.911943 0.387174 0.297447
O O11 0.805859 0.497834 0.222070
O O12 0.006103 0.377093 0.206780
O O13 0.182466 0.250000 0.539946
O O14 0.088057 0.387175 0.472386
O O15 0.140031 0.750000 0.895285
O O16 0.132006 0.500000 0.884916
O O17 0.300025 0.608786 0.934999
O O18 0.859969 0.750000 0.874548
O O19 0.200311 0.250000 0.212994
O O20 0.527321 0.250000 0.965957
O O21 0.500000 0.000000 0.966930
#
# Coordination Sequence:
#
# PCOD9360020 Si02
#       8
#     8   8   8   8   8   8   8   8
#     4   9  17  31  50  67  84 109 140 176 218 261
#     4   9  15  25  41  58  77 106 143 178 210 243
#     4   9  17  28  43  64  87 111 143 179 213 252
#     4   9  17  28  43  64  87 111 143 179 213 252
#     4  10  19  29  41  60  87 118 148 180 213 247
#     4  10  19  29  41  60  87 118 148 180 213 247
#     4   9  17  31  50  67  84 109 140 176 218 261
#     4   9  15  25  41  58  77 106 143 178 210 243
#
# _framework density 19.964607000000001
#
# number of rings (size 3 to 8) (size 9 to 14) (size 15 to 20)
#    0.000    2.750    2.500    1.500    0.000    2.500 
#    0.000    2.500    0.000   13.500    0.000    0.000 
#    0.000    4.000    0.000   11.500    0.000    8.500 
#
# Total GULP energy -178136.360580 kJ/mol
# GULP energy per Si atom -5566.761268 kJ/mol
# Density = 1.991917 g / cm^3
# Si number density = 19.964607 Si / 1000 Ang^3
#
#
#
# Elastic Constant Matrix: (Units=GPa)
#
#
# Indices 1 2 3 4 5 6 
#
# 1 42.1354 6.2549 -11.9168 0.0000 0.0000 0.0000
# 2 6.2549 293.6438 49.6757 0.0000 0.0000 0.0000
# 3 -11.9168 49.6757 40.2809 0.0000 0.0000 0.0000
# 4 0.0000 0.0000 0.0000 38.2893 0.0000 0.0000
# 5 0.0000 0.0000 0.0000 0.0000 0.7397 0.0000
# 6 0.0000 0.0000 0.0000 0.0000 0.0000 -0.8378
#
#
#
# Elastic Compliance Matrix: (Units=1/GPa)
#
#
# Indices 1 2 3 4 5 6 
#
# 1 0.027232 -0.002455 0.011084 0.000000 0.000000 0.000000
# 2 -0.002455 0.004525 -0.006306 0.000000 0.000000 0.000000
# 3 0.011084 -0.006306 0.035882 0.000000 0.000000 0.000000
# 4 0.000000 0.000000 0.000000 0.026117 0.000000 0.000000
# 5 0.000000 0.000000 0.000000 0.000000 1.351939 0.000000
# 6 0.000000 0.000000 0.000000 0.000000 0.000000 -1.193606
#
#
# Mechanical properties :
#
#
# Convention : Reuss Voigt Hill
#
# Bulk Modulus (GPa) = 13.83419 51.56529 32.69974
# Shear Modulus (GPa) = 18.41361 29.77467 24.09414
#
# Velocity S-wave (km/s) = 3.04025 3.86602 3.47773
# Velocity P-wave (km/s) = 4.38960 6.76850 5.70444
#
# Compressibility (1/GPa) = 0.07228470
#
# Stress axis : x y z
#
# Youngs Moduli (GPa) = 36.72100 221.01348 27.86918
#
# Poissons Ratio (x) = 0.54263 -0.30891
# Poissons Ratio (y) = 0.09016 0.17575
# Poissons Ratio (z) = -0.40703 1.39377
#
# Static dielectric constant tensor:
#      x y z
#    x 1.691620 0.000000 0.000000 
#    y 0.000000 1.892620 0.000000 
#    z 0.000000 0.000000 1.737480 
# 
# From -- ./inp_files/6116.got.cif
#   From: 2010.05.17/outbox.cif.g08.bks.cpg/sg39_4_cif.got.tgz:6116.got - 2010.06.03 18:22:40.
