data_PCOD9360181
_publ_section_title
;
Structure prediction by ZEFSAII (Michael W. Deem and Ramdas Pophale) SiO2 
 PCOD9360181
Probable space group: A B M 2
;
_chemical_formula_sum "Si O2"
_cell_formula_units_Z 64
_cell_length_a 24.829297
_cell_length_b 8.003333
_cell_length_c 15.686126
_cell_angle_alpha 90.000000
_cell_angle_beta 90.000000
_cell_angle_gamma 90.000000
_cell_volume 3117.101972
_symmetry_space_group_name_H-M "A B M 2"
_symmetry_group_IT_number 39
_symmetry_cell_setting 'orthorhombic'
loop_
_space_group_symop_operation_xyz
x,y,z
-x,-y,z
-x,1/2+y,z
x,1/2-y,z
x,1/2+y,1/2+z
-x,1/2-y,1/2+z
-x,y,1/2+z
x,-y,1/2+z
loop_
_atom_site_type_symbol
_atom_site_label
_atom_site_fract_x
_atom_site_fract_y
_atom_site_fract_z
Si Si1 0.938593 0.050593 0.224960
Si Si2 0.561365 0.447850 0.989253
Si Si3 0.362238 0.044252 0.639861
Si Si4 0.128982 0.954683 0.066807
Si Si5 0.856124 0.551135 0.372054
Si Si6 0.753500 0.443361 0.092283
Si Si7 0.626195 0.950729 0.826128
Si Si8 0.259721 0.052419 0.901203
O O1 0.935559 0.250000 0.224207
O O2 0.916728 0.990318 0.132662
O O3 0.899406 0.990383 0.300178
O O4 0.000000 0.000000 0.239192
O O5 0.500000 0.500000 0.001424
O O6 0.563378 0.250000 0.996646
O O7 0.584282 0.494797 0.897162
O O8 0.601979 0.516643 0.061190
O O9 0.360514 0.250000 0.636389
O O10 0.300396 0.984528 0.633340
O O11 0.385986 0.992792 0.730547
O O12 0.129759 0.750000 0.065805
O O13 0.186773 0.014612 0.103813
O O14 0.125885 0.006841 0.967563
O O15 0.849518 0.750000 0.376333
O O16 0.797021 0.475583 0.354177
O O17 0.756334 0.250000 0.119372
O O18 0.743994 0.455398 0.990548
O O19 0.626619 0.750000 0.825132
O O20 0.686761 0.003315 0.852272
O O21 0.264829 0.250000 0.919741
#
# Coordination Sequence:
#
# PCOD9360181 Si02
#       8
#     8   8   8   8   8   8   8   8
#     4  11  23  40  60  85 115 152 196 240 289 346
#     4  11  23  41  62  83 113 153 195 240 289 343
#     4   9  19  35  59  86 114 151 192 234 288 345
#     4   8  18  35  59  84 112 151 193 234 284 342
#     4  10  21  39  60  85 117 156 197 240 289 345
#     4   9  16  33  59  83 114 152 191 234 287 349
#     4  10  21  37  59  88 119 153 194 237 288 347
#     4  10  19  32  56  88 122 153 188 238 291 345
#
# _framework density 20.531891000000002
#
# number of rings (size 3 to 8) (size 9 to 14) (size 15 to 20)
#    0.000    2.250    1.250    2.250    1.750    1.500 
#    0.000   10.625    0.000    0.000    0.000    0.000 
#    0.000    0.000    0.000    0.000    0.000    0.000 
#
# Total GULP energy -178610.522450 kJ/mol
# GULP energy per Si atom -5581.578827 kJ/mol
# Density = 2.048516 g / cm^3
# Si number density = 20.531891 Si / 1000 Ang^3
#
#
#
# Elastic Constant Matrix: (Units=GPa)
#
#
# Indices 1 2 3 4 5 6 
#
# 1 59.7301 -1.8235 3.7328 0.0000 0.0000 0.0000
# 2 -1.8235 19.4913 -0.6731 0.0000 0.0000 0.0000
# 3 3.7328 -0.6731 43.3523 0.0000 0.0000 0.0000
# 4 0.0000 0.0000 0.0000 14.6566 0.0000 0.0000
# 5 0.0000 0.0000 0.0000 0.0000 180.6885 0.0000
# 6 0.0000 0.0000 0.0000 0.0000 0.0000 22.6049
#
#
#
# Elastic Compliance Matrix: (Units=1/GPa)
#
#
# Indices 1 2 3 4 5 6 
#
# 1 0.016878 0.001530 -0.001429 0.000000 0.000000 0.000000
# 2 0.001530 0.051471 0.000667 0.000000 0.000000 0.000000
# 3 -0.001429 0.000667 0.023200 0.000000 0.000000 0.000000
# 4 0.000000 0.000000 0.000000 0.068229 0.000000 0.000000
# 5 0.000000 0.000000 0.000000 0.000000 0.005534 0.000000
# 6 0.000000 0.000000 0.000000 0.000000 0.000000 0.044238
#
#
# Mechanical properties :
#
#
# Convention : Reuss Voigt Hill
#
# Bulk Modulus (GPa) = 10.74292 13.89400 12.31846
# Shear Modulus (GPa) = 20.91672 51.67920 36.29796
#
# Velocity S-wave (km/s) = 3.19524 5.02243 4.20918
# Velocity P-wave (km/s) = 4.34240 6.35727 5.44386
#
# Compressibility (1/GPa) = 0.09308458
#
# Stress axis : x y z
#
# Youngs Moduli (GPa) = 59.24872 19.42842 43.10296
#
# Poissons Ratio (x) = -0.02972 0.06162
# Poissons Ratio (y) = -0.09063 -0.02877
# Poissons Ratio (z) = 0.08470 -0.01297
#
# Static dielectric constant tensor:
#      x y z
#    x -0.252550 0.000000 0.000000 
#    y 0.000000 1.751160 0.000000 
#    z 0.000000 0.000000 1.738970 
# 
# From -- ./inp_files/10675.got.cif
#   From: 2010.05.17/outbox.cif.g08.bks.cpg/sg39_6_cif.got.tgz:10675.got - 2010.06.03 18:22:40.
