data_PCOD9360392
_publ_section_title
;
Structure prediction by ZEFSAII (Michael W. Deem and Ramdas Pophale) SiO2 
 PCOD9360392
Probable space group: A B M 2
;
_chemical_formula_sum "Si O2"
_cell_formula_units_Z 48
_cell_length_a 14.447333
_cell_length_b 8.674034
_cell_length_c 21.068925
_cell_angle_alpha 90.000000
_cell_angle_beta 90.000000
_cell_angle_gamma 90.000000
_cell_volume 2640.287261
_symmetry_space_group_name_H-M "A B M 2"
_symmetry_group_IT_number 39
_symmetry_cell_setting 'orthorhombic'
loop_
_space_group_symop_operation_xyz
x,y,z
-x,-y,z
-x,1/2+y,z
x,1/2-y,z
x,1/2+y,1/2+z
-x,1/2-y,1/2+z
-x,y,1/2+z
x,-y,1/2+z
loop_
_atom_site_type_symbol
_atom_site_label
_atom_site_fract_x
_atom_site_fract_y
_atom_site_fract_z
Si Si1 0.397219 0.935697 0.897760
Si Si2 0.900047 0.433878 0.325011
Si Si3 0.603945 0.434592 0.647703
Si Si4 0.099703 0.064698 0.466685
Si Si5 0.708877 0.936065 0.525909
Si Si6 0.282700 0.936349 0.773262
O O1 0.400445 0.750000 0.897351
O O2 0.339317 0.983863 0.836097
O O3 0.500000 0.000000 0.895162
O O4 0.346896 0.983227 0.962612
O O5 0.903907 0.250000 0.328279
O O6 0.881351 0.500271 0.395890
O O7 0.818240 0.489873 0.279419
O O8 0.000000 0.500000 0.305827
O O9 0.500000 0.500000 0.647086
O O10 0.598045 0.250000 0.646900
O O11 0.661331 0.491278 0.586944
O O12 0.659351 0.481367 0.711231
O O13 0.095886 0.250000 0.462132
O O14 0.184158 0.022107 0.512840
O O15 0.000000 0.000000 0.486632
O O16 0.703920 0.750000 0.531027
O O17 0.273490 0.750000 0.773817
#
# Coordination Sequence:
#
# PCOD9360392 Si02
#       6
#     8   8   8   8   8   8
#     4  10  20  35  55  80 110 144 187 239 288 336
#     4  11  21  34  58  89 119 152 189 236 288 345
#     4  11  24  40  61  84 116 157 195 240 288 347
#     4  10  19  35  58  86 119 153 189 236 290 344
#     4  10  21  38  59  82 115 155 192 239 288 341
#     4  10  21  40  59  81 115 153 194 238 288 341
#
# _framework density 18.179839000000001
#
# number of rings (size 3 to 8) (size 9 to 14) (size 15 to 20)
#    0.000    1.667    1.667    4.500    0.000    5.333 
#    0.000    0.833    0.000    2.000    0.000    0.000 
#    0.000    0.000    0.000    0.000    0.000    0.000 
#
# Total GULP energy -134081.139959 kJ/mol
# GULP energy per Si atom -5586.714165 kJ/mol
# Density = 1.813846 g / cm^3
# Si number density = 18.179839 Si / 1000 Ang^3
#
#
#
# Elastic Constant Matrix: (Units=GPa)
#
#
# Indices 1 2 3 4 5 6 
#
# 1 193.3162 56.0430 95.7389 0.0000 0.0000 0.0000
# 2 56.0430 54.5959 43.4967 0.0000 0.0000 0.0000
# 3 95.7389 43.4967 144.0126 0.0000 0.0000 0.0000
# 4 0.0000 0.0000 0.0000 24.7424 0.0000 0.0000
# 5 0.0000 0.0000 0.0000 0.0000 31.7806 0.0000
# 6 0.0000 0.0000 0.0000 0.0000 0.0000 35.9546
#
#
#
# Elastic Compliance Matrix: (Units=1/GPa)
#
#
# Indices 1 2 3 4 5 6 
#
# 1 0.008935 -0.005846 -0.004174 0.000000 0.000000 0.000000
# 2 -0.005846 0.027946 -0.004554 0.000000 0.000000 0.000000
# 3 -0.004174 -0.004554 0.011094 0.000000 0.000000 0.000000
# 4 0.000000 0.000000 0.000000 0.040416 0.000000 0.000000
# 5 0.000000 0.000000 0.000000 0.000000 0.031466 0.000000
# 6 0.000000 0.000000 0.000000 0.000000 0.000000 0.027813
#
#
# Mechanical properties :
#
#
# Convention : Reuss Voigt Hill
#
# Bulk Modulus (GPa) = 53.11749 86.94242 70.02996
# Shear Modulus (GPa) = 27.30834 31.60526 29.45680
#
# Velocity S-wave (km/s) = 3.87993 4.17403 4.02966
# Velocity P-wave (km/s) = 7.02517 8.43548 7.76242
#
# Compressibility (1/GPa) = 0.01882619
#
# Stress axis : x y z
#
# Youngs Moduli (GPa) = 111.92019 35.78358 90.13664
#
# Poissons Ratio (x) = 0.20920 0.37624
# Poissons Ratio (y) = 0.65431 0.41049
# Poissons Ratio (z) = 0.46717 0.16296
#
# Static dielectric constant tensor:
#      x y z
#    x 1.615280 0.000000 0.000000 
#    y 0.000000 1.614430 0.000000 
#    z 0.000000 0.000000 1.603130 
# 
# From -- ./inp_files/12641.got.cif
#   From: 2010.05.17/outbox.cif.g08.bks.cpg/sg39_7_cif.got.tgz:12641.got - 2010.06.03 18:22:40.
