data_PCOD9360577
_publ_section_title
;
Structure prediction by ZEFSAII (Michael W. Deem and Ramdas Pophale) SiO2 
 PCOD9360577
Probable space group: A B M 2
;
_chemical_formula_sum "Si O2"
_cell_formula_units_Z 64
_cell_length_a 9.917368
_cell_length_b 13.936450
_cell_length_c 19.495329
_cell_angle_alpha 90.000000
_cell_angle_beta 90.000000
_cell_angle_gamma 90.000000
_cell_volume 2694.506021
_symmetry_space_group_name_H-M "A B M 2"
_symmetry_group_IT_number 39
_symmetry_cell_setting 'orthorhombic'
loop_
_space_group_symop_operation_xyz
x,y,z
-x,-y,z
-x,1/2+y,z
x,1/2-y,z
x,1/2+y,1/2+z
-x,1/2-y,1/2+z
-x,y,1/2+z
x,-y,1/2+z
loop_
_atom_site_type_symbol
_atom_site_label
_atom_site_fract_x
_atom_site_fract_y
_atom_site_fract_z
Si Si1 0.801803 0.484835 0.428270
Si Si2 0.042697 0.135907 0.662676
Si Si3 0.460751 0.862639 0.605419
Si Si4 0.559170 0.366069 0.250687
Si Si5 0.810097 0.482582 0.588088
Si Si6 0.853459 0.364295 0.308657
Si Si7 0.453862 0.644543 0.456430
Si Si8 0.320436 0.857226 0.841217
O O1 0.842974 0.496009 0.507259
O O2 0.885527 0.411429 0.381382
O O3 0.653711 0.435674 0.437537
O O4 0.787412 0.576615 0.378764
O O5 0.047486 0.250000 0.655434
O O6 0.052471 0.112437 0.743659
O O7 0.914622 0.089533 0.625568
O O8 0.166749 0.083658 0.625230
O O9 0.420705 0.750000 0.614095
O O10 0.550520 0.886650 0.670404
O O11 0.332208 0.931122 0.598783
O O12 0.524292 0.871079 0.529821
O O13 0.555423 0.250000 0.259860
O O14 0.699727 0.394396 0.286272
O O15 0.413689 0.399651 0.280320
O O16 0.852656 0.250000 0.315773
O O17 0.384284 0.750000 0.459911
O O18 0.565129 0.650703 0.399212
O O19 0.270316 0.750000 0.823019
#
# Coordination Sequence:
#
# PCOD9360577 Si02
#       8
#     8   8   8   8   8   8   8   8
#     4  11  21  35  61  89 121 164 207 258 315 372
#     4  10  23  45  68  89 120 160 207 271 323 367
#     4   9  18  33  58  89 123 164 203 249 308 371
#     4   9  18  33  54  88 131 167 201 240 298 376
#     4  10  23  42  64  93 120 156 216 264 314 378
#     4  10  21  38  64  96 126 165 211 256 315 381
#     4   9  17  31  51  82 122 163 206 246 295 369
#     4  10  20  33  52  84 131 173 203 245 301 371
#
# _framework density 23.752036
#
# number of rings (size 3 to 8) (size 9 to 14) (size 15 to 20)
#    0.000    2.250    1.250    1.125    1.750    3.000 
#    0.000    6.250    0.000    0.000    0.000    0.000 
#    0.000    0.000    0.000    0.000    0.000    0.000 
#
# Total GULP energy -178837.075329 kJ/mol
# GULP energy per Si atom -5588.658604 kJ/mol
# Density = 2.369798 g / cm^3
# Si number density = 23.752036 Si / 1000 Ang^3
#
#
#
# Elastic Constant Matrix: (Units=GPa)
#
#
# Indices 1 2 3 4 5 6 
#
# 1 45.6929 11.5425 6.9066 0.0000 0.0000 0.0000
# 2 11.5425 105.6730 11.8052 0.0000 0.0000 0.0000
# 3 6.9066 11.8052 140.5563 0.0000 0.0000 0.0000
# 4 0.0000 0.0000 0.0000 25.1113 0.0000 0.0000
# 5 0.0000 0.0000 0.0000 0.0000 28.7646 0.0000
# 6 0.0000 0.0000 0.0000 0.0000 0.0000 22.1828
#
#
#
# Elastic Compliance Matrix: (Units=1/GPa)
#
#
# Indices 1 2 3 4 5 6 
#
# 1 0.022622 -0.002369 -0.000913 0.000000 0.000000 0.000000
# 2 -0.002369 0.009801 -0.000707 0.000000 0.000000 0.000000
# 3 -0.000913 -0.000707 0.007219 0.000000 0.000000 0.000000
# 4 0.000000 0.000000 0.000000 0.039823 0.000000 0.000000
# 5 0.000000 0.000000 0.000000 0.000000 0.034765 0.000000
# 6 0.000000 0.000000 0.000000 0.000000 0.000000 0.045080
#
#
# Mechanical properties :
#
#
# Convention : Reuss Voigt Hill
#
# Bulk Modulus (GPa) = 31.58102 39.15897 35.37000
# Shear Modulus (GPa) = 28.11509 32.65627 30.38568
#
# Velocity S-wave (km/s) = 3.44421 3.71196 3.58059
# Velocity P-wave (km/s) = 5.39832 5.90711 5.65843
#
# Compressibility (1/GPa) = 0.03166458
#
# Stress axis : x y z
#
# Youngs Moduli (GPa) = 44.20557 102.03173 138.52736
#
# Poissons Ratio (x) = 0.24171 0.12642
# Poissons Ratio (y) = 0.10472 0.09791
# Poissons Ratio (z) = 0.04034 0.07211
#
# Static dielectric constant tensor:
#      x y z
#    x 1.958880 0.000000 0.000000 
#    y 0.000000 1.972390 0.000000 
#    z 0.000000 0.000000 1.888590 
# 
# From -- ./inp_files/12346.got.cif
#   From: 2010.05.17/outbox.cif.g08.bks.cpg/sg39_7_cif.got.tgz:12346.got - 2010.06.03 18:22:40.
