data_PCOD9360614
_publ_section_title
;
Structure prediction by ZEFSAII (Michael W. Deem and Ramdas Pophale) SiO2 
 PCOD9360614
Probable space group: A B M 2
;
_chemical_formula_sum "Si O2"
_cell_formula_units_Z 60
_cell_length_a 30.936087
_cell_length_b 11.350315
_cell_length_c 8.718711
_cell_angle_alpha 90.000000
_cell_angle_beta 90.000000
_cell_angle_gamma 90.000000
_cell_volume 3061.438766
_symmetry_space_group_name_H-M "A B M 2"
_symmetry_group_IT_number 39
_symmetry_cell_setting 'orthorhombic'
loop_
_space_group_symop_operation_xyz
x,y,z
-x,-y,z
-x,1/2+y,z
x,1/2-y,z
x,1/2+y,1/2+z
-x,1/2-y,1/2+z
-x,y,1/2+z
x,-y,1/2+z
loop_
_atom_site_type_symbol
_atom_site_label
_atom_site_fract_x
_atom_site_fract_y
_atom_site_fract_z
Si Si1 0.967806 0.386670 0.253790
Si Si2 0.500000 0.500000 0.353475
Si Si3 0.556748 0.613486 0.609298
Si Si4 0.762323 0.615957 0.165847
Si Si5 0.145160 0.386040 0.294695
Si Si6 0.294044 0.958691 0.945133
Si Si7 0.350820 0.615316 0.224054
Si Si8 0.910657 0.476927 0.527360
O O1 0.983775 0.250000 0.245511
O O2 0.939975 0.403825 0.409094
O O3 0.937864 0.417713 0.107001
O O4 0.000000 0.500000 0.255687
O O5 0.537644 0.548440 0.462222
O O6 0.478712 0.596500 0.242651
O O7 0.562766 0.750000 0.572101
O O8 0.602647 0.567240 0.670497
O O9 0.766898 0.750000 0.110839
O O10 0.809123 0.574784 0.224418
O O11 0.730336 0.611833 0.312086
O O12 0.741411 0.536638 0.034525
O O13 0.149564 0.250000 0.341845
O O14 0.128531 0.466402 0.432271
O O15 0.108761 0.399166 0.163593
O O16 0.328572 0.040547 0.857186
O O17 0.319373 0.888738 0.076484
O O18 0.356588 0.750000 0.275290
#
# Coordination Sequence:
#
# PCOD9360614 Si02
#       8
#     8   4   8   8   8   8   8   8
#     4  11  24  40  60  86 115 148 187 229 275 327
#     4  10  20  34  52  74 100 130 168 214 260 306
#     4  10  20  34  52  74 100 132 170 211 258 310
#     4  10  20  34  54  79 106 138 176 216 260 310
#     4  10  20  36  57  80 108 142 178 219 266 315
#     4  10  20  34  52  76 106 136 172 214 258 308
#     4  10  20  34  52  74 102 136 171 210 258 310
#     4  10  22  38  58  82 112 144 182 224 270 320
#
# _framework density 19.598628000000001
#
# number of rings (size 3 to 8) (size 9 to 14) (size 15 to 20)
#    0.000    1.867    0.000    4.000    0.000    4.267 
#    0.000    0.000    0.000   25.600    0.000    0.000 
#    0.000    0.000    0.000    0.000    0.000    0.000 
#
# Total GULP energy -167425.654150 kJ/mol
# GULP energy per Si atom -5580.855138 kJ/mol
# Density = 1.955402 g / cm^3
# Si number density = 19.598628 Si / 1000 Ang^3
#
#
#
# Elastic Constant Matrix: (Units=GPa)
#
#
# Indices 1 2 3 4 5 6 
#
# 1 61.5313 9.6013 -9.0522 0.0000 0.0000 0.0000
# 2 9.6013 60.7735 5.7806 0.0000 0.0000 0.0000
# 3 -9.0522 5.7806 53.6698 0.0000 0.0000 0.0000
# 4 0.0000 0.0000 0.0000 -0.2538 0.0000 0.0000
# 5 0.0000 0.0000 0.0000 0.0000 28.2727 0.0000
# 6 0.0000 0.0000 0.0000 0.0000 0.0000 19.3552
#
#
#
# Elastic Compliance Matrix: (Units=1/GPa)
#
#
# Indices 1 2 3 4 5 6 
#
# 1 0.017198 -0.003024 0.003226 0.000000 0.000000 0.000000
# 2 -0.003024 0.017157 -0.002358 0.000000 0.000000 0.000000
# 3 0.003226 -0.002358 0.019431 0.000000 0.000000 0.000000
# 4 0.000000 0.000000 0.000000 -3.940254 0.000000 0.000000
# 5 0.000000 0.000000 0.000000 0.000000 0.035370 0.000000
# 6 0.000000 0.000000 0.000000 0.000000 0.000000 0.051666
#
#
# Mechanical properties :
#
#
# Convention : Reuss Voigt Hill
#
# Bulk Modulus (GPa) = 20.21235 20.95934 20.58585
# Shear Modulus (GPa) = -1.32323 20.78447 9.73062
#
# Velocity S-wave (km/s) = -0.82258 3.26007 2.23063
# Velocity P-wave (km/s) = 3.07138 4.98882 4.14256
#
# Compressibility (1/GPa) = 0.04947470
#
# Stress axis : x y z
#
# Youngs Moduli (GPa) = 58.14486 58.28669 51.46525
#
# Poissons Ratio (x) = 0.17626 -0.16605
# Poissons Ratio (y) = 0.17583 0.12135
# Poissons Ratio (z) = -0.18760 0.13743
#
# Static dielectric constant tensor:
#      x y z
#    x 1.701280 0.000000 0.000000 
#    y 0.000000 1.666380 0.000000 
#    z 0.000000 0.000000 1.660650 
# 
# From -- ./inp_files/4117.got.cif
#   From: 2010.05.17/outbox.cif.g08.bks.cpg/sg39_3_cif.got.tgz:4117.got - 2010.06.03 18:22:40.
