data_PCOD9360431
_publ_section_title
;
Structure prediction by ZEFSAII (Michael W. Deem and Ramdas Pophale) SiO2 
 PCOD9360431
Probable space group: A B M 2
;
_chemical_formula_sum "Si O2"
_cell_formula_units_Z 64
_cell_length_a 11.602090
_cell_length_b 15.478214
_cell_length_c 16.590870
_cell_angle_alpha 90.000000
_cell_angle_beta 90.000000
_cell_angle_gamma 90.000000
_cell_volume 2979.382327
_symmetry_space_group_name_H-M "A B M 2"
_symmetry_group_IT_number 39
_symmetry_cell_setting 'orthorhombic'
loop_
_space_group_symop_operation_xyz
x,y,z
-x,-y,z
-x,1/2+y,z
x,1/2-y,z
x,1/2+y,1/2+z
-x,1/2-y,1/2+z
-x,y,1/2+z
x,-y,1/2+z
loop_
_atom_site_type_symbol
_atom_site_label
_atom_site_fract_x
_atom_site_fract_y
_atom_site_fract_z
Si Si1 0.636791 0.995793 0.654360
Si Si2 0.039052 0.350275 0.570296
Si Si3 0.234564 0.155888 0.949694
Si Si4 0.811782 0.650423 0.421777
Si Si5 0.027602 0.399086 0.853651
Si Si6 0.788752 0.347681 0.217935
Si Si7 0.365397 0.988297 0.958957
Si Si8 0.203766 0.651346 0.635846
O O1 0.689112 0.916745 0.704554
O O2 0.651909 0.982155 0.556752
O O3 0.500000 0.000000 0.668221
O O4 0.712139 0.081368 0.676204
O O5 0.007881 0.250000 0.550862
O O6 0.107007 0.388715 0.493542
O O7 0.138890 0.347912 0.636014
O O8 0.924967 0.385418 0.615928
O O9 0.263584 0.250000 0.915952
O O10 0.101774 0.134621 0.930216
O O11 0.305379 0.073437 0.922748
O O12 0.252802 0.160145 0.045087
O O13 0.785165 0.750000 0.439539
O O14 0.698397 0.593106 0.419184
O O15 0.902567 0.645451 0.348377
O O16 0.117223 0.375034 0.784128
O O17 0.000000 0.500000 0.855693
O O18 0.747893 0.250000 0.232550
O O19 0.500000 0.000000 0.945085
O O20 0.198258 0.750000 0.669445
#
# Coordination Sequence:
#
# PCOD9360431 Si02
#       8
#     8   8   8   8   8   8   8   8
#     4  10  22  38  60  89 124 170 217 255 306 377
#     4   9  18  33  58  90 120 154 196 246 315 383
#     4  10  19  36  58  83 117 159 203 250 310 372
#     4  11  20  37  64  94 125 161 206 259 319 381
#     4  12  24  38  61  92 124 161 204 263 327 382
#     4  11  24  40  59  90 129 167 207 258 320 386
#     4  10  21  37  58  94 130 162 209 258 306 369
#     4   9  18  33  58  89 119 152 199 261 314 368
#
# _framework density 21.480962000000002
#
# number of rings (size 3 to 8) (size 9 to 14) (size 15 to 20)
#    0.000    1.750    3.750    1.125    1.750    1.000 
#    0.000    3.125    0.000    0.000    0.000    0.000 
#    0.000    0.000    0.000    0.000    0.000    0.000 
#
# Total GULP energy -178475.828959 kJ/mol
# GULP energy per Si atom -5577.369655 kJ/mol
# Density = 2.143207 g / cm^3
# Si number density = 21.480962 Si / 1000 Ang^3
#
#
#
# Elastic Constant Matrix: (Units=GPa)
#
#
# Indices 1 2 3 4 5 6 
#
# 1 152.5140 79.3061 19.9672 0.0000 0.0000 0.0000
# 2 79.3061 160.8150 26.1744 0.0000 0.0000 0.0000
# 3 19.9672 26.1744 29.7860 0.0000 0.0000 0.0000
# 4 0.0000 0.0000 0.0000 5.4892 0.0000 0.0000
# 5 0.0000 0.0000 0.0000 0.0000 22.8753 0.0000
# 6 0.0000 0.0000 0.0000 0.0000 0.0000 9.6712
#
#
#
# Elastic Compliance Matrix: (Units=1/GPa)
#
#
# Indices 1 2 3 4 5 6 
#
# 1 0.008972 -0.004021 -0.002481 0.000000 0.000000 0.000000
# 2 -0.004021 0.009058 -0.005264 0.000000 0.000000 0.000000
# 3 -0.002481 -0.005264 0.039862 0.000000 0.000000 0.000000
# 4 0.000000 0.000000 0.000000 0.182175 0.000000 0.000000
# 5 0.000000 0.000000 0.000000 0.000000 0.043715 0.000000
# 6 0.000000 0.000000 0.000000 0.000000 0.000000 0.103400
#
#
# Mechanical properties :
#
#
# Convention : Reuss Voigt Hill
#
# Bulk Modulus (GPa) = 29.10402 66.00117 47.55259
# Shear Modulus (GPa) = 11.84359 22.11830 16.98094
#
# Velocity S-wave (km/s) = 2.35064 3.21233 2.81465
# Velocity P-wave (km/s) = 4.57662 6.67464 5.72260
#
# Compressibility (1/GPa) = 0.03435952
#
# Stress axis : x y z
#
# Youngs Moduli (GPa) = 111.45185 110.39887 25.08644
#
# Poissons Ratio (x) = 0.44390 0.06225
# Poissons Ratio (y) = 0.44814 0.13206
# Poissons Ratio (z) = 0.27655 0.58117
#
# Static dielectric constant tensor:
#      x y z
#    x 1.762210 0.000000 0.000000 
#    y 0.000000 1.797900 0.000000 
#    z 0.000000 0.000000 1.963690 
# 
# From -- ./inp_files/12365.got.cif
#   From: 2010.05.17/outbox.cif.g08.bks.cpg/sg39_7_cif.got.tgz:12365.got - 2010.06.03 18:22:40.
