data_PCOD9360656
_publ_section_title
;
Structure prediction by ZEFSAII (Michael W. Deem and Ramdas Pophale) SiO2 
 PCOD9360656
Probable space group: A B M 2
;
_chemical_formula_sum "Si O2"
_cell_formula_units_Z 64
_cell_length_a 14.457951
_cell_length_b 8.053078
_cell_length_c 27.144853
_cell_angle_alpha 90.000000
_cell_angle_beta 90.000000
_cell_angle_gamma 90.000000
_cell_volume 3160.502573
_symmetry_space_group_name_H-M "A B M 2"
_symmetry_group_IT_number 39
_symmetry_cell_setting 'orthorhombic'
loop_
_space_group_symop_operation_xyz
x,y,z
-x,-y,z
-x,1/2+y,z
x,1/2-y,z
x,1/2+y,1/2+z
-x,1/2-y,1/2+z
-x,y,1/2+z
x,-y,1/2+z
loop_
_atom_site_type_symbol
_atom_site_label
_atom_site_fract_x
_atom_site_fract_y
_atom_site_fract_z
Si Si1 0.289167 0.953265 0.743810
Si Si2 0.393067 0.548928 0.645553
Si Si3 0.107902 0.049876 0.396943
Si Si4 0.392679 0.551515 0.950835
Si Si5 0.105950 0.947664 0.004705
Si Si6 0.106080 0.950107 0.788585
Si Si7 0.712881 0.946529 0.049186
Si Si8 0.392634 0.049503 0.342535
O O1 0.291537 0.750000 0.743431
O O2 0.341343 0.010141 0.694950
O O3 0.182092 0.004409 0.749087
O O4 0.340395 0.009111 0.793790
O O5 0.500000 0.500000 0.645605
O O6 0.389067 0.750000 0.645525
O O7 0.341425 0.485215 0.596551
O O8 0.119126 0.250000 0.397076
O O9 0.139599 0.987946 0.450522
O O10 0.139863 0.991552 0.343147
O O11 0.000000 0.000000 0.396808
O O12 0.500000 0.500000 0.955158
O O13 0.387040 0.750000 0.950202
O O14 0.358681 0.491834 0.896717
O O15 0.337911 0.493391 0.998507
O O16 0.106589 0.750000 0.001986
O O17 0.180594 0.000946 0.044606
O O18 0.000000 0.000000 0.013073
O O19 0.106973 0.750000 0.789995
O O20 0.000000 0.000000 0.780389
O O21 0.710695 0.750000 0.053270
O O22 0.385667 0.250000 0.342693
O O23 0.500000 0.000000 0.339102
#
# Coordination Sequence:
#
# PCOD9360656 Si02
#       8
#     8   8   8   8   8   8   8   8
#     4   9  18  34  57  80 105 142 181 221 275 332
#     4  10  22  40  61  83 107 140 184 233 282 332
#     4   8  15  27  47  73 103 139 176 214 258 312
#     4  10  20  34  54  80 111 144 180 224 281 344
#     4  10  20  35  56  82 114 149 189 231 278 329
#     4   9  17  31  52  76 108 142 178 217 263 318
#     4  11  23  37  55  80 111 147 191 233 276 330
#     4   9  18  32  53  78 107 139 173 217 274 337
#
# _framework density 20.249942999999998
#
# number of rings (size 3 to 8) (size 9 to 14) (size 15 to 20)
#    0.000    2.500    0.000    1.875    1.750    3.000 
#    0.000    1.875    0.000    1.500    0.000    0.000 
#    0.000    0.000    0.000    0.000    0.000    0.000 
#
# Total GULP energy -178485.622494 kJ/mol
# GULP energy per Si atom -5577.675703 kJ/mol
# Density = 2.020385 g / cm^3
# Si number density = 20.249943 Si / 1000 Ang^3
#
#
#
# Elastic Constant Matrix: (Units=GPa)
#
#
# Indices 1 2 3 4 5 6 
#
# 1 140.9305 9.1007 112.1607 0.0000 0.0000 0.0000
# 2 9.1007 18.5356 18.1193 0.0000 0.0000 0.0000
# 3 112.1607 18.1193 168.0975 0.0000 0.0000 0.0000
# 4 0.0000 0.0000 0.0000 14.2256 0.0000 0.0000
# 5 0.0000 0.0000 0.0000 0.0000 38.4132 0.0000
# 6 0.0000 0.0000 0.0000 0.0000 0.0000 24.4933
#
#
#
# Elastic Compliance Matrix: (Units=1/GPa)
#
#
# Indices 1 2 3 4 5 6 
#
# 1 0.015255 0.002750 -0.010475 0.000000 0.000000 0.000000
# 2 0.002750 0.060800 -0.008388 0.000000 0.000000 0.000000
# 3 -0.010475 -0.008388 0.013842 0.000000 0.000000 0.000000
# 4 0.000000 0.000000 0.000000 0.070296 0.000000 0.000000
# 5 0.000000 0.000000 0.000000 0.000000 0.026033 0.000000
# 6 0.000000 0.000000 0.000000 0.000000 0.000000 0.040827
#
#
# Mechanical properties :
#
#
# Convention : Reuss Voigt Hill
#
# Bulk Modulus (GPa) = 17.33995 67.36945 42.35470
# Shear Modulus (GPa) = 17.95310 27.97195 22.96252
#
# Velocity S-wave (km/s) = 2.98077 3.72066 3.37108
# Velocity P-wave (km/s) = 4.51976 7.19715 6.00946
#
# Compressibility (1/GPa) = 0.05767029
#
# Stress axis : x y z
#
# Youngs Moduli (GPa) = 65.55397 16.44727 72.24225
#
# Poissons Ratio (x) = -0.04523 0.75673
# Poissons Ratio (y) = -0.18026 0.60600
# Poissons Ratio (z) = 0.68667 0.13797
#
# Static dielectric constant tensor:
#      x y z
#    x 1.710180 0.000000 0.000000 
#    y 0.000000 1.747550 0.000000 
#    z 0.000000 0.000000 1.748680 
# 
# From -- ./inp_files/16268.got.cif
#   From: 2010.05.17/outbox.cif.g08.bks.cpg/sg39_9_cif.got.tgz:16268.got - 2010.06.03 18:22:40.
