data_PCOD9360174
_publ_section_title
;
Structure prediction by ZEFSAII (Michael W. Deem and Ramdas Pophale) SiO2 
 PCOD9360174
Probable space group: A B M 2
;
_chemical_formula_sum "Si O2"
_cell_formula_units_Z 64
_cell_length_a 14.849150
_cell_length_b 8.788916
_cell_length_c 25.074269
_cell_angle_alpha 90.000000
_cell_angle_beta 90.000000
_cell_angle_gamma 90.000000
_cell_volume 3272.390994
_symmetry_space_group_name_H-M "A B M 2"
_symmetry_group_IT_number 39
_symmetry_cell_setting 'orthorhombic'
loop_
_space_group_symop_operation_xyz
x,y,z
-x,-y,z
-x,1/2+y,z
x,1/2-y,z
x,1/2+y,1/2+z
-x,1/2-y,1/2+z
-x,y,1/2+z
x,-y,1/2+z
loop_
_atom_site_type_symbol
_atom_site_label
_atom_site_fract_x
_atom_site_fract_y
_atom_site_fract_z
Si Si1 0.786603 0.932654 0.619110
Si Si2 0.404366 0.068915 0.853983
Si Si3 0.405997 0.072530 0.092418
Si Si4 0.341926 0.428009 0.973815
Si Si5 0.157353 0.572028 0.002947
Si Si6 0.899118 0.933363 0.724234
Si Si7 0.908228 0.571414 0.902152
Si Si8 0.221252 0.431323 0.319138
O O1 0.776676 0.750000 0.618726
O O2 0.839868 0.973293 0.564834
O O3 0.845308 0.975779 0.670248
O O4 0.686159 0.001286 0.615570
O O5 0.402793 0.250000 0.846445
O O6 0.388802 0.039902 0.917522
O O7 0.500000 0.000000 0.838546
O O8 0.322465 0.994056 0.821750
O O9 0.406068 0.250000 0.105288
O O10 0.500000 0.000000 0.110500
O O11 0.399794 0.057993 0.027734
O O12 0.310123 0.250000 0.971647
O O13 0.259122 0.540923 0.983186
O O14 0.133806 0.750000 0.997092
O O15 0.098497 0.468020 0.964494
O O16 0.904056 0.750000 0.727804
O O17 0.839126 0.997456 0.772447
O O18 0.000000 0.000000 0.724993
O O19 0.904768 0.750000 0.892662
O O20 0.826172 0.488831 0.873181
O O21 0.000000 0.500000 0.880297
O O22 0.220440 0.250000 0.316108
#
# Coordination Sequence:
#
# PCOD9360174 Si02
#       8
#     8   8   8   8   8   8   8   8
#     4   9  21  40  62  89 123 160 202 250 304 361
#     4  11  22  37  59  89 126 166 208 250 302 361
#     4  10  19  32  54  86 124 166 209 251 299 356
#     4   9  18  32  52  81 120 166 208 246 294 353
#     4  10  19  34  57  87 123 162 200 245 301 359
#     4  11  24  45  70  94 120 155 202 256 311 369
#     4  12  24  39  59  87 122 161 202 247 305 370
#     4  12  25  43  65  91 122 158 203 255 310 365
#
# _framework density 19.557566000000001
#
# number of rings (size 3 to 8) (size 9 to 14) (size 15 to 20)
#    0.000    1.500    1.250    4.500    0.000    3.000 
#    0.000    1.875    0.000    3.000    0.000    0.000 
#    0.000    0.000    0.000    0.000    0.000    0.000 
#
# Total GULP energy -178775.158184 kJ/mol
# GULP energy per Si atom -5586.723693 kJ/mol
# Density = 1.951305 g / cm^3
# Si number density = 19.557566 Si / 1000 Ang^3
#
#
#
# Elastic Constant Matrix: (Units=GPa)
#
#
# Indices 1 2 3 4 5 6 
#
# 1 142.3110 56.5579 59.4480 0.0000 0.0000 0.0000
# 2 56.5579 86.7512 44.4664 0.0000 0.0000 0.0000
# 3 59.4480 44.4664 106.8520 0.0000 0.0000 0.0000
# 4 0.0000 0.0000 0.0000 46.0856 0.0000 0.0000
# 5 0.0000 0.0000 0.0000 0.0000 19.1959 0.0000
# 6 0.0000 0.0000 0.0000 0.0000 0.0000 35.1369
#
#
#
# Elastic Compliance Matrix: (Units=1/GPa)
#
#
# Indices 1 2 3 4 5 6 
#
# 1 0.010593 -0.004939 -0.003838 0.000000 0.000000 0.000000
# 2 -0.004939 0.016955 -0.004308 0.000000 0.000000 0.000000
# 3 -0.003838 -0.004308 0.013287 0.000000 0.000000 0.000000
# 4 0.000000 0.000000 0.000000 0.021699 0.000000 0.000000
# 5 0.000000 0.000000 0.000000 0.000000 0.052094 0.000000
# 6 0.000000 0.000000 0.000000 0.000000 0.000000 0.028460
#
#
# Mechanical properties :
#
#
# Convention : Reuss Voigt Hill
#
# Bulk Modulus (GPa) = 68.18997 72.98431 70.58714
# Shear Modulus (GPa) = 28.71129 31.77982 30.24555
#
# Velocity S-wave (km/s) = 3.83566 4.03542 3.93681
# Velocity P-wave (km/s) = 7.38636 7.68840 7.53890
#
# Compressibility (1/GPa) = 0.01466491
#
# Stress axis : x y z
#
# Youngs Moduli (GPa) = 94.40180 58.97843 75.26127
#
# Poissons Ratio (x) = 0.29128 0.28887
# Poissons Ratio (y) = 0.46623 0.32424
# Poissons Ratio (z) = 0.36234 0.25409
#
# Static dielectric constant tensor:
#      x y z
#    x 1.668770 0.000000 0.000000 
#    y 0.000000 1.652740 0.000000 
#    z 0.000000 0.000000 1.708340 
# 
# From -- ./inp_files/16227.got.cif
#   From: 2010.05.17/outbox.cif.g08.bks.cpg/sg39_9_cif.got.tgz:16227.got - 2010.06.03 18:22:40.
