data_PCOD9360169
_publ_section_title
;
Structure prediction by ZEFSAII (Michael W. Deem and Ramdas Pophale) SiO2 
 PCOD9360169
Probable space group: A B M 2
;
_chemical_formula_sum "Si O2"
_cell_formula_units_Z 56
_cell_length_a 15.600721
_cell_length_b 8.862392
_cell_length_c 20.332722
_cell_angle_alpha 90.000000
_cell_angle_beta 90.000000
_cell_angle_gamma 90.000000
_cell_volume 2811.196145
_symmetry_space_group_name_H-M "A B M 2"
_symmetry_group_IT_number 39
_symmetry_cell_setting 'orthorhombic'
loop_
_space_group_symop_operation_xyz
x,y,z
-x,-y,z
-x,1/2+y,z
x,1/2-y,z
x,1/2+y,1/2+z
-x,1/2-y,1/2+z
-x,y,1/2+z
x,-y,1/2+z
loop_
_atom_site_type_symbol
_atom_site_label
_atom_site_fract_x
_atom_site_fract_y
_atom_site_fract_z
Si Si1 0.230223 0.069989 0.451940
Si Si2 0.644247 0.074361 0.635997
Si Si3 0.823933 0.929690 0.596249
Si Si4 0.413978 0.069956 0.769815
Si Si5 0.223379 0.570186 0.315683
Si Si6 0.089499 0.429243 0.215162
Si Si7 0.588556 0.075095 0.487482
O O1 0.230249 0.250000 0.443356
O O2 0.178274 0.034065 0.518726
O O3 0.196504 0.988443 0.387165
O O4 0.327311 0.012414 0.463593
O O5 0.663830 0.250000 0.650593
O O6 0.593515 0.071041 0.567222
O O7 0.731413 0.982778 0.623201
O O8 0.596648 0.999920 0.697050
O O9 0.832731 0.750000 0.604415
O O10 0.892077 0.014841 0.641022
O O11 0.422534 0.250000 0.766063
O O12 0.324310 0.034146 0.805631
O O13 0.500000 0.000000 0.800070
O O14 0.213919 0.750000 0.310021
O O15 0.166445 0.491179 0.260242
O O16 0.086544 0.250000 0.217900
O O17 0.000000 0.500000 0.237981
O O18 0.593694 0.250000 0.466475
O O19 0.500000 0.000000 0.466302
#
# Coordination Sequence:
#
# PCOD9360169 Si02
#       7
#     8   8   8   8   8   8   8
#     4  10  22  39  62  88 121 166 209 255 314 374
#     4  10  19  32  54  83 117 158 204 257 315 372
#     4  10  20  38  63  93 126 159 202 254 310 371
#     4  11  23  36  55  83 121 166 213 264 315 371
#     4  11  24  43  64  91 130 171 213 263 315 375
#     4  12  25  43  71 101 130 164 206 256 315 379
#     4  10  20  33  51  79 115 158 210 263 316 370
#
# _framework density 19.920345000000001
#
# number of rings (size 3 to 8) (size 9 to 14) (size 15 to 20)
#    0.000    1.429    1.429    4.286    0.000    6.857 
#    0.000    2.143    0.000    3.429    0.000    0.000 
#    0.000    0.000    0.000    0.000    0.000    0.000 
#
# Total GULP energy -156559.260635 kJ/mol
# GULP energy per Si atom -5591.402166 kJ/mol
# Density = 1.987501 g / cm^3
# Si number density = 19.920345 Si / 1000 Ang^3
#
#
#
# Elastic Constant Matrix: (Units=GPa)
#
#
# Indices 1 2 3 4 5 6 
#
# 1 71.5894 48.6965 33.8079 0.0000 0.0000 0.0000
# 2 48.6965 113.7317 55.2220 0.0000 0.0000 0.0000
# 3 33.8079 55.2220 104.8738 0.0000 0.0000 0.0000
# 4 0.0000 0.0000 0.0000 11.5715 0.0000 0.0000
# 5 0.0000 0.0000 0.0000 0.0000 -4.2344 0.0000
# 6 0.0000 0.0000 0.0000 0.0000 0.0000 31.4376
#
#
#
# Elastic Compliance Matrix: (Units=1/GPa)
#
#
# Indices 1 2 3 4 5 6 
#
# 1 0.020236 -0.007385 -0.002635 0.000000 0.000000 0.000000
# 2 -0.007385 0.014508 -0.005259 0.000000 0.000000 0.000000
# 3 -0.002635 -0.005259 0.013154 0.000000 0.000000 0.000000
# 4 0.000000 0.000000 0.000000 0.086419 0.000000 0.000000
# 5 0.000000 0.000000 0.000000 0.000000 -0.236160 0.000000
# 6 0.000000 0.000000 0.000000 0.000000 0.000000 0.031809
#
#
# Mechanical properties :
#
#
# Convention : Reuss Voigt Hill
#
# Bulk Modulus (GPa) = 57.66751 62.84974 60.25863
# Shear Modulus (GPa) = -148.38695 17.91950 -65.23373
#
# Velocity S-wave (km/s) = -8.64013 3.00252 -5.72873
# Velocity P-wave (km/s) = 8.39785 6.60599 3.66638
#
# Compressibility (1/GPa) = 0.01734079
#
# Stress axis : x y z
#
# Youngs Moduli (GPa) = 49.41579 68.92722 76.02511
#
# Poissons Ratio (x) = 0.50905 0.20031
# Poissons Ratio (y) = 0.36495 0.39978
# Poissons Ratio (z) = 0.13020 0.36246
#
# Static dielectric constant tensor:
#      x y z
#    x 1.702170 0.000000 0.000000 
#    y 0.000000 1.662400 0.000000 
#    z 0.000000 0.000000 1.717130 
# 
# From -- ./inp_files/14773.got.cif
#   From: 2010.05.17/outbox.cif.g08.bks.cpg/sg39_8_cif.got.tgz:14773.got - 2010.06.03 18:22:40.
