data_PCOD9360443
_publ_section_title
;
Structure prediction by ZEFSAII (Michael W. Deem and Ramdas Pophale) SiO2 
 PCOD9360443
Probable space group: A B M 2
;
_chemical_formula_sum "Si O2"
_cell_formula_units_Z 48
_cell_length_a 19.618094
_cell_length_b 8.010693
_cell_length_c 15.630653
_cell_angle_alpha 90.000000
_cell_angle_beta 90.000000
_cell_angle_gamma 90.000000
_cell_volume 2456.427899
_symmetry_space_group_name_H-M "A B M 2"
_symmetry_group_IT_number 39
_symmetry_cell_setting 'orthorhombic'
loop_
_space_group_symop_operation_xyz
x,y,z
-x,-y,z
-x,1/2+y,z
x,1/2-y,z
x,1/2+y,1/2+z
-x,1/2-y,1/2+z
-x,y,1/2+z
x,-y,1/2+z
loop_
_atom_site_type_symbol
_atom_site_label
_atom_site_fract_x
_atom_site_fract_y
_atom_site_fract_z
Si Si1 0.327355 0.451127 0.205440
Si Si2 0.175578 0.545600 0.760696
Si Si3 0.825695 0.549026 0.454898
Si Si4 0.421471 0.451489 0.359725
Si Si5 0.675780 0.951119 0.511937
Si Si6 0.921599 0.948777 0.108850
O O1 0.326615 0.250000 0.209090
O O2 0.251489 0.507333 0.232641
O O3 0.382563 0.511232 0.274346
O O4 0.341619 0.501764 0.108534
O O5 0.175067 0.750000 0.760411
O O6 0.161679 0.490863 0.857847
O O7 0.121054 0.486488 0.690746
O O8 0.822024 0.750000 0.451800
O O9 0.751782 0.487614 0.487737
O O10 0.883331 0.502764 0.522571
O O11 0.500000 0.500000 0.362153
O O12 0.418046 0.250000 0.359666
O O13 0.378832 0.511137 0.442223
O O14 0.677531 0.750000 0.506706
O O15 0.918541 0.750000 0.112362
O O16 0.000000 0.000000 0.110609
#
# Coordination Sequence:
#
# PCOD9360443 Si02
#       6
#     8   8   8   8   8   8
#     4  10  19  36  60  84 111 148 190 233 280 333
#     4   9  18  35  60  84 110 146 187 229 278 333
#     4  10  19  36  61  86 112 146 188 234 281 334
#     4  10  22  39  58  82 117 154 188 232 288 340
#     4  10  20  35  58  86 114 147 188 234 283 335
#     4  11  23  39  58  84 117 150 186 231 284 337
#
# _framework density 19.540569999999999
#
# number of rings (size 3 to 8) (size 9 to 14) (size 15 to 20)
#    0.000    2.000    3.333    0.500    0.000    2.667 
#    0.000    7.500    0.000    0.000    0.000    0.000 
#    0.000    0.000    0.000    0.000    0.000    0.000 
#
# Total GULP energy -134028.600721 kJ/mol
# GULP energy per Si atom -5584.525030 kJ/mol
# Density = 1.949609 g / cm^3
# Si number density = 19.540570 Si / 1000 Ang^3
#
#
#
# Elastic Constant Matrix: (Units=GPa)
#
#
# Indices 1 2 3 4 5 6 
#
# 1 184.0981 10.6709 116.3921 0.0000 0.0000 0.0000
# 2 10.6709 14.0131 13.7222 0.0000 0.0000 0.0000
# 3 116.3921 13.7222 221.6030 0.0000 0.0000 0.0000
# 4 0.0000 0.0000 0.0000 23.6498 0.0000 0.0000
# 5 0.0000 0.0000 0.0000 0.0000 37.8432 0.0000
# 6 0.0000 0.0000 0.0000 0.0000 0.0000 22.2844
#
#
#
# Elastic Compliance Matrix: (Units=1/GPa)
#
#
# Indices 1 2 3 4 5 6 
#
# 1 0.008193 -0.002156 -0.004170 0.000000 0.000000 0.000000
# 2 -0.002156 0.076536 -0.003607 0.000000 0.000000 0.000000
# 3 -0.004170 -0.003607 0.006926 0.000000 0.000000 0.000000
# 4 0.000000 0.000000 0.000000 0.042284 0.000000 0.000000
# 5 0.000000 0.000000 0.000000 0.000000 0.026425 0.000000
# 6 0.000000 0.000000 0.000000 0.000000 0.000000 0.044875
#
#
# Mechanical properties :
#
#
# Convention : Reuss Voigt Hill
#
# Bulk Modulus (GPa) = 13.92959 77.92052 45.92505
# Shear Modulus (GPa) = 20.07768 35.35074 27.71421
#
# Velocity S-wave (km/s) = 3.20892 4.25796 3.77011
# Velocity P-wave (km/s) = 4.56876 8.00852 6.51959
#
# Compressibility (1/GPa) = 0.07178962
#
# Stress axis : x y z
#
# Youngs Moduli (GPa) = 122.05442 13.06581 144.38368
#
# Poissons Ratio (x) = 0.02817 0.60204
# Poissons Ratio (y) = 0.26313 0.52079
# Poissons Ratio (z) = 0.50893 0.04713
#
# Static dielectric constant tensor:
#      x y z
#    x 1.507280 0.000000 0.000000 
#    y 0.000000 1.712270 0.000000 
#    z 0.000000 0.000000 1.673340 
# 
# From -- ./inp_files/6787.got.cif
#   From: 2010.05.17/outbox.cif.g08.bks.cpg/sg39_4_cif.got.tgz:6787.got - 2010.06.03 18:22:40.
