data_PCOD9360144
_publ_section_title
;
Structure prediction by ZEFSAII (Michael W. Deem and Ramdas Pophale) SiO2 
 PCOD9360144
Probable space group: A B M 2
;
_chemical_formula_sum "Si O2"
_cell_formula_units_Z 64
_cell_length_a 19.871155
_cell_length_b 8.638647
_cell_length_c 21.063972
_cell_angle_alpha 90.000000
_cell_angle_beta 90.000000
_cell_angle_gamma 90.000000
_cell_volume 3615.839191
_symmetry_space_group_name_H-M "A B M 2"
_symmetry_group_IT_number 39
_symmetry_cell_setting 'orthorhombic'
loop_
_space_group_symop_operation_xyz
x,y,z
-x,-y,z
-x,1/2+y,z
x,1/2-y,z
x,1/2+y,1/2+z
-x,1/2-y,1/2+z
-x,y,1/2+z
x,-y,1/2+z
loop_
_atom_site_type_symbol
_atom_site_label
_atom_site_fract_x
_atom_site_fract_y
_atom_site_fract_z
Si Si1 0.427369 0.063349 0.953260
Si Si2 0.210079 0.063454 0.523232
Si Si3 0.714389 0.436619 0.401287
Si Si4 0.928158 0.564111 0.584351
Si Si5 0.707692 0.063497 0.148774
Si Si6 0.427693 0.065095 0.101240
Si Si7 0.790323 0.562339 0.773732
Si Si8 0.072796 0.434760 0.226727
O O1 0.430015 0.250000 0.951653
O O2 0.362589 0.010487 0.913211
O O3 0.500000 0.000000 0.932810
O O4 0.416861 0.016442 0.027256
O O5 0.213918 0.250000 0.518322
O O6 0.133032 0.021305 0.538340
O O7 0.252671 0.015517 0.585215
O O8 0.241391 0.990290 0.460823
O O9 0.712617 0.250000 0.400606
O O10 0.749348 0.487143 0.336077
O O11 0.930471 0.750000 0.589717
O O12 0.915730 0.497639 0.654971
O O13 0.000000 0.500000 0.562817
O O14 0.704653 0.250000 0.149218
O O15 0.748689 0.015284 0.211005
O O16 0.633018 0.997765 0.143217
O O17 0.428650 0.250000 0.102799
O O18 0.500000 0.000000 0.120856
O O19 0.795567 0.750000 0.773547
O O20 0.864936 0.493353 0.768517
O O21 0.070258 0.250000 0.225368
O O22 0.000000 0.500000 0.247111
#
# Coordination Sequence:
#
# PCOD9360144 Si02
#       8
#     8   8   8   8   8   8   8   8
#     4   9  18  32  51  78 105 136 177 220 267 320
#     4  10  20  34  55  80 110 143 179 225 273 323
#     4  10  21  37  57  81 111 146 184 227 273 324
#     4  10  19  34  54  82 113 145 182 225 278 328
#     4  10  19  34  55  79 108 144 181 222 273 324
#     4  10  19  32  52  80 111 140 181 229 275 329
#     4  10  21  39  58  79 113 151 186 224 275 332
#     4  11  21  34  56  83 111 143 184 230 274 327
#
# _framework density 17.699902999999999
#
# number of rings (size 3 to 8) (size 9 to 14) (size 15 to 20)
#    0.000    2.000    2.500    2.625    0.000    3.000 
#    0.000    1.250    0.000    3.000    0.000    0.000 
#    0.000    0.000    0.000    0.000    0.000    0.000 
#
# Total GULP energy -178604.379957 kJ/mol
# GULP energy per Si atom -5581.386874 kJ/mol
# Density = 1.765962 g / cm^3
# Si number density = 17.699903 Si / 1000 Ang^3
#
#
#
# Elastic Constant Matrix: (Units=GPa)
#
#
# Indices 1 2 3 4 5 6 
#
# 1 181.8337 36.3128 73.6681 0.0000 0.0000 0.0000
# 2 36.3128 31.1680 23.5307 0.0000 0.0000 0.0000
# 3 73.6681 23.5307 99.3172 0.0000 0.0000 0.0000
# 4 0.0000 0.0000 0.0000 18.2574 0.0000 0.0000
# 5 0.0000 0.0000 0.0000 0.0000 27.8529 0.0000
# 6 0.0000 0.0000 0.0000 0.0000 0.0000 33.3083
#
#
#
# Elastic Compliance Matrix: (Units=1/GPa)
#
#
# Indices 1 2 3 4 5 6 
#
# 1 0.008827 -0.006504 -0.005006 0.000000 0.000000 0.000000
# 2 -0.006504 0.043866 -0.005568 0.000000 0.000000 0.000000
# 3 -0.005006 -0.005568 0.015101 0.000000 0.000000 0.000000
# 4 0.000000 0.000000 0.000000 0.054772 0.000000 0.000000
# 5 0.000000 0.000000 0.000000 0.000000 0.035903 0.000000
# 6 0.000000 0.000000 0.000000 0.000000 0.000000 0.030023
#
#
# Mechanical properties :
#
#
# Convention : Reuss Voigt Hill
#
# Bulk Modulus (GPa) = 29.72969 64.37135 47.05052
# Shear Modulus (GPa) = 21.38020 27.80423 24.59221
#
# Velocity S-wave (km/s) = 3.47930 3.96772 3.73151
# Velocity P-wave (km/s) = 5.74227 7.57876 6.72351
#
# Compressibility (1/GPa) = 0.03363641
#
# Stress axis : x y z
#
# Youngs Moduli (GPa) = 113.29384 22.79669 66.21944
#
# Poissons Ratio (x) = 0.14827 0.33150
# Poissons Ratio (y) = 0.73688 0.36874
# Poissons Ratio (z) = 0.56716 0.12694
#
# Static dielectric constant tensor:
#      x y z
#    x 1.608240 0.000000 0.000000 
#    y 0.000000 1.599880 0.000000 
#    z 0.000000 0.000000 1.581990 
# 
# From -- ./inp_files/13215.got.cif
#   From: 2010.05.17/outbox.cif.g08.bks.cpg/sg39_7_cif.got.tgz:13215.got - 2010.06.03 18:22:40.
