data_PCOD9360788
_publ_section_title
;
Structure prediction by ZEFSAII (Michael W. Deem and Ramdas Pophale) SiO2 
 PCOD9360788
Probable space group: A B M 2
;
_chemical_formula_sum "Si O2"
_cell_formula_units_Z 64
_cell_length_a 10.057877
_cell_length_b 14.626864
_cell_length_c 17.050782
_cell_angle_alpha 90.000000
_cell_angle_beta 90.000000
_cell_angle_gamma 90.000000
_cell_volume 2508.429187
_symmetry_space_group_name_H-M "A B M 2"
_symmetry_group_IT_number 39
_symmetry_cell_setting 'orthorhombic'
loop_
_space_group_symop_operation_xyz
x,y,z
-x,-y,z
-x,1/2+y,z
x,1/2-y,z
x,1/2+y,1/2+z
-x,1/2-y,1/2+z
-x,y,1/2+z
x,-y,1/2+z
loop_
_atom_site_type_symbol
_atom_site_label
_atom_site_fract_x
_atom_site_fract_y
_atom_site_fract_z
Si Si1 0.887356 0.852007 0.058480
Si Si2 0.062731 0.093478 0.893459
Si Si3 0.433259 0.361146 0.221215
Si Si4 0.189217 0.859125 0.813016
Si Si5 0.294846 0.861172 0.289124
Si Si6 0.846074 0.861525 0.625532
Si Si7 0.407970 0.861243 0.545107
Si Si8 0.327834 0.861356 0.975027
O O1 0.861771 0.750000 0.090982
O O2 0.743100 0.895968 0.045750
O O3 0.002425 0.893356 0.112032
O O4 0.945300 0.844838 0.970359
O O5 0.210246 0.096212 0.859210
O O6 0.964909 0.117900 0.821469
O O7 0.000000 0.000000 0.922705
O O8 0.432852 0.250000 0.224627
O O9 0.287130 0.394541 0.245766
O O10 0.552307 0.389558 0.278287
O O11 0.463366 0.383050 0.131545
O O12 0.193196 0.750000 0.808265
O O13 0.257615 0.887861 0.894747
O O14 0.289943 0.750000 0.299505
O O15 0.222018 0.884665 0.207382
O O16 0.850895 0.750000 0.623347
O O17 0.757026 0.889170 0.551011
O O18 0.399772 0.750000 0.536292
O O19 0.519486 0.891829 0.484221
O O20 0.329539 0.750000 0.975043
#
# Coordination Sequence:
#
# PCOD9360788 Si02
#       8
#     8   8   8   8   8   8   8   8
#     4  10  20  35  59  87 115 146 189 243 293 342
#     4  12  26  41  54  79 116 164 203 238 279 337
#     4   9  18  32  55  91 120 142 179 239 302 357
#     4  10  20  35  59  85 114 148 189 238 294 349
#     4  10  20  36  61  89 117 148 189 238 295 355
#     4   9  16  30  55  85 112 143 178 226 288 342
#     4   9  17  29  52  89 122 137 173 238 299 349
#     4   9  15  28  51  82 114 142 172 225 288 341
#
# _framework density 25.513976
#
# number of rings (size 3 to 8) (size 9 to 14) (size 15 to 20)
#    0.000    2.250    2.500    1.125    3.500    0.000 
#    0.000    1.250    0.000    0.000    3.250    0.000 
#    0.000    0.000    0.000    0.000    0.000    0.000 
#
# Total GULP energy -178939.749692 kJ/mol
# GULP energy per Si atom -5591.867178 kJ/mol
# Density = 2.545591 g / cm^3
# Si number density = 25.513976 Si / 1000 Ang^3
#
#
#
# Elastic Constant Matrix: (Units=GPa)
#
#
# Indices 1 2 3 4 5 6 
#
# 1 128.0380 13.2782 -13.8203 0.0000 0.0000 0.0000
# 2 13.2782 83.9252 4.7643 0.0000 0.0000 0.0000
# 3 -13.8203 4.7643 29.0401 0.0000 0.0000 0.0000
# 4 0.0000 0.0000 0.0000 -64.4922 0.0000 0.0000
# 5 0.0000 0.0000 0.0000 0.0000 43.2199 0.0000
# 6 0.0000 0.0000 0.0000 0.0000 0.0000 -12.1631
#
#
#
# Elastic Compliance Matrix: (Units=1/GPa)
#
#
# Indices 1 2 3 4 5 6 
#
# 1 0.008435 -0.001577 0.004273 0.000000 0.000000 0.000000
# 2 -0.001577 0.012322 -0.002772 0.000000 0.000000 0.000000
# 3 0.004273 -0.002772 0.036923 0.000000 0.000000 0.000000
# 4 0.000000 0.000000 0.000000 -0.015506 0.000000 0.000000
# 5 0.000000 0.000000 0.000000 0.000000 0.023138 0.000000
# 6 0.000000 0.000000 0.000000 0.000000 0.000000 -0.082216
#
#
# Mechanical properties :
#
#
# Convention : Reuss Voigt Hill
#
# Bulk Modulus (GPa) = 17.38280 27.71641 22.54961
# Shear Modulus (GPa) = 2061.68155 9.09831 1035.38993
#
# Velocity S-wave (km/s) = 28.45723 1.89044 20.16665
# Velocity P-wave (km/s) = 32.96331 3.95624 23.47585
#
# Compressibility (1/GPa) = 0.05752814
#
# Stress axis : x y z
#
# Youngs Moduli (GPa) = 118.55434 81.15392 27.08305
#
# Poissons Ratio (x) = 0.12799 -0.11572
# Poissons Ratio (y) = 0.18697 0.07508
# Poissons Ratio (z) = -0.50658 0.22497
#
# Static dielectric constant tensor:
#      x y z
#    x 2.023940 0.000000 0.000000 
#    y 0.000000 2.081020 0.000000 
#    z 0.000000 0.000000 1.963660 
# 
# From -- ./inp_files/11938.got.cif
#   From: 2010.05.17/outbox.cif.g08.bks.cpg/sg39_6_cif.got.tgz:11938.got - 2010.06.03 18:22:40.
