data_PCOD9360414
_publ_section_title
;
Structure prediction by ZEFSAII (Michael W. Deem and Ramdas Pophale) SiO2 
 PCOD9360414
Probable space group: A B M 2
;
_chemical_formula_sum "Si O2"
_cell_formula_units_Z 64
_cell_length_a 24.300250
_cell_length_b 8.476057
_cell_length_c 15.844589
_cell_angle_alpha 90.000000
_cell_angle_beta 90.000000
_cell_angle_gamma 90.000000
_cell_volume 3263.514815
_symmetry_space_group_name_H-M "A B M 2"
_symmetry_group_IT_number 39
_symmetry_cell_setting 'orthorhombic'
loop_
_space_group_symop_operation_xyz
x,y,z
-x,-y,z
-x,1/2+y,z
x,1/2-y,z
x,1/2+y,1/2+z
-x,1/2-y,1/2+z
-x,y,1/2+z
x,-y,1/2+z
loop_
_atom_site_type_symbol
_atom_site_label
_atom_site_fract_x
_atom_site_fract_y
_atom_site_fract_z
Si Si1 0.938317 0.061038 0.724230
Si Si2 0.871380 0.559009 0.565948
Si Si3 0.561924 0.562345 0.218687
Si Si4 0.750770 0.058254 0.126148
Si Si5 0.745684 0.559708 0.822342
Si Si6 0.624862 0.061165 0.381136
Si Si7 0.862422 0.059872 0.878647
Si Si8 0.366804 0.939145 0.062300
O O1 0.938647 0.250000 0.726339
O O2 0.899295 0.002322 0.800622
O O3 0.912214 0.005640 0.636239
O O4 0.000000 0.000000 0.734105
O O5 0.872701 0.750000 0.569773
O O6 0.809024 0.507153 0.588345
O O7 0.883944 0.508900 0.470334
O O8 0.500000 0.500000 0.211946
O O9 0.562728 0.750000 0.210768
O O10 0.587249 0.512729 0.308671
O O11 0.598650 0.488900 0.144017
O O12 0.750327 0.250000 0.124550
O O13 0.746632 0.010282 0.224045
O O14 0.696315 0.005351 0.076993
O O15 0.748205 0.750000 0.824636
O O16 0.688022 0.510105 0.863179
O O17 0.799622 0.493106 0.866815
O O18 0.622158 0.250000 0.373170
O O19 0.610372 0.010208 0.475696
O O20 0.863176 0.250000 0.877320
O O21 0.366864 0.750000 0.056087
#
# Coordination Sequence:
#
# PCOD9360414 Si02
#       8
#     8   8   8   8   8   8   8   8
#     4  11  24  41  59  83 114 151 198 249 299 352
#     4  10  20  38  62  87 119 157 195 238 294 353
#     4  12  26  45  67  92 122 164 211 260 314 367
#     4   9  17  33  60  90 123 161 195 238 301 360
#     4  10  19  35  61  91 124 163 200 242 298 358
#     4  11  23  41  63  94 131 166 208 255 304 367
#     4  10  22  38  59  90 122 153 195 246 297 358
#     4  11  22  41  66  95 129 165 206 254 308 369
#
# _framework density 19.610758000000001
#
# number of rings (size 3 to 8) (size 9 to 14) (size 15 to 20)
#    0.000    1.500    2.500    3.000    0.000    4.000 
#    0.000    5.000    0.000    0.000    0.000    0.000 
#    0.000    0.000    0.000    0.000    0.000    0.000 
#
# Total GULP energy -178878.965001 kJ/mol
# GULP energy per Si atom -5589.967656 kJ/mol
# Density = 1.956612 g / cm^3
# Si number density = 19.610758 Si / 1000 Ang^3
#
#
#
# Elastic Constant Matrix: (Units=GPa)
#
#
# Indices 1 2 3 4 5 6 
#
# 1 66.1144 4.6939 -13.3871 0.0000 0.0000 0.0000
# 2 4.6939 27.7104 1.5344 0.0000 0.0000 0.0000
# 3 -13.3871 1.5344 77.2991 0.0000 0.0000 0.0000
# 4 0.0000 0.0000 0.0000 21.7679 0.0000 0.0000
# 5 0.0000 0.0000 0.0000 0.0000 1.4712 0.0000
# 6 0.0000 0.0000 0.0000 0.0000 0.0000 28.6810
#
#
#
# Elastic Compliance Matrix: (Units=1/GPa)
#
#
# Indices 1 2 3 4 5 6 
#
# 1 0.015896 -0.002848 0.002810 0.000000 0.000000 0.000000
# 2 -0.002848 0.036638 -0.001221 0.000000 0.000000 0.000000
# 3 0.002810 -0.001221 0.013448 0.000000 0.000000 0.000000
# 4 0.000000 0.000000 0.000000 0.045939 0.000000 0.000000
# 5 0.000000 0.000000 0.000000 0.000000 0.679736 0.000000
# 6 0.000000 0.000000 0.000000 0.000000 0.000000 0.034866
#
#
# Mechanical properties :
#
#
# Convention : Reuss Voigt Hill
#
# Bulk Modulus (GPa) = 15.75720 17.42292 16.59006
# Shear Modulus (GPa) = 5.88099 22.26953 14.07526
#
# Velocity S-wave (km/s) = 1.73360 3.37349 2.68196
# Velocity P-wave (km/s) = 3.47269 4.90689 4.25071
#
# Compressibility (1/GPa) = 0.06346306
#
# Stress axis : x y z
#
# Youngs Moduli (GPa) = 62.90729 27.29434 74.36289
#
# Poissons Ratio (x) = 0.07774 -0.20893
# Poissons Ratio (y) = 0.17918 0.09076
# Poissons Ratio (z) = -0.17674 0.03331
#
# Static dielectric constant tensor:
#      x y z
#    x 1.661110 0.000000 0.000000 
#    y 0.000000 1.665330 0.000000 
#    z 0.000000 0.000000 1.680140 
# 
# From -- ./inp_files/10688.got.cif
#   From: 2010.05.17/outbox.cif.g08.bks.cpg/sg39_6_cif.got.tgz:10688.got - 2010.06.03 18:22:40.
