data_PCOD9360499
_publ_section_title
;
Structure prediction by ZEFSAII (Michael W. Deem and Ramdas Pophale) SiO2 
 PCOD9360499
Probable space group: A B M 2
;
_chemical_formula_sum "Si O2"
_cell_formula_units_Z 64
_cell_length_a 15.900068
_cell_length_b 8.619679
_cell_length_c 24.404356
_cell_angle_alpha 90.000000
_cell_angle_beta 90.000000
_cell_angle_gamma 90.000000
_cell_volume 3344.701972
_symmetry_space_group_name_H-M "A B M 2"
_symmetry_group_IT_number 39
_symmetry_cell_setting 'orthorhombic'
loop_
_space_group_symop_operation_xyz
x,y,z
-x,-y,z
-x,1/2+y,z
x,1/2-y,z
x,1/2+y,1/2+z
-x,1/2-y,1/2+z
-x,y,1/2+z
x,-y,1/2+z
loop_
_atom_site_type_symbol
_atom_site_label
_atom_site_fract_x
_atom_site_fract_y
_atom_site_fract_z
Si Si1 0.590802 0.063148 0.375000
Si Si2 0.248998 0.062558 0.568638
Si Si3 0.661943 0.062024 0.257374
Si Si4 0.910785 0.436163 0.141687
Si Si5 0.910785 0.063837 0.373061
Si Si6 0.851484 0.434969 0.757374
Si Si7 0.590802 0.063148 0.139748
Si Si8 0.248998 0.437442 0.946110
O O1 0.588487 0.250000 0.376210
O O2 0.613687 0.016352 0.312700
O O3 0.666685 0.011364 0.414316
O O4 0.500000 0.000000 0.390966
O O5 0.249618 0.250000 0.567467
O O6 0.166990 0.014689 0.603322
O O7 0.333315 0.011364 0.600432
O O8 0.246518 1.000000 0.507374
O O9 0.671247 0.250000 0.257374
O O10 0.613687 0.016352 0.202048
O O11 0.754557 0.989787 0.257374
O O12 0.912761 0.250000 0.143382
O O13 0.893849 0.498834 0.202653
O O14 0.000000 0.500000 0.121683
O O15 0.912761 0.250000 0.371367
O O16 0.833010 0.014688 0.411426
O O17 0.893849 0.001166 0.312095
O O18 0.000000 0.000000 0.393065
O O19 0.856895 0.250000 0.757374
O O20 0.588487 0.250000 0.138538
O O21 0.500000 0.000000 0.123782
O O22 0.249618 0.250000 0.947281
#
# Coordination Sequence:
#
# PCOD9360499 Si02
#       8
#     8   8   8   8   8   8   8   8
#     4  10  21  38  61  89 120 159 197 243 300 355
#     4  10  23  42  63  85 118 160 202 250 302 350
#     4  10  19  38  62  85 124 161 194 241 302 363
#     4  11  23  42  64  89 123 160 198 244 300 359
#     4  11  23  42  64  89 123 160 198 244 300 359
#     4  12  23  36  61  95 124 157 199 243 296 357
#     4  10  21  38  61  89 120 159 197 243 300 355
#     4  10  23  42  63  85 118 160 202 250 302 350
#
# _framework density 19.134739
#
# number of rings (size 3 to 8) (size 9 to 14) (size 15 to 20)
#    0.000    1.500    2.500    2.625    0.000    5.000 
#    0.000    5.000    0.000    0.000    0.000    0.000 
#    0.000    0.000    0.000    0.000    0.000    0.000 
#
# Total GULP energy -178892.404256 kJ/mol
# GULP energy per Si atom -5590.387633 kJ/mol
# Density = 1.909119 g / cm^3
# Si number density = 19.134739 Si / 1000 Ang^3
#
#
#
# Elastic Constant Matrix: (Units=GPa)
#
#
# Indices 1 2 3 4 5 6 
#
# 1 204.3319 39.1754 91.6724 0.0000 0.0000 0.0000
# 2 39.1754 33.0447 30.8395 0.0000 0.0000 0.0000
# 3 91.6724 30.8395 158.4101 0.0000 0.0000 0.0000
# 4 0.0000 0.0000 0.0000 28.2387 0.0000 0.0000
# 5 0.0000 0.0000 0.0000 0.0000 -79.8169 0.0000
# 6 0.0000 0.0000 0.0000 0.0000 0.0000 34.5448
#
#
#
# Elastic Compliance Matrix: (Units=1/GPa)
#
#
# Indices 1 2 3 4 5 6 
#
# 1 0.007437 -0.005866 -0.003162 0.000000 0.000000 0.000000
# 2 -0.005866 0.041608 -0.004706 0.000000 0.000000 0.000000
# 3 -0.003162 -0.004706 0.009059 0.000000 0.000000 0.000000
# 4 0.000000 0.000000 0.000000 0.035412 0.000000 0.000000
# 5 0.000000 0.000000 0.000000 0.000000 -0.012529 0.000000
# 6 0.000000 0.000000 0.000000 0.000000 0.000000 0.028948
#
#
# Mechanical properties :
#
#
# Convention : Reuss Voigt Hill
#
# Bulk Modulus (GPa) = 32.64062 79.90679 56.27371
# Shear Modulus (GPa) = 33.87187 12.19995 23.03591
#
# Velocity S-wave (km/s) = 4.21191 2.52778 3.47346
# Velocity P-wave (km/s) = 6.38349 7.09720 6.74978
#
# Compressibility (1/GPa) = 0.03063667
#
# Stress axis : x y z
#
# Youngs Moduli (GPa) = 134.45796 24.03381 110.39183
#
# Poissons Ratio (x) = 0.14099 0.34905
# Poissons Ratio (y) = 0.78875 0.51946
# Poissons Ratio (z) = 0.42515 0.11309
#
# Static dielectric constant tensor:
#      x y z
#    x 1.660170 0.000000 0.000000 
#    y 0.000000 1.651930 0.000000 
#    z 0.000000 0.000000 1.637840 
# 
# From -- ./inp_files/16186.got.cif
#   From: 2010.05.17/outbox.cif.g08.bks.cpg/sg39_9_cif.got.tgz:16186.got - 2010.06.03 18:22:40.
