data_PCOD9360509
_publ_section_title
;
Structure prediction by ZEFSAII (Michael W. Deem and Ramdas Pophale) SiO2 
 PCOD9360509
Probable space group: A B M 2
;
_chemical_formula_sum "Si O2"
_cell_formula_units_Z 64
_cell_length_a 19.383796
_cell_length_b 15.445099
_cell_length_c 9.583549
_cell_angle_alpha 90.000000
_cell_angle_beta 90.000000
_cell_angle_gamma 90.000000
_cell_volume 2869.167446
_symmetry_space_group_name_H-M "A B M 2"
_symmetry_group_IT_number 39
_symmetry_cell_setting 'orthorhombic'
loop_
_space_group_symop_operation_xyz
x,y,z
-x,-y,z
-x,1/2+y,z
x,1/2-y,z
x,1/2+y,1/2+z
-x,1/2-y,1/2+z
-x,y,1/2+z
x,-y,1/2+z
loop_
_atom_site_type_symbol
_atom_site_label
_atom_site_fract_x
_atom_site_fract_y
_atom_site_fract_z
Si Si1 0.433935 0.147619 0.757270
Si Si2 0.713605 0.347888 0.627562
Si Si3 0.046320 0.144351 0.752826
Si Si4 0.561993 0.647312 0.082770
Si Si5 0.763672 0.918242 0.388765
Si Si6 0.179428 0.652779 0.408584
Si Si7 0.083254 0.855524 0.936522
Si Si8 0.281344 0.916433 0.205810
O O1 0.424366 0.250000 0.723832
O O2 0.497795 0.111786 0.668752
O O3 0.361056 0.102531 0.732610
O O4 0.452197 0.141024 0.919572
O O5 0.706623 0.250000 0.569623
O O6 0.638533 0.390187 0.608796
O O7 0.732136 0.344879 0.788987
O O8 0.776826 0.386460 0.536925
O O9 0.049515 0.250000 0.754394
O O10 0.109296 0.111872 0.850379
O O11 0.057666 0.119801 0.592068
O O12 0.973992 0.120302 0.821977
O O13 0.565919 0.750000 0.121440
O O14 0.844397 0.900433 0.405166
O O15 0.731939 0.921172 0.541957
O O16 0.743970 0.000376 0.293245
O O17 0.160181 0.750000 0.454326
O O18 0.232088 0.654744 0.278273
O O19 0.091807 0.750000 0.933686
#
# Coordination Sequence:
#
# PCOD9360509 Si02
#       8
#     8   8   8   8   8   8   8   8
#     4  10  21  39  68  99 131 168 211 267 330 392
#     4  10  21  38  65  96 127 165 216 271 329 387
#     4   9  19  35  62  98 132 161 204 265 325 387
#     4   9  19  36  61  98 131 159 203 262 322 388
#     4  12  27  43  63  88 128 175 223 276 321 384
#     4  10  19  38  67  95 125 166 214 266 328 385
#     4  10  21  40  66  99 130 163 213 268 329 393
#     4  12  25  43  64  87 128 174 221 274 323 380
#
# _framework density 22.306122999999999
#
# number of rings (size 3 to 8) (size 9 to 14) (size 15 to 20)
#    0.000    1.750    2.500    1.500    3.500    1.500 
#    0.000    1.250    0.000    0.000    0.000    0.000 
#    0.000    0.000    0.000    0.000    0.000    0.000 
#
# Total GULP energy -178740.843852 kJ/mol
# GULP energy per Si atom -5585.651370 kJ/mol
# Density = 2.225535 g / cm^3
# Si number density = 22.306123 Si / 1000 Ang^3
#
#
#
# Elastic Constant Matrix: (Units=GPa)
#
#
# Indices 1 2 3 4 5 6 
#
# 1 159.3886 11.6053 74.5112 0.0000 0.0000 0.0000
# 2 11.6053 46.5639 23.5603 0.0000 0.0000 0.0000
# 3 74.5112 23.5603 132.6938 0.0000 0.0000 0.0000
# 4 0.0000 0.0000 0.0000 9.7136 0.0000 0.0000
# 5 0.0000 0.0000 0.0000 0.0000 50.3731 0.0000
# 6 0.0000 0.0000 0.0000 0.0000 0.0000 12.1379
#
#
#
# Elastic Compliance Matrix: (Units=1/GPa)
#
#
# Indices 1 2 3 4 5 6 
#
# 1 0.008512 0.000326 -0.004837 0.000000 0.000000 0.000000
# 2 0.000326 0.023608 -0.004375 0.000000 0.000000 0.000000
# 3 -0.004837 -0.004375 0.011029 0.000000 0.000000 0.000000
# 4 0.000000 0.000000 0.000000 0.102949 0.000000 0.000000
# 5 0.000000 0.000000 0.000000 0.000000 0.019852 0.000000
# 6 0.000000 0.000000 0.000000 0.000000 0.000000 0.082387
#
#
# Mechanical properties :
#
#
# Convention : Reuss Voigt Hill
#
# Bulk Modulus (GPa) = 39.40599 62.00000 50.70300
# Shear Modulus (GPa) = 18.21046 29.70955 23.96000
#
# Velocity S-wave (km/s) = 2.86035 3.65348 3.28097
# Velocity P-wave (km/s) = 5.34913 6.75667 6.09368
#
# Compressibility (1/GPa) = 0.02537685
#
# Stress axis : x y z
#
# Youngs Moduli (GPa) = 117.48627 42.35825 90.66771
#
# Poissons Ratio (x) = -0.01382 0.43860
# Poissons Ratio (y) = -0.03833 0.39666
# Poissons Ratio (z) = 0.56833 0.18531
#
# Static dielectric constant tensor:
#      x y z
#    x 1.802400 0.000000 0.000000 
#    y 0.000000 1.984480 0.000000 
#    z 0.000000 0.000000 1.780460 
# 
# From -- ./inp_files/3861.got.cif
#   From: 2010.05.17/outbox.cif.g08.bks.cpg/sg39_2_cif.got.tgz:3861.got - 2010.06.03 18:22:40.
