data_PCOD9360370
_publ_section_title
;
Structure prediction by ZEFSAII (Michael W. Deem and Ramdas Pophale) SiO2 
 PCOD9360370
Probable space group: A B M 2
;
_chemical_formula_sum "Si O2"
_cell_formula_units_Z 40
_cell_length_a 7.687841
_cell_length_b 13.631170
_cell_length_c 15.437631
_cell_angle_alpha 90.000000
_cell_angle_beta 90.000000
_cell_angle_gamma 90.000000
_cell_volume 1617.775234
_symmetry_space_group_name_H-M "A B M 2"
_symmetry_group_IT_number 39
_symmetry_cell_setting 'orthorhombic'
loop_
_space_group_symop_operation_xyz
x,y,z
-x,-y,z
-x,1/2+y,z
x,1/2-y,z
x,1/2+y,1/2+z
-x,1/2-y,1/2+z
-x,y,1/2+z
x,-y,1/2+z
loop_
_atom_site_type_symbol
_atom_site_label
_atom_site_fract_x
_atom_site_fract_y
_atom_site_fract_z
Si Si1 0.591211 0.861890 0.011740
Si Si2 0.897061 0.868697 0.368697
Si Si3 0.783988 0.943865 0.550201
Si Si4 0.817147 0.631283 0.728150
Si Si5 0.521712 0.134259 0.813499
O O1 0.644728 0.750000 0.028223
O O2 0.397182 0.881812 0.046979
O O3 0.721497 0.943815 0.046065
O O4 0.565011 0.876871 0.908441
O O5 0.892346 0.750000 0.378172
O O6 0.887434 0.913004 0.464333
O O7 0.718725 0.900878 0.320928
O O8 0.060976 0.893263 0.309551
O O9 0.876875 0.913659 0.638071
O O10 0.819045 0.750000 0.721669
O O11 0.619544 0.596775 0.746317
O O12 0.536386 0.250000 0.796583
#
# Coordination Sequence:
#
# PCOD9360370 Si02
#       5
#     8   8   8   8   8
#     4   9  18  36  64  94 128 176 227 280 346 409
#     4   9  18  35  60  94 138 178 216 274 340 400
#     4  10  19  35  63  99 137 179 227 281 338 413
#     4  10  19  34  63  99 134 173 218 274 336 398
#     4   8  16  34  60  89 124 169 218 269 334 405
#
# _framework density 24.725311999999999
#
# number of rings (size 3 to 8) (size 9 to 14) (size 15 to 20)
#    0.000    2.800    0.000    3.000    0.000    0.000 
#    0.000   13.000    0.000   27.600    0.000    7.000 
#    0.000    0.000    0.000    0.000    0.000    0.000 
#
# Total GULP energy -112032.449696 kJ/mol
# GULP energy per Si atom -5601.622485 kJ/mol
# Density = 2.466904 g / cm^3
# Si number density = 24.725312 Si / 1000 Ang^3
#
#
#
# Elastic Constant Matrix: (Units=GPa)
#
#
# Indices 1 2 3 4 5 6 
#
# 1 134.4975 36.0586 80.1985 0.0000 0.0000 0.0000
# 2 36.0586 129.8718 16.5590 0.0000 0.0000 0.0000
# 3 80.1985 16.5590 139.0731 0.0000 0.0000 0.0000
# 4 0.0000 0.0000 0.0000 -45.5180 0.0000 0.0000
# 5 0.0000 0.0000 0.0000 0.0000 43.4162 0.0000
# 6 0.0000 0.0000 0.0000 0.0000 0.0000 31.1546
#
#
#
# Elastic Compliance Matrix: (Units=1/GPa)
#
#
# Indices 1 2 3 4 5 6 
#
# 1 0.012084 -0.002505 -0.006670 0.000000 0.000000 0.000000
# 2 -0.002505 0.008338 0.000452 0.000000 0.000000 0.000000
# 3 -0.006670 0.000452 0.010983 0.000000 0.000000 0.000000
# 4 0.000000 0.000000 0.000000 -0.021969 0.000000 0.000000
# 5 0.000000 0.000000 0.000000 0.000000 0.023033 0.000000
# 6 0.000000 0.000000 0.000000 0.000000 0.000000 0.032098
#
#
# Mechanical properties :
#
#
# Convention : Reuss Voigt Hill
#
# Bulk Modulus (GPa) = 71.64148 74.34163 72.99156
# Shear Modulus (GPa) = 57.69332 23.85232 40.77282
#
# Velocity S-wave (km/s) = 4.83574 3.10932 4.06523
# Velocity P-wave (km/s) = 7.75996 6.55918 7.18470
#
# Compressibility (1/GPa) = 0.01395839
#
# Stress axis : x y z
#
# Youngs Moduli (GPa) = 82.75534 119.93683 91.04903
#
# Poissons Ratio (x) = 0.30039 0.60730
# Poissons Ratio (y) = 0.20727 -0.04111
# Poissons Ratio (z) = 0.55199 -0.05416
#
# Static dielectric constant tensor:
#      x y z
#    x 1.946200 0.000000 0.000000 
#    y 0.000000 1.969780 0.000000 
#    z 0.000000 0.000000 1.900500 
# 
# From -- ./inp_files/8076.got.cif
#   From: 2010.05.17/outbox.cif.g08.bks.cpg/sg39_5_cif.got.tgz:8076.got - 2010.06.03 18:22:40.
