data_PCOD9360661
_publ_section_title
;
Structure prediction by ZEFSAII (Michael W. Deem and Ramdas Pophale) SiO2 
 PCOD9360661
Probable space group: A B M 2
;
_chemical_formula_sum "Si O2"
_cell_formula_units_Z 56
_cell_length_a 24.287441
_cell_length_b 8.907371
_cell_length_c 14.648589
_cell_angle_alpha 90.000000
_cell_angle_beta 90.000000
_cell_angle_gamma 90.000000
_cell_volume 3169.035426
_symmetry_space_group_name_H-M "A B M 2"
_symmetry_group_IT_number 39
_symmetry_cell_setting 'orthorhombic'
loop_
_space_group_symop_operation_xyz
x,y,z
-x,-y,z
-x,1/2+y,z
x,1/2-y,z
x,1/2+y,1/2+z
-x,1/2-y,1/2+z
-x,y,1/2+z
x,-y,1/2+z
loop_
_atom_site_type_symbol
_atom_site_label
_atom_site_fract_x
_atom_site_fract_y
_atom_site_fract_z
Si Si1 0.144501 0.569572 0.311690
Si Si2 0.735275 0.070612 0.825378
Si Si3 0.358278 0.069610 0.178689
Si Si4 0.941537 0.070093 0.675307
Si Si5 0.653221 0.930669 0.967321
Si Si6 0.057295 0.428826 0.961475
Si Si7 0.440026 0.070729 0.820864
O O1 0.146611 0.750000 0.305876
O O2 0.205393 0.503544 0.314930
O O3 0.108570 0.502305 0.229658
O O4 0.109426 0.525729 0.401552
O O5 0.740334 0.250000 0.831247
O O6 0.696219 0.035075 0.738292
O O7 0.703387 0.008054 0.914009
O O8 0.366238 0.250000 0.181442
O O9 0.352423 0.024625 0.073040
O O10 0.408367 0.992183 0.232082
O O11 0.942627 0.250000 0.687092
O O12 0.935353 0.034590 0.567899
O O13 0.000000 0.000000 0.704959
O O14 0.660945 0.750000 0.964196
O O15 0.598704 0.966486 0.907990
O O16 0.051660 0.250000 0.953804
O O17 0.000000 0.500000 0.929456
O O18 0.444099 0.250000 0.814855
O O19 0.500000 0.000000 0.829514
#
# Coordination Sequence:
#
# PCOD9360661 Si02
#       7
#     8   8   8   8   8   8   8
#     4  11  22  36  54  77 105 139 176 216 262 312
#     4  10  21  36  54  78 106 137 175 221 265 311
#     4   9  19  37  58  78 105 141 179 217 263 312
#     4  10  20  36  55  77 104 134 170 212 261 316
#     4   9  19  37  58  78 104 141 178 216 262 311
#     4   9  20  36  54  75 102 135 169 209 259 313
#     4  10  20  34  54  81 112 141 174 215 258 305
#
# _framework density 17.670991999999998
#
# number of rings (size 3 to 8) (size 9 to 14) (size 15 to 20)
#    0.000    2.286    0.000    2.143    0.000    6.286 
#    0.000    7.143    0.000    0.000    0.000    0.000 
#    0.000    0.000    0.000    0.000    0.000    0.000 
#
# Total GULP energy -156300.256770 kJ/mol
# GULP energy per Si atom -5582.152027 kJ/mol
# Density = 1.763077 g / cm^3
# Si number density = 17.670992 Si / 1000 Ang^3
#
#
#
# Elastic Constant Matrix: (Units=GPa)
#
#
# Indices 1 2 3 4 5 6 
#
# 1 168.8399 61.8200 75.1705 0.0000 0.0000 0.0000
# 2 61.8200 44.4342 49.3710 0.0000 0.0000 0.0000
# 3 75.1705 49.3710 137.5238 0.0000 0.0000 0.0000
# 4 0.0000 0.0000 0.0000 24.9962 0.0000 0.0000
# 5 0.0000 0.0000 0.0000 0.0000 15.3575 0.0000
# 6 0.0000 0.0000 0.0000 0.0000 0.0000 36.7312
#
#
#
# Elastic Compliance Matrix: (Units=1/GPa)
#
#
# Indices 1 2 3 4 5 6 
#
# 1 0.012147 -0.015842 -0.000952 0.000000 0.000000 0.000000
# 2 -0.015842 0.058099 -0.012198 0.000000 0.000000 0.000000
# 3 -0.000952 -0.012198 0.012171 0.000000 0.000000 0.000000
# 4 0.000000 0.000000 0.000000 0.040006 0.000000 0.000000
# 5 0.000000 0.000000 0.000000 0.000000 0.065115 0.000000
# 6 0.000000 0.000000 0.000000 0.000000 0.000000 0.027225
#
#
# Mechanical properties :
#
#
# Convention : Reuss Voigt Hill
#
# Bulk Modulus (GPa) = 40.92952 80.39120 60.66036
# Shear Modulus (GPa) = 17.80038 26.37940 22.08989
#
# Velocity S-wave (km/s) = 3.17728 3.86788 3.53946
# Velocity P-wave (km/s) = 6.05577 8.09564 7.14884
#
# Compressibility (1/GPa) = 0.02443224
#
# Stress axis : x y z
#
# Youngs Moduli (GPa) = 82.32340 17.21199 82.16026
#
# Poissons Ratio (x) = 0.27267 0.07826
# Poissons Ratio (y) = 1.30415 1.00223
# Poissons Ratio (z) = 0.07841 0.20996
#
# Static dielectric constant tensor:
#      x y z
#    x 1.566790 0.000000 0.000000 
#    y 0.000000 1.589970 0.000000 
#    z 0.000000 0.000000 1.605550 
# 
# From -- ./inp_files/10337.got.cif
#   From: 2010.05.17/outbox.cif.g08.bks.cpg/sg39_6_cif.got.tgz:10337.got - 2010.06.03 18:22:40.
