data_PCOD9360154
_publ_section_title
;
Structure prediction by ZEFSAII (Michael W. Deem and Ramdas Pophale) SiO2 
 PCOD9360154
Probable space group: A B M 2
;
_chemical_formula_sum "Si O2"
_cell_formula_units_Z 56
_cell_length_a 10.116064
_cell_length_b 20.483866
_cell_length_c 13.839828
_cell_angle_alpha 90.000000
_cell_angle_beta 90.000000
_cell_angle_gamma 90.000000
_cell_volume 2867.835175
_symmetry_space_group_name_H-M "A B M 2"
_symmetry_group_IT_number 39
_symmetry_cell_setting 'orthorhombic'
loop_
_space_group_symop_operation_xyz
x,y,z
-x,-y,z
-x,1/2+y,z
x,1/2-y,z
x,1/2+y,1/2+z
-x,1/2-y,1/2+z
-x,y,1/2+z
x,-y,1/2+z
loop_
_atom_site_type_symbol
_atom_site_label
_atom_site_fract_x
_atom_site_fract_y
_atom_site_fract_z
Si Si1 0.627982 0.546043 0.250000
Si Si2 0.876965 0.544339 0.525903
Si Si3 0.741068 0.822837 0.526536
Si Si4 0.258933 0.822838 0.256989
Si Si5 0.627982 0.546043 0.033525
Si Si6 0.500000 0.644539 0.391763
Si Si7 0.123035 0.544339 0.257622
O O1 0.500000 0.500000 0.248013
O O2 0.649754 0.572299 0.141763
O O3 0.596140 0.601232 0.325661
O O4 0.749446 0.500194 0.275814
O O5 0.837656 0.617843 0.493411
O O6 0.749446 0.499806 0.507711
O O7 0.894225 0.551074 0.641763
O O8 0.000000 0.500000 0.492917
O O9 0.799559 0.750000 0.516564
O O10 0.712615 0.833487 0.641762
O O11 0.603672 0.823353 0.466497
O O12 0.200442 0.750000 0.266961
O O13 0.396328 0.823354 0.317027
O O14 0.162344 0.882157 0.290114
O O15 0.500000 0.500000 0.035512
O O16 0.596140 0.601233 0.957865
O O17 0.000000 0.500000 0.290609
#
# Coordination Sequence:
#
# PCOD9360154 Si02
#       7
#     8   8   8   8   8   8   8
#     4  10  19  32  53  81 110 139 182 241 289 327
#     4   9  18  34  56  82 108 142 189 235 281 337
#     4  10  21  36  55  81 115 153 191 232 285 347
#     4  10  21  36  55  81 115 153 191 232 285 347
#     4  10  19  32  53  81 110 139 182 241 289 327
#     4  12  20  32  54  84 111 149 188 234 281 339
#     4   9  18  34  56  82 108 142 189 235 281 337
#
# _framework density 19.526923
#
# number of rings (size 3 to 8) (size 9 to 14) (size 15 to 20)
#    0.000    2.000    2.857    1.714    0.000    0.000 
#    0.000    2.857    0.000    5.143    0.000   12.000 
#    0.000    0.000    0.000    0.000    0.000    0.000 
#
# Total GULP energy -156026.995588 kJ/mol
# GULP energy per Si atom -5572.392700 kJ/mol
# Density = 1.948248 g / cm^3
# Si number density = 19.526923 Si / 1000 Ang^3
#
#
#
# Elastic Constant Matrix: (Units=GPa)
#
#
# Indices 1 2 3 4 5 6 
#
# 1 131.2384 69.5868 14.9766 0.0000 0.0000 0.0000
# 2 69.5868 151.7618 46.8980 0.0000 0.0000 0.0000
# 3 14.9766 46.8980 86.6931 0.0000 0.0000 0.0000
# 4 0.0000 0.0000 0.0000 27.6503 0.0000 0.0000
# 5 0.0000 0.0000 0.0000 0.0000 21.3925 0.0000
# 6 0.0000 0.0000 0.0000 0.0000 0.0000 45.7017
#
#
#
# Elastic Compliance Matrix: (Units=1/GPa)
#
#
# Indices 1 2 3 4 5 6 
#
# 1 0.010128 -0.004927 0.000916 0.000000 0.000000 0.000000
# 2 -0.004927 0.010309 -0.004725 0.000000 0.000000 0.000000
# 3 0.000916 -0.004725 0.013933 0.000000 0.000000 0.000000
# 4 0.000000 0.000000 0.000000 0.036166 0.000000 0.000000
# 5 0.000000 0.000000 0.000000 0.000000 0.046745 0.000000
# 6 0.000000 0.000000 0.000000 0.000000 0.000000 0.021881
#
#
# Mechanical properties :
#
#
# Convention : Reuss Voigt Hill
#
# Bulk Modulus (GPa) = 59.18542 70.29067 64.73804
# Shear Modulus (GPa) = 30.81347 34.83102 32.82224
#
# Velocity S-wave (km/s) = 3.97671 4.22802 4.10429
# Velocity P-wave (km/s) = 7.17364 7.74014 7.46227
#
# Compressibility (1/GPa) = 0.01689605
#
# Stress axis : x y z
#
# Youngs Moduli (GPa) = 98.74095 97.00666 71.77156
#
# Poissons Ratio (x) = 0.47792 -0.06571
# Poissons Ratio (y) = 0.48646 0.33916
# Poissons Ratio (z) = -0.09041 0.45840
#
# Static dielectric constant tensor:
#      x y z
#    x 1.731910 0.000000 0.000000 
#    y 0.000000 1.693960 0.000000 
#    z 0.000000 0.000000 1.747600 
# 
# From -- ./inp_files/8635.got.cif
#   From: 2010.05.17/outbox.cif.g08.bks.cpg/sg39_5_cif.got.tgz:8635.got - 2010.06.03 18:22:40.
