data_PCOD9360500
_publ_section_title
;
Structure prediction by ZEFSAII (Michael W. Deem and Ramdas Pophale) SiO2 
 PCOD9360500
Probable space group: A B M 2
;
_chemical_formula_sum "Si O2"
_cell_formula_units_Z 64
_cell_length_a 24.359976
_cell_length_b 8.804076
_cell_length_c 15.820486
_cell_angle_alpha 90.000000
_cell_angle_beta 90.000000
_cell_angle_gamma 90.000000
_cell_volume 3392.973438
_symmetry_space_group_name_H-M "A B M 2"
_symmetry_group_IT_number 39
_symmetry_cell_setting 'orthorhombic'
loop_
_space_group_symop_operation_xyz
x,y,z
-x,-y,z
-x,1/2+y,z
x,1/2-y,z
x,1/2+y,1/2+z
-x,1/2-y,1/2+z
-x,y,1/2+z
x,-y,1/2+z
loop_
_atom_site_type_symbol
_atom_site_label
_atom_site_fract_x
_atom_site_fract_y
_atom_site_fract_z
Si Si1 0.060606 0.066885 0.957700
Si Si2 0.135932 0.568113 0.616006
Si Si3 0.131485 0.932520 0.294068
Si Si4 0.250000 0.930868 0.055838
Si Si5 0.364068 0.931887 0.616005
Si Si6 0.250001 0.567616 0.368693
Si Si7 0.439394 0.933115 0.457700
Si Si8 0.631484 0.432521 0.294067
O O1 0.057638 0.250000 0.958144
O O2 0.093586 0.022268 0.873107
O O3 0.095509 0.020600 0.040076
O O4 0.000000 0.000000 0.958884
O O5 0.140525 0.750000 0.614213
O O6 0.115862 0.512360 0.707073
O O7 0.195414 0.496621 0.598595
O O8 0.127980 0.750000 0.283952
O O9 0.194573 0.968996 0.318231
O O10 0.250000 0.750000 0.062164
O O11 0.304585 0.996622 0.098595
O O12 0.250000 0.984344 0.958422
O O13 0.359474 0.750000 0.614213
O O14 0.404489 0.979399 0.540074
O O15 0.384138 0.987641 0.707071
O O16 0.250001 0.750000 0.384881
O O17 0.305429 0.531001 0.318231
O O18 0.442362 0.750000 0.458144
O O19 0.406416 0.977732 0.373105
O O20 0.500000 0.000000 0.458887
O O21 0.627981 0.250000 0.283952
#
# Coordination Sequence:
#
# PCOD9360500 Si02
#       8
#     8   8   8   8   8   8   8   8
#     4  10  23  42  63  86 120 162 204 252 303 352
#     4  11  23  41  63  90 123 161 202 247 301 360
#     4  10  21  39  63  91 122 159 198 245 305 360
#     4  12  23  36  61  94 124 158 199 245 302 363
#     4  11  23  41  63  90 123 161 202 247 301 360
#     4  10  19  38  63  86 124 160 191 241 306 365
#     4  10  23  42  63  86 120 162 204 252 303 352
#     4  10  21  39  63  91 122 159 198 245 305 360
#
# _framework density 18.862513
#
# number of rings (size 3 to 8) (size 9 to 14) (size 15 to 20)
#    0.000    1.500    2.500    2.625    0.000    6.000 
#    0.000    5.000    0.000    0.000    0.000    0.000 
#    0.000    0.000    0.000    0.000    0.000    0.000 
#
# Total GULP energy -178900.883785 kJ/mol
# GULP energy per Si atom -5590.652618 kJ/mol
# Density = 1.881958 g / cm^3
# Si number density = 18.862513 Si / 1000 Ang^3
#
#
#
# Elastic Constant Matrix: (Units=GPa)
#
#
# Indices 1 2 3 4 5 6 
#
# 1 157.7981 40.0138 89.5649 0.0000 0.0000 0.0000
# 2 40.0138 38.7285 55.6058 0.0000 0.0000 0.0000
# 3 89.5649 55.6058 191.2735 0.0000 0.0000 0.0000
# 4 0.0000 0.0000 0.0000 34.3327 0.0000 0.0000
# 5 0.0000 0.0000 0.0000 0.0000 -0.2718 0.0000
# 6 0.0000 0.0000 0.0000 0.0000 0.0000 33.3295
#
#
#
# Elastic Compliance Matrix: (Units=1/GPa)
#
#
# Indices 1 2 3 4 5 6 
#
# 1 0.009328 -0.005778 -0.002688 0.000000 0.000000 0.000000
# 2 -0.005778 0.047899 -0.011219 0.000000 0.000000 0.000000
# 3 -0.002688 -0.011219 0.009748 0.000000 0.000000 0.000000
# 4 0.000000 0.000000 0.000000 0.029127 0.000000 0.000000
# 5 0.000000 0.000000 0.000000 0.000000 -3.679688 0.000000
# 6 0.000000 0.000000 0.000000 0.000000 0.000000 0.030003
#
#
# Mechanical properties :
#
#
# Convention : Reuss Voigt Hill
#
# Bulk Modulus (GPa) = 36.22582 84.24102 60.23342
# Shear Modulus (GPa) = -1.42653 26.98580 12.77963
#
# Velocity S-wave (km/s) = -0.87059 3.78651 2.60574
# Velocity P-wave (km/s) = 4.27040 7.99214 6.40744
#
# Compressibility (1/GPa) = 0.02760462
#
# Stress axis : x y z
#
# Youngs Moduli (GPa) = 107.20168 20.87718 102.57996
#
# Poissons Ratio (x) = 0.12063 0.27576
# Poissons Ratio (y) = 0.61942 1.15088
# Poissons Ratio (z) = 0.28818 0.23423
#
# Static dielectric constant tensor:
#      x y z
#    x 1.624750 0.000000 0.000000 
#    y 0.000000 1.634290 0.000000 
#    z 0.000000 0.000000 1.650560 
# 
# From -- ./inp_files/10598.got.cif
#   From: 2010.05.17/outbox.cif.g08.bks.cpg/sg39_6_cif.got.tgz:10598.got - 2010.06.03 18:22:40.
