data_PCOD9360558
_publ_section_title
;
Structure prediction by ZEFSAII (Michael W. Deem and Ramdas Pophale) SiO2 
 PCOD9360558
Probable space group: A B M 2
;
_chemical_formula_sum "Si O2"
_cell_formula_units_Z 64
_cell_length_a 14.689107
_cell_length_b 8.651861
_cell_length_c 31.916104
_cell_angle_alpha 90.000000
_cell_angle_beta 90.000000
_cell_angle_gamma 90.000000
_cell_volume 4056.157399
_symmetry_space_group_name_H-M "A B M 2"
_symmetry_group_IT_number 39
_symmetry_cell_setting 'orthorhombic'
loop_
_space_group_symop_operation_xyz
x,y,z
-x,-y,z
-x,1/2+y,z
x,1/2-y,z
x,1/2+y,1/2+z
-x,1/2-y,1/2+z
-x,y,1/2+z
x,-y,1/2+z
loop_
_atom_site_type_symbol
_atom_site_label
_atom_site_fract_x
_atom_site_fract_y
_atom_site_fract_z
Si Si1 0.897367 0.565025 0.073800
Si Si2 0.896862 0.434365 0.986979
Si Si3 0.208476 0.936309 0.407246
Si Si4 0.896983 0.435415 0.667084
Si Si5 0.791284 0.936015 0.746189
Si Si6 0.897855 0.564827 0.326575
Si Si7 0.403298 0.564199 0.278160
Si Si8 0.596763 0.435860 0.375538
O O1 0.899309 0.750000 0.068960
O O2 0.860509 0.528186 0.120149
O O3 0.000000 0.500000 0.075073
O O4 0.857535 0.490631 0.031803
O O5 0.901621 0.250000 0.986077
O O6 0.837224 0.497458 0.948861
O O7 0.000000 0.500000 0.982983
O O8 0.203067 0.750000 0.407444
O O9 0.314148 0.982406 0.401367
O O10 0.154476 0.999123 0.366963
O O11 0.901038 0.250000 0.671172
O O12 0.835054 0.506102 0.703215
O O13 0.000000 0.500000 0.670946
O O14 0.796939 0.750000 0.748655
O O15 0.685761 0.982390 0.752314
O O16 0.847197 0.006740 0.784898
O O17 0.899173 0.750000 0.327832
O O18 0.000000 0.500000 0.326578
O O19 0.500000 0.500000 0.263275
O O20 0.407595 0.750000 0.278044
O O21 0.390939 0.514331 0.326843
O O22 0.500000 0.500000 0.390391
O O23 0.592714 0.250000 0.375639
#
# Coordination Sequence:
#
# PCOD9360558 Si02
#       8
#     8   8   8   8   8   8   8   8
#     4   9  17  31  50  71  97 128 163 205 249 291
#     4  11  21  33  50  74 101 132 169 205 245 293
#     4  11  21  36  52  71 100 132 166 203 245 292
#     4  10  20  33  50  74 101 132 169 205 246 292
#     4  11  21  35  51  71 100 132 167 203 245 293
#     4  12  24  36  49  67  96 134 171 205 241 285
#     4   9  18  33  51  72  95 125 162 204 249 290
#     4   9  18  33  52  72  96 125 161 204 248 290
#
# _framework density 15.77848
#
# number of rings (size 3 to 8) (size 9 to 14) (size 15 to 20)
#    0.000    1.750    1.250    5.250    0.000    3.500 
#    0.000    0.000    0.000    0.000    0.000    0.875 
#    0.000    6.000    0.000    0.000    0.000    0.000 
#
# Total GULP energy -178576.964883 kJ/mol
# GULP energy per Si atom -5580.530153 kJ/mol
# Density = 1.574257 g / cm^3
# Si number density = 15.778480 Si / 1000 Ang^3
#
#
#
# Elastic Constant Matrix: (Units=GPa)
#
#
# Indices 1 2 3 4 5 6 
#
# 1 129.0729 45.7413 75.2567 0.0000 0.0000 0.0000
# 2 45.7413 85.7321 54.9791 0.0000 0.0000 0.0000
# 3 75.2567 54.9791 144.4474 0.0000 0.0000 0.0000
# 4 0.0000 0.0000 0.0000 25.0556 0.0000 0.0000
# 5 0.0000 0.0000 0.0000 0.0000 1.4998 0.0000
# 6 0.0000 0.0000 0.0000 0.0000 0.0000 25.0389
#
#
#
# Elastic Compliance Matrix: (Units=1/GPa)
#
#
# Indices 1 2 3 4 5 6 
#
# 1 0.011716 -0.003091 -0.004928 0.000000 0.000000 0.000000
# 2 -0.003091 0.016246 -0.004573 0.000000 0.000000 0.000000
# 3 -0.004928 -0.004573 0.011231 0.000000 0.000000 0.000000
# 4 0.000000 0.000000 0.000000 0.039911 0.000000 0.000000
# 5 0.000000 0.000000 0.000000 0.000000 0.666775 0.000000
# 6 0.000000 0.000000 0.000000 0.000000 0.000000 0.039938
#
#
# Mechanical properties :
#
#
# Convention : Reuss Voigt Hill
#
# Bulk Modulus (GPa) = 71.37967 79.02295 75.20131
# Shear Modulus (GPa) = 6.12993 22.53720 14.33356
#
# Velocity S-wave (km/s) = 1.97318 3.78345 3.01728
# Velocity P-wave (km/s) = 7.10831 8.32331 7.73969
#
# Compressibility (1/GPa) = 0.01400959
#
# Stress axis : x y z
#
# Youngs Moduli (GPa) = 85.35367 61.55326 89.04089
#
# Poissons Ratio (x) = 0.19026 0.43875
# Poissons Ratio (y) = 0.26382 0.40720
# Poissons Ratio (z) = 0.42058 0.28149
#
# Static dielectric constant tensor:
#      x y z
#    x 1.508890 0.000000 0.000000 
#    y 0.000000 1.526380 0.000000 
#    z 0.000000 0.000000 1.531920 
# 
# From -- ./inp_files/17984.got.cif
#   From: 2010.05.17/outbox.cif.g08.bks.cpg/sg39_9_cif.got.tgz:17984.got - 2010.06.03 18:22:40.
