data_PCOD9360118
_publ_section_title
;
Structure prediction by ZEFSAII (Michael W. Deem and Ramdas Pophale) SiO2 
 PCOD9360118
Probable space group: A B M 2
;
_chemical_formula_sum "Si O2"
_cell_formula_units_Z 64
_cell_length_a 5.041144
_cell_length_b 27.545875
_cell_length_c 26.730020
_cell_angle_alpha 90.000000
_cell_angle_beta 90.000000
_cell_angle_gamma 90.000000
_cell_volume 3711.803349
_symmetry_space_group_name_H-M "A B M 2"
_symmetry_group_IT_number 39
_symmetry_cell_setting 'orthorhombic'
loop_
_space_group_symop_operation_xyz
x,y,z
-x,-y,z
-x,1/2+y,z
x,1/2-y,z
x,1/2+y,1/2+z
-x,1/2-y,1/2+z
-x,y,1/2+z
x,-y,1/2+z
loop_
_atom_site_type_symbol
_atom_site_label
_atom_site_fract_x
_atom_site_fract_y
_atom_site_fract_z
Si Si1 0.039308 0.554639 0.444770
Si Si2 0.607113 0.654127 0.831449
Si Si3 0.891726 0.192288 0.775698
Si Si4 0.539396 0.054836 0.875829
Si Si5 0.621520 0.306819 0.440705
Si Si6 0.115425 0.651278 0.995113
Si Si7 0.676892 0.693389 0.169451
Si Si8 0.198328 0.807106 0.102957
O O1 0.333284 0.559457 0.422247
O O2 0.000000 0.500000 0.464120
O O3 0.833764 0.560296 0.398324
O O4 0.970825 0.596224 0.484044
O O5 0.343958 0.682765 0.814848
O O6 0.531469 0.597758 0.838017
O O7 0.694690 0.673338 0.885957
O O8 0.843582 0.665271 0.793295
O O9 0.950753 0.250000 0.772317
O O10 0.780085 0.173973 0.722346
O O11 0.500000 0.000000 0.856226
O O12 0.562206 0.250000 0.438085
O O13 0.364207 0.334924 0.460459
O O14 0.865532 0.316469 0.477809
O O15 0.190831 0.663561 0.051681
O O16 0.612964 0.750000 0.180246
O O17 0.416735 0.673711 0.142178
O O18 0.915740 0.691393 0.130102
O O19 0.259191 0.750000 0.091600
#
# Coordination Sequence:
#
# PCOD9360118 Si02
#       8
#     8   8   8   8   8   8   8   8
#     4  10  19  35  54  73 101 138 177 220 258 299
#     4  12  21  35  52  77 105 143 178 213 264 319
#     4  11  22  35  53  76 106 140 179 220 263 318
#     4  10  20  36  54  73 101 137 177 220 258 299
#     4  12  23  33  47  73 114 148 173 203 255 322
#     4  12  21  35  51  77 106 143 179 214 261 318
#     4   9  19  35  51  71  98 134 177 222 257 293
#     4  10  19  32  51  72 100 135 175 216 258 306
#
# _framework density 17.242291999999999
#
# number of rings (size 3 to 8) (size 9 to 14) (size 15 to 20)
#    0.000    1.250    2.500    5.250    0.000    3.000 
#    0.000    0.000    0.000    0.000    0.000    3.500 
#    0.000    0.000    0.000    0.000    0.000    0.000 
#
# Total GULP energy -178734.776090 kJ/mol
# GULP energy per Si atom -5585.461753 kJ/mol
# Density = 1.720305 g / cm^3
# Si number density = 17.242292 Si / 1000 Ang^3
#
#
#
# Elastic Constant Matrix: (Units=GPa)
#
#
# Indices 1 2 3 4 5 6 
#
# 1 64.0877 -0.8491 -9.9748 0.0000 0.0000 0.0000
# 2 -0.8491 68.5898 13.2524 0.0000 0.0000 0.0000
# 3 -9.9748 13.2524 37.3135 0.0000 0.0000 0.0000
# 4 0.0000 0.0000 0.0000 -14.6524 0.0000 0.0000
# 5 0.0000 0.0000 0.0000 0.0000 17.2224 0.0000
# 6 0.0000 0.0000 0.0000 0.0000 0.0000 18.4980
#
#
#
# Elastic Compliance Matrix: (Units=1/GPa)
#
#
# Indices 1 2 3 4 5 6 
#
# 1 0.016311 -0.000688 0.004605 0.000000 0.000000 0.000000
# 2 -0.000688 0.015683 -0.005754 0.000000 0.000000 0.000000
# 3 0.004605 -0.005754 0.030074 0.000000 0.000000 0.000000
# 4 0.000000 0.000000 0.000000 -0.068248 0.000000 0.000000
# 5 0.000000 0.000000 0.000000 0.000000 0.058064 0.000000
# 6 0.000000 0.000000 0.000000 0.000000 0.000000 0.054060
#
#
# Mechanical properties :
#
#
# Convention : Reuss Voigt Hill
#
# Bulk Modulus (GPa) = 17.12488 19.42754 18.27621
# Shear Modulus (GPa) = 38.73495 15.38444 27.05970
#
# Velocity S-wave (km/s) = 4.74488 2.99030 3.96584
# Velocity P-wave (km/s) = 6.32234 4.81813 5.62078
#
# Compressibility (1/GPa) = 0.05839456
#
# Stress axis : x y z
#
# Youngs Moduli (GPa) = 61.30757 63.76492 33.25082
#
# Poissons Ratio (x) = 0.04385 -0.15311
# Poissons Ratio (y) = 0.04216 0.19132
# Poissons Ratio (z) = -0.28230 0.36689
#
# Static dielectric constant tensor:
#      x y z
#    x 1.598040 0.000000 0.000000 
#    y 0.000000 1.594090 0.000000 
#    z 0.000000 0.000000 1.582330 
# 
# From -- ./inp_files/13661.got.cif
#   From: 2010.05.17/outbox.cif.g08.bks.cpg/sg39_7_cif.got.tgz:13661.got - 2010.06.03 18:22:40.
