data_PCOD9360266
_publ_section_title
;
Structure prediction by ZEFSAII (Michael W. Deem and Ramdas Pophale) SiO2 
 PCOD9360266
Probable space group: A B M 2
;
_chemical_formula_sum "Si O2"
_cell_formula_units_Z 64
_cell_length_a 17.984197
_cell_length_b 11.376036
_cell_length_c 15.334775
_cell_angle_alpha 90.000000
_cell_angle_beta 90.000000
_cell_angle_gamma 90.000000
_cell_volume 3137.324327
_symmetry_space_group_name_H-M "A B M 2"
_symmetry_group_IT_number 39
_symmetry_cell_setting 'orthorhombic'
loop_
_space_group_symop_operation_xyz
x,y,z
-x,-y,z
-x,1/2+y,z
x,1/2-y,z
x,1/2+y,1/2+z
-x,1/2-y,1/2+z
-x,y,1/2+z
x,-y,1/2+z
loop_
_atom_site_type_symbol
_atom_site_label
_atom_site_fract_x
_atom_site_fract_y
_atom_site_fract_z
Si Si1 0.298172 0.945058 0.223380
Si Si2 0.460997 0.121827 0.680538
Si Si3 0.136827 0.380683 0.783038
Si Si4 0.057252 0.109170 0.597780
Si Si5 0.828888 0.476376 0.950913
Si Si6 0.427043 0.541943 0.990174
Si Si7 0.691037 0.130525 0.868097
Si Si8 0.707094 0.388541 0.556443
O O1 0.373720 0.877280 0.203884
O O2 0.221863 0.881529 0.247628
O O3 0.317104 0.020360 0.307550
O O4 0.283048 0.033535 0.143298
O O5 0.494269 0.250000 0.704091
O O6 0.458787 0.105455 0.575971
O O7 0.500000 0.000000 0.712664
O O8 0.118086 0.250000 0.814976
O O9 0.088813 0.404966 0.696375
O O10 0.131845 0.470259 0.864421
O O11 0.034756 0.250000 0.589518
O O12 0.118781 0.080825 0.523706
O O13 0.000000 0.000000 0.586248
O O14 0.768705 0.382478 0.917725
O O15 0.776137 0.576950 0.993939
O O16 0.500000 0.500000 0.939660
O O17 0.374889 0.626258 0.936244
O O18 0.370831 0.436333 0.016786
O O19 0.690010 0.250000 0.814911
O O20 0.704591 0.250000 0.571467
#
# Coordination Sequence:
#
# PCOD9360266 Si02
#       8
#     8   8   8   8   8   8   8   8
#     4  10  20  35  55  86 118 157 208 259 319 376
#     4  10  21  36  56  80 111 155 207 260 317 377
#     4  10  21  40  66  94 129 167 215 264 315 378
#     4  11  25  46  70 100 134 172 211 256 313 384
#     4  10  21  40  64  94 125 166 214 259 316 375
#     4   9  20  34  50  75 110 157 207 259 317 379
#     4  10  20  34  55  83 115 155 206 259 311 369
#     4  10  19  33  56  86 120 160 211 269 322 377
#
# _framework density 20.399547999999999
#
# number of rings (size 3 to 8) (size 9 to 14) (size 15 to 20)
#    0.000    2.000    1.250    1.875    0.000    7.500 
#    0.000    3.125    0.000    0.000    0.000    0.000 
#    0.000    0.000    0.000    0.000    0.000    0.000 
#
# Total GULP energy -178315.042553 kJ/mol
# GULP energy per Si atom -5572.345080 kJ/mol
# Density = 2.035312 g / cm^3
# Si number density = 20.399548 Si / 1000 Ang^3
#
#
#
# Elastic Constant Matrix: (Units=GPa)
#
#
# Indices 1 2 3 4 5 6 
#
# 1 44.9910 31.5587 20.8568 0.0000 0.0000 0.0000
# 2 31.5587 145.8208 32.1933 0.0000 0.0000 0.0000
# 3 20.8568 32.1933 79.9581 0.0000 0.0000 0.0000
# 4 0.0000 0.0000 0.0000 -7.3646 0.0000 0.0000
# 5 0.0000 0.0000 0.0000 0.0000 18.1136 0.0000
# 6 0.0000 0.0000 0.0000 0.0000 0.0000 -19.6765
#
#
#
# Elastic Compliance Matrix: (Units=1/GPa)
#
#
# Indices 1 2 3 4 5 6 
#
# 1 0.028159 -0.004909 -0.005369 0.000000 0.000000 0.000000
# 2 -0.004909 0.008383 -0.002095 0.000000 0.000000 0.000000
# 3 -0.005369 -0.002095 0.014750 0.000000 0.000000 0.000000
# 4 0.000000 0.000000 0.000000 -0.135784 0.000000 0.000000
# 5 0.000000 0.000000 0.000000 0.000000 0.055207 0.000000
# 6 0.000000 0.000000 0.000000 0.000000 0.000000 -0.050822
#
#
# Mechanical properties :
#
#
# Convention : Reuss Voigt Hill
#
# Bulk Modulus (GPa) = 37.66856 48.88747 43.27802
# Shear Modulus (GPa) = -107.49325 10.62525 -48.43400
#
# Velocity S-wave (km/s) = -7.26693 2.28471 -4.87793
# Velocity P-wave (km/s) = 7.20456 5.56568 3.23487
#
# Compressibility (1/GPa) = 0.02654734
#
# Stress axis : x y z
#
# Youngs Moduli (GPa) = 35.51295 119.29552 67.79530
#
# Poissons Ratio (x) = 0.58561 0.36397
# Poissons Ratio (y) = 0.17433 0.14200
# Poissons Ratio (z) = 0.19066 0.24987
#
# Static dielectric constant tensor:
#      x y z
#    x 1.761150 0.000000 0.000000 
#    y 0.000000 1.808590 0.000000 
#    z 0.000000 0.000000 1.735300 
# 
# From -- ./inp_files/10176.got.cif
#   From: 2010.05.17/outbox.cif.g08.bks.cpg/sg39_6_cif.got.tgz:10176.got - 2010.06.03 18:22:40.
