data_PCOD9360496
_publ_section_title
;
Structure prediction by ZEFSAII (Michael W. Deem and Ramdas Pophale) SiO2 
 PCOD9360496
Probable space group: A B M 2
;
_chemical_formula_sum "Si O2"
_cell_formula_units_Z 60
_cell_length_a 10.928585
_cell_length_b 34.466486
_cell_length_c 8.378160
_cell_angle_alpha 90.000000
_cell_angle_beta 90.000000
_cell_angle_gamma 90.000000
_cell_volume 3155.800873
_symmetry_space_group_name_H-M "A B M 2"
_symmetry_group_IT_number 39
_symmetry_cell_setting 'orthorhombic'
loop_
_space_group_symop_operation_xyz
x,y,z
-x,-y,z
-x,1/2+y,z
x,1/2-y,z
x,1/2+y,1/2+z
-x,1/2-y,1/2+z
-x,y,1/2+z
x,-y,1/2+z
loop_
_atom_site_type_symbol
_atom_site_label
_atom_site_fract_x
_atom_site_fract_y
_atom_site_fract_z
Si Si1 0.652316 0.461472 0.940940
Si Si2 0.500000 0.000000 0.699716
Si Si3 0.677916 0.204099 0.411269
Si Si4 0.909162 0.536258 0.339572
Si Si5 0.852828 0.141288 0.281213
Si Si6 0.955518 0.404796 0.572022
Si Si7 0.554751 0.831135 0.223235
Si Si8 0.636913 0.873647 0.532198
O O1 0.547762 0.466181 0.810505
O O2 0.778119 0.479858 0.885017
O O3 0.608457 0.484600 0.093502
O O4 0.660432 0.416639 0.975095
O O5 0.694717 0.250000 0.406575
O O6 0.802529 0.182116 0.354640
O O7 0.562092 0.192676 0.295456
O O8 0.634756 0.190854 0.589390
O O9 0.891190 0.565886 0.193469
O O10 0.000000 0.500000 0.311197
O O11 0.955113 0.565182 0.479363
O O12 0.870284 0.114241 0.437166
O O13 0.743897 0.133452 0.158123
O O14 0.972434 0.128784 0.173559
O O15 0.630351 0.845905 0.376610
O O16 0.490158 0.866412 0.126590
#
# Coordination Sequence:
#
# PCOD9360496 Si02
#       8
#     8   4   8   8   8   8   8   8
#     4  11  23  42  58  82 125 155 214 246 318 376
#     4  10  26  40  54  82 120 174 186 256 308 392
#     4  10  20  37  61  95 132 165 199 252 308 368
#     4  11  24  39  65  90 114 156 209 271 322 365
#     4  10  22  39  63  87 119 157 207 248 317 371
#     4  10  23  42  59  88 116 153 204 268 322 356
#     4   9  20  34  62  94 129 158 212 240 301 371
#     4  10  19  38  60  89 115 167 198 256 293 373
#
# _framework density 19.012605000000001
#
# number of rings (size 3 to 8) (size 9 to 14) (size 15 to 20)
#    0.000    1.867    1.333    1.600    5.600    0.000 
#    4.800    1.333    0.000    0.000    0.000    0.000 
#    0.000    0.000    0.000    0.000    0.000    0.000 
#
# Total GULP energy -167060.528190 kJ/mol
# GULP energy per Si atom -5568.684273 kJ/mol
# Density = 1.896933 g / cm^3
# Si number density = 19.012605 Si / 1000 Ang^3
#
#
#
# Elastic Constant Matrix: (Units=GPa)
#
#
# Indices 1 2 3 4 5 6 
#
# 1 42.3539 33.7652 22.7871 0.0000 0.0000 0.0000
# 2 33.7652 95.8216 36.8719 0.0000 0.0000 0.0000
# 3 22.7871 36.8719 109.8703 0.0000 0.0000 0.0000
# 4 0.0000 0.0000 0.0000 50.7978 0.0000 0.0000
# 5 0.0000 0.0000 0.0000 0.0000 28.5444 0.0000
# 6 0.0000 0.0000 0.0000 0.0000 0.0000 10.0323
#
#
#
# Elastic Compliance Matrix: (Units=1/GPa)
#
#
# Indices 1 2 3 4 5 6 
#
# 1 0.033952 -0.010627 -0.003475 0.000000 0.000000 0.000000
# 2 -0.010627 0.015310 -0.002934 0.000000 0.000000 0.000000
# 3 -0.003475 -0.002934 0.010807 0.000000 0.000000 0.000000
# 4 0.000000 0.000000 0.000000 0.019686 0.000000 0.000000
# 5 0.000000 0.000000 0.000000 0.000000 0.035033 0.000000
# 6 0.000000 0.000000 0.000000 0.000000 0.000000 0.099678
#
#
# Mechanical properties :
#
#
# Convention : Reuss Voigt Hill
#
# Bulk Modulus (GPa) = 38.46607 48.32157 43.39382
# Shear Modulus (GPa) = 19.43994 28.18303 23.81148
#
# Velocity S-wave (km/s) = 3.20109 3.85429 3.54277
# Velocity P-wave (km/s) = 5.82567 6.72890 6.29351
#
# Compressibility (1/GPa) = 0.02599694
#
# Stress axis : x y z
#
# Youngs Moduli (GPa) = 29.45330 65.31873 92.53236
#
# Poissons Ratio (x) = 0.69411 0.32159
# Poissons Ratio (y) = 0.31299 0.27148
# Poissons Ratio (z) = 0.10236 0.19164
#
# Static dielectric constant tensor:
#      x y z
#    x 1.678930 0.000000 0.000000 
#    y 0.000000 1.632220 0.000000 
#    z 0.000000 0.000000 1.715710 
# 
# From -- ./inp_files/2867.got.cif
#   From: 2010.05.17/outbox.cif.g08.bks.cpg/sg39_2_cif.got.tgz:2867.got - 2010.06.03 18:22:40.
