data_PCOD9360079
_publ_section_title
;
Structure prediction by ZEFSAII (Michael W. Deem and Ramdas Pophale) SiO2 
 PCOD9360079
Probable space group: A B M 2
;
_chemical_formula_sum "Si O2"
_cell_formula_units_Z 64
_cell_length_a 16.594429
_cell_length_b 9.500795
_cell_length_c 21.729687
_cell_angle_alpha 90.000000
_cell_angle_beta 90.000000
_cell_angle_gamma 90.000000
_cell_volume 3425.908278
_symmetry_space_group_name_H-M "A B M 2"
_symmetry_group_IT_number 39
_symmetry_cell_setting 'orthorhombic'
loop_
_space_group_symop_operation_xyz
x,y,z
-x,-y,z
-x,1/2+y,z
x,1/2-y,z
x,1/2+y,1/2+z
-x,1/2-y,1/2+z
-x,y,1/2+z
x,-y,1/2+z
loop_
_atom_site_type_symbol
_atom_site_label
_atom_site_fract_x
_atom_site_fract_y
_atom_site_fract_z
Si Si1 0.078498 0.588091 0.421320
Si Si2 0.582290 0.918774 0.437049
Si Si3 0.238401 0.916030 0.886229
Si Si4 0.611512 0.909719 0.581118
Si Si5 0.750688 0.589400 0.240960
Si Si6 0.206085 0.409151 0.626899
Si Si7 0.430083 0.912027 0.698568
Si Si8 0.073197 0.407638 0.068572
O O1 0.080060 0.750000 0.397651
O O2 0.163605 0.508005 0.411105
O O3 0.067650 0.597875 0.494912
O O4 0.000000 0.500000 0.397973
O O5 0.571811 0.750000 0.427474
O O6 0.669857 0.956833 0.406923
O O7 0.593051 0.944369 0.510537
O O8 0.500000 0.000000 0.417383
O O9 0.228745 0.750000 0.903885
O O10 0.231444 0.927031 0.812484
O O11 0.581195 0.750000 0.592812
O O12 0.706533 0.905614 0.595189
O O13 0.581077 0.021928 0.630700
O O14 0.772080 0.750000 0.221932
O O15 0.787953 0.475974 0.194843
O O16 0.654663 0.575246 0.232384
O O17 0.174632 0.250000 0.628556
O O18 0.152989 0.512064 0.586792
O O19 0.451941 0.750000 0.695623
O O20 0.500000 0.000000 0.730501
O O21 0.071374 0.250000 0.092931
O O22 0.000000 0.500000 0.093186
#
# Coordination Sequence:
#
# PCOD9360079 Si02
#       8
#     8   8   8   8   8   8   8   8
#     4  10  21  37  60  89 116 144 180 223 272 327
#     4  10  21  35  52  77 109 145 184 226 274 327
#     4  10  21  39  59  78 108 149 189 232 279 324
#     4   9  18  32  50  74 103 135 172 216 269 326
#     4   9  20  37  54  73 101 140 182 222 267 320
#     4  10  19  33  55  80 106 137 174 219 270 321
#     4  10  19  31  49  73 100 132 173 220 270 321
#     4  10  20  34  54  82 114 142 170 208 259 320
#
# _framework density 18.681176000000001
#
# number of rings (size 3 to 8) (size 9 to 14) (size 15 to 20)
#    0.000    2.250    0.000    2.625    0.000    6.500 
#    0.000    0.625    0.000    3.000    0.000    0.000 
#    0.000    0.000    0.000    0.000    0.000    0.000 
#
# Total GULP energy -178373.190836 kJ/mol
# GULP energy per Si atom -5574.162214 kJ/mol
# Density = 1.863866 g / cm^3
# Si number density = 18.681176 Si / 1000 Ang^3
#
#
#
# Elastic Constant Matrix: (Units=GPa)
#
#
# Indices 1 2 3 4 5 6 
#
# 1 93.3853 57.5223 5.5615 0.0000 0.0000 0.0000
# 2 57.5223 134.4351 15.7979 0.0000 0.0000 0.0000
# 3 5.5615 15.7979 17.4732 0.0000 0.0000 0.0000
# 4 0.0000 0.0000 0.0000 -162.1023 0.0000 0.0000
# 5 0.0000 0.0000 0.0000 0.0000 15.6703 0.0000
# 6 0.0000 0.0000 0.0000 0.0000 0.0000 21.8119
#
#
#
# Elastic Compliance Matrix: (Units=1/GPa)
#
#
# Indices 1 2 3 4 5 6 
#
# 1 0.014560 -0.006361 0.001117 0.000000 0.000000 0.000000
# 2 -0.006361 0.011102 -0.008013 0.000000 0.000000 0.000000
# 3 0.001117 -0.008013 0.064119 0.000000 0.000000 0.000000
# 4 0.000000 0.000000 0.000000 -0.006169 0.000000 0.000000
# 5 0.000000 0.000000 0.000000 0.000000 0.063815 0.000000
# 6 0.000000 0.000000 0.000000 0.000000 0.000000 0.045847
#
#
# Mechanical properties :
#
#
# Convention : Reuss Voigt Hill
#
# Bulk Modulus (GPa) = 15.80592 44.78412 30.29502
# Shear Modulus (GPa) = 20.75744 -13.82990 3.46377
#
# Velocity S-wave (km/s) = 3.33700 -2.72382 1.36315
# Velocity P-wave (km/s) = 4.82977 3.75934 4.32778
#
# Compressibility (1/GPa) = 0.06326744
#
# Stress axis : x y z
#
# Youngs Moduli (GPa) = 68.68064 90.07364 15.59589
#
# Poissons Ratio (x) = 0.57298 -0.01742
# Poissons Ratio (y) = 0.43690 0.12497
# Poissons Ratio (z) = -0.07672 0.72175
#
# Static dielectric constant tensor:
#      x y z
#    x 1.639600 0.000000 0.000000 
#    y 0.000000 1.671770 0.000000 
#    z 0.000000 0.000000 1.630440 
# 
# From -- ./inp_files/16149.got.cif
#   From: 2010.05.17/outbox.cif.g08.bks.cpg/sg39_9_cif.got.tgz:16149.got - 2010.06.03 18:22:40.
