data_PCOD9360315
_publ_section_title
;
Structure prediction by ZEFSAII (Michael W. Deem and Ramdas Pophale) SiO2 
 PCOD9360315
Probable space group: A B M 2
;
_chemical_formula_sum "Si O2"
_cell_formula_units_Z 64
_cell_length_a 29.217565
_cell_length_b 8.625337
_cell_length_c 14.567726
_cell_angle_alpha 90.000000
_cell_angle_beta 90.000000
_cell_angle_gamma 90.000000
_cell_volume 3671.232215
_symmetry_space_group_name_H-M "A B M 2"
_symmetry_group_IT_number 39
_symmetry_cell_setting 'orthorhombic'
loop_
_space_group_symop_operation_xyz
x,y,z
-x,-y,z
-x,1/2+y,z
x,1/2-y,z
x,1/2+y,1/2+z
-x,1/2-y,1/2+z
-x,y,1/2+z
x,-y,1/2+z
loop_
_atom_site_type_symbol
_atom_site_label
_atom_site_fract_x
_atom_site_fract_y
_atom_site_fract_z
Si Si1 0.449069 0.436195 0.010910
Si Si2 0.125355 0.062955 0.658772
Si Si3 0.949002 0.063105 0.010911
Si Si4 0.695635 0.063209 0.010909
Si Si5 0.625936 0.936444 0.863599
Si Si6 0.374063 0.436444 0.158220
Si Si7 0.800802 0.061313 0.010911
Si Si8 0.874646 0.937045 0.363050
O O1 0.500000 0.500000 0.010911
O O2 0.451162 0.250000 0.010909
O O3 0.419200 0.483276 0.099887
O O4 0.419200 0.483278 0.921933
O O5 0.125564 0.250000 0.661343
O O6 0.080868 0.014928 0.599615
O O7 0.169806 0.013188 0.599868
O O8 0.125186 0.000000 0.760911
O O9 0.950557 0.250000 0.010911
O O10 0.919132 0.014928 0.922207
O O11 0.000000 0.000000 0.010911
O O12 0.694164 0.250000 0.010906
O O13 0.668537 0.000717 0.922251
O O14 0.748383 0.010775 0.010911
O O15 0.668537 0.000726 0.099570
O O16 0.628118 0.750000 0.862624
O O17 0.625135 0.000004 0.760910
O O18 0.371879 0.250000 0.159189
O O19 0.800583 0.250000 0.010911
O O20 0.830194 0.013189 0.921954
O O21 0.874436 0.750000 0.360479
#
# Coordination Sequence:
#
# PCOD9360315 Si02
#       8
#     8   8   8   8   8   8   8   8
#     4   9  20  36  54  76 104 135 171 213 256 303
#     4   9  18  34  52  72  99 131 164 203 247 295
#     4   9  19  34  51  70  98 131 163 201 247 295
#     4  10  19  34  56  79 104 137 171 212 260 305
#     4  10  21  37  54  77 107 139 174 213 255 305
#     4  10  21  37  54  77 107 139 174 213 255 305
#     4   8  17  34  53  73 101 133 166 202 249 301
#     4   9  18  34  52  72  99 131 164 203 247 295
#
# _framework density 17.432839999999999
#
# number of rings (size 3 to 8) (size 9 to 14) (size 15 to 20)
#    0.000    2.750    0.000    3.375    0.000    6.000 
#    0.000   11.875    0.000    0.000    0.000    0.000 
#    0.000    0.000    0.000    0.000    0.000    0.000 
#
# Total GULP energy -178450.364527 kJ/mol
# GULP energy per Si atom -5576.573891 kJ/mol
# Density = 1.739316 g / cm^3
# Si number density = 17.432840 Si / 1000 Ang^3
#
#
#
# Elastic Constant Matrix: (Units=GPa)
#
#
# Indices 1 2 3 4 5 6 
#
# 1 204.5342 39.0365 113.6294 0.0000 0.0000 0.0000
# 2 39.0365 32.4875 40.8018 0.0000 0.0000 0.0000
# 3 113.6294 40.8018 203.2576 0.0000 0.0000 0.0000
# 4 0.0000 0.0000 0.0000 33.0924 0.0000 0.0000
# 5 0.0000 0.0000 0.0000 0.0000 6.2707 0.0000
# 6 0.0000 0.0000 0.0000 0.0000 0.0000 27.1509
#
#
#
# Elastic Compliance Matrix: (Units=1/GPa)
#
#
# Indices 1 2 3 4 5 6 
#
# 1 0.007682 -0.005130 -0.003265 0.000000 0.000000 0.000000
# 2 -0.005130 0.044584 -0.006082 0.000000 0.000000 0.000000
# 3 -0.003265 -0.006082 0.007966 0.000000 0.000000 0.000000
# 4 0.000000 0.000000 0.000000 0.030218 0.000000 0.000000
# 5 0.000000 0.000000 0.000000 0.000000 0.159471 0.000000
# 6 0.000000 0.000000 0.000000 0.000000 0.000000 0.036831
#
#
# Mechanical properties :
#
#
# Convention : Reuss Voigt Hill
#
# Bulk Modulus (GPa) = 31.97122 91.91274 61.94198
# Shear Modulus (GPa) = 15.33126 29.75692 22.54409
#
# Velocity S-wave (km/s) = 2.96876 4.13600 3.60001
# Velocity P-wave (km/s) = 5.48916 8.69753 7.27248
#
# Compressibility (1/GPa) = 0.03127813
#
# Stress axis : x y z
#
# Youngs Moduli (GPa) = 130.17368 22.42972 125.53696
#
# Poissons Ratio (x) = 0.11507 0.40984
# Poissons Ratio (y) = 0.66785 0.76346
# Poissons Ratio (z) = 0.42498 0.13641
#
# Static dielectric constant tensor:
#      x y z
#    x 1.582440 0.000000 0.000000 
#    y 0.000000 1.594120 0.000000 
#    z 0.000000 0.000000 1.568020 
# 
# From -- ./inp_files/10724.got.cif
#   From: 2010.05.17/outbox.cif.g08.bks.cpg/sg39_6_cif.got.tgz:10724.got - 2010.06.03 18:22:40.
