data_PCOD9360538
_publ_section_title
;
Structure prediction by ZEFSAII (Michael W. Deem and Ramdas Pophale) SiO2 
 PCOD9360538
Probable space group: A B M 2
;
_chemical_formula_sum "Si O2"
_cell_formula_units_Z 64
_cell_length_a 14.557104
_cell_length_b 8.731777
_cell_length_c 32.059257
_cell_angle_alpha 90.000000
_cell_angle_beta 90.000000
_cell_angle_gamma 90.000000
_cell_volume 4075.032469
_symmetry_space_group_name_H-M "A B M 2"
_symmetry_group_IT_number 39
_symmetry_cell_setting 'orthorhombic'
loop_
_space_group_symop_operation_xyz
x,y,z
-x,-y,z
-x,1/2+y,z
x,1/2-y,z
x,1/2+y,1/2+z
-x,1/2-y,1/2+z
-x,y,1/2+z
x,-y,1/2+z
loop_
_atom_site_type_symbol
_atom_site_label
_atom_site_fract_x
_atom_site_fract_y
_atom_site_fract_z
Si Si1 0.400715 0.066995 0.710380
Si Si2 0.103343 0.566415 0.407583
Si Si3 0.400806 0.567061 0.111592
Si Si4 0.786187 0.434209 0.581375
Si Si5 0.897099 0.433080 0.821939
Si Si6 0.897235 0.434353 0.499583
Si Si7 0.897505 0.066630 0.159809
Si Si8 0.787156 0.066489 0.738283
O O1 0.400122 0.250000 0.715140
O O2 0.386469 0.032521 0.660973
O O3 0.500000 0.000000 0.721988
O O4 0.316862 0.992317 0.735081
O O5 0.100952 0.750000 0.404072
O O6 0.144001 0.497333 0.365259
O O7 0.140621 0.524368 0.453460
O O8 0.000000 0.500000 0.408247
O O9 0.500000 0.500000 0.099979
O O10 0.400288 0.750000 0.106931
O O11 0.317357 0.492933 0.086546
O O12 0.788249 0.250000 0.584386
O O13 0.832824 0.481474 0.537756
O O14 0.844768 0.504450 0.619242
O O15 0.904581 0.250000 0.824947
O O16 0.835689 0.472466 0.781985
O O17 0.000000 0.500000 0.816539
O O18 0.904919 0.250000 0.500514
O O19 0.000000 0.500000 0.504522
O O20 0.899712 0.250000 0.158895
O O21 0.843492 0.010160 0.200654
O O22 0.000000 0.000000 0.160484
O O23 0.789569 0.250000 0.733125
#
# Coordination Sequence:
#
# PCOD9360538 Si02
#       8
#     8   8   8   8   8   8   8   8
#     4  10  20  34  53  74  98 127 163 206 248 293
#     4   9  16  29  48  69  95 126 162 203 245 288
#     4  10  20  34  52  74  97 127 164 206 249 293
#     4  11  21  34  51  72 100 132 165 204 245 291
#     4  10  20  32  48  72  99 130 166 203 244 290
#     4   9  19  32  48  72  99 131 167 202 243 288
#     4  12  24  36  48  67  97 134 172 204 239 287
#     4  11  22  35  51  72  99 131 166 204 245 292
#
# _framework density 15.705396
#
# number of rings (size 3 to 8) (size 9 to 14) (size 15 to 20)
#    0.000    1.750    1.250    4.875    0.000    6.500 
#    0.000    0.000    0.000    0.000    0.000    0.875 
#    0.000    6.000    0.000    0.000    0.000    0.000 
#
# Total GULP energy -178601.836812 kJ/mol
# GULP energy per Si atom -5581.307400 kJ/mol
# Density = 1.566965 g / cm^3
# Si number density = 15.705396 Si / 1000 Ang^3
#
#
#
# Elastic Constant Matrix: (Units=GPa)
#
#
# Indices 1 2 3 4 5 6 
#
# 1 118.5040 44.5233 75.0709 0.0000 0.0000 0.0000
# 2 44.5233 65.4797 57.7162 0.0000 0.0000 0.0000
# 3 75.0709 57.7162 150.9042 0.0000 0.0000 0.0000
# 4 0.0000 0.0000 0.0000 17.5331 0.0000 0.0000
# 5 0.0000 0.0000 0.0000 0.0000 3.0877 0.0000
# 6 0.0000 0.0000 0.0000 0.0000 0.0000 27.4545
#
#
#
# Elastic Compliance Matrix: (Units=1/GPa)
#
#
# Indices 1 2 3 4 5 6 
#
# 1 0.013263 -0.004831 -0.004750 0.000000 0.000000 0.000000
# 2 -0.004831 0.024799 -0.007081 0.000000 0.000000 0.000000
# 3 -0.004750 -0.007081 0.011698 0.000000 0.000000 0.000000
# 4 0.000000 0.000000 0.000000 0.057035 0.000000 0.000000
# 5 0.000000 0.000000 0.000000 0.000000 0.323861 0.000000
# 6 0.000000 0.000000 0.000000 0.000000 0.000000 0.036424
#
#
# Mechanical properties :
#
#
# Convention : Reuss Voigt Hill
#
# Bulk Modulus (GPa) = 60.84817 76.61208 68.73012
# Shear Modulus (GPa) = 9.88371 20.12025 15.00198
#
# Velocity S-wave (km/s) = 2.51135 3.58313 3.09400
# Velocity P-wave (km/s) = 6.87290 8.12435 7.52469
#
# Compressibility (1/GPa) = 0.01643435
#
# Stress axis : x y z
#
# Youngs Moduli (GPa) = 75.39880 40.32479 85.48355
#
# Poissons Ratio (x) = 0.19482 0.40606
# Poissons Ratio (y) = 0.36427 0.60534
# Poissons Ratio (z) = 0.35815 0.28555
#
# Static dielectric constant tensor:
#      x y z
#    x 1.505890 0.000000 0.000000 
#    y 0.000000 1.525420 0.000000 
#    z 0.000000 0.000000 1.540610 
# 
# From -- ./inp_files/17998.got.cif
#   From: 2010.05.17/outbox.cif.g08.bks.cpg/sg39_9_cif.got.tgz:17998.got - 2010.06.03 18:22:40.
