data_PCOD9360903
_publ_section_title
;
Structure prediction by ZEFSAII (Michael W. Deem and Ramdas Pophale) SiO2 
 PCOD9360903
Probable space group: A B M 2
;
_chemical_formula_sum "Si O2"
_cell_formula_units_Z 64
_cell_length_a 8.760201
_cell_length_b 15.420857
_cell_length_c 21.831319
_cell_angle_alpha 90.000000
_cell_angle_beta 90.000000
_cell_angle_gamma 90.000000
_cell_volume 2949.188668
_symmetry_space_group_name_H-M "A B M 2"
_symmetry_group_IT_number 39
_symmetry_cell_setting 'orthorhombic'
loop_
_space_group_symop_operation_xyz
x,y,z
-x,-y,z
-x,1/2+y,z
x,1/2-y,z
x,1/2+y,1/2+z
-x,1/2-y,1/2+z
-x,y,1/2+z
x,-y,1/2+z
loop_
_atom_site_type_symbol
_atom_site_label
_atom_site_fract_x
_atom_site_fract_y
_atom_site_fract_z
Si Si1 0.667986 0.981466 0.272830
Si Si2 0.347774 0.847616 0.446737
Si Si3 0.664975 0.523770 0.060306
Si Si4 0.683044 0.849227 0.385979
Si Si5 0.905767 0.653476 0.101902
Si Si6 0.907645 0.348964 0.733195
Si Si7 0.821462 0.850069 0.823584
Si Si8 0.102067 0.413983 0.492944
O O1 0.666524 0.923072 0.334751
O O2 0.781910 0.923379 0.233560
O O3 0.500000 0.000000 0.248236
O O4 0.730776 0.075953 0.288635
O O5 0.321650 0.750000 0.470043
O O6 0.351929 0.918078 0.499216
O O7 0.515760 0.849281 0.416999
O O8 0.217608 0.864656 0.395232
O O9 0.500000 0.500000 0.085280
O O10 0.775940 0.581059 0.101173
O O11 0.757531 0.441309 0.036653
O O12 0.707596 0.750000 0.363856
O O13 0.819210 0.872530 0.433438
O O14 0.840275 0.750000 0.102356
O O15 0.993307 0.643715 0.167211
O O16 0.998728 0.642315 0.038896
O O17 0.847512 0.250000 0.734730
O O18 0.010826 0.358721 0.794073
O O19 0.773467 0.750000 0.811937
O O20 0.000000 0.500000 0.478612
#
# Coordination Sequence:
#
# PCOD9360903 Si02
#       8
#     8   8   8   8   8   8   8   8
#     4  12  24  38  64  96 133 170 211 267 330 395
#     4  10  20  36  61  91 129 167 208 263 327 392
#     4  11  21  36  62  95 131 166 213 265 325 389
#     4  11  22  38  62  94 133 169 213 267 327 397
#     4  10  23  45  65  89 127 171 220 273 324 379
#     4  10  24  46  68  90 126 172 225 279 323 379
#     4  10  22  40  65  95 125 169 217 266 324 389
#     4  10  22  37  63  95 129 173 216 270 322 390
#
# _framework density 21.700883999999999
#
# number of rings (size 3 to 8) (size 9 to 14) (size 15 to 20)
#    0.000    1.500    2.500    2.250    0.000    7.000 
#    0.000    3.750    0.000    3.000    0.000    0.000 
#    0.000    0.000    0.000    0.000    0.000    0.000 
#
# Total GULP energy -178590.357502 kJ/mol
# GULP energy per Si atom -5580.948672 kJ/mol
# Density = 2.165149 g / cm^3
# Si number density = 21.700884 Si / 1000 Ang^3
#
#
#
# Elastic Constant Matrix: (Units=GPa)
#
#
# Indices 1 2 3 4 5 6 
#
# 1 70.0870 19.1652 25.7279 0.0000 0.0000 0.0000
# 2 19.1652 76.9648 13.5055 0.0000 0.0000 0.0000
# 3 25.7279 13.5055 101.4459 0.0000 0.0000 0.0000
# 4 0.0000 0.0000 0.0000 28.2520 0.0000 0.0000
# 5 0.0000 0.0000 0.0000 0.0000 15.0578 0.0000
# 6 0.0000 0.0000 0.0000 0.0000 0.0000 33.4748
#
#
#
# Elastic Compliance Matrix: (Units=1/GPa)
#
#
# Indices 1 2 3 4 5 6 
#
# 1 0.016593 -0.003475 -0.003746 0.000000 0.000000 0.000000
# 2 -0.003475 0.014031 -0.000987 0.000000 0.000000 0.000000
# 3 -0.003746 -0.000987 0.010939 0.000000 0.000000 0.000000
# 4 0.000000 0.000000 0.000000 0.035396 0.000000 0.000000
# 5 0.000000 0.000000 0.000000 0.000000 0.066411 0.000000
# 6 0.000000 0.000000 0.000000 0.000000 0.000000 0.029873
#
#
# Mechanical properties :
#
#
# Convention : Reuss Voigt Hill
#
# Bulk Modulus (GPa) = 39.76282 40.58832 40.17557
# Shear Modulus (GPa) = 25.24743 28.03020 26.63881
#
# Velocity S-wave (km/s) = 3.41461 3.59787 3.50743
# Velocity P-wave (km/s) = 5.82314 6.00031 5.91239
#
# Compressibility (1/GPa) = 0.02514912
#
# Stress axis : x y z
#
# Youngs Moduli (GPa) = 60.26611 71.26905 91.41789
#
# Poissons Ratio (x) = 0.24763 0.34242
# Poissons Ratio (y) = 0.20940 0.09021
# Poissons Ratio (z) = 0.22573 0.07033
#
# Static dielectric constant tensor:
#      x y z
#    x 1.818740 0.000000 0.000000 
#    y 0.000000 1.752270 0.000000 
#    z 0.000000 0.000000 1.821690 
# 
# From -- ./inp_files/15710.got.cif
#   From: 2010.05.17/outbox.cif.g08.bks.cpg/sg39_8_cif.got.tgz:15710.got - 2010.06.03 18:22:40.
