data_PCOD9360433
_publ_section_title
;
Structure prediction by ZEFSAII (Michael W. Deem and Ramdas Pophale) SiO2 
 PCOD9360433
Probable space group: A B M 2
;
_chemical_formula_sum "Si O2"
_cell_formula_units_Z 56
_cell_length_a 24.457065
_cell_length_b 8.583976
_cell_length_c 14.763572
_cell_angle_alpha 90.000000
_cell_angle_beta 90.000000
_cell_angle_gamma 90.000000
_cell_volume 3099.447460
_symmetry_space_group_name_H-M "A B M 2"
_symmetry_group_IT_number 39
_symmetry_cell_setting 'orthorhombic'
loop_
_space_group_symop_operation_xyz
x,y,z
-x,-y,z
-x,1/2+y,z
x,1/2-y,z
x,1/2+y,1/2+z
-x,1/2-y,1/2+z
-x,y,1/2+z
x,-y,1/2+z
loop_
_atom_site_type_symbol
_atom_site_label
_atom_site_fract_x
_atom_site_fract_y
_atom_site_fract_z
Si Si1 0.147462 0.937445 0.671980
Si Si2 0.644473 0.436827 0.815090
Si Si3 0.440879 0.062945 0.956625
Si Si4 0.938809 0.062851 0.313793
Si Si5 0.233357 0.063112 0.812947
Si Si6 0.558403 0.937006 0.166905
Si Si7 0.147526 0.939105 0.463748
O O1 0.146153 0.750000 0.672859
O O2 0.147665 0.992422 0.567559
O O3 0.095735 0.000810 0.728317
O O4 0.200445 0.994432 0.727506
O O5 0.648661 0.250000 0.813990
O O6 0.704592 0.507803 0.815717
O O7 0.608894 0.488847 0.728063
O O8 0.608119 0.491225 0.899565
O O9 0.440263 0.250000 0.949464
O O10 0.435077 0.017469 0.062127
O O11 0.500000 0.000000 0.925691
O O12 0.939039 0.250000 0.310652
O O13 0.905147 0.014032 0.404048
O O14 0.000000 0.000000 0.314258
O O15 0.230789 0.250000 0.807908
O O16 0.199938 0.013889 0.903424
O O17 0.556093 0.750000 0.170781
O O18 0.500000 0.000000 0.199643
O O19 0.147621 0.750000 0.466475
#
# Coordination Sequence:
#
# PCOD9360433 Si02
#       7
#     8   8   8   8   8   8   8
#     4  10  19  36  59  81 105 140 179 220 265 312
#     4  11  22  36  54  79 106 138 177 219 263 314
#     4  10  20  36  55  77 104 137 172 214 264 318
#     4  10  20  36  55  82 115 146 179 219 261 309
#     4  10  21  38  55  77 107 140 176 220 266 315
#     4   9  20  36  54  75 104 137 172 212 262 317
#     4   8  18  36  57  77 105 142 179 216 263 313
#
# _framework density 18.067734999999999
#
# number of rings (size 3 to 8) (size 9 to 14) (size 15 to 20)
#    0.000    2.286    0.000    3.429    0.000    4.571 
#    0.000   15.714    0.000    0.000    0.000    0.000 
#    0.000    0.000    0.000    0.000    0.000    0.000 
#
# Total GULP energy -156281.743904 kJ/mol
# GULP energy per Si atom -5581.490854 kJ/mol
# Density = 1.802661 g / cm^3
# Si number density = 18.067735 Si / 1000 Ang^3
#
#
#
# Elastic Constant Matrix: (Units=GPa)
#
#
# Indices 1 2 3 4 5 6 
#
# 1 195.3012 39.9244 100.4912 0.0000 0.0000 0.0000
# 2 39.9244 49.4472 36.1252 0.0000 0.0000 0.0000
# 3 100.4912 36.1252 166.1942 0.0000 0.0000 0.0000
# 4 0.0000 0.0000 0.0000 22.8939 0.0000 0.0000
# 5 0.0000 0.0000 0.0000 0.0000 14.9174 0.0000
# 6 0.0000 0.0000 0.0000 0.0000 0.0000 34.6218
#
#
#
# Elastic Compliance Matrix: (Units=1/GPa)
#
#
# Indices 1 2 3 4 5 6 
#
# 1 0.007894 -0.003431 -0.004027 0.000000 0.000000 0.000000
# 2 -0.003431 0.025533 -0.003475 0.000000 0.000000 0.000000
# 3 -0.004027 -0.003475 0.009208 0.000000 0.000000 0.000000
# 4 0.000000 0.000000 0.000000 0.043680 0.000000 0.000000
# 5 0.000000 0.000000 0.000000 0.000000 0.067036 0.000000
# 6 0.000000 0.000000 0.000000 0.000000 0.000000 0.028884
#
#
# Mechanical properties :
#
#
# Convention : Reuss Voigt Hill
#
# Bulk Modulus (GPa) = 48.15379 84.89157 66.52268
# Shear Modulus (GPa) = 23.69398 30.11341 26.90369
#
# Velocity S-wave (km/s) = 3.62525 4.08695 3.86300
# Velocity P-wave (km/s) = 6.65078 8.32815 7.53628
#
# Compressibility (1/GPa) = 0.02076680
#
# Stress axis : x y z
#
# Youngs Moduli (GPa) = 126.67856 39.16483 108.60584
#
# Poissons Ratio (x) = 0.13439 0.43739
# Poissons Ratio (y) = 0.43469 0.37743
# Poissons Ratio (z) = 0.51017 0.13611
#
# Static dielectric constant tensor:
#      x y z
#    x 1.583940 0.000000 0.000000 
#    y 0.000000 1.615320 0.000000 
#    z 0.000000 0.000000 1.627910 
# 
# From -- ./inp_files/10368.got.cif
#   From: 2010.05.17/outbox.cif.g08.bks.cpg/sg39_6_cif.got.tgz:10368.got - 2010.06.03 18:22:40.
