data_PCOD9360254
_publ_section_title
;
Structure prediction by ZEFSAII (Michael W. Deem and Ramdas Pophale) SiO2 
 PCOD9360254
Probable space group: A B M 2
;
_chemical_formula_sum "Si O2"
_cell_formula_units_Z 48
_cell_length_a 8.366794
_cell_length_b 15.727789
_cell_length_c 18.756874
_cell_angle_alpha 90.000000
_cell_angle_beta 90.000000
_cell_angle_gamma 90.000000
_cell_volume 2468.239007
_symmetry_space_group_name_H-M "A B M 2"
_symmetry_group_IT_number 39
_symmetry_cell_setting 'orthorhombic'
loop_
_space_group_symop_operation_xyz
x,y,z
-x,-y,z
-x,1/2+y,z
x,1/2-y,z
x,1/2+y,1/2+z
-x,1/2-y,1/2+z
-x,y,1/2+z
x,-y,1/2+z
loop_
_atom_site_type_symbol
_atom_site_label
_atom_site_fract_x
_atom_site_fract_y
_atom_site_fract_z
Si Si1 0.270226 0.847071 0.411510
Si Si2 0.219289 0.844248 0.721646
Si Si3 0.098468 0.087608 0.770863
Si Si4 0.350542 0.652166 0.877211
Si Si5 0.310011 0.009324 0.649691
Si Si6 0.307436 0.986975 0.990648
O O1 0.233606 0.750000 0.432957
O O2 0.175451 0.874241 0.341142
O O3 0.459317 0.850362 0.391462
O O4 0.238912 0.921228 0.468755
O O5 0.271151 0.750000 0.701450
O O6 0.310986 0.869113 0.795110
O O7 0.033234 0.848472 0.740763
O O8 0.247707 0.913975 0.662061
O O9 0.231038 0.065344 0.711634
O O10 0.000000 0.000000 0.785044
O O11 0.296558 0.750000 0.888895
O O12 0.272850 0.584039 0.930819
O O13 0.264086 0.039487 0.570656
O O14 0.500000 0.000000 0.656629
O O15 0.500000 0.000000 0.991141
#
# Coordination Sequence:
#
# PCOD9360254 Si02
#       6
#     8   8   8   8   8   8
#     4  10  19  33  56  82 105 134 175 219 263 315
#     4  10  20  35  54  77 107 139 175 219 262 309
#     4  10  20  34  52  76 106 140 176 216 262 311
#     4   9  18  34  57  81 104 136 177 220 265 310
#     4  10  20  35  55  78 105 141 178 214 262 313
#     4   9  18  33  53  78 108 136 170 220 267 310
#
# _framework density 19.447063
#
# number of rings (size 3 to 8) (size 9 to 14) (size 15 to 20)
#    0.000    2.333    0.000    3.500    0.000    2.000 
#    0.000   12.500    0.000    2.000    0.000    0.000 
#    0.000    0.000    0.000    0.000    0.000    0.000 
#
# Total GULP energy -133897.818948 kJ/mol
# GULP energy per Si atom -5579.075789 kJ/mol
# Density = 1.940280 g / cm^3
# Si number density = 19.447063 Si / 1000 Ang^3
#
#
#
# Elastic Constant Matrix: (Units=GPa)
#
#
# Indices 1 2 3 4 5 6 
#
# 1 30.8874 2.4243 7.9226 0.0000 0.0000 0.0000
# 2 2.4243 71.9538 8.1194 0.0000 0.0000 0.0000
# 3 7.9226 8.1194 29.6713 0.0000 0.0000 0.0000
# 4 0.0000 0.0000 0.0000 32.6588 0.0000 0.0000
# 5 0.0000 0.0000 0.0000 0.0000 -9.5684 0.0000
# 6 0.0000 0.0000 0.0000 0.0000 0.0000 6.2676
#
#
#
# Elastic Compliance Matrix: (Units=1/GPa)
#
#
# Indices 1 2 3 4 5 6 
#
# 1 0.034757 -0.000128 -0.009246 0.000000 0.000000 0.000000
# 2 -0.000128 0.014341 -0.003890 0.000000 0.000000 0.000000
# 3 -0.009246 -0.003890 0.037236 0.000000 0.000000 0.000000
# 4 0.000000 0.000000 0.000000 0.030620 0.000000 0.000000
# 5 0.000000 0.000000 0.000000 0.000000 -0.104510 0.000000
# 6 0.000000 0.000000 0.000000 0.000000 0.000000 0.159550
#
#
# Mechanical properties :
#
#
# Convention : Reuss Voigt Hill
#
# Bulk Modulus (GPa) = 16.72049 18.82723 17.77386
# Shear Modulus (GPa) = 22.88790 13.47469 18.18130
#
# Velocity S-wave (km/s) = 3.43437 2.63514 3.06095
# Velocity P-wave (km/s) = 4.93388 4.35441 4.65317
#
# Compressibility (1/GPa) = 0.05980685
#
# Stress axis : x y z
#
# Youngs Moduli (GPa) = 28.77109 69.72967 26.85586
#
# Poissons Ratio (x) = 0.00891 0.24830
# Poissons Ratio (y) = 0.00368 0.10448
# Poissons Ratio (z) = 0.26600 0.27127
#
# Static dielectric constant tensor:
#      x y z
#    x 1.701990 0.000000 0.000000 
#    y 0.000000 1.674520 0.000000 
#    z 0.000000 0.000000 1.656200 
# 
# From -- ./inp_files/8357.got.cif
#   From: 2010.05.17/outbox.cif.g08.bks.cpg/sg39_5_cif.got.tgz:8357.got - 2010.06.03 18:22:40.
