data_PCOD9360887
_publ_section_title
;
Structure prediction by ZEFSAII (Michael W. Deem and Ramdas Pophale) SiO2 
 PCOD9360887
Probable space group: A B M 2
;
_chemical_formula_sum "Si O2"
_cell_formula_units_Z 64
_cell_length_a 11.879063
_cell_length_b 27.828530
_cell_length_c 9.049379
_cell_angle_alpha 90.000000
_cell_angle_beta 90.000000
_cell_angle_gamma 90.000000
_cell_volume 2991.515304
_symmetry_space_group_name_H-M "A B M 2"
_symmetry_group_IT_number 39
_symmetry_cell_setting 'orthorhombic'
loop_
_space_group_symop_operation_xyz
x,y,z
-x,-y,z
-x,1/2+y,z
x,1/2-y,z
x,1/2+y,1/2+z
-x,1/2-y,1/2+z
-x,y,1/2+z
x,-y,1/2+z
loop_
_atom_site_type_symbol
_atom_site_label
_atom_site_fract_x
_atom_site_fract_y
_atom_site_fract_z
Si Si1 0.928170 0.803299 0.909490
Si Si2 0.582789 0.909534 0.238329
Si Si3 0.647267 0.899551 0.582765
Si Si4 0.968898 0.606951 0.692319
Si Si5 0.727676 0.992390 0.148663
Si Si6 0.794312 0.352480 0.657249
Si Si7 0.115085 0.019941 0.889483
Si Si8 0.841932 0.339896 0.988900
O O1 0.911102 0.750000 0.849253
O O2 0.935866 0.844602 0.784734
O O3 0.049250 0.805088 0.994899
O O4 0.831329 0.817056 0.026826
O O5 0.605640 0.904220 0.412901
O O6 0.458532 0.895233 0.190575
O O7 0.615815 0.963753 0.191850
O O8 0.674154 0.877375 0.149842
O O9 0.730494 0.852980 0.583925
O O10 0.704347 0.950910 0.624228
O O11 0.925580 0.563711 0.788880
O O12 0.908804 0.610646 0.532334
O O13 0.100673 0.610511 0.662118
O O14 0.820126 0.985280 0.276473
O O15 0.786566 0.970715 0.004777
O O16 0.800173 0.331243 0.822898
O O17 0.000000 0.000000 0.960476
#
# Coordination Sequence:
#
# PCOD9360887 Si02
#       8
#     8   8   8   8   8   8   8   8
#     4  10  21  37  64  97 126 153 189 242 313 385
#     4  11  24  40  59  82 114 163 212 261 304 349
#     4  11  24  40  59  82 114 161 211 259 304 349
#     4  10  20  36  60  86 126 159 194 244 302 372
#     4  12  24  39  56  84 122 160 218 255 300 357
#     4   9  20  37  58  84 121 153 195 240 305 366
#     4  12  25  36  59  88 128 171 206 251 309 364
#     4   9  20  37  58  84 121 152 193 241 301 367
#
# _framework density 21.393840999999998
#
# number of rings (size 3 to 8) (size 9 to 14) (size 15 to 20)
#    0.000    1.500    2.500    2.250    5.250    8.500 
#    0.000    0.000    0.000    0.750    0.000    1.750 
#    0.000    0.000    0.000    0.000    0.000    0.000 
#
# Total GULP energy -178374.213603 kJ/mol
# GULP energy per Si atom -5574.194175 kJ/mol
# Density = 2.134515 g / cm^3
# Si number density = 21.393841 Si / 1000 Ang^3
#
#
#
# Elastic Constant Matrix: (Units=GPa)
#
#
# Indices 1 2 3 4 5 6 
#
# 1 94.5961 7.6417 5.2325 0.0000 0.0000 0.0000
# 2 7.6417 40.2935 -1.2941 0.0000 0.0000 0.0000
# 3 5.2325 -1.2941 53.4774 0.0000 0.0000 0.0000
# 4 0.0000 0.0000 0.0000 18.4765 0.0000 0.0000
# 5 0.0000 0.0000 0.0000 0.0000 38.4016 0.0000
# 6 0.0000 0.0000 0.0000 0.0000 0.0000 12.1891
#
#
#
# Elastic Compliance Matrix: (Units=1/GPa)
#
#
# Indices 1 2 3 4 5 6 
#
# 1 0.010801 -0.002084 -0.001107 0.000000 0.000000 0.000000
# 2 -0.002084 0.025239 0.000815 0.000000 0.000000 0.000000
# 3 -0.001107 0.000815 0.018828 0.000000 0.000000 0.000000
# 4 0.000000 0.000000 0.000000 0.054123 0.000000 0.000000
# 5 0.000000 0.000000 0.000000 0.000000 0.026041 0.000000
# 6 0.000000 0.000000 0.000000 0.000000 0.000000 0.082040
#
#
# Mechanical properties :
#
#
# Convention : Reuss Voigt Hill
#
# Bulk Modulus (GPa) = 19.95424 23.50301 21.72863
# Shear Modulus (GPa) = 20.96179 25.59924 23.28051
#
# Velocity S-wave (km/s) = 3.13358 3.46290 3.30235
# Velocity P-wave (km/s) = 4.73706 5.19602 4.97184
#
# Compressibility (1/GPa) = 0.05011465
#
# Stress axis : x y z
#
# Youngs Moduli (GPa) = 92.58530 39.62075 53.11371
#
# Poissons Ratio (x) = 0.08257 0.05881
# Poissons Ratio (y) = 0.19294 -0.04327
# Poissons Ratio (z) = 0.10251 -0.03228
#
# Static dielectric constant tensor:
#      x y z
#    x 1.790340 0.000000 0.000000 
#    y 0.000000 1.810640 0.000000 
#    z 0.000000 0.000000 1.868330 
# 
# From -- ./inp_files/2901.got.cif
#   From: 2010.05.17/outbox.cif.g08.bks.cpg/sg39_2_cif.got.tgz:2901.got - 2010.06.03 18:22:40.
