data_PCOD9360733
_publ_section_title
;
Structure prediction by ZEFSAII (Michael W. Deem and Ramdas Pophale) SiO2 
 PCOD9360733
Probable space group: A B M 2
;
_chemical_formula_sum "Si O2"
_cell_formula_units_Z 64
_cell_length_a 25.072897
_cell_length_b 9.345836
_cell_length_c 14.669018
_cell_angle_alpha 90.000000
_cell_angle_beta 90.000000
_cell_angle_gamma 90.000000
_cell_volume 3437.349671
_symmetry_space_group_name_H-M "A B M 2"
_symmetry_group_IT_number 39
_symmetry_cell_setting 'orthorhombic'
loop_
_space_group_symop_operation_xyz
x,y,z
-x,-y,z
-x,1/2+y,z
x,1/2-y,z
x,1/2+y,1/2+z
-x,1/2-y,1/2+z
-x,y,1/2+z
x,-y,1/2+z
loop_
_atom_site_type_symbol
_atom_site_label
_atom_site_fract_x
_atom_site_fract_y
_atom_site_fract_z
Si Si1 0.134940 0.078665 0.884210
Si Si2 0.339496 0.419429 0.251852
Si Si3 0.945119 0.079463 0.754214
Si Si4 0.740252 0.419969 0.380454
Si Si5 0.946745 0.581594 0.039276
Si Si6 0.656903 0.083145 0.535683
Si Si7 0.551903 0.587515 0.531812
Si Si8 0.447336 0.085548 0.754468
O O1 0.129592 0.250000 0.867795
O O2 0.197446 0.045156 0.887636
O O3 0.103575 0.990176 0.808123
O O4 0.104172 0.045190 0.978245
O O5 0.344286 0.250000 0.269251
O O6 0.290295 0.488365 0.304903
O O7 0.332955 0.439978 0.142937
O O8 0.393616 0.501687 0.279597
O O9 0.949242 0.250000 0.769916
O O10 0.937750 0.053928 0.646129
O O11 0.000000 0.000000 0.781044
O O12 0.735441 0.250000 0.359704
O O13 0.708576 0.445184 0.474682
O O14 0.956894 0.750000 0.028732
O O15 0.000000 0.500000 0.009681
O O16 0.642037 0.250000 0.524577
O O17 0.606934 0.987997 0.505712
O O18 0.500000 0.500000 0.502715
O O19 0.549632 0.750000 0.499540
O O20 0.551394 0.588784 0.643162
O O21 0.446858 0.250000 0.786144
O O22 0.500000 0.000000 0.783537
#
# Coordination Sequence:
#
# PCOD9360733 Si02
#       8
#     8   8   8   8   8   8   8   8
#     4  10  21  37  56  79 109 145 183 223 267 314
#     4  10  20  35  56  80 106 138 178 224 271 320
#     4  10  20  35  57  85 115 145 178 218 265 316
#     4  10  22  39  56  76 106 144 184 224 267 317
#     4   9  19  35  56  82 112 144 177 215 262 316
#     4   9  19  36  56  76 103 141 179 218 269 324
#     4   9  16  27  48  77 106 135 170 215 267 324
#     4   9  16  28  49  77 107 138 173 215 268 327
#
# _framework density 18.618995999999999
#
# number of rings (size 3 to 8) (size 9 to 14) (size 15 to 20)
#    0.000    2.500    0.000    1.875    0.000    7.500 
#    0.000    3.125    0.000    3.000    0.000    0.000 
#    0.000    0.000    0.000    0.000    0.000    0.000 
#
# Total GULP energy -178707.298415 kJ/mol
# GULP energy per Si atom -5584.603075 kJ/mol
# Density = 1.857662 g / cm^3
# Si number density = 18.618996 Si / 1000 Ang^3
#
#
#
# Elastic Constant Matrix: (Units=GPa)
#
#
# Indices 1 2 3 4 5 6 
#
# 1 201.0150 111.2336 70.3244 0.0000 0.0000 0.0000
# 2 111.2336 108.6385 64.5999 0.0000 0.0000 0.0000
# 3 70.3244 64.5999 70.7518 0.0000 0.0000 0.0000
# 4 0.0000 0.0000 0.0000 44.7491 0.0000 0.0000
# 5 0.0000 0.0000 0.0000 0.0000 -322.0214 0.0000
# 6 0.0000 0.0000 0.0000 0.0000 0.0000 35.1654
#
#
#
# Elastic Compliance Matrix: (Units=1/GPa)
#
#
# Indices 1 2 3 4 5 6 
#
# 1 0.011550 -0.010937 -0.001493 0.000000 0.000000 0.000000
# 2 -0.010937 0.030497 -0.016973 0.000000 0.000000 0.000000
# 3 -0.001493 -0.016973 0.031116 0.000000 0.000000 0.000000
# 4 0.000000 0.000000 0.000000 0.022347 0.000000 0.000000
# 5 0.000000 0.000000 0.000000 0.000000 -0.003105 0.000000
# 6 0.000000 0.000000 0.000000 0.000000 0.000000 0.028437
#
#
# Mechanical properties :
#
#
# Convention : Reuss Voigt Hill
#
# Bulk Modulus (GPa) = 69.66986 96.96903 83.31944
# Shear Modulus (GPa) = 27.11006 -39.47157 -6.18076
#
# Velocity S-wave (km/s) = 3.81995 -4.60930 -1.82395
# Velocity P-wave (km/s) = 7.54692 4.88531 6.35697
#
# Compressibility (1/GPa) = 0.01435341
#
# Stress axis : x y z
#
# Youngs Moduli (GPa) = 86.58361 32.79063 32.13793
#
# Poissons Ratio (x) = 0.35865 0.04799
# Poissons Ratio (y) = 0.94700 0.54549
# Poissons Ratio (z) = 0.12930 0.55657
#
# Static dielectric constant tensor:
#      x y z
#    x 1.597790 0.000000 0.000000 
#    y 0.000000 1.625640 0.000000 
#    z 0.000000 0.000000 1.671540 
# 
# From -- ./inp_files/10567.got.cif
#   From: 2010.05.17/outbox.cif.g08.bks.cpg/sg39_6_cif.got.tgz:10567.got - 2010.06.03 18:22:40.
