data_PCOD9360355
_publ_section_title
;
Structure prediction by ZEFSAII (Michael W. Deem and Ramdas Pophale) SiO2 
 PCOD9360355
Probable space group: A B M 2
;
_chemical_formula_sum "Si O2"
_cell_formula_units_Z 64
_cell_length_a 12.426470
_cell_length_b 16.844001
_cell_length_c 15.828063
_cell_angle_alpha 90.000000
_cell_angle_beta 90.000000
_cell_angle_gamma 90.000000
_cell_volume 3312.995183
_symmetry_space_group_name_H-M "A B M 2"
_symmetry_group_IT_number 39
_symmetry_cell_setting 'orthorhombic'
loop_
_space_group_symop_operation_xyz
x,y,z
-x,-y,z
-x,1/2+y,z
x,1/2-y,z
x,1/2+y,1/2+z
-x,1/2-y,1/2+z
-x,y,1/2+z
x,-y,1/2+z
loop_
_atom_site_type_symbol
_atom_site_label
_atom_site_fract_x
_atom_site_fract_y
_atom_site_fract_z
Si Si1 0.514638 0.846856 0.537320
Si Si2 0.639550 0.347229 0.690606
Si Si3 0.025140 0.592989 0.347730
Si Si4 0.887114 0.655475 0.190604
Si Si5 0.246816 0.657865 0.291323
Si Si6 0.485364 0.153144 0.843892
Si Si7 0.025140 0.592988 0.033478
Si Si8 0.753184 0.342135 0.089890
O O1 0.511193 0.750000 0.537919
O O2 0.426007 0.872404 0.606443
O O3 0.500001 0.872939 0.440606
O O4 0.634020 0.870009 0.566459
O O5 0.639807 0.250000 0.690605
O O6 0.763517 0.374594 0.690605
O O7 0.573993 0.372403 0.774769
O O8 0.149969 0.608265 0.329327
O O9 0.999997 0.626276 0.440604
O O10 0.000000 0.500000 0.347885
O O11 0.952896 0.629596 0.273407
O O12 0.882028 0.750000 0.190604
O O13 0.952893 0.629596 0.107799
O O14 0.235859 0.750000 0.319322
O O15 0.365981 0.629991 0.314754
O O16 0.236445 0.656841 0.190607
O O17 0.488808 0.250000 0.843293
O O18 0.000000 0.500000 0.033322
O O19 0.149968 0.608265 0.051887
O O20 0.764143 0.250000 0.061892
#
# Coordination Sequence:
#
# PCOD9360355 Si02
#       8
#     8   8   8   8   8   8   8   8
#     4   9  17  30  51  81 116 150 182 229 291 342
#     4   9  18  32  49  81 120 145 175 226 291 347
#     4  11  25  42  59  82 116 162 199 237 291 352
#     4  11  23  38  61  91 121 150 189 248 298 343
#     4  10  19  34  59  87 114 147 194 246 286 337
#     4   9  17  30  51  81 116 150 182 229 291 342
#     4  11  25  42  59  82 116 162 199 237 291 352
#     4  10  19  34  59  87 114 147 194 246 286 337
#
# _framework density 19.317867
#
# number of rings (size 3 to 8) (size 9 to 14) (size 15 to 20)
#    0.000    2.000    2.500    1.125    3.500    2.000 
#    0.000    0.000    0.000    3.000    0.000    0.000 
#    0.000    0.000    0.000    0.000    0.000    0.000 
#
# Total GULP energy -178620.204185 kJ/mol
# GULP energy per Si atom -5581.881381 kJ/mol
# Density = 1.927390 g / cm^3
# Si number density = 19.317867 Si / 1000 Ang^3
#
#
#
# Elastic Constant Matrix: (Units=GPa)
#
#
# Indices 1 2 3 4 5 6 
#
# 1 113.0164 9.6019 58.5017 0.0000 0.0000 0.0000
# 2 9.6019 16.1908 11.8488 0.0000 0.0000 0.0000
# 3 58.5017 11.8488 150.6251 0.0000 0.0000 0.0000
# 4 0.0000 0.0000 0.0000 226.3214 0.0000 0.0000
# 5 0.0000 0.0000 0.0000 0.0000 32.6214 0.0000
# 6 0.0000 0.0000 0.0000 0.0000 0.0000 63.0457
#
#
#
# Elastic Compliance Matrix: (Units=1/GPa)
#
#
# Indices 1 2 3 4 5 6 
#
# 1 0.011280 -0.003696 -0.004090 0.000000 0.000000 0.000000
# 2 -0.003696 0.066747 -0.003815 0.000000 0.000000 0.000000
# 3 -0.004090 -0.003815 0.008528 0.000000 0.000000 0.000000
# 4 0.000000 0.000000 0.000000 0.004418 0.000000 0.000000
# 5 0.000000 0.000000 0.000000 0.000000 0.030655 0.000000
# 6 0.000000 0.000000 0.000000 0.000000 0.000000 0.015862
#
#
# Mechanical properties :
#
#
# Convention : Reuss Voigt Hill
#
# Bulk Modulus (GPa) = 15.78480 48.85966 32.32223
# Shear Modulus (GPa) = 27.50136 77.72303 52.61219
#
# Velocity S-wave (km/s) = 3.77719 6.34989 5.22438
# Velocity P-wave (km/s) = 5.21648 8.89432 7.29111
#
# Compressibility (1/GPa) = 0.06335208
#
# Stress axis : x y z
#
# Youngs Moduli (GPa) = 88.65640 14.98185 117.26508
#
# Poissons Ratio (x) = 0.05537 0.47963
# Poissons Ratio (y) = 0.32768 0.44738
# Poissons Ratio (z) = 0.36262 0.05716
#
# Static dielectric constant tensor:
#      x y z
#    x 1.679550 0.000000 0.000000 
#    y 0.000000 1.650410 0.000000 
#    z 0.000000 0.000000 1.680000 
# 
# From -- ./inp_files/9459.got.cif
#   From: 2010.05.17/outbox.cif.g08.bks.cpg/sg39_5_cif.got.tgz:9459.got - 2010.06.03 18:22:40.
