data_PCOD9360393
_publ_section_title
;
Structure prediction by ZEFSAII (Michael W. Deem and Ramdas Pophale) SiO2 
 PCOD9360393
Probable space group: A B M 2
;
_chemical_formula_sum "Si O2"
_cell_formula_units_Z 64
_cell_length_a 24.492750
_cell_length_b 8.723256
_cell_length_c 15.741663
_cell_angle_alpha 90.000000
_cell_angle_beta 90.000000
_cell_angle_gamma 90.000000
_cell_volume 3363.309068
_symmetry_space_group_name_H-M "A B M 2"
_symmetry_group_IT_number 39
_symmetry_cell_setting 'orthorhombic'
loop_
_space_group_symop_operation_xyz
x,y,z
-x,-y,z
-x,1/2+y,z
x,1/2-y,z
x,1/2+y,1/2+z
-x,1/2-y,1/2+z
-x,y,1/2+z
x,-y,1/2+z
loop_
_atom_site_type_symbol
_atom_site_label
_atom_site_fract_x
_atom_site_fract_y
_atom_site_fract_z
Si Si1 0.443339 0.567462 0.469790
Si Si2 0.939677 0.065798 0.026990
Si Si3 0.556648 0.566070 0.279062
Si Si4 0.667937 0.432536 0.031478
Si Si5 0.674386 0.565828 0.207223
Si Si6 0.744106 0.934743 0.373316
Si Si7 0.134850 0.066074 0.878705
Si Si8 0.940128 0.065479 0.221851
O O1 0.500000 0.500000 0.504793
O O2 0.446716 0.750000 0.466675
O O3 0.437685 0.500733 0.374242
O O4 0.390283 0.514080 0.520176
O O5 0.941170 0.250000 0.021795
O O6 0.926041 0.021432 0.124703
O O7 0.000000 0.000000 0.008609
O O8 0.897083 0.001048 0.959513
O O9 0.500000 0.500000 0.243299
O O10 0.553049 0.750000 0.284585
O O11 0.611437 0.526077 0.228618
O O12 0.660063 0.250000 0.026920
O O13 0.691783 0.481922 0.121766
O O14 0.707309 0.478810 0.954219
O O15 0.677083 0.750000 0.196044
O O16 0.711396 0.524323 0.287827
O O17 0.749737 0.750000 0.374899
O O18 0.803266 0.009138 0.376599
O O19 0.133337 0.250000 0.882651
O O20 0.103013 0.016258 0.792953
O O21 0.943322 0.250000 0.223918
O O22 0.000000 0.000000 0.241465
#
# Coordination Sequence:
#
# PCOD9360393 Si02
#       8
#     8   8   8   8   8   8   8   8
#     4  11  21  35  59  88 119 153 192 237 294 355
#     4  10  20  37  60  88 123 159 194 235 290 345
#     4  10  19  35  58  86 120 152 188 236 292 354
#     4  11  23  41  63  87 116 153 197 244 300 357
#     4  10  22  41  62  85 117 154 196 244 297 356
#     4  10  23  44  62  80 116 159 197 245 298 347
#     4  11  23  38  59  88 118 153 201 247 288 345
#     4   9  20  37  58  86 121 155 190 234 284 341
#
# _framework density 19.028877999999999
#
# number of rings (size 3 to 8) (size 9 to 14) (size 15 to 20)
#    0.000    1.750    1.250    3.750    0.000    6.500 
#    0.000    5.000    0.000    0.000    0.000    0.000 
#    0.000    0.000    0.000    0.000    0.000    0.000 
#
# Total GULP energy -178834.388111 kJ/mol
# GULP energy per Si atom -5588.574628 kJ/mol
# Density = 1.898557 g / cm^3
# Si number density = 19.028878 Si / 1000 Ang^3
#
#
#
# Elastic Constant Matrix: (Units=GPa)
#
#
# Indices 1 2 3 4 5 6 
#
# 1 145.6466 48.7637 88.8863 0.0000 0.0000 0.0000
# 2 48.7637 55.2682 46.8997 0.0000 0.0000 0.0000
# 3 88.8863 46.8997 131.0381 0.0000 0.0000 0.0000
# 4 0.0000 0.0000 0.0000 29.6606 0.0000 0.0000
# 5 0.0000 0.0000 0.0000 0.0000 -9.5468 0.0000
# 6 0.0000 0.0000 0.0000 0.0000 0.0000 35.3044
#
#
#
# Elastic Compliance Matrix: (Units=1/GPa)
#
#
# Indices 1 2 3 4 5 6 
#
# 1 0.012839 -0.005655 -0.006685 0.000000 0.000000 0.000000
# 2 -0.005655 0.028477 -0.006356 0.000000 0.000000 0.000000
# 3 -0.006685 -0.006356 0.014441 0.000000 0.000000 0.000000
# 4 0.000000 0.000000 0.000000 0.033715 0.000000 0.000000
# 5 0.000000 0.000000 0.000000 0.000000 -0.104747 0.000000
# 6 0.000000 0.000000 0.000000 0.000000 0.000000 0.028325
#
#
# Mechanical properties :
#
#
# Convention : Reuss Voigt Hill
#
# Bulk Modulus (GPa) = 54.45363 77.89470 66.17416
# Shear Modulus (GPa) = 88.39504 20.91051 54.65277
#
# Velocity S-wave (km/s) = 6.82305 3.31854 5.36501
# Velocity P-wave (km/s) = 9.52630 7.46374 8.55739
#
# Compressibility (1/GPa) = 0.01836425
#
# Stress axis : x y z
#
# Youngs Moduli (GPa) = 77.88653 35.11612 69.24795
#
# Poissons Ratio (x) = 0.19859 0.46293
# Poissons Ratio (y) = 0.44048 0.44014
# Poissons Ratio (z) = 0.52067 0.22320
#
# Static dielectric constant tensor:
#      x y z
#    x 1.630320 0.000000 0.000000 
#    y 0.000000 1.639140 0.000000 
#    z 0.000000 0.000000 1.674030 
# 
# From -- ./inp_files/10577.got.cif
#   From: 2010.05.17/outbox.cif.g08.bks.cpg/sg39_6_cif.got.tgz:10577.got - 2010.06.03 18:22:40.
