data_PCOD9360935
_publ_section_title
;
Structure prediction by ZEFSAII (Michael W. Deem and Ramdas Pophale) SiO2 
 PCOD9360935
Probable space group: A B M 2
;
_chemical_formula_sum "Si O2"
_cell_formula_units_Z 52
_cell_length_a 15.530913
_cell_length_b 13.781677
_cell_length_c 12.139758
_cell_angle_alpha 90.000000
_cell_angle_beta 90.000000
_cell_angle_gamma 90.000000
_cell_volume 2598.418403
_symmetry_space_group_name_H-M "A B M 2"
_symmetry_group_IT_number 39
_symmetry_cell_setting 'orthorhombic'
loop_
_space_group_symop_operation_xyz
x,y,z
-x,-y,z
-x,1/2+y,z
x,1/2-y,z
x,1/2+y,1/2+z
-x,1/2-y,1/2+z
-x,y,1/2+z
x,-y,1/2+z
loop_
_atom_site_type_symbol
_atom_site_label
_atom_site_fract_x
_atom_site_fract_y
_atom_site_fract_z
Si Si1 0.326820 0.639109 0.952550
Si Si2 0.593699 0.536416 0.264716
Si Si3 0.854406 0.914656 0.677698
Si Si4 0.000000 0.000000 0.813486
Si Si5 0.132197 0.642653 0.928217
Si Si6 0.289331 0.640368 0.349329
Si Si7 0.280333 0.953936 0.583842
O O1 0.333713 0.750000 0.990512
O O2 0.401282 0.609135 0.868308
O O3 0.232439 0.628133 0.894225
O O4 0.320559 0.558461 0.046859
O O5 0.500000 0.500000 0.232335
O O6 0.644787 0.440775 0.306161
O O7 0.648742 0.585464 0.167468
O O8 0.863882 0.861690 0.561144
O O9 0.791341 0.866070 0.766399
O O10 0.808059 0.016965 0.644544
O O11 0.944827 0.930415 0.735479
O O12 0.931336 0.060560 0.884742
O O13 0.104834 0.750000 0.892511
O O14 0.322890 0.750000 0.349179
O O15 0.265942 0.607836 0.473960
#
# Coordination Sequence:
#
# PCOD9360935 Si02
#       7
#     8   8   8   4   8   8   8
#     4   9  19  38  60  77 102 146 191 226 266 324
#     4  10  21  36  55  83 116 144 176 225 281 331
#     4  10  20  37  58  80 111 148 183 227 277 325
#     4  12  22  36  56  84 116 146 182 228 278 328
#     4  10  21  37  57  81 109 146 189 228 273 327
#     4  10  21  38  60  83 109 145 188 229 271 324
#     4   9  19  36  56  82 111 145 184 227 275 326
#
# _framework density 20.012173000000001
#
# number of rings (size 3 to 8) (size 9 to 14) (size 15 to 20)
#    0.000    2.154    0.000    4.615    0.000    8.615 
#    0.000    0.769    0.000    0.000    0.000    0.000 
#    0.000    0.000    0.000    0.000    0.000    0.000 
#
# Total GULP energy -145034.793034 kJ/mol
# GULP energy per Si atom -5578.261271 kJ/mol
# Density = 1.996662 g / cm^3
# Si number density = 20.012173 Si / 1000 Ang^3
#
#
#
# Elastic Constant Matrix: (Units=GPa)
#
#
# Indices 1 2 3 4 5 6 
#
# 1 48.2714 -11.9027 6.3424 0.0000 0.0000 0.0000
# 2 -11.9027 51.8671 -0.6148 0.0000 0.0000 0.0000
# 3 6.3424 -0.6148 76.3015 0.0000 0.0000 0.0000
# 4 0.0000 0.0000 0.0000 5.6045 0.0000 0.0000
# 5 0.0000 0.0000 0.0000 0.0000 16.6478 0.0000
# 6 0.0000 0.0000 0.0000 0.0000 0.0000 10.1832
#
#
#
# Elastic Compliance Matrix: (Units=1/GPa)
#
#
# Indices 1 2 3 4 5 6 
#
# 1 0.022205 0.005074 -0.001805 0.000000 0.000000 0.000000
# 2 0.005074 0.020441 -0.000257 0.000000 0.000000 0.000000
# 3 -0.001805 -0.000257 0.013254 0.000000 0.000000 0.000000
# 4 0.000000 0.000000 0.000000 0.178428 0.000000 0.000000
# 5 0.000000 0.000000 0.000000 0.000000 0.060068 0.000000
# 6 0.000000 0.000000 0.000000 0.000000 0.000000 0.098201
#
#
# Mechanical properties :
#
#
# Convention : Reuss Voigt Hill
#
# Bulk Modulus (GPa) = 16.14871 18.23220 17.19045
# Shear Modulus (GPa) = 12.27856 18.66143 15.47000
#
# Velocity S-wave (km/s) = 2.47969 3.05701 2.78336
# Velocity P-wave (km/s) = 4.03552 4.64658 4.35179
#
# Compressibility (1/GPa) = 0.06192446
#
# Stress axis : x y z
#
# Youngs Moduli (GPa) = 45.03583 48.92021 75.44978
#
# Poissons Ratio (x) = -0.24823 0.13617
# Poissons Ratio (y) = -0.22852 0.01940
# Poissons Ratio (z) = 0.08128 0.01258
#
# Static dielectric constant tensor:
#      x y z
#    x 1.703340 0.000000 0.000000 
#    y 0.000000 1.718660 0.000000 
#    z 0.000000 0.000000 1.719000 
# 
# From -- ./inp_files/6514.got.cif
#   From: 2010.05.17/outbox.cif.g08.bks.cpg/sg39_4_cif.got.tgz:6514.got - 2010.06.03 18:22:40.
