data_PCOD9360400
_publ_section_title
;
Structure prediction by ZEFSAII (Michael W. Deem and Ramdas Pophale) SiO2 
 PCOD9360400
Probable space group: A B M 2
;
_chemical_formula_sum "Si O2"
_cell_formula_units_Z 64
_cell_length_a 15.636364
_cell_length_b 17.038890
_cell_length_c 11.196159
_cell_angle_alpha 90.000000
_cell_angle_beta 90.000000
_cell_angle_gamma 90.000000
_cell_volume 2982.951062
_symmetry_space_group_name_H-M "A B M 2"
_symmetry_group_IT_number 39
_symmetry_cell_setting 'orthorhombic'
loop_
_space_group_symop_operation_xyz
x,y,z
-x,-y,z
-x,1/2+y,z
x,1/2-y,z
x,1/2+y,1/2+z
-x,1/2-y,1/2+z
-x,y,1/2+z
x,-y,1/2+z
loop_
_atom_site_type_symbol
_atom_site_label
_atom_site_fract_x
_atom_site_fract_y
_atom_site_fract_z
Si Si1 0.739905 0.842796 0.669840
Si Si2 0.559348 0.578909 0.336723
Si Si3 0.082071 0.598985 0.277234
Si Si4 0.522816 0.591763 0.072749
Si Si5 0.341999 0.837039 0.409058
Si Si6 0.745191 0.935447 0.428726
Si Si7 0.820839 0.104720 0.499489
Si Si8 0.890929 0.588027 0.253784
O O1 0.729891 0.750000 0.653987
O O2 0.837224 0.860336 0.713270
O O3 0.672498 0.867165 0.773962
O O4 0.724554 0.890054 0.549869
O O5 0.500000 0.500000 0.340564
O O6 0.533682 0.619962 0.210478
O O7 0.538768 0.621453 0.464176
O O8 0.660929 0.561866 0.344701
O O9 0.095127 0.609194 0.418816
O O10 0.094250 0.506383 0.250343
O O11 0.985694 0.623915 0.250185
O O12 0.500000 0.500000 0.086331
O O13 0.611054 0.607764 0.003351
O O14 0.381248 0.750000 0.407058
O O15 0.245838 0.831817 0.455897
O O16 0.827272 0.896694 0.363704
O O17 0.776904 0.021938 0.464828
O O18 0.840782 0.110644 0.636158
#
# Coordination Sequence:
#
# PCOD9360400 Si02
#       8
#     8   8   8   8   8   8   8   8
#     4  10  22  42  64  90 131 176 217 265 329 400
#     4  10  22  38  62  97 132 163 208 273 323 384
#     4   9  20  34  56  90 124 167 211 264 329 385
#     4  10  21  40  64  96 128 165 212 264 318 383
#     4  10  22  42  65  91 127 169 211 257 323 392
#     4  11  22  37  62  96 128 168 220 270 326 386
#     4  10  19  35  59  88 123 163 210 266 316 384
#     4  10  20  33  60  93 124 159 214 277 325 378
#
# _framework density 21.455262000000001
#
# number of rings (size 3 to 8) (size 9 to 14) (size 15 to 20)
#    0.000    2.000    1.250    2.250    3.500    2.000 
#    2.250    5.000    0.000    0.000    0.000    0.000 
#    0.000    0.000    0.000    0.000    0.000    0.000 
#
# Total GULP energy -178324.337007 kJ/mol
# GULP energy per Si atom -5572.635531 kJ/mol
# Density = 2.140643 g / cm^3
# Si number density = 21.455262 Si / 1000 Ang^3
#
#
#
# Elastic Constant Matrix: (Units=GPa)
#
#
# Indices 1 2 3 4 5 6 
#
# 1 109.5424 7.4932 37.6495 0.0000 0.0000 0.0000
# 2 7.4932 38.4695 24.0522 0.0000 0.0000 0.0000
# 3 37.6495 24.0522 155.6307 0.0000 0.0000 0.0000
# 4 0.0000 0.0000 0.0000 -0.1964 0.0000 0.0000
# 5 0.0000 0.0000 0.0000 0.0000 20.2559 0.0000
# 6 0.0000 0.0000 0.0000 0.0000 0.0000 13.8801
#
#
#
# Elastic Compliance Matrix: (Units=1/GPa)
#
#
# Indices 1 2 3 4 5 6 
#
# 1 0.009965 -0.000480 -0.002336 0.000000 0.000000 0.000000
# 2 -0.000480 0.028798 -0.004335 0.000000 0.000000 0.000000
# 3 -0.002336 -0.004335 0.007661 0.000000 0.000000 0.000000
# 4 0.000000 0.000000 0.000000 -5.090463 0.000000 0.000000
# 5 0.000000 0.000000 0.000000 0.000000 0.049368 0.000000
# 6 0.000000 0.000000 0.000000 0.000000 0.000000 0.072045
#
#
# Mechanical properties :
#
#
# Convention : Reuss Voigt Hill
#
# Bulk Modulus (GPa) = 31.13196 49.11471 40.12333
# Shear Modulus (GPa) = -1.02090 22.41776 10.69843
#
# Velocity S-wave (km/s) = -0.69055 3.23594 2.23544
# Velocity P-wave (km/s) = 3.72906 6.07479 5.04029
#
# Compressibility (1/GPa) = 0.03212134
#
# Stress axis : x y z
#
# Youngs Moduli (GPa) = 100.35368 34.72439 130.53858
#
# Poissons Ratio (x) = 0.01667 0.30499
# Poissons Ratio (y) = 0.04819 0.56582
# Poissons Ratio (z) = 0.23447 0.15051
#
# Static dielectric constant tensor:
#      x y z
#    x 1.842730 0.000000 0.000000 
#    y 0.000000 1.796550 0.000000 
#    z 0.000000 0.000000 1.805630 
# 
# From -- ./inp_files/6645.got.cif
#   From: 2010.05.17/outbox.cif.g08.bks.cpg/sg39_4_cif.got.tgz:6645.got - 2010.06.03 18:22:40.
