data_PCOD9360100
_publ_section_title
;
Structure prediction by ZEFSAII (Michael W. Deem and Ramdas Pophale) SiO2 
 PCOD9360100
Probable space group: A B M 2
;
_chemical_formula_sum "Si O2"
_cell_formula_units_Z 56
_cell_length_a 20.510445
_cell_length_b 8.737950
_cell_length_c 15.736651
_cell_angle_alpha 90.000000
_cell_angle_beta 90.000000
_cell_angle_gamma 90.000000
_cell_volume 2820.310678
_symmetry_space_group_name_H-M "A B M 2"
_symmetry_group_IT_number 39
_symmetry_cell_setting 'orthorhombic'
loop_
_space_group_symop_operation_xyz
x,y,z
-x,-y,z
-x,1/2+y,z
x,1/2-y,z
x,1/2+y,1/2+z
-x,1/2-y,1/2+z
-x,y,1/2+z
x,-y,1/2+z
loop_
_atom_site_type_symbol
_atom_site_label
_atom_site_fract_x
_atom_site_fract_y
_atom_site_fract_z
Si Si1 0.434252 0.933295 0.463420
Si Si2 0.434698 0.067599 0.655397
Si Si3 0.844452 0.568369 0.405567
Si Si4 0.839367 0.566086 0.216589
Si Si5 0.072156 0.932817 0.558024
Si Si6 0.708185 0.567009 0.650157
Si Si7 0.709971 0.567023 0.959806
O O1 0.439527 0.750000 0.468039
O O2 0.362872 0.970883 0.426557
O O3 0.500000 0.000000 0.422465
O O4 0.432635 0.001451 0.559179
O O5 0.441574 0.250000 0.651687
O O6 0.362742 0.031337 0.690519
O O7 0.500000 0.000000 0.696644
O O8 0.848650 0.750000 0.419002
O O9 0.866308 0.531694 0.309931
O O10 0.887190 0.485742 0.476311
O O11 0.769502 0.516291 0.414748
O O12 0.830256 0.750000 0.210609
O O13 0.887537 0.517178 0.141436
O O14 0.769639 0.487277 0.203604
O O15 0.068409 0.750000 0.559101
O O16 0.000000 0.000000 0.557166
O O17 0.710669 0.750000 0.636617
O O18 0.712626 0.484079 0.558671
O O19 0.718549 0.750000 0.954619
#
# Coordination Sequence:
#
# PCOD9360100 Si02
#       7
#     8   8   8   8   8   8   8
#     4   9  16  25  41  68 104 145 192 243 297 351
#     4   9  16  25  40  69 105 144 192 243 294 349
#     4  11  23  40  63  93 124 159 201 247 294 349
#     4  10  23  41  62  90 125 159 198 244 295 350
#     4  11  24  44  68  94 125 160 194 238 291 349
#     4  10  19  31  53  82 113 153 201 248 296 354
#     4  10  19  32  52  80 115 156 198 247 302 355
#
# _framework density 19.855968000000001
#
# number of rings (size 3 to 8) (size 9 to 14) (size 15 to 20)
#    0.000    2.000    1.429    3.429    0.000    5.714 
#    0.000    1.429    0.000    0.857    0.000    0.000 
#    0.000    0.000    0.000    0.000    0.000    0.000 
#
# Total GULP energy -156305.918154 kJ/mol
# GULP energy per Si atom -5582.354220 kJ/mol
# Density = 1.981078 g / cm^3
# Si number density = 19.855968 Si / 1000 Ang^3
#
#
#
# Elastic Constant Matrix: (Units=GPa)
#
#
# Indices 1 2 3 4 5 6 
#
# 1 163.0968 45.3751 55.6918 0.0000 0.0000 0.0000
# 2 45.3751 50.3562 27.9507 0.0000 0.0000 0.0000
# 3 55.6918 27.9507 82.8236 0.0000 0.0000 0.0000
# 4 0.0000 0.0000 0.0000 15.4926 0.0000 0.0000
# 5 0.0000 0.0000 0.0000 0.0000 -7.6671 0.0000
# 6 0.0000 0.0000 0.0000 0.0000 0.0000 58.9101
#
#
#
# Elastic Compliance Matrix: (Units=1/GPa)
#
#
# Indices 1 2 3 4 5 6 
#
# 1 0.009226 -0.005993 -0.004182 0.000000 0.000000 0.000000
# 2 -0.005993 0.028328 -0.005530 0.000000 0.000000 0.000000
# 3 -0.004182 -0.005530 0.016752 0.000000 0.000000 0.000000
# 4 0.000000 0.000000 0.000000 0.064547 0.000000 0.000000
# 5 0.000000 0.000000 0.000000 0.000000 -0.130427 0.000000
# 6 0.000000 0.000000 0.000000 0.000000 0.000000 0.016975
#
#
# Mechanical properties :
#
#
# Convention : Reuss Voigt Hill
#
# Bulk Modulus (GPa) = 43.67361 61.59022 52.63192
# Shear Modulus (GPa) = 112.50169 24.49770 68.49970
#
# Velocity S-wave (km/s) = 7.53538 3.51632 5.87990
# Velocity P-wave (km/s) = 9.88697 6.89723 8.52420
#
# Compressibility (1/GPa) = 0.02289712
#
# Stress axis : x y z
#
# Youngs Moduli (GPa) = 108.38419 35.30056 59.69444
#
# Poissons Ratio (x) = 0.21155 0.24962
# Poissons Ratio (y) = 0.64952 0.33013
# Poissons Ratio (z) = 0.45322 0.19523
#
# Static dielectric constant tensor:
#      x y z
#    x 1.718870 0.000000 0.000000 
#    y 0.000000 1.662490 0.000000 
#    z 0.000000 0.000000 1.722020 
# 
# From -- ./inp_files/10350.got.cif
#   From: 2010.05.17/outbox.cif.g08.bks.cpg/sg39_6_cif.got.tgz:10350.got - 2010.06.03 18:22:40.
