data_PCOD9360785
_publ_section_title
;
Structure prediction by ZEFSAII (Michael W. Deem and Ramdas Pophale) SiO2 
 PCOD9360785
Probable space group: A B M 2
;
_chemical_formula_sum "Si O2"
_cell_formula_units_Z 64
_cell_length_a 14.529170
_cell_length_b 9.720659
_cell_length_c 24.513033
_cell_angle_alpha 90.000000
_cell_angle_beta 90.000000
_cell_angle_gamma 90.000000
_cell_volume 3462.051816
_symmetry_space_group_name_H-M "A B M 2"
_symmetry_group_IT_number 39
_symmetry_cell_setting 'orthorhombic'
loop_
_space_group_symop_operation_xyz
x,y,z
-x,-y,z
-x,1/2+y,z
x,1/2-y,z
x,1/2+y,1/2+z
-x,1/2-y,1/2+z
-x,y,1/2+z
x,-y,1/2+z
loop_
_atom_site_type_symbol
_atom_site_label
_atom_site_fract_x
_atom_site_fract_y
_atom_site_fract_z
Si Si1 0.229567 0.087586 0.151170
Si Si2 0.091767 0.086410 0.940906
Si Si3 0.741437 0.591412 0.022245
Si Si4 0.607775 0.038541 0.840996
Si Si5 0.587881 0.402399 0.717697
Si Si6 0.096070 0.081691 0.723027
Si Si7 0.590793 0.094520 0.964504
Si Si8 0.801074 0.410878 0.333998
O O1 0.207971 0.250000 0.163187
O O2 0.245183 0.076001 0.086687
O O3 0.324237 0.053031 0.182754
O O4 0.151974 0.984090 0.172702
O O5 0.071280 0.250000 0.935257
O O6 0.144901 0.033327 0.886598
O O7 0.162603 0.072215 0.990709
O O8 0.000000 0.000000 0.948782
O O9 0.711131 0.750000 0.010949
O O10 0.668967 0.484126 0.998094
O O11 0.616402 0.105797 0.781419
O O12 0.619636 0.103606 0.900634
O O13 0.500000 0.000000 0.841519
O O14 0.691671 0.931103 0.838900
O O15 0.500000 0.500000 0.712678
O O16 0.561363 0.250000 0.699035
O O17 0.086806 0.250000 0.719945
O O18 0.155759 0.042167 0.776903
O O19 0.000000 0.000000 0.726872
O O20 0.573912 0.250000 0.983997
O O21 0.500000 0.000000 0.967545
O O22 0.818361 0.250000 0.335297
#
# Coordination Sequence:
#
# PCOD9360785 Si02
#       8
#     8   8   8   8   8   8   8   8
#     4  10  22  41  62  87 118 158 204 252 300 351
#     4  10  21  39  61  87 116 152 193 245 301 356
#     4  10  22  41  63  85 118 160 203 250 303 350
#     4  10  20  35  58  91 121 153 193 237 293 355
#     4  10  21  37  58  86 120 154 194 240 293 351
#     4  11  23  40  63  91 120 157 199 247 304 360
#     4  11  23  38  60  90 123 159 201 244 298 359
#     4  10  20  37  62  89 121 158 195 240 296 361
#
# _framework density 18.486148
#
# number of rings (size 3 to 8) (size 9 to 14) (size 15 to 20)
#    0.000    1.750    2.500    1.500    0.000    6.500 
#    0.000    3.125    0.000    0.000    0.000    0.000 
#    0.000    0.000    0.000    0.000    0.000    0.000 
#
# Total GULP energy -178279.683450 kJ/mol
# GULP energy per Si atom -5571.240108 kJ/mol
# Density = 1.844407 g / cm^3
# Si number density = 18.486148 Si / 1000 Ang^3
#
#
#
# Elastic Constant Matrix: (Units=GPa)
#
#
# Indices 1 2 3 4 5 6 
#
# 1 109.9178 62.9029 52.3977 0.0000 0.0000 0.0000
# 2 62.9029 83.5242 46.1389 0.0000 0.0000 0.0000
# 3 52.3977 46.1389 102.6173 0.0000 0.0000 0.0000
# 4 0.0000 0.0000 0.0000 6.8977 0.0000 0.0000
# 5 0.0000 0.0000 0.0000 0.0000 8.3733 0.0000
# 6 0.0000 0.0000 0.0000 0.0000 0.0000 30.0192
#
#
#
# Elastic Compliance Matrix: (Units=1/GPa)
#
#
# Indices 1 2 3 4 5 6 
#
# 1 0.017092 -0.010712 -0.003911 0.000000 0.000000 0.000000
# 2 -0.010712 0.022642 -0.004711 0.000000 0.000000 0.000000
# 3 -0.003911 -0.004711 0.013860 0.000000 0.000000 0.000000
# 4 0.000000 0.000000 0.000000 0.144976 0.000000 0.000000
# 5 0.000000 0.000000 0.000000 0.000000 0.119427 0.000000
# 6 0.000000 0.000000 0.000000 0.000000 0.000000 0.033312
#
#
# Mechanical properties :
#
#
# Convention : Reuss Voigt Hill
#
# Bulk Modulus (GPa) = 66.99368 68.77092 67.88230
# Shear Modulus (GPa) = 12.65975 18.03269 15.34622
#
# Velocity S-wave (km/s) = 2.61975 3.12664 2.88435
# Velocity P-wave (km/s) = 6.74310 7.09342 6.92048
#
# Compressibility (1/GPa) = 0.01492678
#
# Stress axis : x y z
#
# Youngs Moduli (GPa) = 58.50594 44.16584 72.14935
#
# Poissons Ratio (x) = 0.47309 0.28220
# Poissons Ratio (y) = 0.62670 0.33987
# Poissons Ratio (z) = 0.22883 0.20805
#
# Static dielectric constant tensor:
#      x y z
#    x 1.617140 0.000000 0.000000 
#    y 0.000000 1.508900 0.000000 
#    z 0.000000 0.000000 1.650890 
# 
# From -- ./inp_files/16147.got.cif
#   From: 2010.05.17/outbox.cif.g08.bks.cpg/sg39_9_cif.got.tgz:16147.got - 2010.06.03 18:22:40.
