data_PCOD9360582
_publ_section_title
;
Structure prediction by ZEFSAII (Michael W. Deem and Ramdas Pophale) SiO2 
 PCOD9360582
Probable space group: A B M 2
;
_chemical_formula_sum "Si O2"
_cell_formula_units_Z 64
_cell_length_a 17.691403
_cell_length_b 7.777231
_cell_length_c 22.337429
_cell_angle_alpha 90.000000
_cell_angle_beta 90.000000
_cell_angle_gamma 90.000000
_cell_volume 3073.409712
_symmetry_space_group_name_H-M "A B M 2"
_symmetry_group_IT_number 39
_symmetry_cell_setting 'orthorhombic'
loop_
_space_group_symop_operation_xyz
x,y,z
-x,-y,z
-x,1/2+y,z
x,1/2-y,z
x,1/2+y,1/2+z
-x,1/2-y,1/2+z
-x,y,1/2+z
x,-y,1/2+z
loop_
_atom_site_type_symbol
_atom_site_label
_atom_site_fract_x
_atom_site_fract_y
_atom_site_fract_z
Si Si1 0.772323 0.459563 0.516700
Si Si2 0.580419 0.955002 0.438978
Si Si3 0.267624 0.053204 0.885367
Si Si4 0.615983 0.549388 0.571544
Si Si5 0.748289 0.553094 0.253414
Si Si6 0.083818 0.542517 0.717595
Si Si7 0.413413 0.554225 0.705179
Si Si8 0.079540 0.455489 0.081439
O O1 0.766344 0.250000 0.516850
O O2 0.766611 0.514792 0.447655
O O3 0.704804 0.528593 0.557804
O O4 0.850133 0.518618 0.544413
O O5 0.594232 0.750000 0.439540
O O6 0.582696 0.016644 0.508373
O O7 0.500000 0.000000 0.413102
O O8 0.644155 0.046672 0.401207
O O9 0.242801 0.250000 0.875885
O O10 0.254934 0.950828 0.825117
O O11 0.596176 0.750000 0.578278
O O12 0.592531 0.459720 0.632827
O O13 0.749394 0.750000 0.229892
O O14 0.832717 0.480554 0.239188
O O15 0.667401 0.475243 0.229504
O O16 0.086897 0.750000 0.719663
O O17 0.080174 0.477579 0.649125
O O18 0.000000 0.500000 0.744619
O O19 0.500000 0.500000 0.721160
O O20 0.409565 0.750000 0.725713
O O21 0.086288 0.250000 0.085381
O O22 0.000000 0.500000 0.052748
#
# Coordination Sequence:
#
# PCOD9360582 Si02
#       8
#     8   8   8   8   8   8   8   8
#     4   9  18  34  54  76 106 142 176 215 268 324
#     4  10  20  34  53  77 105 137 174 218 268 320
#     4  10  21  36  55  77 102 137 181 225 266 313
#     4  10  20  33  53  81 109 138 175 220 269 322
#     4  10  22  40  58  76 106 148 187 227 277 326
#     4   9  18  34  57  83 108 138 176 220 272 326
#     4  11  23  38  56  79 110 147 184 224 273 328
#     4   9  17  31  52  79 109 137 168 209 261 321
#
# _framework density 20.823777
#
# number of rings (size 3 to 8) (size 9 to 14) (size 15 to 20)
#    0.000    2.250    0.000    2.625    0.000    7.500 
#    0.000    4.375    0.000    3.000    0.000    0.000 
#    0.000    0.000    0.000    0.000    0.000    0.000 
#
# Total GULP energy -178276.161230 kJ/mol
# GULP energy per Si atom -5571.130038 kJ/mol
# Density = 2.077638 g / cm^3
# Si number density = 20.823777 Si / 1000 Ang^3
#
#
#
# Elastic Constant Matrix: (Units=GPa)
#
#
# Indices 1 2 3 4 5 6 
#
# 1 199.5969 1.0540 50.3977 0.0000 0.0000 0.0000
# 2 1.0540 34.4409 -2.9618 0.0000 0.0000 0.0000
# 3 50.3977 -2.9618 47.5809 0.0000 0.0000 0.0000
# 4 0.0000 0.0000 0.0000 12.9120 0.0000 0.0000
# 5 0.0000 0.0000 0.0000 0.0000 -38.8714 0.0000
# 6 0.0000 0.0000 0.0000 0.0000 0.0000 18.2386
#
#
#
# Elastic Compliance Matrix: (Units=1/GPa)
#
#
# Indices 1 2 3 4 5 6 
#
# 1 0.006863 -0.000840 -0.007322 0.000000 0.000000 0.000000
# 2 -0.000840 0.029294 0.002713 0.000000 0.000000 0.000000
# 3 -0.007322 0.002713 0.028941 0.000000 0.000000 0.000000
# 4 0.000000 0.000000 0.000000 0.077447 0.000000 0.000000
# 5 0.000000 0.000000 0.000000 0.000000 -0.025726 0.000000
# 6 0.000000 0.000000 0.000000 0.000000 0.000000 0.054829
#
#
# Mechanical properties :
#
#
# Convention : Reuss Voigt Hill
#
# Bulk Modulus (GPa) = 18.44978 42.06650 30.25814
# Shear Modulus (GPa) = 24.92364 13.99779 19.46071
#
# Velocity S-wave (km/s) = 3.46335 2.59550 3.06035
# Velocity P-wave (km/s) = 4.98721 5.40622 5.20094
#
# Compressibility (1/GPa) = 0.05420118
#
# Stress axis : x y z
#
# Youngs Moduli (GPa) = 145.70306 34.13641 34.55311
#
# Poissons Ratio (x) = 0.02866 0.25299
# Poissons Ratio (y) = 0.12234 -0.09374
# Poissons Ratio (z) = 1.06681 -0.09261
#
# Static dielectric constant tensor:
#      x y z
#    x 1.811150 0.000000 0.000000 
#    y 0.000000 1.782630 0.000000 
#    z 0.000000 0.000000 1.716370 
# 
# From -- ./inp_files/16148.got.cif
#   From: 2010.05.17/outbox.cif.g08.bks.cpg/sg39_9_cif.got.tgz:16148.got - 2010.06.03 18:22:40.
