data_PCOD9360969
_publ_section_title
;
Structure prediction by ZEFSAII (Michael W. Deem and Ramdas Pophale) SiO2 
 PCOD9360969
Probable space group: A B M 2
;
_chemical_formula_sum "Si O2"
_cell_formula_units_Z 64
_cell_length_a 15.858403
_cell_length_b 8.627790
_cell_length_c 24.357537
_cell_angle_alpha 90.000000
_cell_angle_beta 90.000000
_cell_angle_gamma 90.000000
_cell_volume 3332.670574
_symmetry_space_group_name_H-M "A B M 2"
_symmetry_group_IT_number 39
_symmetry_cell_setting 'orthorhombic'
loop_
_space_group_symop_operation_xyz
x,y,z
-x,-y,z
-x,1/2+y,z
x,1/2-y,z
x,1/2+y,1/2+z
-x,1/2-y,1/2+z
-x,y,1/2+z
x,-y,1/2+z
loop_
_atom_site_type_symbol
_atom_site_label
_atom_site_fract_x
_atom_site_fract_y
_atom_site_fract_z
Si Si1 0.147910 0.063671 0.181690
Si Si2 0.089218 0.064244 0.797701
Si Si3 0.590115 0.063028 0.564455
Si Si4 0.590547 0.435768 0.801019
Si Si5 0.910543 0.434359 0.065546
Si Si6 0.747813 0.437049 0.368470
Si Si7 0.345468 0.561817 0.682557
Si Si8 0.244942 0.562593 0.496016
O O1 0.142666 0.250000 0.181169
O O2 0.246908 0.018323 0.182149
O O3 0.105703 0.999572 0.236640
O O4 0.106397 0.998386 0.126742
O O5 0.086221 0.250000 0.796104
O O6 0.168044 0.016054 0.835529
O O7 0.000000 0.000000 0.818081
O O8 0.587224 0.250000 0.564780
O O9 0.610180 0.008607 0.626663
O O10 0.668231 0.016475 0.526093
O O11 0.500000 0.000000 0.546288
O O12 0.500000 0.500000 0.818273
O O13 0.588523 0.250000 0.800871
O O14 0.666127 0.492334 0.839454
O O15 0.611152 0.491041 0.738759
O O16 0.913449 0.250000 0.067014
O O17 0.834053 0.491248 0.027662
O O18 0.000000 0.500000 0.045800
O O19 0.741605 0.250000 0.365643
O O20 0.753500 0.481183 0.432205
O O21 0.347718 0.750000 0.682309
O O22 0.238443 0.750000 0.499904
#
# Coordination Sequence:
#
# PCOD9360969 Si02
#       8
#     8   8   8   8   8   8   8   8
#     4  11  20  38  64  90 122 158 199 244 302 364
#     4  11  23  39  60  90 123 156 199 247 302 364
#     4  10  20  37  60  87 119 154 194 241 298 355
#     4  11  22  38  61  90 123 160 203 249 306 366
#     4  12  25  41  63  93 124 159 201 247 303 362
#     4  10  23  42  63  88 119 159 207 256 306 356
#     4   9  18  34  59  88 117 155 194 240 300 359
#     4  10  22  43  65  86 120 162 204 255 305 354
#
# _framework density 19.203818999999999
#
# number of rings (size 3 to 8) (size 9 to 14) (size 15 to 20)
#    0.000    1.500    2.500    3.000    0.000    2.500 
#    0.000    3.125    0.000    0.000    0.000    0.000 
#    0.000    0.000    0.000    0.000    0.000    0.000 
#
# Total GULP energy -178902.305918 kJ/mol
# GULP energy per Si atom -5590.697060 kJ/mol
# Density = 1.916011 g / cm^3
# Si number density = 19.203819 Si / 1000 Ang^3
#
#
#
# Elastic Constant Matrix: (Units=GPa)
#
#
# Indices 1 2 3 4 5 6 
#
# 1 202.7348 52.3640 87.8804 0.0000 0.0000 0.0000
# 2 52.3640 47.1470 44.6663 0.0000 0.0000 0.0000
# 3 87.8804 44.6663 148.9027 0.0000 0.0000 0.0000
# 4 0.0000 0.0000 0.0000 19.3090 0.0000 0.0000
# 5 0.0000 0.0000 0.0000 0.0000 -6.9708 0.0000
# 6 0.0000 0.0000 0.0000 0.0000 0.0000 30.8725
#
#
#
# Elastic Compliance Matrix: (Units=1/GPa)
#
#
# Indices 1 2 3 4 5 6 
#
# 1 0.007643 -0.005889 -0.002744 0.000000 0.000000 0.000000
# 2 -0.005889 0.034168 -0.006774 0.000000 0.000000 0.000000
# 3 -0.002744 -0.006774 0.010367 0.000000 0.000000 0.000000
# 4 0.000000 0.000000 0.000000 0.051789 0.000000 0.000000
# 5 0.000000 0.000000 0.000000 0.000000 -0.143456 0.000000
# 6 0.000000 0.000000 0.000000 0.000000 0.000000 0.032391
#
#
# Mechanical properties :
#
#
# Convention : Reuss Voigt Hill
#
# Bulk Modulus (GPa) = 46.80659 85.40066 66.10362
# Shear Modulus (GPa) = 162.13152 22.90042 92.51597
#
# Velocity S-wave (km/s) = 9.19837 3.45700 6.94841
# Velocity P-wave (km/s) = 11.71494 7.77828 9.94338
#
# Compressibility (1/GPa) = 0.02136451
#
# Stress axis : x y z
#
# Youngs Moduli (GPa) = 130.83446 29.26685 96.45553
#
# Poissons Ratio (x) = 0.17235 0.26472
# Poissons Ratio (y) = 0.77048 0.65338
# Poissons Ratio (z) = 0.35907 0.19825
#
# Static dielectric constant tensor:
#      x y z
#    x 1.653170 0.000000 0.000000 
#    y 0.000000 1.649460 0.000000 
#    z 0.000000 0.000000 1.649300 
# 
# From -- ./inp_files/16154.got.cif
#   From: 2010.05.17/outbox.cif.g08.bks.cpg/sg39_9_cif.got.tgz:16154.got - 2010.06.03 18:22:40.
