data_PCOD9360460
_publ_section_title
;
Structure prediction by ZEFSAII (Michael W. Deem and Ramdas Pophale) SiO2 
 PCOD9360460
Probable space group: A B M 2
;
_chemical_formula_sum "Si O2"
_cell_formula_units_Z 48
_cell_length_a 14.248461
_cell_length_b 11.531235
_cell_length_c 13.307542
_cell_angle_alpha 90.000000
_cell_angle_beta 90.000000
_cell_angle_gamma 90.000000
_cell_volume 2186.460452
_symmetry_space_group_name_H-M "A B M 2"
_symmetry_group_IT_number 39
_symmetry_cell_setting 'orthorhombic'
loop_
_space_group_symop_operation_xyz
x,y,z
-x,-y,z
-x,1/2+y,z
x,1/2-y,z
x,1/2+y,1/2+z
-x,1/2-y,1/2+z
-x,y,1/2+z
x,-y,1/2+z
loop_
_atom_site_type_symbol
_atom_site_label
_atom_site_fract_x
_atom_site_fract_y
_atom_site_fract_z
Si Si1 0.500000 0.500000 0.989691
Si Si2 0.626844 0.621460 0.842216
Si Si3 0.912371 0.250000 0.257422
Si Si4 0.874574 0.250000 0.837680
Si Si5 0.793415 0.619304 0.006006
Si Si6 0.889190 0.006554 0.341702
Si Si7 0.321957 0.035493 0.631686
Si Si8 0.189636 0.250000 0.568102
O O1 0.537474 0.596124 0.911827
O O2 0.413987 0.536370 0.060717
O O3 0.621343 0.750000 0.798854
O O4 0.645378 0.540572 0.746873
O O5 0.711777 0.615209 0.921370
O O6 0.862614 0.129750 0.290562
O O7 0.902962 0.250000 0.138129
O O8 0.014705 0.250000 0.308016
O O9 0.846218 0.383060 0.807438
O O10 0.845064 0.250000 0.954316
O O11 0.829955 0.750000 0.015107
O O12 0.740839 0.576084 0.104559
O O13 0.869042 0.531371 0.959601
O O14 0.000000 0.000000 0.324096
O O15 0.255347 0.141196 0.597267
#
# Coordination Sequence:
#
# PCOD9360460 Si02
#       8
#     4   8   4   4   8   8   8   4
#     4  10  24  40  60  96 138 164 214 286 346 394
#     4  10  21  38  62  90 125 176 216 263 343 411
#     4  10  22  40  68  92 138 184 226 275 347 418
#     4  10  22  40  64 100 134 170 230 295 329 394
#     4  10  20  38  65  90 128 174 218 273 332 404
#     4  10  19  36  62  92 129 174 217 276 333 389
#     4  11  22  39  67  98 128 167 230 276 330 415
#     4  12  22  40  72  98 124 186 234 270 344 418
#
# _framework density 21.953289999999999
#
# number of rings (size 3 to 8) (size 9 to 14) (size 15 to 20)
#    0.000    1.667    3.333    1.500    1.167    0.000 
#    0.000    8.333    9.167    0.000    0.000    0.000 
#    0.000    0.000    0.000    0.000    0.000    0.000 
#
# Total GULP energy -133747.300282 kJ/mol
# GULP energy per Si atom -5572.804178 kJ/mol
# Density = 2.190332 g / cm^3
# Si number density = 21.953290 Si / 1000 Ang^3
#
#
#
# Elastic Constant Matrix: (Units=GPa)
#
#
# Indices 1 2 3 4 5 6 
#
# 1 49.1120 15.3585 34.1945 0.0000 0.0000 0.0000
# 2 15.3585 145.5472 31.7625 0.0000 0.0000 0.0000
# 3 34.1945 31.7625 117.4965 0.0000 0.0000 0.0000
# 4 0.0000 0.0000 0.0000 10.0084 0.0000 0.0000
# 5 0.0000 0.0000 0.0000 0.0000 20.7402 0.0000
# 6 0.0000 0.0000 0.0000 0.0000 0.0000 19.3827
#
#
#
# Elastic Compliance Matrix: (Units=1/GPa)
#
#
# Indices 1 2 3 4 5 6 
#
# 1 0.025715 -0.001148 -0.007173 0.000000 0.000000 0.000000
# 2 -0.001148 0.007353 -0.001653 0.000000 0.000000 0.000000
# 3 -0.007173 -0.001653 0.011046 0.000000 0.000000 0.000000
# 4 0.000000 0.000000 0.000000 0.099916 0.000000 0.000000
# 5 0.000000 0.000000 0.000000 0.000000 0.048215 0.000000
# 6 0.000000 0.000000 0.000000 0.000000 0.000000 0.051592
#
#
# Mechanical properties :
#
#
# Convention : Reuss Voigt Hill
#
# Bulk Modulus (GPa) = 41.38501 52.75408 47.06954
# Shear Modulus (GPa) = 18.39306 25.41563 21.90435
#
# Velocity S-wave (km/s) = 2.89766 3.40621 3.16218
# Velocity P-wave (km/s) = 5.48522 6.28904 5.90083
#
# Compressibility (1/GPa) = 0.02416334
#
# Stress axis : x y z
#
# Youngs Moduli (GPa) = 38.88749 136.00616 90.53438
#
# Poissons Ratio (x) = 0.15615 0.64944
# Poissons Ratio (y) = 0.04465 0.14970
# Poissons Ratio (z) = 0.27896 0.22488
#
# Static dielectric constant tensor:
#      x y z
#    x 1.802490 0.000000 0.000000 
#    y 0.000000 1.888470 0.000000 
#    z 0.000000 0.000000 1.812290 
# 
# From -- ./inp_files/6827.got.cif
#   From: 2010.05.17/outbox.cif.g08.bks.cpg/sg39_4_cif.got.tgz:6827.got - 2010.06.03 18:22:40.
