data_PCOD9360075
_publ_section_title
;
Structure prediction by ZEFSAII (Michael W. Deem and Ramdas Pophale) SiO2 
 PCOD9360075
Probable space group: A B M 2
;
_chemical_formula_sum "Si O2"
_cell_formula_units_Z 64
_cell_length_a 14.617907
_cell_length_b 8.611807
_cell_length_c 32.268871
_cell_angle_alpha 90.000000
_cell_angle_beta 90.000000
_cell_angle_gamma 90.000000
_cell_volume 4062.218257
_symmetry_space_group_name_H-M "A B M 2"
_symmetry_group_IT_number 39
_symmetry_cell_setting 'orthorhombic'
loop_
_space_group_symop_operation_xyz
x,y,z
-x,-y,z
-x,1/2+y,z
x,1/2-y,z
x,1/2+y,1/2+z
-x,1/2-y,1/2+z
-x,y,1/2+z
x,-y,1/2+z
loop_
_atom_site_type_symbol
_atom_site_label
_atom_site_fract_x
_atom_site_fract_y
_atom_site_fract_z
Si Si1 0.396587 0.437689 0.725080
Si Si2 0.902750 0.435988 0.020048
Si Si3 0.397188 0.935698 0.566054
Si Si4 0.603967 0.563007 0.906666
Si Si5 0.292121 0.436107 0.485869
Si Si6 0.396750 0.563032 0.315620
Si Si7 0.284441 0.436884 0.644362
Si Si8 0.901577 0.435276 0.613233
O O1 0.500000 0.500000 0.720402
O O2 0.401221 0.250000 0.724281
O O3 0.358993 0.485712 0.770632
O O4 0.334045 0.486995 0.686749
O O5 0.908357 0.250000 0.024063
O O6 0.814777 0.475387 0.992431
O O7 0.887829 0.505817 0.065950
O O8 0.000000 0.500000 0.004658
O O9 0.398214 0.750000 0.567517
O O10 0.500000 0.000000 0.566869
O O11 0.347644 0.991764 0.524248
O O12 0.341994 0.000788 0.605366
O O13 0.500000 0.500000 0.910887
O O14 0.600972 0.750000 0.909168
O O15 0.640517 0.516156 0.860742
O O16 0.665610 0.497289 0.943327
O O17 0.301198 0.250000 0.487822
O O18 0.500000 0.500000 0.315449
O O19 0.398401 0.750000 0.315694
O O20 0.282723 0.250000 0.642620
O O21 0.182227 0.500872 0.639886
O O22 0.902503 0.250000 0.613244
O O23 0.000000 0.500000 0.626817
#
# Coordination Sequence:
#
# PCOD9360075 Si02
#       8
#     8   8   8   8   8   8   8   8
#     4   9  18  31  49  71  99 131 164 201 241 287
#     4  10  20  34  53  72  95 123 158 203 247 290
#     4  12  24  36  49  66  95 134 170 202 238 284
#     4  10  19  31  49  71  99 130 165 203 241 289
#     4  11  22  35  50  70  98 129 163 201 242 290
#     4   8  15  29  47  69  94 125 161 200 243 284
#     4  11  21  34  50  72 100 130 165 203 243 291
#     4  11  21  34  53  73  96 126 162 205 248 293
#
# _framework density 15.754939
#
# number of rings (size 3 to 8) (size 9 to 14) (size 15 to 20)
#    0.000    1.750    1.250    5.250    0.000    4.000 
#    0.000    0.000    0.000    0.000    0.000    0.875 
#    0.000    2.000    0.000    0.000    0.000    0.000 
#
# Total GULP energy -178533.320278 kJ/mol
# GULP energy per Si atom -5579.166259 kJ/mol
# Density = 1.571908 g / cm^3
# Si number density = 15.754939 Si / 1000 Ang^3
#
#
#
# Elastic Constant Matrix: (Units=GPa)
#
#
# Indices 1 2 3 4 5 6 
#
# 1 122.7397 43.8187 78.9649 0.0000 0.0000 0.0000
# 2 43.8187 70.4764 41.5505 0.0000 0.0000 0.0000
# 3 78.9649 41.5505 154.0050 0.0000 0.0000 0.0000
# 4 0.0000 0.0000 0.0000 15.6184 0.0000 0.0000
# 5 0.0000 0.0000 0.0000 0.0000 2.1661 0.0000
# 6 0.0000 0.0000 0.0000 0.0000 0.0000 26.1578
#
#
#
# Elastic Compliance Matrix: (Units=1/GPa)
#
#
# Indices 1 2 3 4 5 6 
#
# 1 0.013569 -0.005155 -0.005567 0.000000 0.000000 0.000000
# 2 -0.005155 0.018831 -0.002438 0.000000 0.000000 0.000000
# 3 -0.005567 -0.002438 0.010005 0.000000 0.000000 0.000000
# 4 0.000000 0.000000 0.000000 0.064027 0.000000 0.000000
# 5 0.000000 0.000000 0.000000 0.000000 0.461664 0.000000
# 6 0.000000 0.000000 0.000000 0.000000 0.000000 0.038229
#
#
# Mechanical properties :
#
#
# Convention : Reuss Voigt Hill
#
# Bulk Modulus (GPa) = 62.16000 75.09882 68.62941
# Shear Modulus (GPa) = 7.83691 20.98093 14.40892
#
# Velocity S-wave (km/s) = 2.23272 3.65321 3.02746
# Velocity P-wave (km/s) = 6.79608 8.09722 7.47501
#
# Compressibility (1/GPa) = 0.01608752
#
# Stress axis : x y z
#
# Youngs Moduli (GPa) = 73.69846 53.10350 99.94783
#
# Poissons Ratio (x) = 0.27372 0.55637
# Poissons Ratio (y) = 0.37988 0.24364
# Poissons Ratio (z) = 0.41025 0.12945
#
# Static dielectric constant tensor:
#      x y z
#    x 1.506770 0.000000 0.000000 
#    y 0.000000 1.536370 0.000000 
#    z 0.000000 0.000000 1.541140 
# 
# From -- ./inp_files/18000.got.cif
#   From: 2010.05.17/outbox.cif.g08.bks.cpg/sg39_9_cif.got.tgz:18000.got - 2010.06.03 18:22:40.
