data_PCOD9360879
_publ_section_title
;
Structure prediction by ZEFSAII (Michael W. Deem and Ramdas Pophale) SiO2 
 PCOD9360879
Probable space group: A B M 2
;
_chemical_formula_sum "Si O2"
_cell_formula_units_Z 64
_cell_length_a 5.335739
_cell_length_b 20.954379
_cell_length_c 27.705661
_cell_angle_alpha 90.000000
_cell_angle_beta 90.000000
_cell_angle_gamma 90.000000
_cell_volume 3097.689534
_symmetry_space_group_name_H-M "A B M 2"
_symmetry_group_IT_number 39
_symmetry_cell_setting 'orthorhombic'
loop_
_space_group_symop_operation_xyz
x,y,z
-x,-y,z
-x,1/2+y,z
x,1/2-y,z
x,1/2+y,1/2+z
-x,1/2-y,1/2+z
-x,y,1/2+z
x,-y,1/2+z
loop_
_atom_site_type_symbol
_atom_site_label
_atom_site_fract_x
_atom_site_fract_y
_atom_site_fract_z
Si Si1 0.524451 0.671877 0.716180
Si Si2 0.248748 0.539943 0.905310
Si Si3 0.412693 0.371266 0.321737
Si Si4 0.081184 0.818455 0.357481
Si Si5 0.153141 0.679697 0.468280
Si Si6 0.972006 0.826519 0.160977
Si Si7 0.541015 0.424743 0.999759
Si Si8 0.209423 0.677587 0.059678
O O1 0.520951 0.750000 0.723835
O O2 0.462403 0.634150 0.765096
O O3 0.798120 0.653950 0.695782
O O4 0.303317 0.654471 0.678645
O O5 0.500000 0.500000 0.911252
O O6 0.286615 0.573333 0.853774
O O7 0.251805 0.576527 0.956831
O O8 0.000000 0.500000 0.903374
O O9 0.691224 0.364749 0.344159
O O10 0.185667 0.321759 0.331516
O O11 0.197250 0.750000 0.345234
O O12 0.038835 0.822313 0.414689
O O13 0.293478 0.750000 0.469286
O O14 0.319003 0.616840 0.475821
O O15 0.963952 0.683089 0.512625
O O16 0.969552 0.750000 0.163254
O O17 0.047965 0.841582 0.106261
O O18 0.500000 0.500000 0.012042
O O19 0.608807 0.380471 0.045558
O O20 0.317310 0.750000 0.068616
#
# Coordination Sequence:
#
# PCOD9360879 Si02
#       8
#     8   8   8   8   8   8   8   8
#     4  10  20  36  59  92 121 154 200 259 320 379
#     4  11  25  42  61  86 122 168 217 261 307 376
#     4  12  22  38  62  86 122 163 209 251 316 375
#     4  11  22  35  55  90 129 163 193 245 310 382
#     4  10  22  38  59  92 129 166 211 259 320 391
#     4   9  20  37  59  87 123 157 199 256 323 383
#     4  11  24  38  63  88 127 169 213 263 307 381
#     4  10  22  39  63  91 125 169 212 263 323 388
#
# _framework density 20.66056
#
# number of rings (size 3 to 8) (size 9 to 14) (size 15 to 20)
#    0.000    1.500    1.250    3.750    7.000    1.000 
#    0.000    0.000    0.000    2.250    0.000    0.000 
#    0.000    0.000    0.000    0.000    0.000    0.000 
#
# Total GULP energy -178219.326315 kJ/mol
# GULP energy per Si atom -5569.353947 kJ/mol
# Density = 2.061354 g / cm^3
# Si number density = 20.660560 Si / 1000 Ang^3
#
#
#
# Elastic Constant Matrix: (Units=GPa)
#
#
# Indices 1 2 3 4 5 6 
#
# 1 67.4629 10.8528 -4.7862 0.0000 0.0000 0.0000
# 2 10.8528 81.5098 -2.0596 0.0000 0.0000 0.0000
# 3 -4.7862 -2.0596 61.2142 0.0000 0.0000 0.0000
# 4 0.0000 0.0000 0.0000 17.8271 0.0000 0.0000
# 5 0.0000 0.0000 0.0000 0.0000 32.8847 0.0000
# 6 0.0000 0.0000 0.0000 0.0000 0.0000 30.5214
#
#
#
# Elastic Compliance Matrix: (Units=1/GPa)
#
#
# Indices 1 2 3 4 5 6 
#
# 1 0.015224 -0.001999 0.001123 0.000000 0.000000 0.000000
# 2 -0.001999 0.012541 0.000266 0.000000 0.000000 0.000000
# 3 0.001123 0.000266 0.016433 0.000000 0.000000 0.000000
# 4 0.000000 0.000000 0.000000 0.056094 0.000000 0.000000
# 5 0.000000 0.000000 0.000000 0.000000 0.030409 0.000000
# 6 0.000000 0.000000 0.000000 0.000000 0.000000 0.032764
#
#
# Mechanical properties :
#
#
# Convention : Reuss Voigt Hill
#
# Bulk Modulus (GPa) = 23.26744 24.24454 23.75599
# Shear Modulus (GPa) = 27.93112 29.99197 28.96155
#
# Velocity S-wave (km/s) = 3.68082 3.81419 3.74810
# Velocity P-wave (km/s) = 5.41763 5.58190 5.50038
#
# Compressibility (1/GPa) = 0.04297851
#
# Stress axis : x y z
#
# Youngs Moduli (GPa) = 65.68499 79.73658 60.85381
#
# Poissons Ratio (x) = 0.15937 -0.06835
# Poissons Ratio (y) = 0.13128 -0.01617
# Poissons Ratio (z) = -0.07377 -0.02118
#
# Static dielectric constant tensor:
#      x y z
#    x 1.762640 0.000000 0.000000 
#    y 0.000000 1.857290 0.000000 
#    z 0.000000 0.000000 1.743230 
# 
# From -- ./inp_files/16616.got.cif
#   From: 2010.05.17/outbox.cif.g08.bks.cpg/sg39_9_cif.got.tgz:16616.got - 2010.06.03 18:22:40.
