data_PCOD9360815
_publ_section_title
;
Structure prediction by ZEFSAII (Michael W. Deem and Ramdas Pophale) SiO2 
 PCOD9360815
Probable space group: A B M 2
;
_chemical_formula_sum "Si O2"
_cell_formula_units_Z 60
_cell_length_a 20.889936
_cell_length_b 9.321576
_cell_length_c 14.001168
_cell_angle_alpha 90.000000
_cell_angle_beta 90.000000
_cell_angle_gamma 90.000000
_cell_volume 2726.407206
_symmetry_space_group_name_H-M "A B M 2"
_symmetry_group_IT_number 39
_symmetry_cell_setting 'orthorhombic'
loop_
_space_group_symop_operation_xyz
x,y,z
-x,-y,z
-x,1/2+y,z
x,1/2-y,z
x,1/2+y,1/2+z
-x,1/2-y,1/2+z
-x,y,1/2+z
x,-y,1/2+z
loop_
_atom_site_type_symbol
_atom_site_label
_atom_site_fract_x
_atom_site_fract_y
_atom_site_fract_z
Si Si1 0.339109 0.913192 0.260690
Si Si2 0.193910 0.585373 0.956727
Si Si3 0.781063 0.588579 0.230384
Si Si4 0.993279 0.250000 0.766652
Si Si5 0.433361 0.080397 0.602668
Si Si6 0.063267 0.914430 0.488832
Si Si7 0.083338 0.511603 0.704608
Si Si8 0.321811 0.580368 0.488018
O O1 0.318325 0.750000 0.238080
O O2 0.407557 0.933553 0.211479
O O3 0.337558 0.927813 0.374485
O O4 0.288163 0.021808 0.215407
O O5 0.187051 0.750000 0.992419
O O6 0.210959 0.594119 0.844814
O O7 0.128924 0.493836 0.964924
O O8 0.253185 0.497594 0.002261
O O9 0.787872 0.750000 0.191694
O O10 0.840797 0.494034 0.196342
O O11 0.937401 0.372612 0.782284
O O12 0.044954 0.372664 0.732729
O O13 0.438458 0.250000 0.580494
O O14 0.500000 0.000000 0.589131
O O15 0.377975 0.005012 0.540818
O O16 0.059298 0.750000 0.451191
O O17 0.062130 0.915572 0.604415
O O18 0.000000 0.000000 0.459107
O O19 0.319220 0.750000 0.512996
#
# Coordination Sequence:
#
# PCOD9360815 Si02
#       8
#     8   8   8   4   8   8   8   8
#     4   9  22  42  65  93 131 169 211 258 309 369
#     4  10  23  40  59  84 119 156 202 252 307 371
#     4  10  21  39  59  86 114 151 200 252 303 365
#     4  10  20  36  54  78 112 146 192 252 312 366
#     4  11  24  43  67 102 137 169 213 255 304 372
#     4  12  22  38  56  80 112 153 198 256 313 371
#     4  11  20  37  56  80 106 149 198 251 303 372
#     4  10  21  43  68  94 131 174 214 260 314 369
#
# _framework density 22.006983999999999
#
# number of rings (size 3 to 8) (size 9 to 14) (size 15 to 20)
#    0.000    1.600    2.667    1.600    3.733    2.667 
#    2.400    1.333    0.000    0.000    0.000    0.000 
#    0.000    0.000    0.000    0.000    0.000    0.000 
#
# Total GULP energy -167253.973686 kJ/mol
# GULP energy per Si atom -5575.132456 kJ/mol
# Density = 2.195690 g / cm^3
# Si number density = 22.006984 Si / 1000 Ang^3
#
#
#
# Elastic Constant Matrix: (Units=GPa)
#
#
# Indices 1 2 3 4 5 6 
#
# 1 196.6560 99.4995 24.7491 0.0000 0.0000 0.0000
# 2 99.4995 192.6003 21.8873 0.0000 0.0000 0.0000
# 3 24.7491 21.8873 49.9513 0.0000 0.0000 0.0000
# 4 0.0000 0.0000 0.0000 31.8589 0.0000 0.0000
# 5 0.0000 0.0000 0.0000 0.0000 26.5494 0.0000
# 6 0.0000 0.0000 0.0000 0.0000 0.0000 40.9116
#
#
#
# Elastic Compliance Matrix: (Units=1/GPa)
#
#
# Indices 1 2 3 4 5 6 
#
# 1 0.007070 -0.003425 -0.002002 0.000000 0.000000 0.000000
# 2 -0.003425 0.007123 -0.001424 0.000000 0.000000 0.000000
# 3 -0.002002 -0.001424 0.021636 0.000000 0.000000 0.000000
# 4 0.000000 0.000000 0.000000 0.031388 0.000000 0.000000
# 5 0.000000 0.000000 0.000000 0.000000 0.037666 0.000000
# 6 0.000000 0.000000 0.000000 0.000000 0.000000 0.024443
#
#
# Mechanical properties :
#
#
# Convention : Reuss Voigt Hill
#
# Bulk Modulus (GPa) = 45.19567 81.27547 63.23557
# Shear Modulus (GPa) = 33.24388 39.40210 36.32299
#
# Velocity S-wave (km/s) = 3.89087 4.23595 4.06707
# Velocity P-wave (km/s) = 6.38488 7.80616 7.13102
#
# Compressibility (1/GPa) = 0.02212601
#
# Stress axis : x y z
#
# Youngs Moduli (GPa) = 141.44663 140.38516 46.22009
#
# Poissons Ratio (x) = 0.48079 0.09254
# Poissons Ratio (y) = 0.48443 0.06583
# Poissons Ratio (z) = 0.28320 0.19996
#
# Static dielectric constant tensor:
#      x y z
#    x 1.769760 0.000000 0.000000 
#    y 0.000000 1.734340 0.000000 
#    z 0.000000 0.000000 1.966030 
# 
# From -- ./inp_files/12968.got.cif
#   From: 2010.05.17/outbox.cif.g08.bks.cpg/sg39_7_cif.got.tgz:12968.got - 2010.06.03 18:22:40.
