data_PCOD9360437
_publ_section_title
;
Structure prediction by ZEFSAII (Michael W. Deem and Ramdas Pophale) SiO2 
 PCOD9360437
Probable space group: A B M 2
;
_chemical_formula_sum "Si O2"
_cell_formula_units_Z 48
_cell_length_a 8.386465
_cell_length_b 10.307480
_cell_length_c 29.376454
_cell_angle_alpha 90.000000
_cell_angle_beta 90.000000
_cell_angle_gamma 90.000000
_cell_volume 2539.398221
_symmetry_space_group_name_H-M "A B M 2"
_symmetry_group_IT_number 39
_symmetry_cell_setting 'orthorhombic'
loop_
_space_group_symop_operation_xyz
x,y,z
-x,-y,z
-x,1/2+y,z
x,1/2-y,z
x,1/2+y,1/2+z
-x,1/2-y,1/2+z
-x,y,1/2+z
x,-y,1/2+z
loop_
_atom_site_type_symbol
_atom_site_label
_atom_site_fract_x
_atom_site_fract_y
_atom_site_fract_z
Si Si1 0.312429 0.750000 0.586550
Si Si2 0.808561 0.508991 0.436641
Si Si3 0.151461 0.096985 0.341058
Si Si4 0.850544 0.402352 0.740073
Si Si5 0.308959 0.012228 0.148005
Si Si6 0.700854 0.250000 0.100856
Si Si7 0.294352 0.750000 0.996164
Si Si8 0.325384 0.250000 0.981583
O O1 0.255869 0.622574 0.612712
O O2 0.506551 0.750000 0.593602
O O3 0.264901 0.750000 0.533857
O O4 0.754270 0.550563 0.385741
O O5 0.767590 0.622480 0.471412
O O6 0.732738 0.376324 0.454508
O O7 0.000000 0.500000 0.434980
O O8 0.107392 0.250000 0.347681
O O9 0.226138 0.087005 0.290636
O O10 0.000000 0.000000 0.338994
O O11 0.895894 0.250000 0.734756
O O12 0.742331 0.445652 0.698147
O O13 0.000000 0.500000 0.738993
O O14 0.500000 0.000000 0.147141
O O15 0.248301 0.875276 0.129350
O O16 0.756678 0.250000 0.048798
O O17 0.484785 0.750000 0.988796
#
# Coordination Sequence:
#
# PCOD9360437 Si02
#       8
#     4   8   8   8   8   4   4   4
#     4   9  18  37  56  79 110 156 195 225 274 349
#     4  11  22  38  60  88 117 152 195 240 291 344
#     4   9  19  36  60  82 111 153 194 229 280 352
#     4  10  21  38  59  85 114 148 189 235 284 339
#     4  10  19  36  59  83 109 150 193 233 278 337
#     4   9  20  33  58  81 112 150 197 225 274 353
#     4  11  21  41  60  85 116 156 197 243 284 343
#     4  11  23  37  62  87 116 156 197 237 288 345
#
# _framework density 18.902115999999999
#
# number of rings (size 3 to 8) (size 9 to 14) (size 15 to 20)
#    0.000    2.000    1.667    2.000    4.667    2.667 
#    0.000    6.667    0.000    0.000    0.000    0.000 
#    0.000    0.000    0.000    0.000    0.000    0.000 
#
# Total GULP energy -133803.238615 kJ/mol
# GULP energy per Si atom -5575.134942 kJ/mol
# Density = 1.885909 g / cm^3
# Si number density = 18.902116 Si / 1000 Ang^3
#
#
#
# Elastic Constant Matrix: (Units=GPa)
#
#
# Indices 1 2 3 4 5 6 
#
# 1 21.4862 19.2308 18.7190 0.0000 0.0000 0.0000
# 2 19.2308 190.6808 99.9006 0.0000 0.0000 0.0000
# 3 18.7190 99.9006 188.7029 0.0000 0.0000 0.0000
# 4 0.0000 0.0000 0.0000 30.6358 0.0000 0.0000
# 5 0.0000 0.0000 0.0000 0.0000 29.0204 0.0000
# 6 0.0000 0.0000 0.0000 0.0000 0.0000 20.6258
#
#
#
# Elastic Compliance Matrix: (Units=1/GPa)
#
#
# Indices 1 2 3 4 5 6 
#
# 1 0.052635 -0.003560 -0.003336 0.000000 0.000000 0.000000
# 2 -0.003560 0.007498 -0.003616 0.000000 0.000000 0.000000
# 3 -0.003336 -0.003616 0.007545 0.000000 0.000000 0.000000
# 4 0.000000 0.000000 0.000000 0.032642 0.000000 0.000000
# 5 0.000000 0.000000 0.000000 0.000000 0.034459 0.000000
# 6 0.000000 0.000000 0.000000 0.000000 0.000000 0.048483
#
#
# Mechanical properties :
#
#
# Convention : Reuss Voigt Hill
#
# Bulk Modulus (GPa) = 21.43550 75.17451 48.30501
# Shear Modulus (GPa) = 22.74403 33.59102 28.16753
#
# Velocity S-wave (km/s) = 3.47256 4.22014 3.86447
# Velocity P-wave (km/s) = 5.23862 7.97514 6.74707
#
# Compressibility (1/GPa) = 0.04665158
#
# Stress axis : x y z
#
# Youngs Moduli (GPa) = 18.99876 133.36669 132.54109
#
# Poissons Ratio (x) = 0.47485 0.44221
# Poissons Ratio (y) = 0.06764 0.47932
# Poissons Ratio (z) = 0.06339 0.48230
#
# Static dielectric constant tensor:
#      x y z
#    x 1.655360 0.000000 0.000000 
#    y 0.000000 1.645290 0.000000 
#    z 0.000000 0.000000 1.676340 
# 
# From -- ./inp_files/17697.got.cif
#   From: 2010.05.17/outbox.cif.g08.bks.cpg/sg39_9_cif.got.tgz:17697.got - 2010.06.03 18:22:40.
