data_PCOD9360567
_publ_section_title
;
Structure prediction by ZEFSAII (Michael W. Deem and Ramdas Pophale) SiO2 
 PCOD9360567
Probable space group: A B M 2
;
_chemical_formula_sum "Si O2"
_cell_formula_units_Z 64
_cell_length_a 20.930056
_cell_length_b 8.794367
_cell_length_c 20.168893
_cell_angle_alpha 90.000000
_cell_angle_beta 90.000000
_cell_angle_gamma 90.000000
_cell_volume 3712.419435
_symmetry_space_group_name_H-M "A B M 2"
_symmetry_group_IT_number 39
_symmetry_cell_setting 'orthorhombic'
loop_
_space_group_symop_operation_xyz
x,y,z
-x,-y,z
-x,1/2+y,z
x,1/2-y,z
x,1/2+y,1/2+z
-x,1/2-y,1/2+z
-x,y,1/2+z
x,-y,1/2+z
loop_
_atom_site_type_symbol
_atom_site_label
_atom_site_fract_x
_atom_site_fract_y
_atom_site_fract_z
Si Si1 0.175492 0.432380 0.581920
Si Si2 0.931422 0.433224 0.830067
Si Si3 0.431405 0.433336 0.831931
Si Si4 0.678449 0.933748 0.577036
Si Si5 0.181507 0.566556 0.927964
Si Si6 0.680368 0.567492 0.931611
Si Si7 0.931298 0.068233 0.676544
Si Si8 0.431381 0.066616 0.678851
O O1 0.169445 0.250000 0.588152
O O2 0.249062 0.474232 0.597709
O O3 0.165459 0.472117 0.504411
O O4 0.124566 0.509819 0.629360
O O5 0.935049 0.250000 0.832772
O O6 0.874292 0.482181 0.878198
O O7 0.919418 0.477315 0.753391
O O8 0.000000 0.500000 0.849890
O O9 0.500000 0.500000 0.851871
O O10 0.435080 0.250000 0.833768
O O11 0.374425 0.481449 0.880257
O O12 0.419344 0.478874 0.755362
O O13 0.676814 0.750000 0.570749
O O14 0.625503 0.981294 0.630217
O O15 0.666351 0.004506 0.505007
O O16 0.187649 0.750000 0.924787
O O17 0.249987 0.494628 0.911829
O O18 0.682116 0.750000 0.933283
O O19 0.934818 0.250000 0.673877
O O20 0.000000 0.000000 0.657058
O O21 0.434843 0.250000 0.676979
O O22 0.500000 0.000000 0.658872
#
# Coordination Sequence:
#
# PCOD9360567 Si02
#       8
#     8   8   8   8   8   8   8   8
#     4   9  18  33  52  73  98 130 165 201 243 292
#     4   9  19  35  53  74 100 130 165 203 243 290
#     4   9  19  34  51  73 100 130 166 206 246 291
#     4   9  19  35  53  72  99 134 165 199 247 297
#     4   9  19  36  54  73 100 132 165 201 245 295
#     4  10  20  33  51  76 102 128 164 207 245 289
#     4  10  20  34  52  74 101 131 163 202 245 290
#     4   9  18  34  53  73  99 131 167 205 246 292
#
# _framework density 17.239431
#
# number of rings (size 3 to 8) (size 9 to 14) (size 15 to 20)
#    0.000    2.750    0.000    1.500    0.000    6.500 
#    0.000    5.000    0.000    0.000    0.000    0.000 
#    0.000    0.000    0.000    0.000    0.000    0.000 
#
# Total GULP energy -178458.419784 kJ/mol
# GULP energy per Si atom -5576.825618 kJ/mol
# Density = 1.720019 g / cm^3
# Si number density = 17.239431 Si / 1000 Ang^3
#
#
#
# Elastic Constant Matrix: (Units=GPa)
#
#
# Indices 1 2 3 4 5 6 
#
# 1 192.9572 44.1743 128.9215 0.0000 0.0000 0.0000
# 2 44.1743 16.0770 33.7753 0.0000 0.0000 0.0000
# 3 128.9215 33.7753 104.0127 0.0000 0.0000 0.0000
# 4 0.0000 0.0000 0.0000 21.8695 0.0000 0.0000
# 5 0.0000 0.0000 0.0000 0.0000 43.1245 0.0000
# 6 0.0000 0.0000 0.0000 0.0000 0.0000 32.7608
#
#
#
# Elastic Compliance Matrix: (Units=1/GPa)
#
#
# Indices 1 2 3 4 5 6 
#
# 1 0.031136 -0.014081 -0.034020 0.000000 0.000000 0.000000
# 2 -0.014081 0.202088 -0.048170 0.000000 0.000000 0.000000
# 3 -0.034020 -0.048170 0.067424 0.000000 0.000000 0.000000
# 4 0.000000 0.000000 0.000000 0.045726 0.000000 0.000000
# 5 0.000000 0.000000 0.000000 0.000000 0.023189 0.000000
# 6 0.000000 0.000000 0.000000 0.000000 0.000000 0.030524
#
#
# Mechanical properties :
#
#
# Convention : Reuss Voigt Hill
#
# Bulk Modulus (GPa) = 9.25019 80.75436 45.00228
# Shear Modulus (GPa) = 7.95337 26.62933 17.29135
#
# Velocity S-wave (km/s) = 2.15023 3.93450 3.17047
# Velocity P-wave (km/s) = 3.39736 8.22100 6.28995
#
# Compressibility (1/GPa) = 0.10810584
#
# Stress axis : x y z
#
# Youngs Moduli (GPa) = 32.11694 4.94834 14.83160
#
# Poissons Ratio (x) = 0.06968 0.50458
# Poissons Ratio (y) = 0.45223 0.71444
# Poissons Ratio (z) = 1.09263 0.23836
#
# Static dielectric constant tensor:
#      x y z
#    x 1.558940 0.000000 0.000000 
#    y 0.000000 1.581630 0.000000 
#    z 0.000000 0.000000 1.575450 
# 
# From -- ./inp_files/13146.got.cif
#   From: 2010.05.17/outbox.cif.g08.bks.cpg/sg39_7_cif.got.tgz:13146.got - 2010.06.03 18:22:40.
