data_PCOD9360413
_publ_section_title
;
Structure prediction by ZEFSAII (Michael W. Deem and Ramdas Pophale) SiO2 
 PCOD9360413
Probable space group: A B M 2
;
_chemical_formula_sum "Si O2"
_cell_formula_units_Z 64
_cell_length_a 24.505767
_cell_length_b 8.567034
_cell_length_c 15.829681
_cell_angle_alpha 90.000000
_cell_angle_beta 90.000000
_cell_angle_gamma 90.000000
_cell_volume 3323.310758
_symmetry_space_group_name_H-M "A B M 2"
_symmetry_group_IT_number 39
_symmetry_cell_setting 'orthorhombic'
loop_
_space_group_symop_operation_xyz
x,y,z
-x,-y,z
-x,1/2+y,z
x,1/2-y,z
x,1/2+y,1/2+z
-x,1/2-y,1/2+z
-x,y,1/2+z
x,-y,1/2+z
loop_
_atom_site_type_symbol
_atom_site_label
_atom_site_fract_x
_atom_site_fract_y
_atom_site_fract_z
Si Si1 0.865081 0.061242 0.810500
Si Si2 0.370091 0.435577 0.561710
Si Si3 0.061363 0.938019 0.654435
Si Si4 0.258180 0.936611 0.819127
Si Si5 0.256588 0.434999 0.006966
Si Si6 0.367087 0.438314 0.748109
Si Si7 0.863303 0.937801 0.505381
Si Si8 0.560965 0.563945 0.906676
O O1 0.868449 0.250000 0.811655
O O2 0.906795 0.006254 0.739060
O O3 0.802447 0.022002 0.787138
O O4 0.874361 0.010484 0.907837
O O5 0.373214 0.250000 0.550354
O O6 0.307219 0.487670 0.554313
O O7 0.389710 0.476581 0.655734
O O8 0.405083 0.514675 0.488790
O O9 0.061234 0.750000 0.654086
O O10 0.093736 0.996876 0.572129
O O11 0.000000 0.000000 0.654292
O O12 0.259280 0.750000 0.833954
O O13 0.265537 0.023483 0.908318
O O14 0.307774 0.986406 0.760595
O O15 0.256928 0.250000 0.019874
O O16 0.197301 0.503295 0.028875
O O17 0.361073 0.250000 0.753085
O O18 0.406079 0.491631 0.823869
O O19 0.863803 0.750000 0.506639
O O20 0.500000 0.500000 0.909166
O O21 0.441300 0.250000 0.902881
#
# Coordination Sequence:
#
# PCOD9360413 Si02
#       8
#     8   8   8   8   8   8   8   8
#     4   8  19  38  59  85 119 156 199 247 301 359
#     4  11  23  40  62  93 126 163 206 256 308 365
#     4  11  23  41  61  87 120 160 204 252 301 365
#     4  10  19  35  61  90 122 162 203 250 308 368
#     4  11  21  36  59  90 127 165 203 252 308 370
#     4  10  23  40  60  91 127 160 201 253 308 366
#     4  10  21  40  62  89 120 159 203 254 308 366
#     4  11  24  44  66  89 122 165 207 256 307 363
#
# _framework density 19.257904
#
# number of rings (size 3 to 8) (size 9 to 14) (size 15 to 20)
#    0.000    1.750    1.250    3.750    1.750    2.500 
#    0.000    9.375    0.000    0.000    0.000    0.000 
#    0.000    0.000    0.000    0.000    0.000    0.000 
#
# Total GULP energy -178777.117948 kJ/mol
# GULP energy per Si atom -5586.784936 kJ/mol
# Density = 1.921407 g / cm^3
# Si number density = 19.257904 Si / 1000 Ang^3
#
#
#
# Elastic Constant Matrix: (Units=GPa)
#
#
# Indices 1 2 3 4 5 6 
#
# 1 136.4396 18.6467 89.8356 0.0000 0.0000 0.0000
# 2 18.6467 35.4167 26.0731 0.0000 0.0000 0.0000
# 3 89.8356 26.0731 131.8702 0.0000 0.0000 0.0000
# 4 0.0000 0.0000 0.0000 23.7136 0.0000 0.0000
# 5 0.0000 0.0000 0.0000 0.0000 -25.7994 0.0000
# 6 0.0000 0.0000 0.0000 0.0000 0.0000 32.1709
#
#
#
# Elastic Compliance Matrix: (Units=1/GPa)
#
#
# Indices 1 2 3 4 5 6 
#
# 1 0.013295 -0.000389 -0.008981 0.000000 0.000000 0.000000
# 2 -0.000389 0.033057 -0.006271 0.000000 0.000000 0.000000
# 3 -0.008981 -0.006271 0.014941 0.000000 0.000000 0.000000
# 4 0.000000 0.000000 0.000000 0.042170 0.000000 0.000000
# 5 0.000000 0.000000 0.000000 0.000000 -0.038761 0.000000
# 6 0.000000 0.000000 0.000000 0.000000 0.000000 0.031084
#
#
# Mechanical properties :
#
#
# Convention : Reuss Voigt Hill
#
# Bulk Modulus (GPa) = 33.31958 63.64859 48.48408
# Shear Modulus (GPa) = 36.47744 17.29510 26.88627
#
# Velocity S-wave (km/s) = 4.35691 3.00005 3.74052
# Velocity P-wave (km/s) = 6.53066 6.71735 6.62466
#
# Compressibility (1/GPa) = 0.03001238
#
# Stress axis : x y z
#
# Youngs Moduli (GPa) = 75.21398 30.25122 66.92969
#
# Poissons Ratio (x) = 0.01176 0.60107
# Poissons Ratio (y) = 0.02923 0.41972
# Poissons Ratio (z) = 0.67546 0.18971
#
# Static dielectric constant tensor:
#      x y z
#    x 1.641600 0.000000 0.000000 
#    y 0.000000 1.653910 0.000000 
#    z 0.000000 0.000000 1.717310 
# 
# From -- ./inp_files/10651.got.cif
#   From: 2010.05.17/outbox.cif.g08.bks.cpg/sg39_6_cif.got.tgz:10651.got - 2010.06.03 18:22:40.
