data_PCOD9360110
_publ_section_title
;
Structure prediction by ZEFSAII (Michael W. Deem and Ramdas Pophale) SiO2 
 PCOD9360110
Probable space group: A B M 2
;
_chemical_formula_sum "Si O2"
_cell_formula_units_Z 64
_cell_length_a 14.647084
_cell_length_b 8.684058
_cell_length_c 32.162753
_cell_angle_alpha 90.000000
_cell_angle_beta 90.000000
_cell_angle_gamma 90.000000
_cell_volume 4090.977615
_symmetry_space_group_name_H-M "A B M 2"
_symmetry_group_IT_number 39
_symmetry_cell_setting 'orthorhombic'
loop_
_space_group_symop_operation_xyz
x,y,z
-x,-y,z
-x,1/2+y,z
x,1/2-y,z
x,1/2+y,1/2+z
-x,1/2-y,1/2+z
-x,y,1/2+z
x,-y,1/2+z
loop_
_atom_site_type_symbol
_atom_site_label
_atom_site_fract_x
_atom_site_fract_y
_atom_site_fract_z
Si Si1 0.396792 0.435317 0.725080
Si Si2 0.902719 0.435014 0.019639
Si Si3 0.398107 0.934979 0.565880
Si Si4 0.603327 0.564622 0.907709
Si Si5 0.291120 0.435237 0.486358
Si Si6 0.397653 0.564951 0.316391
Si Si7 0.283643 0.565609 0.648379
Si Si8 0.901948 0.565369 0.616656
O O1 0.500000 0.500000 0.721009
O O2 0.400742 0.250000 0.722563
O O3 0.359618 0.480548 0.771189
O O4 0.334514 0.499891 0.688537
O O5 0.907291 0.250000 0.018899
O O6 0.814050 0.483526 0.993749
O O7 0.889188 0.481703 0.068043
O O8 0.000000 0.500000 0.005520
O O9 0.400830 0.750000 0.562720
O O10 0.341375 0.977586 0.607143
O O11 0.500000 0.000000 0.568885
O O12 0.348805 0.003230 0.525456
O O13 0.500000 0.500000 0.911842
O O14 0.599356 0.750000 0.910402
O O15 0.640355 0.519486 0.861611
O O16 0.665192 0.499480 0.944370
O O17 0.295094 0.250000 0.486209
O O18 0.500000 0.500000 0.316401
O O19 0.401220 0.750000 0.316423
O O20 0.280729 0.750000 0.650619
O O21 0.182354 0.499970 0.642460
O O22 0.902596 0.750000 0.618462
O O23 0.000000 0.500000 0.629933
#
# Coordination Sequence:
#
# PCOD9360110 Si02
#       8
#     8   8   8   8   8   8   8   8
#     4  10  19  32  50  72  99 131 164 203 245 291
#     4   9  19  33  51  71  93 122 157 200 243 284
#     4  11  23  35  47  64  93 132 168 199 233 277
#     4  10  19  32  49  71  98 130 164 201 241 286
#     4  11  21  34  49  70  97 127 162 198 240 288
#     4   8  16  30  48  69  94 124 161 200 243 287
#     4  11  22  34  49  72  98 130 167 202 242 292
#     4  10  19  34  53  73  96 126 161 205 249 289
#
# _framework density 15.644183
#
# number of rings (size 3 to 8) (size 9 to 14) (size 15 to 20)
#    0.000    2.000    1.250    3.000    0.000    5.000 
#    0.000    0.000    0.000    0.000    0.000    0.875 
#    0.000    2.000    0.000    0.000    0.000    0.000 
#
# Total GULP energy -178481.461847 kJ/mol
# GULP energy per Si atom -5577.545683 kJ/mol
# Density = 1.560858 g / cm^3
# Si number density = 15.644183 Si / 1000 Ang^3
#
#
#
# Elastic Constant Matrix: (Units=GPa)
#
#
# Indices 1 2 3 4 5 6 
#
# 1 126.5129 37.4833 78.8290 0.0000 0.0000 0.0000
# 2 37.4833 43.5223 44.7829 0.0000 0.0000 0.0000
# 3 78.8290 44.7829 154.6791 0.0000 0.0000 0.0000
# 4 0.0000 0.0000 0.0000 20.9337 0.0000 0.0000
# 5 0.0000 0.0000 0.0000 0.0000 4.3179 0.0000
# 6 0.0000 0.0000 0.0000 0.0000 0.0000 25.8604
#
#
#
# Elastic Compliance Matrix: (Units=1/GPa)
#
#
# Indices 1 2 3 4 5 6 
#
# 1 0.012609 -0.006050 -0.004675 0.000000 0.000000 0.000000
# 2 -0.006050 0.035629 -0.007232 0.000000 0.000000 0.000000
# 3 -0.004675 -0.007232 0.010941 0.000000 0.000000 0.000000
# 4 0.000000 0.000000 0.000000 0.047770 0.000000 0.000000
# 5 0.000000 0.000000 0.000000 0.000000 0.231596 0.000000
# 6 0.000000 0.000000 0.000000 0.000000 0.000000 0.038669
#
#
# Mechanical properties :
#
#
# Convention : Reuss Voigt Hill
#
# Bulk Modulus (GPa) = 42.98073 71.87833 57.42953
# Shear Modulus (GPa) = 11.87980 21.13035 16.50508
#
# Velocity S-wave (km/s) = 2.75867 3.67915 3.25165
# Velocity P-wave (km/s) = 6.13845 8.00585 7.13352
#
# Compressibility (1/GPa) = 0.02326624
#
# Stress axis : x y z
#
# Youngs Moduli (GPa) = 79.30543 28.06731 91.39799
#
# Poissons Ratio (x) = 0.16980 0.42725
# Poissons Ratio (y) = 0.47978 0.66100
# Poissons Ratio (z) = 0.37072 0.20299
#
# Static dielectric constant tensor:
#      x y z
#    x 1.492640 0.000000 0.000000 
#    y 0.000000 1.527960 0.000000 
#    z 0.000000 0.000000 1.536940 
# 
# From -- ./inp_files/17858.got.cif
#   From: 2010.05.17/outbox.cif.g08.bks.cpg/sg39_9_cif.got.tgz:17858.got - 2010.06.03 18:22:40.
