data_PCOD9360727
_publ_section_title
;
Structure prediction by ZEFSAII (Michael W. Deem and Ramdas Pophale) SiO2 
 PCOD9360727
Probable space group: A B M 2
;
_chemical_formula_sum "Si O2"
_cell_formula_units_Z 64
_cell_length_a 17.793117
_cell_length_b 11.466986
_cell_length_c 15.051397
_cell_angle_alpha 90.000000
_cell_angle_beta 90.000000
_cell_angle_gamma 90.000000
_cell_volume 3070.988059
_symmetry_space_group_name_H-M "A B M 2"
_symmetry_group_IT_number 39
_symmetry_cell_setting 'orthorhombic'
loop_
_space_group_symop_operation_xyz
x,y,z
-x,-y,z
-x,1/2+y,z
x,1/2-y,z
x,1/2+y,1/2+z
-x,1/2-y,1/2+z
-x,y,1/2+z
x,-y,1/2+z
loop_
_atom_site_type_symbol
_atom_site_label
_atom_site_fract_x
_atom_site_fract_y
_atom_site_fract_z
Si Si1 0.862298 0.621494 0.206760
Si Si2 0.298506 0.445883 0.273254
Si Si3 0.169214 0.474252 0.543660
Si Si4 0.721055 0.879151 0.930917
Si Si5 0.683167 0.122679 0.114444
Si Si6 0.423760 0.453817 0.024456
Si Si7 0.055131 0.612192 0.895231
Si Si8 0.457547 0.121307 0.226054
O O1 0.880758 0.750000 0.171053
O O2 0.774758 0.619314 0.237009
O O3 0.872167 0.524032 0.131061
O O4 0.909046 0.603113 0.296766
O O5 0.277219 0.516162 0.360888
O O6 0.315975 0.542453 0.199610
O O7 0.377012 0.378648 0.275954
O O8 0.217120 0.583661 0.503969
O O9 0.234329 0.385817 0.573058
O O10 0.116779 0.414919 0.471012
O O11 0.737882 0.750000 0.895337
O O12 0.636795 0.879807 0.970683
O O13 0.661505 0.250000 0.140323
O O14 0.623560 0.069256 0.047589
O O15 0.500000 0.500000 0.980549
O O16 0.443580 0.392891 0.119004
O O17 0.029153 0.750000 0.904772
O O18 0.000000 0.500000 0.903421
O O19 0.492868 0.250000 0.241502
O O20 0.500000 0.000000 0.250429
#
# Coordination Sequence:
#
# PCOD9360727 Si02
#       8
#     8   8   8   8   8   8   8   8
#     4  10  21  41  68  94 129 171 218 265 316 383
#     4  10  20  35  55  86 118 158 209 260 322 380
#     4  10  21  40  65  95 126 166 217 261 321 379
#     4  11  21  34  56  87 123 161 212 270 322 378
#     4   9  18  33  55  82 113 155 209 263 315 374
#     4   9  20  34  51  76 113 159 211 261 322 383
#     4  11  25  46  70 101 138 175 214 260 317 385
#     4  10  21  37  58  81 112 158 209 263 321 383
#
# _framework density 20.840198000000001
#
# number of rings (size 3 to 8) (size 9 to 14) (size 15 to 20)
#    0.000    2.000    1.250    2.625    0.000    7.500 
#    0.000    3.125    0.000    0.000    0.000    0.000 
#    0.000    0.000    0.000    0.000    0.000    0.000 
#
# Total GULP energy -178422.770763 kJ/mol
# GULP energy per Si atom -5575.711586 kJ/mol
# Density = 2.079277 g / cm^3
# Si number density = 20.840198 Si / 1000 Ang^3
#
#
#
# Elastic Constant Matrix: (Units=GPa)
#
#
# Indices 1 2 3 4 5 6 
#
# 1 41.5516 39.1667 12.6412 0.0000 0.0000 0.0000
# 2 39.1667 143.0480 17.1862 0.0000 0.0000 0.0000
# 3 12.6412 17.1862 63.6187 0.0000 0.0000 0.0000
# 4 0.0000 0.0000 0.0000 -26.4015 0.0000 0.0000
# 5 0.0000 0.0000 0.0000 0.0000 27.6801 0.0000
# 6 0.0000 0.0000 0.0000 0.0000 0.0000 -137.1432
#
#
#
# Elastic Compliance Matrix: (Units=1/GPa)
#
#
# Indices 1 2 3 4 5 6 
#
# 1 0.033552 -0.008667 -0.004326 0.000000 0.000000 0.000000
# 2 -0.008667 0.009464 -0.000834 0.000000 0.000000 0.000000
# 3 -0.004326 -0.000834 0.016804 0.000000 0.000000 0.000000
# 4 0.000000 0.000000 0.000000 -0.037877 0.000000 0.000000
# 5 0.000000 0.000000 0.000000 0.000000 0.036127 0.000000
# 6 0.000000 0.000000 0.000000 0.000000 0.000000 -0.007292
#
#
# Mechanical properties :
#
#
# Convention : Reuss Voigt Hill
#
# Bulk Modulus (GPa) = 31.08915 42.91183 37.00049
# Shear Modulus (GPa) = 56.08288 -15.22464 20.42912
#
# Velocity S-wave (km/s) = 5.19320 -2.70579 3.13433
# Velocity P-wave (km/s) = 7.13508 3.29756 5.55802
#
# Compressibility (1/GPa) = 0.03216556
#
# Stress axis : x y z
#
# Youngs Moduli (GPa) = 29.80462 105.66456 59.51115
#
# Poissons Ratio (x) = 0.91578 0.25742
# Poissons Ratio (y) = 0.25831 0.04966
# Poissons Ratio (z) = 0.12892 0.08818
#
# Static dielectric constant tensor:
#      x y z
#    x 1.785540 0.000000 0.000000 
#    y 0.000000 1.784640 0.000000 
#    z 0.000000 0.000000 1.762690 
# 
# From -- ./inp_files/10205.got.cif
#   From: 2010.05.17/outbox.cif.g08.bks.cpg/sg39_6_cif.got.tgz:10205.got - 2010.06.03 18:22:40.
