data_PCOD9360920
_publ_section_title
;
Structure prediction by ZEFSAII (Michael W. Deem and Ramdas Pophale) SiO2 
 PCOD9360920
Probable space group: A B M 2
;
_chemical_formula_sum "Si O2"
_cell_formula_units_Z 52
_cell_length_a 18.887221
_cell_length_b 14.236881
_cell_length_c 10.182718
_cell_angle_alpha 90.000000
_cell_angle_beta 90.000000
_cell_angle_gamma 90.000000
_cell_volume 2738.083156
_symmetry_space_group_name_H-M "A B M 2"
_symmetry_group_IT_number 39
_symmetry_cell_setting 'orthorhombic'
loop_
_space_group_symop_operation_xyz
x,y,z
-x,-y,z
-x,1/2+y,z
x,1/2-y,z
x,1/2+y,1/2+z
-x,1/2-y,1/2+z
-x,y,1/2+z
x,-y,1/2+z
loop_
_atom_site_type_symbol
_atom_site_label
_atom_site_fract_x
_atom_site_fract_y
_atom_site_fract_z
Si Si1 0.111545 0.357487 0.897210
Si Si2 0.123070 0.861823 0.091997
Si Si3 0.000000 0.500000 0.995387
Si Si4 0.772994 0.522576 0.018297
Si Si5 0.676747 0.993173 0.766515
Si Si6 0.543561 0.402889 0.152365
Si Si7 0.568983 0.348579 0.859600
O O1 0.091120 0.250000 0.924463
O O2 0.139236 0.362000 0.747784
O O3 0.047572 0.430252 0.909666
O O4 0.168819 0.396237 0.000304
O O5 0.115937 0.750000 0.054075
O O6 0.052855 0.927221 0.070966
O O7 0.185134 0.922088 0.020717
O O8 0.722522 0.533557 0.892629
O O9 0.727990 0.528376 0.151032
O O10 0.621896 0.070069 0.819606
O O11 0.623794 0.917405 0.701742
O O12 0.500000 0.500000 0.133063
O O13 0.498953 0.353609 0.265782
O O14 0.545616 0.357500 0.009800
O O15 0.606550 0.250000 0.839218
#
# Coordination Sequence:
#
# PCOD9360920 Si02
#       7
#     8   8   4   8   8   8   8
#     4  10  21  38  60  89 122 157 201 246 295 353
#     4  10  21  38  61  89 122 160 200 243 298 355
#     4  10  20  36  64  88 122 158 202 248 290 346
#     4  11  22  40  62  87 121 156 202 245 300 350
#     4  11  22  40  63  84 114 163 196 239 301 367
#     4  10  21  39  61  83 115 156 196 241 301 357
#     4  11  23  38  59  89 118 148 199 255 296 353
#
# _framework density 18.991387
#
# number of rings (size 3 to 8) (size 9 to 14) (size 15 to 20)
#    0.000    1.538    3.077    2.769    2.154    1.231 
#    0.000    1.538    0.000    0.000    0.000    0.000 
#    0.000    0.000    0.000    0.000    0.000    0.000 
#
# Total GULP energy -144892.040961 kJ/mol
# GULP energy per Si atom -5572.770806 kJ/mol
# Density = 1.894816 g / cm^3
# Si number density = 18.991387 Si / 1000 Ang^3
#
#
#
# Elastic Constant Matrix: (Units=GPa)
#
#
# Indices 1 2 3 4 5 6 
#
# 1 76.7596 23.9042 26.7308 0.0000 0.0000 0.0000
# 2 23.9042 112.0971 23.9094 0.0000 0.0000 0.0000
# 3 26.7308 23.9094 101.0661 0.0000 0.0000 0.0000
# 4 0.0000 0.0000 0.0000 70.8987 0.0000 0.0000
# 5 0.0000 0.0000 0.0000 0.0000 32.8697 0.0000
# 6 0.0000 0.0000 0.0000 0.0000 0.0000 -9.3571
#
#
#
# Elastic Compliance Matrix: (Units=1/GPa)
#
#
# Indices 1 2 3 4 5 6 
#
# 1 0.014973 -0.002473 -0.003375 0.000000 0.000000 0.000000
# 2 -0.002473 0.009803 -0.001665 0.000000 0.000000 0.000000
# 3 -0.003375 -0.001665 0.011181 0.000000 0.000000 0.000000
# 4 0.000000 0.000000 0.000000 0.014105 0.000000 0.000000
# 5 0.000000 0.000000 0.000000 0.000000 0.030423 0.000000
# 6 0.000000 0.000000 0.000000 0.000000 0.000000 -0.106870
#
#
# Mechanical properties :
#
#
# Convention : Reuss Voigt Hill
#
# Bulk Modulus (GPa) = 47.77604 48.77908 48.27756
# Shear Modulus (GPa) = -1141.27746 33.24080 -554.01833
#
# Velocity S-wave (km/s) = -24.54077 4.18821 -17.09837
# Velocity P-wave (km/s) = 27.88885 7.00919 19.08742
#
# Compressibility (1/GPa) = 0.02093099
#
# Stress axis : x y z
#
# Youngs Moduli (GPa) = 66.78588 102.00584 89.43645
#
# Poissons Ratio (x) = 0.25227 0.30186
# Poissons Ratio (y) = 0.16517 0.14892
# Poissons Ratio (z) = 0.22541 0.16985
#
# Static dielectric constant tensor:
#      x y z
#    x 1.676040 0.000000 0.000000 
#    y 0.000000 1.651530 0.000000 
#    z 0.000000 0.000000 1.639750 
# 
# From -- ./inp_files/3951.got.cif
#   From: 2010.05.17/outbox.cif.g08.bks.cpg/sg39_2_cif.got.tgz:3951.got - 2010.06.03 18:22:40.
