data_PCOD9360756
_publ_section_title
;
Structure prediction by ZEFSAII (Michael W. Deem and Ramdas Pophale) SiO2 
 PCOD9360756
Probable space group: A B M 2
;
_chemical_formula_sum "Si O2"
_cell_formula_units_Z 56
_cell_length_a 20.419628
_cell_length_b 9.133252
_cell_length_c 15.677233
_cell_angle_alpha 90.000000
_cell_angle_beta 90.000000
_cell_angle_gamma 90.000000
_cell_volume 2923.766459
_symmetry_space_group_name_H-M "A B M 2"
_symmetry_group_IT_number 39
_symmetry_cell_setting 'orthorhombic'
loop_
_space_group_symop_operation_xyz
x,y,z
-x,-y,z
-x,1/2+y,z
x,1/2-y,z
x,1/2+y,1/2+z
-x,1/2-y,1/2+z
-x,y,1/2+z
x,-y,1/2+z
loop_
_atom_site_type_symbol
_atom_site_label
_atom_site_fract_x
_atom_site_fract_y
_atom_site_fract_z
Si Si1 0.837307 0.574600 0.192050
Si Si2 0.562254 0.413610 0.450382
Si Si3 0.689454 0.575177 0.191841
Si Si4 0.310545 0.575177 0.007501
Si Si5 0.437746 0.586390 0.248960
Si Si6 0.837307 0.074600 0.007292
Si Si7 0.070831 0.927272 0.849671
O O1 0.841950 0.750000 0.180074
O O2 0.763090 0.544546 0.224434
O O3 0.846749 0.500000 0.099671
O O4 0.888682 0.530386 0.264676
O O5 0.500000 0.500000 0.487606
O O6 0.568829 0.250000 0.487333
O O7 0.628926 0.503892 0.459183
O O8 0.549960 0.398023 0.349671
O O9 0.681545 0.750000 0.187137
O O10 0.687492 0.500001 0.099671
O O11 0.628926 0.503891 0.240159
O O12 0.318454 0.750000 0.012206
O O13 0.236910 0.544545 0.974908
O O14 0.500000 0.500000 0.211737
O O15 0.431171 0.750000 0.212009
O O16 0.841949 0.250000 0.019269
O O17 0.888682 0.030386 0.934666
O O18 0.065620 0.750000 0.849671
O O19 0.000000 0.000000 0.849671
#
# Coordination Sequence:
#
# PCOD9360756 Si02
#       7
#     8   8   8   8   8   8   8
#     4   9  20  38  60  85 118 153 192 237 287 342
#     4  10  21  36  53  77 109 144 185 232 280 334
#     4  10  20  35  57  81 108 143 184 231 282 337
#     4  10  20  35  57  81 108 143 184 231 282 337
#     4  10  21  36  53  77 109 144 185 232 280 334
#     4   9  20  38  60  85 118 153 192 237 287 342
#     4  10  22  40  60  88 119 154 193 232 281 344
#
# _framework density 19.153375
#
# number of rings (size 3 to 8) (size 9 to 14) (size 15 to 20)
#    0.000    2.286    0.000    1.714    2.000    5.143 
#    0.000    5.714    0.000    0.000    0.000    0.000 
#    0.000    0.000    0.000    0.000    0.000    0.000 
#
# Total GULP energy -156178.723124 kJ/mol
# GULP energy per Si atom -5577.811540 kJ/mol
# Density = 1.910978 g / cm^3
# Si number density = 19.153375 Si / 1000 Ang^3
#
#
#
# Elastic Constant Matrix: (Units=GPa)
#
#
# Indices 1 2 3 4 5 6 
#
# 1 176.2318 82.5106 68.8250 0.0000 0.0000 0.0000
# 2 82.5106 97.0847 35.2969 0.0000 0.0000 0.0000
# 3 68.8250 35.2969 64.4651 0.0000 0.0000 0.0000
# 4 0.0000 0.0000 0.0000 26.2952 0.0000 0.0000
# 5 0.0000 0.0000 0.0000 0.0000 -16.2119 0.0000
# 6 0.0000 0.0000 0.0000 0.0000 0.0000 20.0852
#
#
#
# Elastic Compliance Matrix: (Units=1/GPa)
#
#
# Indices 1 2 3 4 5 6 
#
# 1 0.013002 -0.007496 -0.009777 0.000000 0.000000 0.000000
# 2 -0.007496 0.017181 -0.001405 0.000000 0.000000 0.000000
# 3 -0.009777 -0.001405 0.026720 0.000000 0.000000 0.000000
# 4 0.000000 0.000000 0.000000 0.038030 0.000000 0.000000
# 5 0.000000 0.000000 0.000000 0.000000 -0.061683 0.000000
# 6 0.000000 0.000000 0.000000 0.000000 0.000000 0.049788
#
#
# Mechanical properties :
#
#
# Convention : Reuss Voigt Hill
#
# Bulk Modulus (GPa) = 51.15632 79.00519 65.08076
# Shear Modulus (GPa) = 39.39794 16.11031 27.75413
#
# Velocity S-wave (km/s) = 4.54030 2.90336 3.81076
# Velocity P-wave (km/s) = 7.36564 7.25104 7.30856
#
# Compressibility (1/GPa) = 0.01954793
#
# Stress axis : x y z
#
# Youngs Moduli (GPa) = 76.91033 58.20248 37.42487
#
# Poissons Ratio (x) = 0.43626 0.36592
# Poissons Ratio (y) = 0.57648 0.05258
# Poissons Ratio (z) = 0.75199 0.08177
#
# Static dielectric constant tensor:
#      x y z
#    x 1.673310 0.000000 0.000000 
#    y 0.000000 1.669250 0.000000 
#    z 0.000000 0.000000 1.679780 
# 
# From -- ./inp_files/10377.got.cif
#   From: 2010.05.17/outbox.cif.g08.bks.cpg/sg39_6_cif.got.tgz:10377.got - 2010.06.03 18:22:40.
