data_PCOD9360386
_publ_section_title
;
Structure prediction by ZEFSAII (Michael W. Deem and Ramdas Pophale) SiO2 
 PCOD9360386
Probable space group: A B M 2
;
_chemical_formula_sum "Si O2"
_cell_formula_units_Z 48
_cell_length_a 8.235380
_cell_length_b 17.208911
_cell_length_c 14.417807
_cell_angle_alpha 90.000000
_cell_angle_beta 90.000000
_cell_angle_gamma 90.000000
_cell_volume 2043.319311
_symmetry_space_group_name_H-M "A B M 2"
_symmetry_group_IT_number 39
_symmetry_cell_setting 'orthorhombic'
loop_
_space_group_symop_operation_xyz
x,y,z
-x,-y,z
-x,1/2+y,z
x,1/2-y,z
x,1/2+y,1/2+z
-x,1/2-y,1/2+z
-x,y,1/2+z
x,-y,1/2+z
loop_
_atom_site_type_symbol
_atom_site_label
_atom_site_fract_x
_atom_site_fract_y
_atom_site_fract_z
Si Si1 0.247786 0.075785 0.913610
Si Si2 0.954396 0.839322 0.512913
Si Si3 0.913185 0.660176 0.196134
Si Si4 0.745406 0.396829 0.867815
Si Si5 0.556063 0.090619 0.245527
Si Si6 0.580258 0.839396 0.073077
O O1 0.284390 0.100671 0.807783
O O2 0.081955 0.107421 0.957115
O O3 0.259563 0.983377 0.907729
O O4 0.384936 0.108694 0.983451
O O5 0.012938 0.750000 0.512148
O O6 0.790694 0.844101 0.454689
O O7 0.953203 0.863981 0.620273
O O8 0.938560 0.750000 0.225002
O O9 0.881604 0.610099 0.286953
O O10 0.747760 0.656745 0.134076
O O11 0.584364 0.374335 0.812015
O O12 0.551629 0.128387 0.145036
O O13 0.500000 0.000000 0.236285
O O14 0.552681 0.750000 0.048658
#
# Coordination Sequence:
#
# PCOD9360386 Si02
#       6
#     8   8   8   8   8   8
#     4  10  20  36  56  85 117 149 192 239 291 349
#     4  10  20  36  58  83 115 154 195 243 294 347
#     4   8  16  33  55  78 108 149 194 236 284 343
#     4  10  19  35  57  82 111 150 195 241 295 353
#     4   9  20  36  57  83 113 152 196 242 288 345
#     4   9  18  34  57  81 110 150 188 229 286 345
#
# _framework density 23.49119
#
# number of rings (size 3 to 8) (size 9 to 14) (size 15 to 20)
#    0.000    2.667    0.000    2.500    0.000    4.000 
#    0.000   13.333    0.000    2.000    0.000    0.000 
#    0.000    0.000    0.000    0.000    0.000    0.000 
#
# Total GULP energy -134064.185836 kJ/mol
# GULP energy per Si atom -5586.007743 kJ/mol
# Density = 2.343772 g / cm^3
# Si number density = 23.491190 Si / 1000 Ang^3
#
#
#
# Elastic Constant Matrix: (Units=GPa)
#
#
# Indices 1 2 3 4 5 6 
#
# 1 45.3187 6.2458 21.1625 0.0000 0.0000 0.0000
# 2 6.2458 85.7173 72.0916 0.0000 0.0000 0.0000
# 3 21.1625 72.0916 153.6498 0.0000 0.0000 0.0000
# 4 0.0000 0.0000 0.0000 65.2050 0.0000 0.0000
# 5 0.0000 0.0000 0.0000 0.0000 42.8406 0.0000
# 6 0.0000 0.0000 0.0000 0.0000 0.0000 20.5023
#
#
#
# Elastic Compliance Matrix: (Units=1/GPa)
#
#
# Indices 1 2 3 4 5 6 
#
# 1 0.023729 0.001684 -0.004059 0.000000 0.000000 0.000000
# 2 0.001684 0.019390 -0.009330 0.000000 0.000000 0.000000
# 3 -0.004059 -0.009330 0.011445 0.000000 0.000000 0.000000
# 4 0.000000 0.000000 0.000000 0.015336 0.000000 0.000000
# 5 0.000000 0.000000 0.000000 0.000000 0.023342 0.000000
# 6 0.000000 0.000000 0.000000 0.000000 0.000000 0.048775
#
#
# Mechanical properties :
#
#
# Convention : Reuss Voigt Hill
#
# Bulk Modulus (GPa) = 32.09640 53.74286 42.91963
# Shear Modulus (GPa) = 28.43961 38.05528 33.24745
#
# Velocity S-wave (km/s) = 3.48321 4.02927 3.76615
# Velocity P-wave (km/s) = 5.46533 6.67639 6.10099
#
# Compressibility (1/GPa) = 0.03115615
#
# Stress axis : x y z
#
# Youngs Moduli (GPa) = 42.14244 51.57231 87.37607
#
# Poissons Ratio (x) = -0.08687 0.35462
# Poissons Ratio (y) = -0.07098 0.81520
# Poissons Ratio (z) = 0.17104 0.48116
#
# Static dielectric constant tensor:
#      x y z
#    x 2.017120 0.000000 0.000000 
#    y 0.000000 1.826150 0.000000 
#    z 0.000000 0.000000 1.885890 
# 
# From -- ./inp_files/8343.got.cif
#   From: 2010.05.17/outbox.cif.g08.bks.cpg/sg39_5_cif.got.tgz:8343.got - 2010.06.03 18:22:40.
