data_PCOD9360365
_publ_section_title
;
Structure prediction by ZEFSAII (Michael W. Deem and Ramdas Pophale) SiO2 
 PCOD9360365
Probable space group: A B M 2
;
_chemical_formula_sum "Si O2"
_cell_formula_units_Z 48
_cell_length_a 13.810027
_cell_length_b 18.667587
_cell_length_c 8.739598
_cell_angle_alpha 90.000000
_cell_angle_beta 90.000000
_cell_angle_gamma 90.000000
_cell_volume 2253.067320
_symmetry_space_group_name_H-M "A B M 2"
_symmetry_group_IT_number 39
_symmetry_cell_setting 'orthorhombic'
loop_
_space_group_symop_operation_xyz
x,y,z
-x,-y,z
-x,1/2+y,z
x,1/2-y,z
x,1/2+y,1/2+z
-x,1/2-y,1/2+z
-x,y,1/2+z
x,-y,1/2+z
loop_
_atom_site_type_symbol
_atom_site_label
_atom_site_fract_x
_atom_site_fract_y
_atom_site_fract_z
Si Si1 0.820256 0.833532 0.125000
Si Si2 0.913613 0.443736 0.789667
Si Si3 0.292938 0.414712 0.867386
Si Si4 0.214042 0.040591 0.563908
Si Si5 0.490172 0.086098 0.019668
Si Si6 0.382004 0.664462 0.796713
O O1 0.834363 0.750000 0.108367
O O2 0.916533 0.870801 0.192988
O O3 0.729912 0.845576 0.244152
O O4 0.780092 0.865483 0.965411
O O5 0.839965 0.486304 0.679238
O O6 0.000000 0.500000 0.810603
O O7 0.867782 0.427071 0.954541
O O8 0.268997 0.412666 0.688883
O O9 0.404554 0.399502 0.896560
O O10 0.277772 0.492292 0.949423
O O11 0.584463 0.124758 0.950748
O O12 0.500000 0.000000 0.043412
O O13 0.445426 0.125581 0.166223
O O14 0.399750 0.750000 0.803685
#
# Coordination Sequence:
#
# PCOD9360365 Si02
#       6
#     8   8   8   8   8   8
#     4   9  20  39  59  84 121 163 199 242 301 368
#     4  10  19  34  61  89 114 143 190 245 301 361
#     4   9  20  34  56  81 121 159 198 245 301 348
#     4   9  19  34  56  84 116 149 190 238 305 351
#     4  11  23  32  56  86 121 157 213 266 288 340
#     4  10  22  39  54  79 123 172 206 244 310 363
#
# _framework density 21.304290000000002
#
# number of rings (size 3 to 8) (size 9 to 14) (size 15 to 20)
#    0.000    2.333    0.000    1.500   11.667    0.667 
#    0.000    1.667    0.000   16.000    0.000    0.000 
#    0.000    0.000    0.000    0.000    0.000    0.000 
#
# Total GULP energy -133798.390498 kJ/mol
# GULP energy per Si atom -5574.932937 kJ/mol
# Density = 2.125580 g / cm^3
# Si number density = 21.304290 Si / 1000 Ang^3
#
#
#
# Elastic Constant Matrix: (Units=GPa)
#
#
# Indices 1 2 3 4 5 6 
#
# 1 52.0734 32.2339 60.9473 0.0000 0.0000 0.0000
# 2 32.2339 136.6305 56.9760 0.0000 0.0000 0.0000
# 3 60.9473 56.9760 103.0760 0.0000 0.0000 0.0000
# 4 0.0000 0.0000 0.0000 4.4421 0.0000 0.0000
# 5 0.0000 0.0000 0.0000 0.0000 18.8023 0.0000
# 6 0.0000 0.0000 0.0000 0.0000 0.0000 24.0433
#
#
#
# Elastic Compliance Matrix: (Units=1/GPa)
#
#
# Indices 1 2 3 4 5 6 
#
# 1 0.062437 0.000864 -0.037396 0.000000 0.000000 0.000000
# 2 0.000864 0.009523 -0.005775 0.000000 0.000000 0.000000
# 3 -0.037396 -0.005775 0.035006 0.000000 0.000000 0.000000
# 4 0.000000 0.000000 0.000000 0.225117 0.000000 0.000000
# 5 0.000000 0.000000 0.000000 0.000000 0.053185 0.000000
# 6 0.000000 0.000000 0.000000 0.000000 0.000000 0.041592
#
#
# Mechanical properties :
#
#
# Convention : Reuss Voigt Hill
#
# Bulk Modulus (GPa) = 44.73777 65.78827 55.26302
# Shear Modulus (GPa) = 9.63530 18.89905 14.26718
#
# Velocity S-wave (km/s) = 2.12897 2.98165 2.59064
# Velocity P-wave (km/s) = 5.20465 6.54225 5.91140
#
# Compressibility (1/GPa) = 0.02235248
#
# Stress axis : x y z
#
# Youngs Moduli (GPa) = 16.01602 105.00457 28.56693
#
# Poissons Ratio (x) = -0.09074 1.06829
# Poissons Ratio (y) = -0.01384 0.16498
# Poissons Ratio (z) = 0.59894 0.60641
#
# Static dielectric constant tensor:
#      x y z
#    x 1.855150 0.000000 0.000000 
#    y 0.000000 1.875160 0.000000 
#    z 0.000000 0.000000 1.805960 
# 
# From -- ./inp_files/3312.got.cif
#   From: 2010.05.17/outbox.cif.g08.bks.cpg/sg39_2_cif.got.tgz:3312.got - 2010.06.03 18:22:40.
