data_PCOD9360061
_publ_section_title
;
Structure prediction by ZEFSAII (Michael W. Deem and Ramdas Pophale) SiO2 
 PCOD9360061
Probable space group: A B M 2
;
_chemical_formula_sum "Si O2"
_cell_formula_units_Z 64
_cell_length_a 22.066728
_cell_length_b 9.066604
_cell_length_c 14.455946
_cell_angle_alpha 90.000000
_cell_angle_beta 90.000000
_cell_angle_gamma 90.000000
_cell_volume 2892.205227
_symmetry_space_group_name_H-M "A B M 2"
_symmetry_group_IT_number 39
_symmetry_cell_setting 'orthorhombic'
loop_
_space_group_symop_operation_xyz
x,y,z
-x,-y,z
-x,1/2+y,z
x,1/2-y,z
x,1/2+y,1/2+z
-x,1/2-y,1/2+z
-x,y,1/2+z
x,-y,1/2+z
loop_
_atom_site_type_symbol
_atom_site_label
_atom_site_fract_x
_atom_site_fract_y
_atom_site_fract_z
Si Si1 0.438690 0.579694 0.120350
Si Si2 0.561352 0.419088 0.893750
Si Si3 0.058697 0.584610 0.675983
Si Si4 0.184798 0.916999 0.421875
Si Si5 0.940942 0.414638 0.896348
Si Si6 0.317365 0.429062 0.117596
Si Si7 0.189247 0.916869 0.644216
Si Si8 0.306510 0.571399 0.913859
O O1 0.500000 0.500000 0.149436
O O2 0.435956 0.750000 0.148820
O O3 0.380734 0.488681 0.154324
O O4 0.438881 0.578288 0.007076
O O5 0.500000 0.500000 0.864421
O O6 0.557105 0.250000 0.863901
O O7 0.629146 0.473626 0.867985
O O8 0.061360 0.750000 0.634558
O O9 0.050817 0.598643 0.785893
O O10 0.124637 0.509557 0.663976
O O11 0.000000 0.500000 0.640532
O O12 0.183450 0.750000 0.385595
O O13 0.192395 0.907995 0.532975
O O14 0.121203 0.997642 0.408505
O O15 0.242191 0.005973 0.381945
O O16 0.936382 0.250000 0.935885
O O17 0.000000 0.500000 0.931607
O O18 0.317826 0.250000 0.110357
O O19 0.255735 0.473771 0.170745
O O20 0.312371 0.506305 0.017502
O O21 0.184671 0.750000 0.683570
O O22 0.304279 0.750000 0.914445
#
# Coordination Sequence:
#
# PCOD9360061 Si02
#       8
#     8   8   8   8   8   8   8   8
#     4   9  15  22  32  49  75 109 148 186 223 267
#     4   8  14  21  31  48  73 107 144 181 216 256
#     4   9  18  34  52  69  90 117 150 185 223 267
#     4  10  19  31  48  69  94 122 152 188 229 273
#     4  10  20  34  52  70  91 119 149 185 225 269
#     4   9  15  24  38  56  81 114 148 184 228 272
#     4   8  16  30  47  67  91 120 152 186 225 269
#     4   9  16  26  38  56  84 116 151 187 224 267
#
# _framework density 22.128444999999999
#
# number of rings (size 3 to 8) (size 9 to 14) (size 15 to 20)
#    0.000    3.000    0.000    3.375    0.000    4.500 
#    0.000    5.000    0.000    0.000    0.000    0.000 
#    0.000    1.000    0.000    6.250    0.000   12.875 
#
# Total GULP energy -178384.166464 kJ/mol
# GULP energy per Si atom -5574.505202 kJ/mol
# Density = 2.207808 g / cm^3
# Si number density = 22.128445 Si / 1000 Ang^3
#
#
#
# Elastic Constant Matrix: (Units=GPa)
#
#
# Indices 1 2 3 4 5 6 
#
# 1 292.4402 105.9118 -0.9676 0.0000 0.0000 0.0000
# 2 105.9118 114.9058 6.1818 0.0000 0.0000 0.0000
# 3 -0.9676 6.1818 50.5996 0.0000 0.0000 0.0000
# 4 0.0000 0.0000 0.0000 -9.0248 0.0000 0.0000
# 5 0.0000 0.0000 0.0000 0.0000 45.8143 0.0000
# 6 0.0000 0.0000 0.0000 0.0000 0.0000 42.3365
#
#
#
# Elastic Compliance Matrix: (Units=1/GPa)
#
#
# Indices 1 2 3 4 5 6 
#
# 1 0.005156 -0.004790 0.000684 0.000000 0.000000 0.000000
# 2 -0.004790 0.013209 -0.001705 0.000000 0.000000 0.000000
# 3 0.000684 -0.001705 0.019984 0.000000 0.000000 0.000000
# 4 0.000000 0.000000 0.000000 -0.110806 0.000000 0.000000
# 5 0.000000 0.000000 0.000000 0.000000 0.021827 0.000000
# 6 0.000000 0.000000 0.000000 0.000000 0.000000 0.023620
#
#
# Mechanical properties :
#
#
# Convention : Reuss Voigt Hill
#
# Bulk Modulus (GPa) = 37.41448 75.57753 56.49601
# Shear Modulus (GPa) = -771.99051 38.94651 -366.52200
#
# Velocity S-wave (km/s) = -18.69827 4.19981 -12.88384
# Velocity P-wave (km/s) = 21.19487 7.59908 13.99065
#
# Compressibility (1/GPa) = 0.02672762
#
# Stress axis : x y z
#
# Youngs Moduli (GPa) = 193.93446 75.70482 50.03900
#
# Poissons Ratio (x) = 0.36259 -0.03421
# Poissons Ratio (y) = 0.92886 0.08534
# Poissons Ratio (z) = -0.13260 0.12911
#
# Static dielectric constant tensor:
#      x y z
#    x 1.870970 0.000000 0.000000 
#    y 0.000000 1.798640 0.000000 
#    z 0.000000 0.000000 1.863110 
# 
# From -- ./inp_files/13141.got.cif
#   From: 2010.05.17/outbox.cif.g08.bks.cpg/sg39_7_cif.got.tgz:13141.got - 2010.06.03 18:22:40.
