data_PCOD9360138
_publ_section_title
;
Structure prediction by ZEFSAII (Michael W. Deem and Ramdas Pophale) SiO2 
 PCOD9360138
Probable space group: A B M 2
;
_chemical_formula_sum "Si O2"
_cell_formula_units_Z 64
_cell_length_a 21.378451
_cell_length_b 9.034331
_cell_length_c 18.572902
_cell_angle_alpha 90.000000
_cell_angle_beta 90.000000
_cell_angle_gamma 90.000000
_cell_volume 3587.170341
_symmetry_space_group_name_H-M "A B M 2"
_symmetry_group_IT_number 39
_symmetry_cell_setting 'orthorhombic'
loop_
_space_group_symop_operation_xyz
x,y,z
-x,-y,z
-x,1/2+y,z
x,1/2-y,z
x,1/2+y,1/2+z
-x,1/2-y,1/2+z
-x,y,1/2+z
x,-y,1/2+z
loop_
_atom_site_type_symbol
_atom_site_label
_atom_site_fract_x
_atom_site_fract_y
_atom_site_fract_z
Si Si1 0.186827 0.429741 0.906230
Si Si2 0.309021 0.926656 0.321508
Si Si3 0.933663 0.427054 0.150363
Si Si4 0.694422 0.573317 0.650126
Si Si5 0.437053 0.419643 0.322949
Si Si6 0.814025 0.571798 0.074649
Si Si7 0.064982 0.926568 0.321271
Si Si8 0.435900 0.578517 0.647449
O O1 0.186817 0.250000 0.900426
O O2 0.249147 0.481249 0.865576
O O3 0.124312 0.481938 0.866111
O O4 0.186960 0.465967 0.990064
O O5 0.314864 0.750000 0.330611
O O6 0.299761 0.953450 0.236230
O O7 0.373408 0.001093 0.345560
O O8 0.935049 0.250000 0.138744
O O9 0.875693 0.501117 0.109943
O O10 0.925450 0.453712 0.236136
O O11 0.000000 0.500000 0.129308
O O12 0.695907 0.750000 0.638644
O O13 0.752145 0.494619 0.611386
O O14 0.627454 0.506701 0.626515
O O15 0.500000 0.500000 0.347510
O O16 0.437392 0.250000 0.345459
O O17 0.437316 0.423804 0.235190
O O18 0.815099 0.750000 0.082457
O O19 0.059819 0.750000 0.330757
O O20 0.000000 0.000000 0.343573
O O21 0.500000 0.500000 0.623144
O O22 0.433885 0.750000 0.625122
#
# Coordination Sequence:
#
# PCOD9360138 Si02
#       8
#     8   8   8   8   8   8   8   8
#     4   9  19  35  53  73 100 135 171 207 250 298
#     4   9  17  32  53  73  96 131 172 212 254 299
#     4  10  20  36  58  81 105 133 167 208 252 300
#     4  10  19  32  52  76 102 134 172 213 256 303
#     4   9  16  26  43  71 103 131 162 204 253 303
#     4  11  22  35  52  75 105 138 171 209 253 302
#     4   9  18  35  57  79 102 130 166 206 248 295
#     4   9  16  27  45  72 104 134 167 209 257 306
#
# _framework density 17.841360999999999
#
# number of rings (size 3 to 8) (size 9 to 14) (size 15 to 20)
#    0.000    2.500    0.000    2.625    0.000    6.500 
#    0.000    4.375    0.000    0.750    0.000    3.500 
#    0.000    0.000    0.000    0.000    0.000    0.000 
#
# Total GULP energy -178523.203806 kJ/mol
# GULP energy per Si atom -5578.850119 kJ/mol
# Density = 1.780075 g / cm^3
# Si number density = 17.841361 Si / 1000 Ang^3
#
#
#
# Elastic Constant Matrix: (Units=GPa)
#
#
# Indices 1 2 3 4 5 6 
#
# 1 235.8820 91.0450 84.9171 0.0000 0.0000 0.0000
# 2 91.0450 80.8271 53.1862 0.0000 0.0000 0.0000
# 3 84.9171 53.1862 50.5451 0.0000 0.0000 0.0000
# 4 0.0000 0.0000 0.0000 14.1833 0.0000 0.0000
# 5 0.0000 0.0000 0.0000 0.0000 -6.9206 0.0000
# 6 0.0000 0.0000 0.0000 0.0000 0.0000 39.9911
#
#
#
# Elastic Compliance Matrix: (Units=1/GPa)
#
#
# Indices 1 2 3 4 5 6 
#
# 1 0.010741 -0.000730 -0.017276 0.000000 0.000000 0.000000
# 2 -0.000730 0.040272 -0.041149 0.000000 0.000000 0.000000
# 3 -0.017276 -0.041149 0.092108 0.000000 0.000000 0.000000
# 4 0.000000 0.000000 0.000000 0.070505 0.000000 0.000000
# 5 0.000000 0.000000 0.000000 0.000000 -0.144496 0.000000
# 6 0.000000 0.000000 0.000000 0.000000 0.000000 0.025006
#
#
# Mechanical properties :
#
#
# Convention : Reuss Voigt Hill
#
# Bulk Modulus (GPa) = 40.30750 91.72787 66.01769
# Shear Modulus (GPa) = 22.65344 18.65782 20.65563
#
# Velocity S-wave (km/s) = 3.56717 3.23733 3.40625
# Velocity P-wave (km/s) = 6.29345 8.09311 7.24934
#
# Compressibility (1/GPa) = 0.02480928
#
# Stress axis : x y z
#
# Youngs Moduli (GPa) = 93.10391 24.83112 10.85682
#
# Poissons Ratio (x) = 0.01814 0.18756
# Poissons Ratio (y) = 0.06801 0.44675
# Poissons Ratio (z) = 1.60847 1.02178
#
# Static dielectric constant tensor:
#      x y z
#    x 1.590570 0.000000 0.000000 
#    y 0.000000 1.598300 0.000000 
#    z 0.000000 0.000000 1.589610 
# 
# From -- ./inp_files/13119.got.cif
#   From: 2010.05.17/outbox.cif.g08.bks.cpg/sg39_7_cif.got.tgz:13119.got - 2010.06.03 18:22:40.
