data_PCOD9360526
_publ_section_title
;
Structure prediction by ZEFSAII (Michael W. Deem and Ramdas Pophale) SiO2 
 PCOD9360526
Probable space group: A B M 2
;
_chemical_formula_sum "Si O2"
_cell_formula_units_Z 64
_cell_length_a 14.622013
_cell_length_b 18.070868
_cell_length_c 9.311939
_cell_angle_alpha 90.000000
_cell_angle_beta 90.000000
_cell_angle_gamma 90.000000
_cell_volume 2460.516613
_symmetry_space_group_name_H-M "A B M 2"
_symmetry_group_IT_number 39
_symmetry_cell_setting 'orthorhombic'
loop_
_space_group_symop_operation_xyz
x,y,z
-x,-y,z
-x,1/2+y,z
x,1/2-y,z
x,1/2+y,1/2+z
-x,1/2-y,1/2+z
-x,y,1/2+z
x,-y,1/2+z
loop_
_atom_site_type_symbol
_atom_site_label
_atom_site_fract_x
_atom_site_fract_y
_atom_site_fract_z
Si Si1 0.592897 0.956197 0.642550
Si Si2 0.828838 0.393670 0.654522
Si Si3 0.667955 0.336799 0.851422
Si Si4 0.541077 0.163850 0.603731
Si Si5 0.975731 0.831774 0.328609
Si Si6 0.087870 0.540352 0.243374
Si Si7 0.183718 0.333935 0.564357
Si Si8 0.682994 0.576897 0.938446
O O1 0.548768 0.883036 0.573354
O O2 0.659128 0.939170 0.774814
O O3 0.500000 0.000000 0.690673
O O4 0.641503 0.009363 0.529842
O O5 0.746818 0.349648 0.730207
O O6 0.921341 0.346475 0.677412
O O7 0.846227 0.468855 0.748023
O O8 0.786221 0.412408 0.497997
O O9 0.655318 0.250000 0.875493
O O10 0.579570 0.360490 0.760840
O O11 0.723909 0.362657 0.990402
O O12 0.522050 0.250000 0.606569
O O13 0.618979 0.145299 0.487518
O O14 0.020557 0.750000 0.323775
O O15 0.894896 0.828238 0.443649
O O16 0.033599 0.906619 0.356001
O O17 0.144563 0.604153 0.166744
O O18 0.000000 0.500000 0.167088
O O19 0.197892 0.250000 0.621279
#
# Coordination Sequence:
#
# PCOD9360526 Si02
#       8
#     8   8   8   8   8   8   8   8
#     4  10  20  36  55  80 110 146 182 222 273 328
#     4   9  18  31  49  77 101 131 171 216 264 315
#     4   8  15  30  51  73  99 134 173 210 252 307
#     4   9  18  33  54  81 109 137 178 229 274 319
#     4   9  18  34  52  70  97 131 170 214 260 313
#     4  10  20  30  46  74 100 125 164 211 262 311
#     4   9  17  30  48  68  94 131 168 206 254 309
#     4  10  21  36  56  79 111 147 183 222 273 328
#
# _framework density 26.010797
#
# number of rings (size 3 to 8) (size 9 to 14) (size 15 to 20)
#    0.000    2.750    0.000    2.625    0.000    7.500 
#    0.000    1.250    0.000    1.500    0.000    0.000 
#    0.000    0.000    0.000    0.000    0.000    0.000 
#
# Total GULP energy -178676.056533 kJ/mol
# GULP energy per Si atom -5583.626767 kJ/mol
# Density = 2.595159 g / cm^3
# Si number density = 26.010797 Si / 1000 Ang^3
#
#
#
# Elastic Constant Matrix: (Units=GPa)
#
#
# Indices 1 2 3 4 5 6 
#
# 1 109.6439 8.0805 6.3851 0.0000 0.0000 0.0000
# 2 8.0805 113.8211 9.7867 0.0000 0.0000 0.0000
# 3 6.3851 9.7867 67.1835 0.0000 0.0000 0.0000
# 4 0.0000 0.0000 0.0000 23.5383 0.0000 0.0000
# 5 0.0000 0.0000 0.0000 0.0000 37.8464 0.0000
# 6 0.0000 0.0000 0.0000 0.0000 0.0000 42.9399
#
#
#
# Elastic Compliance Matrix: (Units=1/GPa)
#
#
# Indices 1 2 3 4 5 6 
#
# 1 0.009210 -0.000586 -0.000790 0.000000 0.000000 0.000000
# 2 -0.000586 0.008934 -0.001246 0.000000 0.000000 0.000000
# 3 -0.000790 -0.001246 0.015141 0.000000 0.000000 0.000000
# 4 0.000000 0.000000 0.000000 0.042484 0.000000 0.000000
# 5 0.000000 0.000000 0.000000 0.000000 0.026423 0.000000
# 6 0.000000 0.000000 0.000000 0.000000 0.000000 0.023288
#
#
# Mechanical properties :
#
#
# Convention : Reuss Voigt Hill
#
# Bulk Modulus (GPa) = 35.66090 37.68371 36.67230
# Shear Modulus (GPa) = 35.69626 38.62466 37.16046
#
# Velocity S-wave (km/s) = 3.70856 3.85768 3.78386
# Velocity P-wave (km/s) = 5.66372 5.86186 5.76364
#
# Compressibility (1/GPa) = 0.02804191
#
# Stress axis : x y z
#
# Youngs Moduli (GPa) = 108.58215 111.92658 66.04515
#
# Poissons Ratio (x) = 0.06558 0.05217
# Poissons Ratio (y) = 0.06362 0.08228
# Poissons Ratio (z) = 0.08577 0.13944
#
# Static dielectric constant tensor:
#      x y z
#    x 2.079330 0.000000 0.000000 
#    y 0.000000 2.059410 0.000000 
#    z 0.000000 0.000000 2.154270 
# 
# From -- ./inp_files/6926.got.cif
#   From: 2010.05.17/outbox.cif.g08.bks.cpg/sg39_4_cif.got.tgz:6926.got - 2010.06.03 18:22:40.
