data_PCOD9360483
_publ_section_title
;
Structure prediction by ZEFSAII (Michael W. Deem and Ramdas Pophale) SiO2 
 PCOD9360483
Probable space group: A B M 2
;
_chemical_formula_sum "Si O2"
_cell_formula_units_Z 44
_cell_length_a 8.814745
_cell_length_b 15.753602
_cell_length_c 14.356286
_cell_angle_alpha 90.000000
_cell_angle_beta 90.000000
_cell_angle_gamma 90.000000
_cell_volume 1993.571076
_symmetry_space_group_name_H-M "A B M 2"
_symmetry_group_IT_number 39
_symmetry_cell_setting 'orthorhombic'
loop_
_space_group_symop_operation_xyz
x,y,z
-x,-y,z
-x,1/2+y,z
x,1/2-y,z
x,1/2+y,1/2+z
-x,1/2-y,1/2+z
-x,y,1/2+z
x,-y,1/2+z
loop_
_atom_site_type_symbol
_atom_site_label
_atom_site_fract_x
_atom_site_fract_y
_atom_site_fract_z
Si Si1 0.000000 0.500000 0.411650
Si Si2 0.421572 0.158650 0.835241
Si Si3 0.802698 0.535714 0.753326
Si Si4 0.730723 0.659108 0.239422
Si Si5 0.423306 0.620983 0.546182
Si Si6 0.750730 0.560291 0.551807
O O1 0.906033 0.440820 0.340943
O O2 0.878818 0.551712 0.473235
O O3 0.366206 0.250000 0.797444
O O4 0.357051 0.077431 0.780997
O O5 0.601334 0.156882 0.818593
O O6 0.382990 0.154526 0.944025
O O7 0.805569 0.433440 0.746156
O O8 0.836046 0.568939 0.650443
O O9 0.814814 0.750000 0.248121
O O10 0.644323 0.660792 0.139708
O O11 0.607274 0.623158 0.547961
O O12 0.343577 0.528240 0.549200
#
# Coordination Sequence:
#
# PCOD9360483 Si02
#       6
#     4   8   8   8   8   8
#     4  12  22  38  62  90 126 174 222 244 308 394
#     4  11  21  35  60  93 125 159 202 255 320 375
#     4  11  22  40  61  86 128 167 210 258 312 378
#     4  10  21  37  63  95 123 158 209 268 322 370
#     4  10  19  37  62  93 124 154 210 267 320 368
#     4  10  21  35  62  92 121 168 208 259 315 373
#
# _framework density 22.070944999999998
#
# number of rings (size 3 to 8) (size 9 to 14) (size 15 to 20)
#    0.000    1.455    3.636    2.727    2.545    0.000 
#    0.000    0.909    0.000    3.273    0.000    0.000 
#    0.000    0.000    0.000    0.000    0.000    0.000 
#
# Total GULP energy -122551.136109 kJ/mol
# GULP energy per Si atom -5570.506187 kJ/mol
# Density = 2.202071 g / cm^3
# Si number density = 22.070945 Si / 1000 Ang^3
#
#
#
# Elastic Constant Matrix: (Units=GPa)
#
#
# Indices 1 2 3 4 5 6 
#
# 1 63.4997 2.2349 26.6930 0.0000 0.0000 0.0000
# 2 2.2349 70.9318 4.3337 0.0000 0.0000 0.0000
# 3 26.6930 4.3337 139.2245 0.0000 0.0000 0.0000
# 4 0.0000 0.0000 0.0000 -7.3530 0.0000 0.0000
# 5 0.0000 0.0000 0.0000 0.0000 40.9958 0.0000
# 6 0.0000 0.0000 0.0000 0.0000 0.0000 0.9704
#
#
#
# Elastic Compliance Matrix: (Units=1/GPa)
#
#
# Indices 1 2 3 4 5 6 
#
# 1 0.017137 -0.000340 -0.003275 0.000000 0.000000 0.000000
# 2 -0.000340 0.014132 -0.000375 0.000000 0.000000 0.000000
# 3 -0.003275 -0.000375 0.007822 0.000000 0.000000 0.000000
# 4 0.000000 0.000000 0.000000 -0.135999 0.000000 0.000000
# 5 0.000000 0.000000 0.000000 0.000000 0.024393 0.000000
# 6 0.000000 0.000000 0.000000 0.000000 0.000000 1.030511
#
#
# Mechanical properties :
#
#
# Convention : Reuss Voigt Hill
#
# Bulk Modulus (GPa) = 32.14245 37.79768 34.97006
# Shear Modulus (GPa) = 5.12114 22.94894 14.03504
#
# Velocity S-wave (km/s) = 1.52491 3.22806 2.52445
# Velocity P-wave (km/s) = 4.20658 5.57284 4.93720
#
# Compressibility (1/GPa) = 0.03111151
#
# Stress axis : x y z
#
# Youngs Moduli (GPa) = 58.35408 70.76314 127.84112
#
# Poissons Ratio (x) = 0.02405 0.41868
# Poissons Ratio (y) = 0.01983 0.04791
# Poissons Ratio (z) = 0.19111 0.02652
#
# Static dielectric constant tensor:
#      x y z
#    x 1.882340 0.000000 0.000000 
#    y 0.000000 1.850600 0.000000 
#    z 0.000000 0.000000 1.814130 
# 
# From -- ./inp_files/8234.got.cif
#   From: 2010.05.17/outbox.cif.g08.bks.cpg/sg39_5_cif.got.tgz:8234.got - 2010.06.03 18:22:40.
