data_PCOD9360603
_publ_section_title
;
Structure prediction by ZEFSAII (Michael W. Deem and Ramdas Pophale) SiO2 
 PCOD9360603
Probable space group: A B M 2
;
_chemical_formula_sum "Si O2"
_cell_formula_units_Z 64
_cell_length_a 22.141871
_cell_length_b 9.143218
_cell_length_c 14.715475
_cell_angle_alpha 90.000000
_cell_angle_beta 90.000000
_cell_angle_gamma 90.000000
_cell_volume 2979.117798
_symmetry_space_group_name_H-M "A B M 2"
_symmetry_group_IT_number 39
_symmetry_cell_setting 'orthorhombic'
loop_
_space_group_symop_operation_xyz
x,y,z
-x,-y,z
-x,1/2+y,z
x,1/2-y,z
x,1/2+y,1/2+z
-x,1/2-y,1/2+z
-x,y,1/2+z
x,-y,1/2+z
loop_
_atom_site_type_symbol
_atom_site_label
_atom_site_fract_x
_atom_site_fract_y
_atom_site_fract_z
Si Si1 0.810731 0.583466 0.860510
Si Si2 0.942151 0.914083 0.896416
Si Si3 0.558752 0.074869 0.140840
Si Si4 0.441086 0.926392 0.841393
Si Si5 0.691885 0.576331 0.347914
Si Si6 0.309364 0.573875 0.150805
Si Si7 0.057706 0.588409 0.613258
Si Si8 0.179639 0.585818 0.142167
O O1 0.809555 0.750000 0.896511
O O2 0.875999 0.516265 0.883627
O O3 0.750592 0.499852 0.889647
O O4 0.810557 0.590625 0.750930
O O5 0.939706 0.750000 0.856379
O O6 0.950290 0.900884 0.004540
O O7 0.000000 0.000000 0.860825
O O8 0.549703 0.250000 0.146353
O O9 0.626274 0.048909 0.102576
O O10 0.500000 0.000000 0.097257
O O11 0.561712 0.002718 0.241732
O O12 0.448188 0.750000 0.833699
O O13 0.375446 0.955250 0.884965
O O14 0.500000 0.000000 0.885295
O O15 0.700155 0.750000 0.349460
O O16 0.689689 0.517841 0.243992
O O17 0.307422 0.750000 0.170881
O O18 0.245259 0.539082 0.104319
O O19 0.058393 0.750000 0.653230
O O20 0.122087 0.513246 0.626288
O O21 0.000000 0.500000 0.648228
O O22 0.166201 0.750000 0.109584
#
# Coordination Sequence:
#
# PCOD9360603 Si02
#       8
#     8   8   8   8   8   8   8   8
#     4   9  18  32  48  66  90 119 148 179 218 264
#     4   9  19  35  52  69  89 115 147 180 216 259
#     4   9  14  20  31  48  72 105 143 177 211 252
#     4   9  15  21  30  47  73 106 143 178 211 251
#     4   9  16  24  36  57  83 110 143 182 219 256
#     4   8  15  26  38  53  79 115 147 176 215 261
#     4  10  20  34  51  69  90 116 145 179 218 260
#     4   9  17  30  47  67  91 118 148 181 218 261
#
# _framework density 21.482869999999998
#
# number of rings (size 3 to 8) (size 9 to 14) (size 15 to 20)
#    0.000    3.000    0.000    3.000    0.000    5.500 
#    0.000    1.250    0.000    0.000    0.000    0.000 
#    0.000    1.000    0.000    4.500    0.000   12.500 
#
# Total GULP energy -178262.560442 kJ/mol
# GULP energy per Si atom -5570.705014 kJ/mol
# Density = 2.143397 g / cm^3
# Si number density = 21.482870 Si / 1000 Ang^3
#
#
#
# Elastic Constant Matrix: (Units=GPa)
#
#
# Indices 1 2 3 4 5 6 
#
# 1 278.1000 114.1691 5.1213 0.0000 0.0000 0.0000
# 2 114.1691 97.2324 7.1416 0.0000 0.0000 0.0000
# 3 5.1213 7.1416 45.5660 0.0000 0.0000 0.0000
# 4 0.0000 0.0000 0.0000 -1.5354 0.0000 0.0000
# 5 0.0000 0.0000 0.0000 0.0000 46.1749 0.0000
# 6 0.0000 0.0000 0.0000 0.0000 0.0000 38.9758
#
#
#
# Elastic Compliance Matrix: (Units=1/GPa)
#
#
# Indices 1 2 3 4 5 6 
#
# 1 0.006954 -0.008202 0.000504 0.000000 0.000000 0.000000
# 2 -0.008202 0.020079 -0.002225 0.000000 0.000000 0.000000
# 3 0.000504 -0.002225 0.022238 0.000000 0.000000 0.000000
# 4 0.000000 0.000000 0.000000 -0.651311 0.000000 0.000000
# 5 0.000000 0.000000 0.000000 0.000000 0.021657 0.000000
# 6 0.000000 0.000000 0.000000 0.000000 0.000000 0.025657
#
#
# Mechanical properties :
#
#
# Convention : Reuss Voigt Hill
#
# Bulk Modulus (GPa) = 33.98530 74.86247 54.42389
# Shear Modulus (GPa) = -9.52250 36.35416 13.41583
#
# Velocity S-wave (km/s) = -2.10766 4.11815 2.50169
# Velocity P-wave (km/s) = 3.15137 7.58521 5.80803
#
# Compressibility (1/GPa) = 0.02942448
#
# Stress axis : x y z
#
# Youngs Moduli (GPa) = 143.80759 49.80388 44.96746
#
# Poissons Ratio (x) = 0.40849 -0.02266
# Poissons Ratio (y) = 1.17951 0.10006
# Poissons Ratio (z) = -0.07247 0.11082
#
# Static dielectric constant tensor:
#      x y z
#    x 1.849720 0.000000 0.000000 
#    y 0.000000 1.761400 0.000000 
#    z 0.000000 0.000000 1.803620 
# 
# From -- ./inp_files/15028.got.cif
#   From: 2010.05.17/outbox.cif.g08.bks.cpg/sg39_8_cif.got.tgz:15028.got - 2010.06.03 18:22:40.
