data_PCOD9360450
_publ_section_title
;
Structure prediction by ZEFSAII (Michael W. Deem and Ramdas Pophale) SiO2 
 PCOD9360450
Probable space group: A B M 2
;
_chemical_formula_sum "Si O2"
_cell_formula_units_Z 48
_cell_length_a 14.437286
_cell_length_b 8.751714
_cell_length_c 20.670261
_cell_angle_alpha 90.000000
_cell_angle_beta 90.000000
_cell_angle_gamma 90.000000
_cell_volume 2611.708106
_symmetry_space_group_name_H-M "A B M 2"
_symmetry_group_IT_number 39
_symmetry_cell_setting 'orthorhombic'
loop_
_space_group_symop_operation_xyz
x,y,z
-x,-y,z
-x,1/2+y,z
x,1/2-y,z
x,1/2+y,1/2+z
-x,1/2-y,1/2+z
-x,y,1/2+z
x,-y,1/2+z
loop_
_atom_site_type_symbol
_atom_site_label
_atom_site_fract_x
_atom_site_fract_y
_atom_site_fract_z
Si Si1 0.599056 0.933709 0.100630
Si Si2 0.212844 0.067744 0.799072
Si Si3 0.599986 0.433545 0.752296
Si Si4 0.103347 0.568081 0.920915
Si Si5 0.791943 0.067721 0.542879
Si Si6 0.897584 0.431588 0.678422
O O1 0.595022 0.750000 0.098615
O O2 0.614990 0.975542 0.176237
O O3 0.686559 0.982049 0.057776
O O4 0.500000 0.000000 0.080688
O O5 0.214108 0.250000 0.802678
O O6 0.316736 0.003042 0.793448
O O7 0.158079 0.999800 0.859843
O O8 0.160209 0.012664 0.734582
O O9 0.500000 0.500000 0.770756
O O10 0.600374 0.250000 0.756742
O O11 0.097630 0.750000 0.915502
O O12 0.000000 0.500000 0.923286
O O13 0.158629 0.520080 0.985231
O O14 0.791935 0.250000 0.528494
O O15 0.848196 0.046359 0.609475
O O16 0.900342 0.250000 0.691558
O O17 0.000000 0.500000 0.676641
#
# Coordination Sequence:
#
# PCOD9360450 Si02
#       6
#     8   8   8   8   8   8
#     4   9  18  34  58  89 124 159 195 242 296 353
#     4  12  24  40  62  89 120 160 205 252 303 360
#     4  10  19  36  60  92 126 161 199 247 304 359
#     4  12  26  44  64  87 119 161 205 252 307 370
#     4  10  21  40  62  88 122 159 200 248 301 359
#     4  11  22  38  59  87 121 154 197 253 305 359
#
# _framework density 18.378778000000001
#
# number of rings (size 3 to 8) (size 9 to 14) (size 15 to 20)
#    0.000    1.333    1.667    5.000    0.000    4.000 
#    0.000    0.833    0.000    2.000    0.000    0.000 
#    0.000    0.000    0.000    0.000    0.000    0.000 
#
# Total GULP energy -134182.459263 kJ/mol
# GULP energy per Si atom -5590.935803 kJ/mol
# Density = 1.833695 g / cm^3
# Si number density = 18.378778 Si / 1000 Ang^3
#
#
#
# Elastic Constant Matrix: (Units=GPa)
#
#
# Indices 1 2 3 4 5 6 
#
# 1 192.4447 76.4078 69.1452 0.0000 0.0000 0.0000
# 2 76.4078 124.8575 65.4877 0.0000 0.0000 0.0000
# 3 69.1452 65.4877 87.8237 0.0000 0.0000 0.0000
# 4 0.0000 0.0000 0.0000 29.6823 0.0000 0.0000
# 5 0.0000 0.0000 0.0000 0.0000 17.4471 0.0000
# 6 0.0000 0.0000 0.0000 0.0000 0.0000 36.1053
#
#
#
# Elastic Compliance Matrix: (Units=1/GPa)
#
#
# Indices 1 2 3 4 5 6 
#
# 1 0.007699 -0.002516 -0.004185 0.000000 0.000000 0.000000
# 2 -0.002516 0.013976 -0.008440 0.000000 0.000000 0.000000
# 3 -0.004185 -0.008440 0.020975 0.000000 0.000000 0.000000
# 4 0.000000 0.000000 0.000000 0.033690 0.000000 0.000000
# 5 0.000000 0.000000 0.000000 0.000000 0.057316 0.000000
# 6 0.000000 0.000000 0.000000 0.000000 0.000000 0.027697
#
#
# Mechanical properties :
#
#
# Convention : Reuss Voigt Hill
#
# Bulk Modulus (GPa) = 80.86371 91.91191 86.38781
# Shear Modulus (GPa) = 25.54153 29.58596 27.56374
#
# Velocity S-wave (km/s) = 3.73195 4.01657 3.87687
# Velocity P-wave (km/s) = 7.91605 8.46338 8.19429
#
# Compressibility (1/GPa) = 0.01236649
#
# Stress axis : x y z
#
# Youngs Moduli (GPa) = 129.88413 71.55123 47.67515
#
# Poissons Ratio (x) = 0.18005 0.19953
# Poissons Ratio (y) = 0.32684 0.40239
# Poissons Ratio (z) = 0.54360 0.60391
#
# Static dielectric constant tensor:
#      x y z
#    x 1.599050 0.000000 0.000000 
#    y 0.000000 1.615270 0.000000 
#    z 0.000000 0.000000 1.606860 
# 
# From -- ./inp_files/12640.got.cif
#   From: 2010.05.17/outbox.cif.g08.bks.cpg/sg39_7_cif.got.tgz:12640.got - 2010.06.03 18:22:40.
