data_PCOD9360123
_publ_section_title
;
Structure prediction by ZEFSAII (Michael W. Deem and Ramdas Pophale) SiO2 
 PCOD9360123
Probable space group: A B M 2
;
_chemical_formula_sum "Si O2"
_cell_formula_units_Z 48
_cell_length_a 28.753547
_cell_length_b 14.289162
_cell_length_c 5.098217
_cell_angle_alpha 90.000000
_cell_angle_beta 90.000000
_cell_angle_gamma 90.000000
_cell_volume 2094.674294
_symmetry_space_group_name_H-M "A B M 2"
_symmetry_group_IT_number 39
_symmetry_cell_setting 'orthorhombic'
loop_
_space_group_symop_operation_xyz
x,y,z
-x,-y,z
-x,1/2+y,z
x,1/2-y,z
x,1/2+y,1/2+z
-x,1/2-y,1/2+z
-x,y,1/2+z
x,-y,1/2+z
loop_
_atom_site_type_symbol
_atom_site_label
_atom_site_fract_x
_atom_site_fract_y
_atom_site_fract_z
Si Si1 0.373554 0.635414 0.322720
Si Si2 0.123974 0.561328 0.859168
Si Si3 0.320517 0.861783 0.821592
Si Si4 0.777819 0.561129 0.488331
Si Si5 0.472935 0.635781 0.540112
Si Si6 0.025772 0.138077 0.527376
O O1 0.375198 0.750000 0.316427
O O2 0.334086 0.606123 0.531063
O O3 0.423292 0.604202 0.431392
O O4 0.358492 0.605038 0.033970
O O5 0.123996 0.527114 0.559788
O O6 0.173124 0.610903 0.923330
O O7 0.077053 0.614149 0.930310
O O8 0.323920 0.750000 0.815566
O O9 0.269290 0.886723 0.917132
O O10 0.777991 0.527423 0.788143
O O11 0.471464 0.750000 0.542769
O O12 0.487351 0.607911 0.832032
O O13 0.022398 0.250000 0.538347
O O14 0.988043 0.103330 0.315149
#
# Coordination Sequence:
#
# PCOD9360123 Si02
#       6
#     8   8   8   8   8   8
#     4   9  17  28  43  68 100 129 163 206 247 296
#     4  10  21  36  55  78 103 135 173 213 255 298
#     4  10  19  32  51  73  99 132 166 204 253 303
#     4  10  21  37  54  75 104 133 168 214 256 298
#     4   9  15  23  37  59  92 131 160 189 242 301
#     4  10  21  36  54  79 110 140 171 210 253 298
#
# _framework density 22.915258999999999
#
# number of rings (size 3 to 8) (size 9 to 14) (size 15 to 20)
#    0.000    2.333    0.000    3.000    0.000    6.667 
#    0.000    0.000    0.000   12.000    0.000    0.000 
#    0.000   46.667    0.000    0.000    0.000    0.000 
#
# Total GULP energy -134154.602223 kJ/mol
# GULP energy per Si atom -5589.775093 kJ/mol
# Density = 2.286310 g / cm^3
# Si number density = 22.915259 Si / 1000 Ang^3
#
#
#
# Elastic Constant Matrix: (Units=GPa)
#
#
# Indices 1 2 3 4 5 6 
#
# 1 88.8894 -6.2357 -9.1445 0.0000 0.0000 0.0000
# 2 -6.2357 47.7956 -7.9192 0.0000 0.0000 0.0000
# 3 -9.1445 -7.9192 79.6634 0.0000 0.0000 0.0000
# 4 0.0000 0.0000 0.0000 0.1904 0.0000 0.0000
# 5 0.0000 0.0000 0.0000 0.0000 39.3605 0.0000
# 6 0.0000 0.0000 0.0000 0.0000 0.0000 30.1159
#
#
#
# Elastic Compliance Matrix: (Units=1/GPa)
#
#
# Indices 1 2 3 4 5 6 
#
# 1 0.011527 0.001752 0.001497 0.000000 0.000000 0.000000
# 2 0.001752 0.021539 0.002342 0.000000 0.000000 0.000000
# 3 0.001497 0.002342 0.012958 0.000000 0.000000 0.000000
# 4 0.000000 0.000000 0.000000 5.252587 0.000000 0.000000
# 5 0.000000 0.000000 0.000000 0.000000 0.025406 0.000000
# 6 0.000000 0.000000 0.000000 0.000000 0.000000 0.033205
#
#
# Mechanical properties :
#
#
# Convention : Reuss Voigt Hill
#
# Bulk Modulus (GPa) = 17.48052 18.86108 18.17080
# Shear Modulus (GPa) = 0.93195 29.90987 15.42091
#
# Velocity S-wave (km/s) = 0.63842 3.61673 2.59695
# Velocity P-wave (km/s) = 2.86153 5.06849 4.11570
#
# Compressibility (1/GPa) = 0.05720653
#
# Stress axis : x y z
#
# Youngs Moduli (GPa) = 86.75376 46.42726 77.17522
#
# Poissons Ratio (x) = -0.08134 -0.11556
# Poissons Ratio (y) = -0.15199 -0.18076
# Poissons Ratio (z) = -0.12990 -0.10874
#
# Static dielectric constant tensor:
#      x y z
#    x 1.855380 0.000000 0.000000 
#    y 0.000000 1.867130 0.000000 
#    z 0.000000 0.000000 1.814210 
# 
# From -- ./inp_files/1038.got.cif
#   From: 2010.05.17/outbox.cif.g08.bks.cpg/sg39_1_cif.got.tgz:1038.got - 2010.06.03 18:22:40.
