data_PCOD9360778
_publ_section_title
;
Structure prediction by ZEFSAII (Michael W. Deem and Ramdas Pophale) SiO2 
 PCOD9360778
Probable space group: A B M 2
;
_chemical_formula_sum "Si O2"
_cell_formula_units_Z 32
_cell_length_a 7.353507
_cell_length_b 11.132848
_cell_length_c 19.109090
_cell_angle_alpha 90.000000
_cell_angle_beta 90.000000
_cell_angle_gamma 90.000000
_cell_volume 1564.374743
_symmetry_space_group_name_H-M "A B M 2"
_symmetry_group_IT_number 39
_symmetry_cell_setting 'orthorhombic'
loop_
_space_group_symop_operation_xyz
x,y,z
-x,-y,z
-x,1/2+y,z
x,1/2-y,z
x,1/2+y,1/2+z
-x,1/2-y,1/2+z
-x,y,1/2+z
x,-y,1/2+z
loop_
_atom_site_type_symbol
_atom_site_label
_atom_site_fract_x
_atom_site_fract_y
_atom_site_fract_z
Si Si1 0.124426 0.116442 0.574360
Si Si2 0.624780 0.383731 0.941446
Si Si3 0.198750 0.379435 0.297277
Si Si4 0.213443 0.620620 0.237612
O O1 0.035925 0.250000 0.565893
O O2 0.282998 0.110422 0.517253
O O3 0.194001 0.112468 0.654086
O O4 0.000000 0.000000 0.563788
O O5 0.500000 0.500000 0.931644
O O6 0.536582 0.250000 0.934784
O O7 0.777823 0.387709 0.880687
O O8 0.275528 0.250000 0.274963
O O9 0.292512 0.496369 0.265243
O O10 0.990184 0.377731 0.271194
O O11 0.297111 0.750000 0.255994
#
# Coordination Sequence:
#
# PCOD9360778 Si02
#       4
#     8   8   8   8
#     4  10  20  35  58  86 113 144 187 235 280 332
#     4  10  23  40  56  80 115 153 192 229 274 337
#     4   9  17  32  53  78 109 141 179 225 271 325
#     4   9  17  31  54  84 111 136 175 227 280 326
#
# _framework density 20.455458
#
# number of rings (size 3 to 8) (size 9 to 14) (size 15 to 20)
#    0.000    2.500    2.500    0.000    3.500    2.000 
#    0.000    1.250    0.000    6.000    0.000    0.000 
#    0.000    0.000    0.000    0.000    0.000    0.000 
#
# Total GULP energy -89091.505294 kJ/mol
# GULP energy per Si atom -5568.219081 kJ/mol
# Density = 2.040890 g / cm^3
# Si number density = 20.455458 Si / 1000 Ang^3
#
#
#
# Elastic Constant Matrix: (Units=GPa)
#
#
# Indices 1 2 3 4 5 6 
#
# 1 43.3685 22.8378 36.5923 0.0000 0.0000 0.0000
# 2 22.8378 225.9352 45.3579 0.0000 0.0000 0.0000
# 3 36.5923 45.3579 120.6812 0.0000 0.0000 0.0000
# 4 0.0000 0.0000 0.0000 36.4129 0.0000 0.0000
# 5 0.0000 0.0000 0.0000 0.0000 137.0491 0.0000
# 6 0.0000 0.0000 0.0000 0.0000 0.0000 10.3200
#
#
#
# Elastic Compliance Matrix: (Units=1/GPa)
#
#
# Indices 1 2 3 4 5 6 
#
# 1 0.031370 -0.001364 -0.008999 0.000000 0.000000 0.000000
# 2 -0.001364 0.004847 -0.001408 0.000000 0.000000 0.000000
# 3 -0.008999 -0.001408 0.011544 0.000000 0.000000 0.000000
# 4 0.000000 0.000000 0.000000 0.027463 0.000000 0.000000
# 5 0.000000 0.000000 0.000000 0.000000 0.007297 0.000000
# 6 0.000000 0.000000 0.000000 0.000000 0.000000 0.096900
#
#
# Mechanical properties :
#
#
# Convention : Reuss Voigt Hill
#
# Bulk Modulus (GPa) = 41.29174 66.61790 53.95482
# Shear Modulus (GPa) = 23.69284 55.76951 39.73118
#
# Velocity S-wave (km/s) = 3.40702 5.22715 4.41196
# Velocity P-wave (km/s) = 5.97554 8.31076 7.23795
#
# Compressibility (1/GPa) = 0.02421792
#
# Stress axis : x y z
#
# Youngs Moduli (GPa) = 31.87807 206.33017 86.62454
#
# Poissons Ratio (x) = 0.28149 0.77953
# Poissons Ratio (y) = 0.04349 0.12196
# Poissons Ratio (z) = 0.28687 0.29050
#
# Static dielectric constant tensor:
#      x y z
#    x 1.690650 0.000000 0.000000 
#    y 0.000000 1.819360 0.000000 
#    z 0.000000 0.000000 1.694920 
# 
# From -- ./inp_files/7833.got.cif
#   From: 2010.05.17/outbox.cif.g08.bks.cpg/sg39_4_cif.got.tgz:7833.got - 2010.06.03 18:22:40.
