data_PCOD9360050
_publ_section_title
;
Structure prediction by ZEFSAII (Michael W. Deem and Ramdas Pophale) SiO2 
 PCOD9360050
Probable space group: A B M 2
;
_chemical_formula_sum "Si O2"
_cell_formula_units_Z 64
_cell_length_a 19.780000
_cell_length_b 9.032902
_cell_length_c 20.701434
_cell_angle_alpha 90.000000
_cell_angle_beta 90.000000
_cell_angle_gamma 90.000000
_cell_volume 3698.741806
_symmetry_space_group_name_H-M "A B M 2"
_symmetry_group_IT_number 39
_symmetry_cell_setting 'orthorhombic'
loop_
_space_group_symop_operation_xyz
x,y,z
-x,-y,z
-x,1/2+y,z
x,1/2-y,z
x,1/2+y,1/2+z
-x,1/2-y,1/2+z
-x,y,1/2+z
x,-y,1/2+z
loop_
_atom_site_type_symbol
_atom_site_label
_atom_site_fract_x
_atom_site_fract_y
_atom_site_fract_z
Si Si1 0.790436 0.427249 0.272410
Si Si2 0.572544 0.573698 0.346858
Si Si3 0.657411 0.572651 0.471496
Si Si4 0.574304 0.572548 0.602238
Si Si5 0.068669 0.420733 0.271057
Si Si6 0.931468 0.579850 0.428217
Si Si7 0.209027 0.073387 0.925597
Si Si8 0.658429 0.072957 0.717897
O O1 0.788577 0.250000 0.265915
O O2 0.863738 0.490589 0.253506
O O3 0.780203 0.463127 0.349048
O O4 0.731707 0.503121 0.231062
O O5 0.500000 0.500000 0.343034
O O6 0.563690 0.750000 0.352282
O O7 0.613538 0.523137 0.409768
O O8 0.615526 0.544071 0.282875
O O9 0.668113 0.750000 0.466705
O O10 0.614580 0.543465 0.535762
O O11 0.729382 0.493333 0.466146
O O12 0.500000 0.500000 0.600957
O O13 0.567900 0.750000 0.610388
O O14 0.618526 0.502883 0.659563
O O15 0.071800 0.250000 0.250125
O O16 0.066554 0.420451 0.349634
O O17 0.000000 0.500000 0.248804
O O18 0.929491 0.750000 0.449384
O O19 0.862819 0.495253 0.445749
O O20 0.000000 0.500000 0.450407
O O21 0.206816 0.250000 0.930911
O O22 0.663147 0.250000 0.708565
#
# Coordination Sequence:
#
# PCOD9360050 Si02
#       8
#     8   8   8   8   8   8   8   8
#     4  10  19  31  49  76 108 141 179 224 271 321
#     4  10  21  35  54  78 103 133 171 214 265 320
#     4  10  21  38  56  77 106 141 178 220 270 323
#     4  11  24  41  60  80 107 141 179 224 272 326
#     4   9  16  26  42  67 102 143 181 219 265 317
#     4   9  16  26  42  66 102 143 180 219 263 316
#     4  10  19  30  49  77 107 140 178 223 269 319
#     4  11  22  37  57  79 107 142 179 223 271 324
#
# _framework density 17.303180000000001
#
# number of rings (size 3 to 8) (size 9 to 14) (size 15 to 20)
#    0.000    2.000    1.250    3.000    0.000    7.500 
#    0.000    0.000    0.000    0.000    0.000    0.875 
#    0.000    6.000    0.000    0.000    0.000    0.000 
#
# Total GULP energy -178620.172386 kJ/mol
# GULP energy per Si atom -5581.880387 kJ/mol
# Density = 1.726380 g / cm^3
# Si number density = 17.303180 Si / 1000 Ang^3
#
#
#
# Elastic Constant Matrix: (Units=GPa)
#
#
# Indices 1 2 3 4 5 6 
#
# 1 193.3134 88.4402 56.6228 0.0000 0.0000 0.0000
# 2 88.4402 89.3593 56.7424 0.0000 0.0000 0.0000
# 3 56.6228 56.7424 71.7240 0.0000 0.0000 0.0000
# 4 0.0000 0.0000 0.0000 19.1702 0.0000 0.0000
# 5 0.0000 0.0000 0.0000 0.0000 7.6645 0.0000
# 6 0.0000 0.0000 0.0000 0.0000 0.0000 40.7877
#
#
#
# Elastic Compliance Matrix: (Units=1/GPa)
#
#
# Indices 1 2 3 4 5 6 
#
# 1 0.009454 -0.009279 -0.000123 0.000000 0.000000 0.000000
# 2 -0.009279 0.031594 -0.017670 0.000000 0.000000 0.000000
# 3 -0.000123 -0.017670 0.028018 0.000000 0.000000 0.000000
# 4 0.000000 0.000000 0.000000 0.052164 0.000000 0.000000
# 5 0.000000 0.000000 0.000000 0.000000 0.130471 0.000000
# 6 0.000000 0.000000 0.000000 0.000000 0.000000 0.024517
#
#
# Mechanical properties :
#
#
# Convention : Reuss Voigt Hill
#
# Bulk Modulus (GPa) = 67.00724 84.22306 75.61515
# Shear Modulus (GPa) = 14.91042 23.69723 19.30382
#
# Velocity S-wave (km/s) = 2.93868 3.70473 3.34372
# Velocity P-wave (km/s) = 7.09394 8.19028 7.66174
#
# Compressibility (1/GPa) = 0.01492376
#
# Stress axis : x y z
#
# Youngs Moduli (GPa) = 105.77678 31.65152 35.69098
#
# Poissons Ratio (x) = 0.29368 0.00439
# Poissons Ratio (y) = 0.98146 0.63065
# Poissons Ratio (z) = 0.01300 0.55927
#
# Static dielectric constant tensor:
#      x y z
#    x 1.568720 0.000000 0.000000 
#    y 0.000000 1.581040 0.000000 
#    z 0.000000 0.000000 1.575250 
# 
# From -- ./inp_files/16325.got.cif
#   From: 2010.05.17/outbox.cif.g08.bks.cpg/sg39_9_cif.got.tgz:16325.got - 2010.06.03 18:22:40.
