data_PCOD9360208
_publ_section_title
;
Structure prediction by ZEFSAII (Michael W. Deem and Ramdas Pophale) SiO2 
 PCOD9360208
Probable space group: A B M 2
;
_chemical_formula_sum "Si O2"
_cell_formula_units_Z 64
_cell_length_a 15.066427
_cell_length_b 26.550283
_cell_length_c 9.011106
_cell_angle_alpha 90.000000
_cell_angle_beta 90.000000
_cell_angle_gamma 90.000000
_cell_volume 3604.603705
_symmetry_space_group_name_H-M "A B M 2"
_symmetry_group_IT_number 39
_symmetry_cell_setting 'orthorhombic'
loop_
_space_group_symop_operation_xyz
x,y,z
-x,-y,z
-x,1/2+y,z
x,1/2-y,z
x,1/2+y,1/2+z
-x,1/2-y,1/2+z
-x,y,1/2+z
x,-y,1/2+z
loop_
_atom_site_type_symbol
_atom_site_label
_atom_site_fract_x
_atom_site_fract_y
_atom_site_fract_z
Si Si1 0.929726 0.310697 0.445310
Si Si2 0.422027 0.947866 0.270856
Si Si3 0.886562 0.811224 0.604529
Si Si4 0.283242 0.855956 0.952717
Si Si5 0.390427 0.959127 0.934231
Si Si6 0.419999 0.305741 0.995642
Si Si7 0.427588 0.839311 0.176016
Si Si8 0.234298 0.690607 0.637958
O O1 0.923412 0.250000 0.449996
O O2 0.909801 0.323890 0.275105
O O3 0.854396 0.329445 0.559242
O O4 0.027879 0.322591 0.502703
O O5 0.520845 0.945377 0.340529
O O6 0.391994 0.890694 0.250813
O O7 0.364434 0.986708 0.367069
O O8 0.419802 0.967063 0.102901
O O9 0.868568 0.750000 0.595017
O O10 0.804731 0.844297 0.547165
O O11 0.320809 0.913063 0.934941
O O12 0.263220 0.835413 0.789554
O O13 0.359682 0.826149 0.044670
O O14 0.443323 0.250000 0.054664
O O15 0.438771 0.306159 0.821177
O O16 0.479383 0.344552 0.089434
O O17 0.316427 0.313732 0.024871
O O18 0.221134 0.750000 0.670844
#
# Coordination Sequence:
#
# PCOD9360208 Si02
#       8
#     8   8   8   8   8   8   8   8
#     4   9  18  33  54  79 107 146 190 226 266 317
#     4  10  19  34  52  71  97 132 176 225 274 320
#     4  10  19  33  53  77 110 148 183 222 268 324
#     4  11  22  33  49  76 109 140 179 225 272 327
#     4  10  20  33  54  78 100 132 176 231 285 326
#     4  11  22  34  49  72 106 145 184 222 262 316
#     4  11  22  35  50  70 102 146 186 223 268 326
#     4  10  20  33  49  72 105 144 182 221 264 318
#
# _framework density 17.755071999999998
#
# number of rings (size 3 to 8) (size 9 to 14) (size 15 to 20)
#    0.000    1.750    0.000    6.750    0.000    7.000 
#    0.000    0.000    0.000    0.000    0.000    0.000 
#    0.000   65.000    0.000    0.000    0.000    0.000 
#
# Total GULP energy -178323.945994 kJ/mol
# GULP energy per Si atom -5572.623312 kJ/mol
# Density = 1.771466 g / cm^3
# Si number density = 17.755072 Si / 1000 Ang^3
#
#
#
# Elastic Constant Matrix: (Units=GPa)
#
#
# Indices 1 2 3 4 5 6 
#
# 1 82.2753 31.5274 24.0289 0.0000 0.0000 0.0000
# 2 31.5274 63.0793 38.8211 0.0000 0.0000 0.0000
# 3 24.0289 38.8211 85.5470 0.0000 0.0000 0.0000
# 4 0.0000 0.0000 0.0000 28.9421 0.0000 0.0000
# 5 0.0000 0.0000 0.0000 0.0000 33.0643 0.0000
# 6 0.0000 0.0000 0.0000 0.0000 0.0000 21.4095
#
#
#
# Elastic Compliance Matrix: (Units=1/GPa)
#
#
# Indices 1 2 3 4 5 6 
#
# 1 0.015112 -0.006855 -0.001134 0.000000 0.000000 0.000000
# 2 -0.006855 0.025106 -0.009467 0.000000 0.000000 0.000000
# 3 -0.001134 -0.009467 0.016304 0.000000 0.000000 0.000000
# 4 0.000000 0.000000 0.000000 0.034552 0.000000 0.000000
# 5 0.000000 0.000000 0.000000 0.000000 0.030244 0.000000
# 6 0.000000 0.000000 0.000000 0.000000 0.000000 0.046708
#
#
# Mechanical properties :
#
#
# Convention : Reuss Voigt Hill
#
# Bulk Modulus (GPa) = 46.27667 46.62850 46.45259
# Shear Modulus (GPa) = 23.79327 25.78481 24.78904
#
# Velocity S-wave (km/s) = 3.66469 3.81497 3.74058
# Velocity P-wave (km/s) = 6.63529 6.76199 6.69894
#
# Compressibility (1/GPa) = 0.02160916
#
# Stress axis : x y z
#
# Youngs Moduli (GPa) = 66.17073 39.83103 61.33351
#
# Poissons Ratio (x) = 0.27306 0.06954
# Poissons Ratio (y) = 0.45363 0.58067
# Poissons Ratio (z) = 0.07503 0.37710
#
# Static dielectric constant tensor:
#      x y z
#    x 1.612470 0.000000 0.000000 
#    y 0.000000 1.668900 0.000000 
#    z 0.000000 0.000000 1.624240 
# 
# From -- ./inp_files/2915.got.cif
#   From: 2010.05.17/outbox.cif.g08.bks.cpg/sg39_2_cif.got.tgz:2915.got - 2010.06.03 18:22:40.
