data_PCOD9360340
_publ_section_title
;
Structure prediction by ZEFSAII (Michael W. Deem and Ramdas Pophale) SiO2 
 PCOD9360340
Probable space group: A B M 2
;
_chemical_formula_sum "Si O2"
_cell_formula_units_Z 48
_cell_length_a 9.219737
_cell_length_b 8.628980
_cell_length_c 32.213495
_cell_angle_alpha 90.000000
_cell_angle_beta 90.000000
_cell_angle_gamma 90.000000
_cell_volume 2562.806644
_symmetry_space_group_name_H-M "A B M 2"
_symmetry_group_IT_number 39
_symmetry_cell_setting 'orthorhombic'
loop_
_space_group_symop_operation_xyz
x,y,z
-x,-y,z
-x,1/2+y,z
x,1/2-y,z
x,1/2+y,1/2+z
-x,1/2-y,1/2+z
-x,y,1/2+z
x,-y,1/2+z
loop_
_atom_site_type_symbol
_atom_site_label
_atom_site_fract_x
_atom_site_fract_y
_atom_site_fract_z
Si Si1 0.162380 0.064896 0.567190
Si Si2 0.662601 0.063737 0.645817
Si Si3 0.335541 0.936497 0.306875
Si Si4 0.161863 0.564337 0.728693
Si Si5 0.335140 0.563023 0.488743
Si Si6 0.336470 0.563675 0.397710
O O1 0.159806 0.250000 0.567700
O O2 0.252938 0.003319 0.606383
O O3 0.239652 0.005729 0.525416
O O4 0.000000 0.000000 0.569428
O O5 0.659826 0.250000 0.642989
O O6 0.745881 0.019212 0.688050
O O7 0.500000 0.000000 0.646665
O O8 0.340161 0.750000 0.304674
O O9 0.275448 0.983298 0.352721
O O10 0.500000 0.000000 0.303259
O O11 0.239607 0.001043 0.269757
O O12 0.157486 0.750000 0.730536
O O13 0.000000 0.500000 0.725349
O O14 0.500000 0.500000 0.492170
O O15 0.338273 0.750000 0.491747
O O16 0.275588 0.517682 0.442757
O O17 0.500000 0.500000 0.397690
O O18 0.341233 0.750000 0.397712
#
# Coordination Sequence:
#
# PCOD9360340 Si02
#       6
#     8   8   8   8   8   8
#     4  12  25  41  60  84 115 150 188 231 283 338
#     4  11  24  42  64  89 115 146 186 230 277 331
#     4  10  19  34  57  85 116 150 191 236 282 332
#     4  11  24  40  59  84 115 151 189 231 282 337
#     4  10  19  35  58  85 116 150 191 235 281 332
#     4   8  16  30  52  81 112 147 187 233 280 328
#
# _framework density 18.729465999999999
#
# number of rings (size 3 to 8) (size 9 to 14) (size 15 to 20)
#    0.000    1.667    0.000    5.000    0.000    6.667 
#    0.000    0.833    0.000    0.000    0.000    0.000 
#    0.000    0.000    0.000    0.000    0.000    0.000 
#
# Total GULP energy -134026.213044 kJ/mol
# GULP energy per Si atom -5584.425544 kJ/mol
# Density = 1.868684 g / cm^3
# Si number density = 18.729466 Si / 1000 Ang^3
#
#
#
# Elastic Constant Matrix: (Units=GPa)
#
#
# Indices 1 2 3 4 5 6 
#
# 1 136.8079 48.7762 110.3968 0.0000 0.0000 0.0000
# 2 48.7762 76.5457 72.9487 0.0000 0.0000 0.0000
# 3 110.3968 72.9487 239.8740 0.0000 0.0000 0.0000
# 4 0.0000 0.0000 0.0000 25.6753 0.0000 0.0000
# 5 0.0000 0.0000 0.0000 0.0000 -22.2264 0.0000
# 6 0.0000 0.0000 0.0000 0.0000 0.0000 32.8034
#
#
#
# Elastic Compliance Matrix: (Units=1/GPa)
#
#
# Indices 1 2 3 4 5 6 
#
# 1 0.012233 -0.003421 -0.004589 0.000000 0.000000 0.000000
# 2 -0.003421 0.019352 -0.004311 0.000000 0.000000 0.000000
# 3 -0.004589 -0.004311 0.007592 0.000000 0.000000 0.000000
# 4 0.000000 0.000000 0.000000 0.038948 0.000000 0.000000
# 5 0.000000 0.000000 0.000000 0.000000 -0.044991 0.000000
# 6 0.000000 0.000000 0.000000 0.000000 0.000000 0.030485
#
#
# Mechanical properties :
#
#
# Convention : Reuss Voigt Hill
#
# Bulk Modulus (GPa) = 68.80258 101.94120 85.37189
# Shear Modulus (GPa) = 53.70250 21.99083 37.84667
#
# Velocity S-wave (km/s) = 5.36050 3.43028 4.50010
# Velocity P-wave (km/s) = 8.66764 8.38066 8.52536
#
# Compressibility (1/GPa) = 0.01453434
#
# Stress axis : x y z
#
# Youngs Moduli (GPa) = 81.74825 51.67353 131.71753
#
# Poissons Ratio (x) = 0.17678 0.60451
# Poissons Ratio (y) = 0.27967 0.56781
# Poissons Ratio (z) = 0.37518 0.22275
#
# Static dielectric constant tensor:
#      x y z
#    x 1.592440 0.000000 0.000000 
#    y 0.000000 1.634170 0.000000 
#    z 0.000000 0.000000 1.675200 
# 
# From -- ./inp_files/17590.got.cif
#   From: 2010.05.17/outbox.cif.g08.bks.cpg/sg39_9_cif.got.tgz:17590.got - 2010.06.03 18:22:40.
