data_PCOD9360921
_publ_section_title
;
Structure prediction by ZEFSAII (Michael W. Deem and Ramdas Pophale) SiO2 
 PCOD9360921
Probable space group: A B M 2
;
_chemical_formula_sum "Si O2"
_cell_formula_units_Z 52
_cell_length_a 19.477220
_cell_length_b 13.874308
_cell_length_c 10.141411
_cell_angle_alpha 90.000000
_cell_angle_beta 90.000000
_cell_angle_gamma 90.000000
_cell_volume 2740.543404
_symmetry_space_group_name_H-M "A B M 2"
_symmetry_group_IT_number 39
_symmetry_cell_setting 'orthorhombic'
loop_
_space_group_symop_operation_xyz
x,y,z
-x,-y,z
-x,1/2+y,z
x,1/2-y,z
x,1/2+y,1/2+z
-x,1/2-y,1/2+z
-x,y,1/2+z
x,-y,1/2+z
loop_
_atom_site_type_symbol
_atom_site_label
_atom_site_fract_x
_atom_site_fract_y
_atom_site_fract_z
Si Si1 0.111638 0.358717 0.831340
Si Si2 0.120158 0.862295 0.025625
Si Si3 0.000000 0.500000 0.930604
Si Si4 0.774073 0.520190 0.956025
Si Si5 0.680718 0.004951 0.703919
Si Si6 0.567987 0.134643 0.098226
Si Si7 0.556627 0.365488 0.794237
O O1 0.090722 0.250000 0.863214
O O2 0.136756 0.361710 0.680975
O O3 0.048749 0.431366 0.846081
O O4 0.171261 0.396290 0.926425
O O5 0.112168 0.750000 0.983824
O O6 0.181743 0.920755 0.955952
O O7 0.051359 0.926922 0.006867
O O8 0.718801 0.519240 0.839517
O O9 0.736451 0.533227 0.094651
O O10 0.624213 0.086084 0.734415
O O11 0.637545 0.916274 0.643987
O O12 0.576065 0.250000 0.099408
O O13 0.508559 0.109887 0.203149
O O14 0.549227 0.105697 0.948082
O O15 0.563395 0.250000 0.791129
#
# Coordination Sequence:
#
# PCOD9360921 Si02
#       7
#     8   8   4   8   8   8   8
#     4  10  21  39  61  88 123 159 199 246 296 350
#     4  10  21  39  62  87 123 163 196 241 301 354
#     4  10  20  36  64  94 120 152 206 248 286 350
#     4  11  24  39  60  89 121 154 208 244 294 356
#     4  12  23  40  63  88 118 161 198 252 298 359
#     4  10  23  41  62  88 119 157 201 250 304 362
#     4  10  23  41  61  88 120 155 201 252 304 361
#
# _framework density 18.974339000000001
#
# number of rings (size 3 to 8) (size 9 to 14) (size 15 to 20)
#    0.000    1.538    3.077    1.385    2.154    3.692 
#    0.000    0.000    0.000    0.000    0.000    0.000 
#    0.000    0.000    0.000    0.000    0.000    0.000 
#
# Total GULP energy -145151.879003 kJ/mol
# GULP energy per Si atom -5582.764577 kJ/mol
# Density = 1.893115 g / cm^3
# Si number density = 18.974339 Si / 1000 Ang^3
#
#
#
# Elastic Constant Matrix: (Units=GPa)
#
#
# Indices 1 2 3 4 5 6 
#
# 1 76.8890 31.3728 19.7166 0.0000 0.0000 0.0000
# 2 31.3728 113.0887 27.1950 0.0000 0.0000 0.0000
# 3 19.7166 27.1950 82.2049 0.0000 0.0000 0.0000
# 4 0.0000 0.0000 0.0000 23.5008 0.0000 0.0000
# 5 0.0000 0.0000 0.0000 0.0000 37.6387 0.0000
# 6 0.0000 0.0000 0.0000 0.0000 0.0000 8.7901
#
#
#
# Elastic Compliance Matrix: (Units=1/GPa)
#
#
# Indices 1 2 3 4 5 6 
#
# 1 0.015099 -0.003605 -0.002429 0.000000 0.000000 0.000000
# 2 -0.003605 0.010467 -0.002598 0.000000 0.000000 0.000000
# 3 -0.002429 -0.002598 0.013607 0.000000 0.000000 0.000000
# 4 0.000000 0.000000 0.000000 0.042552 0.000000 0.000000
# 5 0.000000 0.000000 0.000000 0.000000 0.026568 0.000000
# 6 0.000000 0.000000 0.000000 0.000000 0.000000 0.113764
#
#
# Mechanical properties :
#
#
# Convention : Reuss Voigt Hill
#
# Bulk Modulus (GPa) = 45.64181 47.63903 46.64042
# Shear Modulus (GPa) = 20.27369 26.91246 23.59308
#
# Velocity S-wave (km/s) = 3.27231 3.77020 3.53004
# Velocity P-wave (km/s) = 6.19548 6.64185 6.42254
#
# Compressibility (1/GPa) = 0.02190973
#
# Stress axis : x y z
#
# Youngs Moduli (GPa) = 66.22751 95.53431 73.49225
#
# Poissons Ratio (x) = 0.34438 0.17852
# Poissons Ratio (y) = 0.23873 0.19095
# Poissons Ratio (z) = 0.16087 0.24822
#
# Static dielectric constant tensor:
#      x y z
#    x 1.645630 0.000000 0.000000 
#    y 0.000000 1.662140 0.000000 
#    z 0.000000 0.000000 1.643810 
# 
# From -- ./inp_files/3950.got.cif
#   From: 2010.05.17/outbox.cif.g08.bks.cpg/sg39_2_cif.got.tgz:3950.got - 2010.06.03 18:22:40.
