data_PCOD9360230
_publ_section_title
;
Structure prediction by ZEFSAII (Michael W. Deem and Ramdas Pophale) SiO2 
 PCOD9360230
Probable space group: A B M 2
;
_chemical_formula_sum "Si O2"
_cell_formula_units_Z 60
_cell_length_a 11.044808
_cell_length_b 16.470117
_cell_length_c 18.658391
_cell_angle_alpha 90.000000
_cell_angle_beta 90.000000
_cell_angle_gamma 90.000000
_cell_volume 3394.134473
_symmetry_space_group_name_H-M "A B M 2"
_symmetry_group_IT_number 39
_symmetry_cell_setting 'orthorhombic'
loop_
_space_group_symop_operation_xyz
x,y,z
-x,-y,z
-x,1/2+y,z
x,1/2-y,z
x,1/2+y,1/2+z
-x,1/2-y,1/2+z
-x,y,1/2+z
x,-y,1/2+z
loop_
_atom_site_type_symbol
_atom_site_label
_atom_site_fract_x
_atom_site_fract_y
_atom_site_fract_z
Si Si1 0.381202 0.051380 0.927140
Si Si2 0.862472 0.342918 0.260011
Si Si3 0.910546 0.577237 0.608982
Si Si4 0.122067 0.657817 0.544847
Si Si5 0.500000 0.000000 0.709939
Si Si6 0.115743 0.943239 0.400524
Si Si7 0.696479 0.967567 0.087931
Si Si8 0.581492 0.158166 0.298181
O O1 0.251058 0.017236 0.898097
O O2 0.401206 0.134030 0.882017
O O3 0.500000 0.000000 0.910030
O O4 0.371577 0.052840 0.013564
O O5 0.907524 0.250000 0.258255
O O6 0.894688 0.391916 0.189151
O O7 0.906940 0.392357 0.328941
O O8 0.717227 0.339734 0.266671
O O9 0.783436 0.546045 0.577827
O O10 0.000000 0.500000 0.605553
O O11 0.982868 0.646351 0.567287
O O12 0.158918 0.750000 0.543134
O O13 0.131529 0.617093 0.467249
O O14 0.210277 0.607233 0.597249
O O15 0.611932 0.016433 0.655721
O O16 0.480862 0.081687 0.757552
O O17 0.000000 0.000000 0.414030
O O18 0.530183 0.250000 0.290218
#
# Coordination Sequence:
#
# PCOD9360230 Si02
#       8
#     8   8   8   8   4   8   8   8
#     4  10  19  36  60  82 111 154 198 237 292 354
#     4  10  19  33  54  83 111 146 192 239 287 349
#     4  10  19  34  54  81 113 147 187 233 289 350
#     4  10  20  35  55  80 113 152 192 240 291 349
#     4  12  20  38  62  84 124 158 188 252 304 352
#     4  10  20  35  56  83 111 148 192 245 288 352
#     4  10  21  34  59  87 112 150 194 238 296 356
#     4  10  22  37  58  86 115 156 203 243 292 355
#
# _framework density 17.677555000000002
#
# number of rings (size 3 to 8) (size 9 to 14) (size 15 to 20)
#    0.000    1.867    2.667    3.200    0.000    3.733 
#    0.000    0.000    0.000    6.400    0.000    0.000 
#    0.000    0.000    0.000    0.000    0.000    0.000 
#
# Total GULP energy -167023.534085 kJ/mol
# GULP energy per Si atom -5567.451136 kJ/mol
# Density = 1.763732 g / cm^3
# Si number density = 17.677555 Si / 1000 Ang^3
#
#
#
# Elastic Constant Matrix: (Units=GPa)
#
#
# Indices 1 2 3 4 5 6 
#
# 1 75.2721 36.5034 14.3525 0.0000 0.0000 0.0000
# 2 36.5034 94.0130 25.7062 0.0000 0.0000 0.0000
# 3 14.3525 25.7062 90.9718 0.0000 0.0000 0.0000
# 4 0.0000 0.0000 0.0000 -46.4872 0.0000 0.0000
# 5 0.0000 0.0000 0.0000 0.0000 14.2253 0.0000
# 6 0.0000 0.0000 0.0000 0.0000 0.0000 -9.5925
#
#
#
# Elastic Compliance Matrix: (Units=1/GPa)
#
#
# Indices 1 2 3 4 5 6 
#
# 1 0.016428 -0.006145 -0.000855 0.000000 0.000000 0.000000
# 2 -0.006145 0.013826 -0.002937 0.000000 0.000000 0.000000
# 3 -0.000855 -0.002937 0.011957 0.000000 0.000000 0.000000
# 4 0.000000 0.000000 0.000000 -0.021511 0.000000 0.000000
# 5 0.000000 0.000000 0.000000 0.000000 0.070297 0.000000
# 6 0.000000 0.000000 0.000000 0.000000 0.000000 -0.104249
#
#
# Mechanical properties :
#
#
# Convention : Reuss Voigt Hill
#
# Bulk Modulus (GPa) = 44.77047 45.93122 45.35085
# Shear Modulus (GPa) = 355.37742 3.87545 179.62644
#
# Velocity S-wave (km/s) = 14.19400 1.48225 10.09125
# Velocity P-wave (km/s) = 17.14664 5.38225 12.70779
#
# Compressibility (1/GPa) = 0.02233615
#
# Stress axis : x y z
#
# Youngs Moduli (GPa) = 60.87097 72.32802 83.63021
#
# Poissons Ratio (x) = 0.44444 0.07154
# Poissons Ratio (y) = 0.37404 0.24565
# Poissons Ratio (z) = 0.05207 0.21245
#
# Static dielectric constant tensor:
#      x y z
#    x 1.652770 0.000000 0.000000 
#    y 0.000000 1.812800 0.000000 
#    z 0.000000 0.000000 1.614460 
# 
# From -- ./inp_files/12301.got.cif
#   From: 2010.05.17/outbox.cif.g08.bks.cpg/sg39_7_cif.got.tgz:12301.got - 2010.06.03 18:22:40.
