data_PCOD9360707
_publ_section_title
;
Structure prediction by ZEFSAII (Michael W. Deem and Ramdas Pophale) SiO2 
 PCOD9360707
Probable space group: A B M 2
;
_chemical_formula_sum "Si O2"
_cell_formula_units_Z 64
_cell_length_a 20.925361
_cell_length_b 8.742367
_cell_length_c 19.709550
_cell_angle_alpha 90.000000
_cell_angle_beta 90.000000
_cell_angle_gamma 90.000000
_cell_volume 3605.609604
_symmetry_space_group_name_H-M "A B M 2"
_symmetry_group_IT_number 39
_symmetry_cell_setting 'orthorhombic'
loop_
_space_group_symop_operation_xyz
x,y,z
-x,-y,z
-x,1/2+y,z
x,1/2-y,z
x,1/2+y,1/2+z
-x,1/2-y,1/2+z
-x,y,1/2+z
x,-y,1/2+z
loop_
_atom_site_type_symbol
_atom_site_label
_atom_site_fract_x
_atom_site_fract_y
_atom_site_fract_z
Si Si1 0.682994 0.567237 0.781300
Si Si2 0.068471 0.932461 0.026962
Si Si3 0.931109 0.932857 0.877060
Si Si4 0.685894 0.566099 0.622128
Si Si5 0.176383 0.931800 0.622256
Si Si6 0.431069 0.933514 0.870369
Si Si7 0.431668 0.566051 0.028496
Si Si8 0.178485 0.932559 0.782573
O O1 0.686019 0.750000 0.789191
O O2 0.672714 0.533118 0.701361
O O3 0.625695 0.499879 0.825320
O O4 0.751180 0.494636 0.800698
O O5 0.064263 0.750000 0.021938
O O6 0.081428 0.002047 0.952468
O O7 0.000000 0.000000 0.049197
O O8 0.123582 0.982658 0.078217
O O9 0.934480 0.750000 0.879531
O O10 0.875779 0.988127 0.827006
O O11 0.000000 0.000000 0.855699
O O12 0.693392 0.750000 0.615412
O O13 0.752517 0.487064 0.603275
O O14 0.627040 0.515930 0.575361
O O15 0.170547 0.750000 0.612338
O O16 0.168427 0.964876 0.702509
O O17 0.432215 0.750000 0.865608
O O18 0.500000 0.000000 0.849630
O O19 0.421316 0.976446 0.949638
O O20 0.500000 0.500000 0.050271
O O21 0.435037 0.750000 0.031883
O O22 0.176328 0.750000 0.792309
#
# Coordination Sequence:
#
# PCOD9360707 Si02
#       8
#     8   8   8   8   8   8   8   8
#     4  10  20  35  55  79 108 141 178 221 268 321
#     4  11  22  38  59  82 112 146 182 225 272 323
#     4  11  22  38  59  83 112 144 182 226 273 326
#     4   9  19  36  55  77 106 140 178 220 268 319
#     4  10  21  37  57  82 111 144 184 226 269 321
#     4  10  20  35  54  76 105 139 177 221 269 323
#     4   9  19  35  54  76 103 136 174 217 263 314
#     4  10  21  38  58  81 111 146 184 226 272 323
#
# _framework density 17.750119000000002
#
# number of rings (size 3 to 8) (size 9 to 14) (size 15 to 20)
#    0.000    2.000    0.000    4.500    0.000    5.000 
#    0.000    5.000    0.000    0.000    0.000    0.000 
#    0.000    0.000    0.000    0.000    0.000    0.000 
#
# Total GULP energy -178729.323413 kJ/mol
# GULP energy per Si atom -5585.291357 kJ/mol
# Density = 1.770972 g / cm^3
# Si number density = 17.750119 Si / 1000 Ang^3
#
#
#
# Elastic Constant Matrix: (Units=GPa)
#
#
# Indices 1 2 3 4 5 6 
#
# 1 191.5837 86.4777 103.7301 0.0000 0.0000 0.0000
# 2 86.4777 99.6835 57.7844 0.0000 0.0000 0.0000
# 3 103.7301 57.7844 70.7861 0.0000 0.0000 0.0000
# 4 0.0000 0.0000 0.0000 26.4737 0.0000 0.0000
# 5 0.0000 0.0000 0.0000 0.0000 42.7911 0.0000
# 6 0.0000 0.0000 0.0000 0.0000 0.0000 39.1381
#
#
#
# Elastic Compliance Matrix: (Units=1/GPa)
#
#
# Indices 1 2 3 4 5 6 
#
# 1 0.025306 -0.000868 -0.036376 0.000000 0.000000 0.000000
# 2 -0.000868 0.019073 -0.014298 0.000000 0.000000 0.000000
# 3 -0.036376 -0.014298 0.079104 0.000000 0.000000 0.000000
# 4 0.000000 0.000000 0.000000 0.037773 0.000000 0.000000
# 5 0.000000 0.000000 0.000000 0.000000 0.023369 0.000000
# 6 0.000000 0.000000 0.000000 0.000000 0.000000 0.025551
#
#
# Mechanical properties :
#
#
# Convention : Reuss Voigt Hill
#
# Bulk Modulus (GPa) = 49.01909 95.33752 72.17831
# Shear Modulus (GPa) = 15.62206 29.28464 22.45335
#
# Velocity S-wave (km/s) = 2.96988 4.06621 3.56050
# Velocity P-wave (km/s) = 6.27984 8.71051 7.59307
#
# Compressibility (1/GPa) = 0.02040022
#
# Stress axis : x y z
#
# Youngs Moduli (GPa) = 39.51564 52.43073 12.64153
#
# Poissons Ratio (x) = 0.04549 0.45985
# Poissons Ratio (y) = 0.03428 0.18075
# Poissons Ratio (z) = 1.43742 0.74967
#
# Static dielectric constant tensor:
#      x y z
#    x 1.572620 0.000000 0.000000 
#    y 0.000000 1.594410 0.000000 
#    z 0.000000 0.000000 1.591410 
# 
# From -- ./inp_files/13132.got.cif
#   From: 2010.05.17/outbox.cif.g08.bks.cpg/sg39_7_cif.got.tgz:13132.got - 2010.06.03 18:22:40.
