data_PCOD9360495
_publ_section_title
;
Structure prediction by ZEFSAII (Michael W. Deem and Ramdas Pophale) SiO2 
 PCOD9360495
Probable space group: A B M 2
;
_chemical_formula_sum "Si O2"
_cell_formula_units_Z 64
_cell_length_a 9.280333
_cell_length_b 27.109042
_cell_length_c 13.894547
_cell_angle_alpha 90.000000
_cell_angle_beta 90.000000
_cell_angle_gamma 90.000000
_cell_volume 3495.603154
_symmetry_space_group_name_H-M "A B M 2"
_symmetry_group_IT_number 39
_symmetry_cell_setting 'orthorhombic'
loop_
_space_group_symop_operation_xyz
x,y,z
-x,-y,z
-x,1/2+y,z
x,1/2-y,z
x,1/2+y,1/2+z
-x,1/2-y,1/2+z
-x,y,1/2+z
x,-y,1/2+z
loop_
_atom_site_type_symbol
_atom_site_label
_atom_site_fract_x
_atom_site_fract_y
_atom_site_fract_z
Si Si1 0.618748 0.460273 0.841000
Si Si2 0.840567 0.019359 0.680784
Si Si3 0.760006 0.193824 0.232266
Si Si4 0.800348 0.135705 0.656763
Si Si5 0.926912 0.660394 0.547478
Si Si6 0.266593 0.565529 0.047322
Si Si7 0.056030 0.191750 0.330112
Si Si8 0.485893 0.617258 0.191162
O O1 0.500000 0.500000 0.869719
O O2 0.737261 0.486139 0.772987
O O3 0.544393 0.418502 0.775023
O O4 0.689261 0.439151 0.936846
O O5 0.835572 0.077362 0.657535
O O6 0.780585 0.986253 0.593622
O O7 0.000000 0.000000 0.702320
O O8 0.716749 0.250000 0.251252
O O9 0.835871 0.189991 0.127265
O O10 0.625614 0.157198 0.232166
O O11 0.889275 0.179450 0.304742
O O12 0.846874 0.159311 0.758752
O O13 0.629397 0.140972 0.644884
O O14 0.906419 0.160221 0.579388
O O15 0.862186 0.605183 0.554358
O O16 0.910560 0.680475 0.440492
O O17 0.398222 0.586176 0.111689
O O18 0.074923 0.250000 0.309770
#
# Coordination Sequence:
#
# PCOD9360495 Si02
#       8
#     8   8   8   8   8   8   8   8
#     4  11  24  37  60  86 119 164 201 244 299 356
#     4  11  22  42  59  87 124 160 205 254 289 357
#     4   9  20  38  62  86 117 157 194 242 307 358
#     4  10  22  37  61  87 117 155 201 245 298 350
#     4  10  19  38  60  88 118 152 200 249 296 355
#     4  11  23  40  57  87 124 163 203 243 305 353
#     4  10  21  39  63  88 118 153 197 253 303 359
#     4  10  22  41  58  86 124 159 198 251 291 364
#
# _framework density 18.308714999999999
#
# number of rings (size 3 to 8) (size 9 to 14) (size 15 to 20)
#    0.000    1.750    2.500    1.875    3.500    2.500 
#    2.250    0.000    0.000    3.750    0.000    0.000 
#    0.000    0.000    0.000    0.000    0.000    0.000 
#
# Total GULP energy -178633.511841 kJ/mol
# GULP energy per Si atom -5582.297245 kJ/mol
# Density = 1.826704 g / cm^3
# Si number density = 18.308715 Si / 1000 Ang^3
#
#
#
# Elastic Constant Matrix: (Units=GPa)
#
#
# Indices 1 2 3 4 5 6 
#
# 1 108.9270 28.0901 16.4336 0.0000 0.0000 0.0000
# 2 28.0901 54.6848 6.0950 0.0000 0.0000 0.0000
# 3 16.4336 6.0950 82.7526 0.0000 0.0000 0.0000
# 4 0.0000 0.0000 0.0000 20.7709 0.0000 0.0000
# 5 0.0000 0.0000 0.0000 0.0000 16.1937 0.0000
# 6 0.0000 0.0000 0.0000 0.0000 0.0000 18.6316
#
#
#
# Elastic Compliance Matrix: (Units=1/GPa)
#
#
# Indices 1 2 3 4 5 6 
#
# 1 0.010829 -0.005367 -0.001755 0.000000 0.000000 0.000000
# 2 -0.005367 0.021098 -0.000488 0.000000 0.000000 0.000000
# 3 -0.001755 -0.000488 0.012469 0.000000 0.000000 0.000000
# 4 0.000000 0.000000 0.000000 0.048144 0.000000 0.000000
# 5 0.000000 0.000000 0.000000 0.000000 0.061752 0.000000
# 6 0.000000 0.000000 0.000000 0.000000 0.000000 0.053672
#
#
# Mechanical properties :
#
#
# Convention : Reuss Voigt Hill
#
# Bulk Modulus (GPa) = 34.27579 38.62241 36.44910
# Shear Modulus (GPa) = 21.46742 24.16894 22.81818
#
# Velocity S-wave (km/s) = 3.42793 3.63723 3.53413
# Velocity P-wave (km/s) = 5.86765 6.22737 6.05018
#
# Compressibility (1/GPa) = 0.02917511
#
# Stress axis : x y z
#
# Youngs Moduli (GPa) = 92.34176 47.39799 80.20059
#
# Poissons Ratio (x) = 0.25439 0.14077
# Poissons Ratio (y) = 0.49561 0.03915
# Poissons Ratio (z) = 0.16208 0.02313
#
# Static dielectric constant tensor:
#      x y z
#    x 1.631380 0.000000 0.000000 
#    y 0.000000 1.630570 0.000000 
#    z 0.000000 0.000000 1.600420 
# 
# From -- ./inp_files/5394.got.cif
#   From: 2010.05.17/outbox.cif.g08.bks.cpg/sg39_3_cif.got.tgz:5394.got - 2010.06.03 18:22:40.
