data_PCOD9360456
_publ_section_title
;
Structure prediction by ZEFSAII (Michael W. Deem and Ramdas Pophale) SiO2 
 PCOD9360456
Probable space group: A B M 2
;
_chemical_formula_sum "Si O2"
_cell_formula_units_Z 60
_cell_length_a 20.683623
_cell_length_b 10.005519
_cell_length_c 14.889561
_cell_angle_alpha 90.000000
_cell_angle_beta 90.000000
_cell_angle_gamma 90.000000
_cell_volume 3081.400350
_symmetry_space_group_name_H-M "A B M 2"
_symmetry_group_IT_number 39
_symmetry_cell_setting 'orthorhombic'
loop_
_space_group_symop_operation_xyz
x,y,z
-x,-y,z
-x,1/2+y,z
x,1/2-y,z
x,1/2+y,1/2+z
-x,1/2-y,1/2+z
-x,y,1/2+z
x,-y,1/2+z
loop_
_atom_site_type_symbol
_atom_site_label
_atom_site_fract_x
_atom_site_fract_y
_atom_site_fract_z
Si Si1 0.238681 0.094903 0.807470
Si Si2 0.649138 0.905572 0.551174
Si Si3 0.000000 0.000000 0.196957
Si Si4 0.206722 0.098690 0.596028
Si Si5 0.436848 0.591195 0.673155
Si Si6 0.908615 0.400356 0.550420
Si Si7 0.643123 0.402213 0.849470
Si Si8 0.902447 0.409098 0.350730
O O1 0.248718 0.250000 0.834408
O O2 0.226511 0.092760 0.700589
O O3 0.171584 0.041345 0.849092
O O4 0.300108 0.006460 0.830478
O O5 0.640699 0.750000 0.583053
O O6 0.726375 0.927908 0.544175
O O7 0.620162 0.916904 0.451678
O O8 0.617952 0.016554 0.614561
O O9 0.055830 0.955342 0.265991
O O10 0.964145 0.903949 0.125844
O O11 0.185312 0.250000 0.575927
O O12 0.148845 0.998916 0.577171
O O13 0.500000 0.500000 0.660398
O O14 0.445151 0.750000 0.651366
O O15 0.412683 0.582831 0.775942
O O16 0.882648 0.250000 0.544738
O O17 0.930704 0.437518 0.449384
O O18 0.668700 0.250000 0.840562
O O19 0.898413 0.250000 0.340265
#
# Coordination Sequence:
#
# PCOD9360456 Si02
#       8
#     8   8   4   8   8   8   8   8
#     4  10  19  36  62  87 117 158 193 237 300 361
#     4  10  21  40  64  91 123 159 200 245 298 355
#     4  12  22  40  58  80 114 156 200 244 300 358
#     4  10  20  37  63  90 121 158 191 240 305 360
#     4  11  24  41  61  88 123 163 202 246 293 344
#     4  11  24  39  61  88 113 150 199 250 297 355
#     4  10  22  39  62  93 124 153 196 251 296 345
#     4  10  22  40  57  81 117 152 193 243 299 360
#
# _framework density 19.471667
#
# number of rings (size 3 to 8) (size 9 to 14) (size 15 to 20)
#    0.000    1.600    2.667    2.000    0.000    3.200 
#    0.000    2.667    0.000    0.000    0.000    0.000 
#    0.000    0.000    0.000    0.000    0.000    0.000 
#
# Total GULP energy -167343.556629 kJ/mol
# GULP energy per Si atom -5578.118554 kJ/mol
# Density = 1.942735 g / cm^3
# Si number density = 19.471667 Si / 1000 Ang^3
#
#
#
# Elastic Constant Matrix: (Units=GPa)
#
#
# Indices 1 2 3 4 5 6 
#
# 1 52.0667 42.2135 1.4049 0.0000 0.0000 0.0000
# 2 42.2135 96.8032 26.7602 0.0000 0.0000 0.0000
# 3 1.4049 26.7602 81.4968 0.0000 0.0000 0.0000
# 4 0.0000 0.0000 0.0000 22.3626 0.0000 0.0000
# 5 0.0000 0.0000 0.0000 0.0000 14.0332 0.0000
# 6 0.0000 0.0000 0.0000 0.0000 0.0000 20.3601
#
#
#
# Elastic Compliance Matrix: (Units=1/GPa)
#
#
# Indices 1 2 3 4 5 6 
#
# 1 0.031021 -0.014715 0.004297 0.000000 0.000000 0.000000
# 2 -0.014715 0.018342 -0.005769 0.000000 0.000000 0.000000
# 3 0.004297 -0.005769 0.014091 0.000000 0.000000 0.000000
# 4 0.000000 0.000000 0.000000 0.044717 0.000000 0.000000
# 5 0.000000 0.000000 0.000000 0.000000 0.071260 0.000000
# 6 0.000000 0.000000 0.000000 0.000000 0.000000 0.049116
#
#
# Mechanical properties :
#
#
# Convention : Reuss Voigt Hill
#
# Bulk Modulus (GPa) = 32.17613 41.23601 36.70607
# Shear Modulus (GPa) = 18.43112 22.01705 20.22409
#
# Velocity S-wave (km/s) = 3.07996 3.36627 3.22629
# Velocity P-wave (km/s) = 5.40450 6.02764 5.72456
#
# Compressibility (1/GPa) = 0.03107894
#
# Stress axis : x y z
#
# Youngs Moduli (GPa) = 32.23649 54.51958 70.96891
#
# Poissons Ratio (x) = 0.80227 -0.30496
# Poissons Ratio (y) = 0.47437 0.40943
# Poissons Ratio (z) = -0.13852 0.31453
#
# Static dielectric constant tensor:
#      x y z
#    x 1.689450 0.000000 0.000000 
#    y 0.000000 1.676770 0.000000 
#    z 0.000000 0.000000 1.704970 
# 
# From -- ./inp_files/10536.got.cif
#   From: 2010.05.17/outbox.cif.g08.bks.cpg/sg39_6_cif.got.tgz:10536.got - 2010.06.03 18:22:40.
