data_PCOD9360244
_publ_section_title
;
Structure prediction by ZEFSAII (Michael W. Deem and Ramdas Pophale) SiO2 
 PCOD9360244
Probable space group: A B M 2
;
_chemical_formula_sum "Si O2"
_cell_formula_units_Z 64
_cell_length_a 24.676803
_cell_length_b 9.160101
_cell_length_c 15.564391
_cell_angle_alpha 90.000000
_cell_angle_beta 90.000000
_cell_angle_gamma 90.000000
_cell_volume 3518.206192
_symmetry_space_group_name_H-M "A B M 2"
_symmetry_group_IT_number 39
_symmetry_cell_setting 'orthorhombic'
loop_
_space_group_symop_operation_xyz
x,y,z
-x,-y,z
-x,1/2+y,z
x,1/2-y,z
x,1/2+y,1/2+z
-x,1/2-y,1/2+z
-x,y,1/2+z
x,-y,1/2+z
loop_
_atom_site_type_symbol
_atom_site_label
_atom_site_fract_x
_atom_site_fract_y
_atom_site_fract_z
Si Si1 0.834491 0.075469 0.449660
Si Si2 0.945074 0.420097 0.901981
Si Si3 0.758430 0.925554 0.791067
Si Si4 0.945512 0.919898 0.193975
Si Si5 0.367846 0.073895 0.797955
Si Si6 0.558149 0.574662 0.156180
Si Si7 0.173938 0.574884 0.642892
Si Si8 0.557131 0.575765 0.957199
O O1 0.843665 0.250000 0.443432
O O2 0.793159 0.031698 0.374855
O O3 0.811648 0.045760 0.544255
O O4 0.891601 0.996050 0.437719
O O5 0.946833 0.250000 0.924683
O O6 0.942411 0.431041 0.797765
O O7 0.000000 0.500000 0.929959
O O8 0.761678 0.750000 0.783402
O O9 0.695461 0.964678 0.799894
O O10 0.786385 0.998562 0.709278
O O11 0.950195 0.750000 0.170829
O O12 0.888236 0.975367 0.158238
O O13 0.000000 0.000000 0.165192
O O14 0.372301 0.250000 0.786824
O O15 0.397872 0.035489 0.887197
O O16 0.398480 0.992949 0.720904
O O17 0.500000 0.500000 0.173768
O O18 0.554370 0.750000 0.166104
O O19 0.571794 0.541680 0.056180
O O20 0.174796 0.750000 0.657523
O O21 0.500000 0.500000 0.937104
O O22 0.549380 0.750000 0.952505
#
# Coordination Sequence:
#
# PCOD9360244 Si02
#       8
#     8   8   8   8   8   8   8   8
#     4  10  21  37  58  81 108 144 184 227 279 334
#     4  10  19  33  55  81 111 143 177 221 275 333
#     4  10  22  39  57  79 109 146 187 231 277 321
#     4   9  18  32  52  78 106 138 172 215 268 324
#     4  10  21  37  56  80 112 148 187 230 272 322
#     4  10  20  35  57  86 116 149 184 223 273 325
#     4  10  21  38  58  81 109 142 182 227 275 329
#     4   9  19  35  56  82 115 148 180 220 268 322
#
# _framework density 18.191088000000001
#
# number of rings (size 3 to 8) (size 9 to 14) (size 15 to 20)
#    0.000    2.250    1.250    1.125    0.000    5.500 
#    0.000    3.750    0.000    0.000    0.000    0.000 
#    0.000    0.000    0.000    0.000    0.000    0.000 
#
# Total GULP energy -178648.377898 kJ/mol
# GULP energy per Si atom -5582.761809 kJ/mol
# Density = 1.814968 g / cm^3
# Si number density = 18.191088 Si / 1000 Ang^3
#
#
#
# Elastic Constant Matrix: (Units=GPa)
#
#
# Indices 1 2 3 4 5 6 
#
# 1 167.6270 58.8944 105.3506 0.0000 0.0000 0.0000
# 2 58.8944 39.0350 57.8665 0.0000 0.0000 0.0000
# 3 105.3506 57.8665 118.0557 0.0000 0.0000 0.0000
# 4 0.0000 0.0000 0.0000 17.1782 0.0000 0.0000
# 5 0.0000 0.0000 0.0000 0.0000 -8.0536 0.0000
# 6 0.0000 0.0000 0.0000 0.0000 0.0000 30.8760
#
#
#
# Elastic Compliance Matrix: (Units=1/GPa)
#
#
# Indices 1 2 3 4 5 6 
#
# 1 0.014560 -0.009900 -0.008141 0.000000 0.000000 0.000000
# 2 -0.009900 0.100443 -0.040399 0.000000 0.000000 0.000000
# 3 -0.008141 -0.040399 0.035537 0.000000 0.000000 0.000000
# 4 0.000000 0.000000 0.000000 0.058213 0.000000 0.000000
# 5 0.000000 0.000000 0.000000 0.000000 -0.124167 0.000000
# 6 0.000000 0.000000 0.000000 0.000000 0.000000 0.032388
#
#
# Mechanical properties :
#
#
# Convention : Reuss Voigt Hill
#
# Bulk Modulus (GPa) = 29.70760 85.43786 57.57273
# Shear Modulus (GPa) = 20.40204 14.84052 17.62128
#
# Velocity S-wave (km/s) = 3.35257 2.85934 3.11573
# Velocity P-wave (km/s) = 5.59934 7.61380 6.68291
#
# Compressibility (1/GPa) = 0.03366142
#
# Stress axis : x y z
#
# Youngs Moduli (GPa) = 68.68096 9.95588 28.13946
#
# Poissons Ratio (x) = 0.09856 0.22907
# Poissons Ratio (y) = 0.67993 1.13681
# Poissons Ratio (z) = 0.55911 0.40221
#
# Static dielectric constant tensor:
#      x y z
#    x 1.589780 0.000000 0.000000 
#    y 0.000000 1.610160 0.000000 
#    z 0.000000 0.000000 1.632630 
# 
# From -- ./inp_files/10563.got.cif
#   From: 2010.05.17/outbox.cif.g08.bks.cpg/sg39_6_cif.got.tgz:10563.got - 2010.06.03 18:22:40.
