data_PCOD9360204
_publ_section_title
;
Structure prediction by ZEFSAII (Michael W. Deem and Ramdas Pophale) SiO2 
 PCOD9360204
Probable space group: A B M 2
;
_chemical_formula_sum "Si O2"
_cell_formula_units_Z 64
_cell_length_a 14.931232
_cell_length_b 7.799854
_cell_length_c 25.993085
_cell_angle_alpha 90.000000
_cell_angle_beta 90.000000
_cell_angle_gamma 90.000000
_cell_volume 3027.191840
_symmetry_space_group_name_H-M "A B M 2"
_symmetry_group_IT_number 39
_symmetry_cell_setting 'orthorhombic'
loop_
_space_group_symop_operation_xyz
x,y,z
-x,-y,z
-x,1/2+y,z
x,1/2-y,z
x,1/2+y,1/2+z
-x,1/2-y,1/2+z
-x,y,1/2+z
x,-y,1/2+z
loop_
_atom_site_type_symbol
_atom_site_label
_atom_site_fract_x
_atom_site_fract_y
_atom_site_fract_z
Si Si1 0.396045 0.549318 0.780550
Si Si2 0.752061 0.961345 0.203568
Si Si3 0.895202 0.455210 0.009243
Si Si4 0.895554 0.456435 0.785622
Si Si5 0.744541 0.547548 0.087123
Si Si6 0.605551 0.046295 0.392570
Si Si7 0.894311 0.543970 0.397387
Si Si8 0.604813 0.042767 0.504470
O O1 0.500000 0.500000 0.778204
O O2 0.393742 0.750000 0.773311
O O3 0.334231 0.476317 0.735646
O O4 0.358555 0.516575 0.837986
O O5 0.753342 0.750000 0.202672
O O6 0.836963 0.016542 0.237699
O O7 0.751272 0.021968 0.144839
O O8 0.887359 0.250000 0.009625
O O9 0.835528 0.526179 0.055085
O O10 0.000000 0.500000 0.014454
O O11 0.861741 0.520840 0.952956
O O12 0.888345 0.250000 0.787261
O O13 0.862018 0.521111 0.841815
O O14 0.000000 0.500000 0.780110
O O15 0.726316 0.750000 0.092490
O O16 0.665659 0.475563 0.050803
O O17 0.614401 0.250000 0.392237
O O18 0.637338 0.979014 0.448030
O O19 0.500000 0.000000 0.391821
O O20 0.883787 0.750000 0.397764
O O21 0.000000 0.500000 0.397429
O O22 0.611703 0.250000 0.503376
O O23 0.500000 0.000000 0.510538
#
# Coordination Sequence:
#
# PCOD9360204 Si02
#       8
#     8   8   8   8   8   8   8   8
#     4  10  19  33  53  77 103 135 169 208 256 306
#     4   9  20  36  53  72 100 137 175 208 249 301
#     4  10  20  35  55  80 106 136 170 210 258 309
#     4   9  17  33  54  76 100 130 164 203 249 299
#     4  10  21  38  54  73 103 139 177 218 257 302
#     4   9  16  29  49  76 104 131 164 206 255 310
#     4   8  15  28  49  75 102 126 158 201 248 300
#     4   9  19  34  54  77 104 136 171 212 262 311
#
# _framework density 21.141705999999999
#
# number of rings (size 3 to 8) (size 9 to 14) (size 15 to 20)
#    0.000    2.750    0.000    1.875    0.000    3.500 
#    0.000    5.625    0.000    0.000    0.000    0.000 
#    0.000    0.000    0.000    0.000    0.000    0.000 
#
# Total GULP energy -178445.455462 kJ/mol
# GULP energy per Si atom -5576.420483 kJ/mol
# Density = 2.109359 g / cm^3
# Si number density = 21.141706 Si / 1000 Ang^3
#
#
#
# Elastic Constant Matrix: (Units=GPa)
#
#
# Indices 1 2 3 4 5 6 
#
# 1 98.8777 -9.9739 89.5678 0.0000 0.0000 0.0000
# 2 -9.9739 26.4870 3.7863 0.0000 0.0000 0.0000
# 3 89.5678 3.7863 250.4133 0.0000 0.0000 0.0000
# 4 0.0000 0.0000 0.0000 15.2777 0.0000 0.0000
# 5 0.0000 0.0000 0.0000 0.0000 33.3360 0.0000
# 6 0.0000 0.0000 0.0000 0.0000 0.0000 -1.3007
#
#
#
# Elastic Compliance Matrix: (Units=1/GPa)
#
#
# Indices 1 2 3 4 5 6 
#
# 1 0.016133 0.006915 -0.005875 0.000000 0.000000 0.000000
# 2 0.006915 0.040800 -0.003090 0.000000 0.000000 0.000000
# 3 -0.005875 -0.003090 0.006141 0.000000 0.000000 0.000000
# 4 0.000000 0.000000 0.000000 0.065455 0.000000 0.000000
# 5 0.000000 0.000000 0.000000 0.000000 0.029998 0.000000
# 6 0.000000 0.000000 0.000000 0.000000 0.000000 -0.768818
#
#
# Mechanical properties :
#
#
# Convention : Reuss Voigt Hill
#
# Bulk Modulus (GPa) = 16.95682 60.28207 38.61944
# Shear Modulus (GPa) = -8.52467 28.95578 10.21555
#
# Velocity S-wave (km/s) = -2.01020 3.70483 2.20055
# Velocity P-wave (km/s) = 1.62791 6.84663 4.97626
#
# Compressibility (1/GPa) = 0.05897332
#
# Stress axis : x y z
#
# Youngs Moduli (GPa) = 61.98572 24.50991 162.82768
#
# Poissons Ratio (x) = -0.16948 0.95660
# Poissons Ratio (y) = -0.42861 0.50316
# Poissons Ratio (z) = 0.36416 0.07574
#
# Static dielectric constant tensor:
#      x y z
#    x 1.763330 0.000000 0.000000 
#    y 0.000000 1.946850 0.000000 
#    z 0.000000 0.000000 1.802580 
# 
# From -- ./inp_files/16273.got.cif
#   From: 2010.05.17/outbox.cif.g08.bks.cpg/sg39_9_cif.got.tgz:16273.got - 2010.06.03 18:22:40.
