data_PCOD9360667
_publ_section_title
;
Structure prediction by ZEFSAII (Michael W. Deem and Ramdas Pophale) SiO2 
 PCOD9360667
Probable space group: A B M 2
;
_chemical_formula_sum "Si O2"
_cell_formula_units_Z 64
_cell_length_a 15.152642
_cell_length_b 8.600214
_cell_length_c 25.192809
_cell_angle_alpha 90.000000
_cell_angle_beta 90.000000
_cell_angle_gamma 90.000000
_cell_volume 3283.025187
_symmetry_space_group_name_H-M "A B M 2"
_symmetry_group_IT_number 39
_symmetry_cell_setting 'orthorhombic'
loop_
_space_group_symop_operation_xyz
x,y,z
-x,-y,z
-x,1/2+y,z
x,1/2-y,z
x,1/2+y,1/2+z
-x,1/2-y,1/2+z
-x,y,1/2+z
x,-y,1/2+z
loop_
_atom_site_type_symbol
_atom_site_label
_atom_site_fract_x
_atom_site_fract_y
_atom_site_fract_z
Si Si1 0.900148 0.063740 0.572730
Si Si2 0.592629 0.435112 0.200240
Si Si3 0.091249 0.935724 0.889164
Si Si4 0.788965 0.065127 0.170383
Si Si5 0.833592 0.932465 0.281285
Si Si6 0.593437 0.563256 0.936345
Si Si7 0.219999 0.437226 0.974480
Si Si8 0.348688 0.063158 0.818053
O O1 0.905608 0.250000 0.570160
O O2 0.839843 0.006846 0.523376
O O3 0.846638 0.014449 0.625122
O O4 0.000000 0.000000 0.571619
O O5 0.500000 0.500000 0.179350
O O6 0.591673 0.250000 0.193861
O O7 0.686194 0.490569 0.175250
O O8 0.598243 0.466792 0.263688
O O9 0.095440 0.750000 0.893687
O O10 0.098437 0.977660 0.827109
O O11 0.170631 0.011425 0.921315
O O12 0.000000 0.000000 0.911717
O O13 0.787730 0.250000 0.161799
O O14 0.832802 0.028550 0.227307
O O15 0.842274 0.750000 0.268982
O O16 0.740001 0.966692 0.309201
O O17 0.500000 0.500000 0.955016
O O18 0.591421 0.750000 0.938362
O O19 0.678696 0.508772 0.969695
O O20 0.607814 0.520696 0.874081
O O21 0.221853 0.250000 0.976775
O O22 0.329482 0.250000 0.819275
#
# Coordination Sequence:
#
# PCOD9360667 Si02
#       8
#     8   8   8   8   8   8   8   8
#     4  11  24  43  67  91 113 147 196 248 302 357
#     4   9  18  31  51  82 116 155 197 236 285 339
#     4  11  23  36  56  86 118 154 194 236 292 356
#     4  10  22  40  61  86 118 155 196 245 298 350
#     4  10  20  34  54  84 119 155 195 240 291 349
#     4  10  20  34  55  84 119 159 200 242 290 346
#     4  10  22  41  63  86 118 155 195 245 296 348
#     4   9  17  31  51  77 115 160 200 240 286 339
#
# _framework density 19.494216999999999
#
# number of rings (size 3 to 8) (size 9 to 14) (size 15 to 20)
#    0.000    2.000    1.250    3.000    0.000    7.500 
#    0.000    1.875    0.000    3.000    0.000    0.000 
#    0.000    0.000    0.000    0.000    0.000    0.000 
#
# Total GULP energy -178537.957808 kJ/mol
# GULP energy per Si atom -5579.311181 kJ/mol
# Density = 1.944985 g / cm^3
# Si number density = 19.494217 Si / 1000 Ang^3
#
#
#
# Elastic Constant Matrix: (Units=GPa)
#
#
# Indices 1 2 3 4 5 6 
#
# 1 164.9177 29.4237 62.6182 0.0000 0.0000 0.0000
# 2 29.4237 1.0291 16.6065 0.0000 0.0000 0.0000
# 3 62.6182 16.6065 83.7070 0.0000 0.0000 0.0000
# 4 0.0000 0.0000 0.0000 15.1361 0.0000 0.0000
# 5 0.0000 0.0000 0.0000 0.0000 25.0521 0.0000
# 6 0.0000 0.0000 0.0000 0.0000 0.0000 30.9165
#
#
#
# Elastic Compliance Matrix: (Units=1/GPa)
#
#
# Indices 1 2 3 4 5 6 
#
# 1 0.004071 0.030548 -0.009106 0.000000 0.000000 0.000000
# 2 0.030548 -0.212165 0.019239 0.000000 0.000000 0.000000
# 3 -0.009106 0.019239 0.014941 0.000000 0.000000 0.000000
# 4 0.000000 0.000000 0.000000 0.066067 0.000000 0.000000
# 5 0.000000 0.000000 0.000000 0.000000 0.039917 0.000000
# 6 0.000000 0.000000 0.000000 0.000000 0.000000 0.032345
#
#
# Mechanical properties :
#
#
# Convention : Reuss Voigt Hill
#
# Bulk Modulus (GPa) = -8.94535 51.88337 21.46901
# Shear Modulus (GPa) = -28.82658 23.62131 -2.60263
#
# Velocity S-wave (km/s) = -3.84959 3.48474 -1.15671
# Velocity P-wave (km/s) = 4.93536 6.54704 3.04187
#
# Compressibility (1/GPa) = -0.11178991
#
# Stress axis : x y z
#
# Youngs Moduli (GPa) = 245.65879 -4.71331 66.92891
#
# Poissons Ratio (x) = 0.14398 0.60943
# Poissons Ratio (y) = -7.50449 -1.28764
# Poissons Ratio (z) = 2.23686 0.09068
#
# Static dielectric constant tensor:
#      x y z
#    x 1.566080 0.000000 0.000000 
#    y 0.000000 1.674650 0.000000 
#    z 0.000000 0.000000 1.689700 
# 
# From -- ./inp_files/16271.got.cif
#   From: 2010.05.17/outbox.cif.g08.bks.cpg/sg39_9_cif.got.tgz:16271.got - 2010.06.03 18:22:40.
