data_PCOD9360837
_publ_section_title
;
Structure prediction by ZEFSAII (Michael W. Deem and Ramdas Pophale) SiO2 
 PCOD9360837
Probable space group: A B M 2
;
_chemical_formula_sum "Si O2"
_cell_formula_units_Z 48
_cell_length_a 9.539468
_cell_length_b 8.692424
_cell_length_c 31.454036
_cell_angle_alpha 90.000000
_cell_angle_beta 90.000000
_cell_angle_gamma 90.000000
_cell_volume 2608.203283
_symmetry_space_group_name_H-M "A B M 2"
_symmetry_group_IT_number 39
_symmetry_cell_setting 'orthorhombic'
loop_
_space_group_symop_operation_xyz
x,y,z
-x,-y,z
-x,1/2+y,z
x,1/2-y,z
x,1/2+y,1/2+z
-x,1/2-y,1/2+z
-x,y,1/2+z
x,-y,1/2+z
loop_
_atom_site_type_symbol
_atom_site_label
_atom_site_fract_x
_atom_site_fract_y
_atom_site_fract_z
Si Si1 0.157161 0.935556 0.562230
Si Si2 0.845081 0.066480 0.812189
Si Si3 0.344665 0.565762 0.386477
Si Si4 0.157307 0.065044 0.214907
Si Si5 0.655926 0.935116 0.982197
Si Si6 0.657287 0.065716 0.139406
O O1 0.153445 0.750000 0.564889
O O2 0.234456 0.981538 0.518341
O O3 0.250755 0.001110 0.600460
O O4 0.000000 0.000000 0.564334
O O5 0.848063 0.250000 0.815768
O O6 0.801167 0.028775 0.763702
O O7 0.749230 0.998024 0.848791
O O8 0.000000 0.000000 0.817476
O O9 0.500000 0.500000 0.381288
O O10 0.347015 0.750000 0.384626
O O11 0.298879 0.519570 0.434380
O O12 0.154447 0.250000 0.209725
O O13 0.264529 0.990901 0.181960
O O14 0.000000 0.000000 0.207945
O O15 0.645573 0.750000 0.983201
O O16 0.500000 0.000000 0.990224
O O17 0.653252 0.250000 0.137886
O O18 0.500000 0.000000 0.137333
#
# Coordination Sequence:
#
# PCOD9360837 Si02
#       6
#     8   8   8   8   8   8
#     4  11  23  40  60  85 116 150 189 231 279 333
#     4  10  21  37  58  84 114 150 190 233 282 335
#     4  10  20  36  57  83 115 151 191 234 282 334
#     4  10  21  39  61  85 114 149 189 232 281 335
#     4   9  20  37  58  83 112 148 189 233 281 334
#     4  12  25  41  61  86 115 148 187 231 281 335
#
# _framework density 18.403473000000002
#
# number of rings (size 3 to 8) (size 9 to 14) (size 15 to 20)
#    0.000    1.667    0.000    4.500    0.000    6.667 
#    0.000    1.667    0.000    0.000    0.000    0.000 
#    0.000    0.000    0.000    0.000    0.000    0.000 
#
# Total GULP energy -134105.300263 kJ/mol
# GULP energy per Si atom -5587.720844 kJ/mol
# Density = 1.836159 g / cm^3
# Si number density = 18.403473 Si / 1000 Ang^3
#
#
#
# Elastic Constant Matrix: (Units=GPa)
#
#
# Indices 1 2 3 4 5 6 
#
# 1 148.3119 64.7583 134.9303 0.0000 0.0000 0.0000
# 2 64.7583 92.3205 81.1550 0.0000 0.0000 0.0000
# 3 134.9303 81.1550 196.7076 0.0000 0.0000 0.0000
# 4 0.0000 0.0000 0.0000 17.9555 0.0000 0.0000
# 5 0.0000 0.0000 0.0000 0.0000 43.4562 0.0000
# 6 0.0000 0.0000 0.0000 0.0000 0.0000 38.2187
#
#
#
# Elastic Compliance Matrix: (Units=1/GPa)
#
#
# Indices 1 2 3 4 5 6 
#
# 1 0.018398 -0.002843 -0.011447 0.000000 0.000000 0.000000
# 2 -0.002843 0.017435 -0.005243 0.000000 0.000000 0.000000
# 3 -0.011447 -0.005243 0.015099 0.000000 0.000000 0.000000
# 4 0.000000 0.000000 0.000000 0.055693 0.000000 0.000000
# 5 0.000000 0.000000 0.000000 0.000000 0.023012 0.000000
# 6 0.000000 0.000000 0.000000 0.000000 0.000000 0.026165
#
#
# Mechanical properties :
#
#
# Convention : Reuss Voigt Hill
#
# Bulk Modulus (GPa) = 84.27525 111.00300 97.63913
# Shear Modulus (GPa) = 25.14787 30.35919 27.75353
#
# Velocity S-wave (km/s) = 3.70060 4.06599 3.88759
# Velocity P-wave (km/s) = 8.00948 9.08242 8.56277
#
# Compressibility (1/GPa) = 0.01186588
#
# Stress axis : x y z
#
# Youngs Moduli (GPa) = 54.35281 57.35657 66.22881
#
# Poissons Ratio (x) = 0.16304 0.75815
# Poissons Ratio (y) = 0.15450 0.34725
# Poissons Ratio (z) = 0.62220 0.30073
#
# Static dielectric constant tensor:
#      x y z
#    x 1.579620 0.000000 0.000000 
#    y 0.000000 1.634280 0.000000 
#    z 0.000000 0.000000 1.645230 
# 
# From -- ./inp_files/17587.got.cif
#   From: 2010.05.17/outbox.cif.g08.bks.cpg/sg39_9_cif.got.tgz:17587.got - 2010.06.03 18:22:40.
