data_PCOD9360680
_publ_section_title
;
Structure prediction by ZEFSAII (Michael W. Deem and Ramdas Pophale) SiO2 
 PCOD9360680
Probable space group: A B M 2
;
_chemical_formula_sum "Si O2"
_cell_formula_units_Z 60
_cell_length_a 20.169015
_cell_length_b 9.545476
_cell_length_c 15.021409
_cell_angle_alpha 90.000000
_cell_angle_beta 90.000000
_cell_angle_gamma 90.000000
_cell_volume 2891.964451
_symmetry_space_group_name_H-M "A B M 2"
_symmetry_group_IT_number 39
_symmetry_cell_setting 'orthorhombic'
loop_
_space_group_symop_operation_xyz
x,y,z
-x,-y,z
-x,1/2+y,z
x,1/2-y,z
x,1/2+y,1/2+z
-x,1/2-y,1/2+z
-x,y,1/2+z
x,-y,1/2+z
loop_
_atom_site_type_symbol
_atom_site_label
_atom_site_fract_x
_atom_site_fract_y
_atom_site_fract_z
Si Si1 0.936720 0.086727 0.582600
Si Si2 0.231345 0.907123 0.307945
Si Si3 0.980286 0.250000 0.823604
Si Si4 0.787969 0.917546 0.136272
Si Si5 0.564026 0.084799 0.220002
Si Si6 0.912477 0.465974 0.373451
Si Si7 0.628677 0.912018 0.905426
Si Si8 0.668539 0.415773 0.066099
O O1 0.947492 0.250000 0.606184
O O2 0.865090 0.045271 0.619809
O O3 0.932547 0.068100 0.475821
O O4 0.000000 0.000000 0.614281
O O5 0.232661 0.750000 0.266196
O O6 0.296191 0.917005 0.368035
O O7 0.230238 0.026331 0.233580
O O8 0.163522 0.923425 0.361970
O O9 0.039095 0.369616 0.815914
O O10 0.926216 0.125494 0.847242
O O11 0.781192 0.750000 0.126193
O O12 0.737535 0.999947 0.072445
O O13 0.550016 0.250000 0.216205
O O14 0.583189 0.049666 0.321454
O O15 0.627216 0.060702 0.156756
O O16 0.500000 0.000000 0.190538
O O17 0.615289 0.750000 0.931517
O O18 0.625712 0.017996 0.986748
O O19 0.679213 0.250000 0.054533
#
# Coordination Sequence:
#
# PCOD9360680 Si02
#       8
#     8   8   4   8   8   8   8   8
#     4  11  21  39  57  82 114 157 207 267 331 391
#     4  11  22  41  62  86 122 168 209 268 332 387
#     4  10  20  34  56  82 112 150 204 266 320 388
#     4  11  25  41  60  88 126 166 217 274 329 390
#     4  10  23  44  70 100 142 179 213 265 321 381
#     4  11  19  37  58  82 109 156 204 263 325 390
#     4  10  22  43  69  97 134 175 220 268 321 383
#     4  11  23  44  69 100 135 176 225 269 322 389
#
# _framework density 20.747142
#
# number of rings (size 3 to 8) (size 9 to 14) (size 15 to 20)
#    0.000    1.333    4.000    1.600    0.933    5.867 
#    4.800    2.667    0.000    0.000    0.000    0.000 
#    0.000    0.000    0.000    0.000    0.000    0.000 
#
# Total GULP energy -167187.796097 kJ/mol
# GULP energy per Si atom -5572.926537 kJ/mol
# Density = 2.069992 g / cm^3
# Si number density = 20.747142 Si / 1000 Ang^3
#
#
#
# Elastic Constant Matrix: (Units=GPa)
#
#
# Indices 1 2 3 4 5 6 
#
# 1 86.3986 46.0496 6.1538 0.0000 0.0000 0.0000
# 2 46.0496 125.4616 26.1063 0.0000 0.0000 0.0000
# 3 6.1538 26.1063 52.8880 0.0000 0.0000 0.0000
# 4 0.0000 0.0000 0.0000 15.0707 0.0000 0.0000
# 5 0.0000 0.0000 0.0000 0.0000 17.5474 0.0000
# 6 0.0000 0.0000 0.0000 0.0000 0.0000 32.6230
#
#
#
# Elastic Compliance Matrix: (Units=1/GPa)
#
#
# Indices 1 2 3 4 5 6 
#
# 1 0.014441 -0.005517 0.001043 0.000000 0.000000 0.000000
# 2 -0.005517 0.010991 -0.004783 0.000000 0.000000 0.000000
# 3 0.001043 -0.004783 0.021148 0.000000 0.000000 0.000000
# 4 0.000000 0.000000 0.000000 0.066354 0.000000 0.000000
# 5 0.000000 0.000000 0.000000 0.000000 0.056989 0.000000
# 6 0.000000 0.000000 0.000000 0.000000 0.000000 0.030653
#
#
# Mechanical properties :
#
#
# Convention : Reuss Voigt Hill
#
# Bulk Modulus (GPa) = 35.63253 46.81864 41.22558
# Shear Modulus (GPa) = 21.88713 25.47745 23.68229
#
# Velocity S-wave (km/s) = 3.25152 3.50808 3.38223
# Velocity P-wave (km/s) = 5.59539 6.24693 5.93012
#
# Compressibility (1/GPa) = 0.02806424
#
# Stress axis : x y z
#
# Youngs Moduli (GPa) = 69.24883 90.98340 47.28664
#
# Poissons Ratio (x) = 0.50199 -0.04933
# Poissons Ratio (y) = 0.38207 0.22619
# Poissons Ratio (z) = -0.07224 0.43521
#
# Static dielectric constant tensor:
#      x y z
#    x 1.751230 0.000000 0.000000 
#    y 0.000000 1.728940 0.000000 
#    z 0.000000 0.000000 1.804750 
# 
# From -- ./inp_files/12980.got.cif
#   From: 2010.05.17/outbox.cif.g08.bks.cpg/sg39_7_cif.got.tgz:12980.got - 2010.06.03 18:22:40.
