data_PCOD9360821
_publ_section_title
;
Structure prediction by ZEFSAII (Michael W. Deem and Ramdas Pophale) SiO2 
 PCOD9360821
Probable space group: A B M 2
;
_chemical_formula_sum "Si O2"
_cell_formula_units_Z 48
_cell_length_a 16.123416
_cell_length_b 8.827414
_cell_length_c 19.163239
_cell_angle_alpha 90.000000
_cell_angle_beta 90.000000
_cell_angle_gamma 90.000000
_cell_volume 2727.466786
_symmetry_space_group_name_H-M "A B M 2"
_symmetry_group_IT_number 39
_symmetry_cell_setting 'orthorhombic'
loop_
_space_group_symop_operation_xyz
x,y,z
-x,-y,z
-x,1/2+y,z
x,1/2-y,z
x,1/2+y,1/2+z
-x,1/2-y,1/2+z
-x,y,1/2+z
x,-y,1/2+z
loop_
_atom_site_type_symbol
_atom_site_label
_atom_site_fract_x
_atom_site_fract_y
_atom_site_fract_z
Si Si1 0.586399 0.574352 0.403730
Si Si2 0.911549 0.431617 0.817044
Si Si3 0.237324 0.067001 0.560137
Si Si4 0.762077 0.069127 0.406321
Si Si5 0.416032 0.923366 0.073775
Si Si6 0.914516 0.568890 0.663125
O O1 0.500000 0.500000 0.379701
O O2 0.590861 0.750000 0.383112
O O3 0.670522 0.488062 0.383333
O O4 0.584090 0.570389 0.488832
O O5 0.914873 0.250000 0.819124
O O6 0.835021 0.493742 0.861681
O O7 0.901001 0.490324 0.737793
O O8 0.000000 0.500000 0.841616
O O9 0.243558 0.250000 0.547884
O O10 0.325333 0.015209 0.592918
O O11 0.161343 0.039898 0.611411
O O12 0.226860 0.985696 0.486191
O O13 0.766025 0.250000 0.401690
O O14 0.419664 0.750000 0.095725
O O15 0.500000 0.000000 0.098710
O O16 0.922874 0.750000 0.673039
O O17 0.000000 0.500000 0.634270
#
# Coordination Sequence:
#
# PCOD9360821 Si02
#       6
#     8   8   8   8   8   8
#     4   9  16  28  46  71 103 137 172 210 255 304
#     4  11  22  38  57  76 101 133 172 214 259 313
#     4   9  19  34  51  74 106 138 168 209 258 304
#     4  11  21  33  52  79 108 138 174 215 260 305
#     4   8  14  25  42  66  96 130 164 199 242 291
#     4  10  20  36  56  76 100 132 170 209 254 309
#
# _framework density 17.598746999999999
#
# number of rings (size 3 to 8) (size 9 to 14) (size 15 to 20)
#    0.000    2.333    0.000    6.000    0.000    6.000 
#    0.000    1.667    0.000    1.000    0.000    4.667 
#    0.000    0.000    0.000    0.000    0.000    0.000 
#
# Total GULP energy -133820.756452 kJ/mol
# GULP energy per Si atom -5575.864852 kJ/mol
# Density = 1.755869 g / cm^3
# Si number density = 17.598747 Si / 1000 Ang^3
#
#
#
# Elastic Constant Matrix: (Units=GPa)
#
#
# Indices 1 2 3 4 5 6 
#
# 1 211.7055 97.1759 63.0389 0.0000 0.0000 0.0000
# 2 97.1759 131.2520 37.4438 0.0000 0.0000 0.0000
# 3 63.0389 37.4438 29.9724 0.0000 0.0000 0.0000
# 4 0.0000 0.0000 0.0000 19.0766 0.0000 0.0000
# 5 0.0000 0.0000 0.0000 0.0000 -20.8228 0.0000
# 6 0.0000 0.0000 0.0000 0.0000 0.0000 35.5349
#
#
#
# Elastic Compliance Matrix: (Units=1/GPa)
#
#
# Indices 1 2 3 4 5 6 
#
# 1 0.013315 -0.002904 -0.024377 0.000000 0.000000 0.000000
# 2 -0.002904 0.012471 -0.009472 0.000000 0.000000 0.000000
# 3 -0.024377 -0.009472 0.096469 0.000000 0.000000 0.000000
# 4 0.000000 0.000000 0.000000 0.052420 0.000000 0.000000
# 5 0.000000 0.000000 0.000000 0.000000 -0.048024 0.000000
# 6 0.000000 0.000000 0.000000 0.000000 0.000000 0.028141
#
#
# Mechanical properties :
#
#
# Convention : Reuss Voigt Hill
#
# Bulk Modulus (GPa) = 20.51362 85.36077 52.93719
# Shear Modulus (GPa) = 20.44581 18.44250 19.44415
#
# Velocity S-wave (km/s) = 3.41218 3.24071 3.32755
# Velocity P-wave (km/s) = 5.21590 7.91278 6.70141
#
# Compressibility (1/GPa) = 0.04874811
#
# Stress axis : x y z
#
# Youngs Moduli (GPa) = 75.10208 80.18469 10.36605
#
# Poissons Ratio (x) = 0.23285 0.25270
# Poissons Ratio (y) = 0.21809 0.09819
# Poissons Ratio (z) = 1.83078 0.75954
#
# Static dielectric constant tensor:
#      x y z
#    x 1.627010 0.000000 0.000000 
#    y 0.000000 1.596150 0.000000 
#    z 0.000000 0.000000 1.572720 
# 
# From -- ./inp_files/12669.got.cif
#   From: 2010.05.17/outbox.cif.g08.bks.cpg/sg39_7_cif.got.tgz:12669.got - 2010.06.03 18:22:40.
