data_PCOD9360347
_publ_section_title
;
Structure prediction by ZEFSAII (Michael W. Deem and Ramdas Pophale) SiO2 
 PCOD9360347
Probable space group: A B M 2
;
_chemical_formula_sum "Si O2"
_cell_formula_units_Z 64
_cell_length_a 13.003919
_cell_length_b 13.699671
_cell_length_c 18.727047
_cell_angle_alpha 90.000000
_cell_angle_beta 90.000000
_cell_angle_gamma 90.000000
_cell_volume 3336.212412
_symmetry_space_group_name_H-M "A B M 2"
_symmetry_group_IT_number 39
_symmetry_cell_setting 'orthorhombic'
loop_
_space_group_symop_operation_xyz
x,y,z
-x,-y,z
-x,1/2+y,z
x,1/2-y,z
x,1/2+y,1/2+z
-x,1/2-y,1/2+z
-x,y,1/2+z
x,-y,1/2+z
loop_
_atom_site_type_symbol
_atom_site_label
_atom_site_fract_x
_atom_site_fract_y
_atom_site_fract_z
Si Si1 0.390736 0.472346 0.880400
Si Si2 0.065252 0.866964 0.721197
Si Si3 0.841264 0.366481 0.183794
Si Si4 0.416693 0.632332 0.653002
Si Si5 0.384958 0.132910 0.733635
Si Si6 0.705305 0.367078 0.511779
Si Si7 0.724153 0.367397 0.793029
Si Si8 0.110683 0.021365 0.074116
O O1 0.500000 0.500000 0.913412
O O2 0.416135 0.413672 0.808178
O O3 0.324218 0.565937 0.855096
O O4 0.335167 0.402755 0.936071
O O5 0.069652 0.750000 0.715854
O O6 0.156305 0.892450 0.776220
O O7 0.094200 0.912155 0.644740
O O8 0.944123 0.893293 0.729345
O O9 0.842382 0.250000 0.174684
O O10 0.732913 0.394103 0.218303
O O11 0.848257 0.420923 0.108142
O O12 0.419369 0.750000 0.648230
O O13 0.532759 0.602243 0.673565
O O14 0.367822 0.600149 0.578160
O O15 0.341740 0.611604 0.720481
O O16 0.389679 0.250000 0.739031
O O17 0.715806 0.250000 0.514479
O O18 0.812177 0.421564 0.524854
O O19 0.715909 0.250000 0.806408
O O20 0.000000 0.000000 0.040971
#
# Coordination Sequence:
#
# PCOD9360347 Si02
#       8
#     8   8   8   8   8   8   8   8
#     4  12  25  39  57  87 121 164 198 247 315 377
#     4   9  16  31  58  90 117 148 200 258 303 347
#     4   9  19  32  53  89 126 156 194 253 309 351
#     4   9  18  35  63  88 111 148 198 249 293 348
#     4  10  20  36  57  85 122 160 198 247 305 365
#     4  11  24  42  62  91 124 160 207 256 308 370
#     4  10  19  36  62  89 115 154 206 253 298 360
#     4  10  19  34  58  86 117 157 201 251 306 363
#
# _framework density 19.183430999999999
#
# number of rings (size 3 to 8) (size 9 to 14) (size 15 to 20)
#    0.000    2.000    2.500    1.500    0.000    2.000 
#    0.000    1.875    0.000    1.500    0.000    0.000 
#    0.000    0.000    0.000    0.000    0.000    0.000 
#
# Total GULP energy -178555.837770 kJ/mol
# GULP energy per Si atom -5579.869930 kJ/mol
# Density = 1.913977 g / cm^3
# Si number density = 19.183431 Si / 1000 Ang^3
#
#
#
# Elastic Constant Matrix: (Units=GPa)
#
#
# Indices 1 2 3 4 5 6 
#
# 1 131.7855 40.5756 27.0318 0.0000 0.0000 0.0000
# 2 40.5756 69.2008 16.0470 0.0000 0.0000 0.0000
# 3 27.0318 16.0470 50.0256 0.0000 0.0000 0.0000
# 4 0.0000 0.0000 0.0000 27.8444 0.0000 0.0000
# 5 0.0000 0.0000 0.0000 0.0000 15.3727 0.0000
# 6 0.0000 0.0000 0.0000 0.0000 0.0000 27.0221
#
#
#
# Elastic Compliance Matrix: (Units=1/GPa)
#
#
# Indices 1 2 3 4 5 6 
#
# 1 0.009873 -0.004918 -0.003757 0.000000 0.000000 0.000000
# 2 -0.004918 0.018061 -0.003136 0.000000 0.000000 0.000000
# 3 -0.003757 -0.003136 0.023026 0.000000 0.000000 0.000000
# 4 0.000000 0.000000 0.000000 0.035914 0.000000 0.000000
# 5 0.000000 0.000000 0.000000 0.000000 0.065050 0.000000
# 6 0.000000 0.000000 0.000000 0.000000 0.000000 0.037007
#
#
# Mechanical properties :
#
#
# Convention : Reuss Voigt Hill
#
# Bulk Modulus (GPa) = 36.57963 46.48008 41.52986
# Shear Modulus (GPa) = 22.55637 25.20502 23.88070
#
# Velocity S-wave (km/s) = 3.43275 3.62870 3.53209
# Velocity P-wave (km/s) = 5.90097 6.46827 6.19112
#
# Compressibility (1/GPa) = 0.02733762
#
# Stress axis : x y z
#
# Youngs Moduli (GPa) = 101.28720 55.36661 43.42879
#
# Poissons Ratio (x) = 0.27227 0.16318
# Poissons Ratio (y) = 0.49809 0.13621
# Poissons Ratio (z) = 0.38058 0.17365
#
# Static dielectric constant tensor:
#      x y z
#    x 1.739260 0.000000 0.000000 
#    y 0.000000 1.698570 0.000000 
#    z 0.000000 0.000000 1.618500 
# 
# From -- ./inp_files/12363.got.cif
#   From: 2010.05.17/outbox.cif.g08.bks.cpg/sg39_7_cif.got.tgz:12363.got - 2010.06.03 18:22:40.
