data_PCOD9360449
_publ_section_title
;
Structure prediction by ZEFSAII (Michael W. Deem and Ramdas Pophale) SiO2 
 PCOD9360449
Probable space group: A B M 2
;
_chemical_formula_sum "Si O2"
_cell_formula_units_Z 64
_cell_length_a 15.880858
_cell_length_b 8.552841
_cell_length_c 24.397554
_cell_angle_alpha 90.000000
_cell_angle_beta 90.000000
_cell_angle_gamma 90.000000
_cell_volume 3313.833232
_symmetry_space_group_name_H-M "A B M 2"
_symmetry_group_IT_number 39
_symmetry_cell_setting 'orthorhombic'
loop_
_space_group_symop_operation_xyz
x,y,z
-x,-y,z
-x,1/2+y,z
x,1/2-y,z
x,1/2+y,1/2+z
-x,1/2-y,1/2+z
-x,y,1/2+z
x,-y,1/2+z
loop_
_atom_site_type_symbol
_atom_site_label
_atom_site_fract_x
_atom_site_fract_y
_atom_site_fract_z
Si Si1 0.747273 0.562129 0.184060
Si Si2 0.747273 0.562129 0.560844
Si Si3 0.656229 0.438745 0.372452
Si Si4 0.408977 0.562515 0.254034
Si Si5 0.090212 0.061550 0.254153
Si Si6 0.153190 0.060981 0.372452
Si Si7 0.090212 0.938450 0.990751
Si Si8 0.408977 0.437485 0.990870
O O1 0.745056 0.750000 0.183950
O O2 0.748363 0.500000 0.122452
O O3 0.665887 0.500150 0.216212
O O4 0.831604 0.511455 0.216464
O O5 0.745056 0.750000 0.560954
O O6 0.831604 0.511455 0.528440
O O7 0.665887 0.500150 0.528692
O O8 0.659850 0.250000 0.372452
O O9 0.610274 0.489049 0.316685
O O10 0.750892 0.503227 0.372452
O O11 0.610274 0.489049 0.428219
O O12 0.500000 0.500000 0.236973
O O13 0.409038 0.750000 0.252400
O O14 0.088404 0.250000 0.254136
O O15 0.108455 0.007990 0.316574
O O16 0.000000 0.000000 0.235475
O O17 0.154049 0.250000 0.372452
O O18 0.108455 0.007990 0.428330
O O19 0.088404 0.750000 0.990768
O O20 0.000000 0.000000 0.009429
O O21 0.500000 0.500000 0.007931
O O22 0.409038 0.250000 0.992504
#
# Coordination Sequence:
#
# PCOD9360449 Si02
#       8
#     8   8   8   8   8   8   8   8
#     4  11  24  43  64  88 119 159 205 255 304 355
#     4  11  24  43  64  88 119 159 205 255 304 355
#     4  10  21  36  60  93 125 159 197 241 297 358
#     4  11  23  40  63  93 125 160 200 245 299 359
#     4  10  22  38  61  90 122 159 199 245 300 358
#     4  10  19  36  60  89 123 159 197 243 299 360
#     4  10  22  38  61  90 122 159 199 245 300 358
#     4  11  23  40  63  93 125 160 200 245 299 359
#
# _framework density 19.312982000000002
#
# number of rings (size 3 to 8) (size 9 to 14) (size 15 to 20)
#    0.000    1.500    2.500    2.250    0.000    5.000 
#    0.000    5.000    0.000    0.000    0.000    0.000 
#    0.000    0.000    0.000    0.000    0.000    0.000 
#
# Total GULP energy -178890.300679 kJ/mol
# GULP energy per Si atom -5590.321896 kJ/mol
# Density = 1.926903 g / cm^3
# Si number density = 19.312982 Si / 1000 Ang^3
#
#
#
# Elastic Constant Matrix: (Units=GPa)
#
#
# Indices 1 2 3 4 5 6 
#
# 1 207.0513 38.2235 93.7292 0.0000 0.0000 0.0000
# 2 38.2235 32.5046 36.9662 0.0000 0.0000 0.0000
# 3 93.7292 36.9662 161.5523 0.0000 0.0000 0.0000
# 4 0.0000 0.0000 0.0000 7.1105 0.0000 0.0000
# 5 0.0000 0.0000 0.0000 0.0000 -0.8905 0.0000
# 6 0.0000 0.0000 0.0000 0.0000 0.0000 38.2959
#
#
#
# Elastic Compliance Matrix: (Units=1/GPa)
#
#
# Indices 1 2 3 4 5 6 
#
# 1 0.007094 -0.004949 -0.002983 0.000000 0.000000 0.000000
# 2 -0.004949 0.045040 -0.007435 0.000000 0.000000 0.000000
# 3 -0.002983 -0.007435 0.009622 0.000000 0.000000 0.000000
# 4 0.000000 0.000000 0.000000 0.140636 0.000000 0.000000
# 5 0.000000 0.000000 0.000000 0.000000 -1.123007 0.000000
# 6 0.000000 0.000000 0.000000 0.000000 0.000000 0.026112
#
#
# Mechanical properties :
#
#
# Convention : Reuss Voigt Hill
#
# Bulk Modulus (GPa) = 32.23557 82.10512 57.17035
# Shear Modulus (GPa) = -5.85872 24.38248 9.26188
#
# Velocity S-wave (km/s) = -1.74360 3.55701 2.19228
# Velocity P-wave (km/s) = 3.56003 7.71200 6.00620
#
# Compressibility (1/GPa) = 0.03102163
#
# Stress axis : x y z
#
# Youngs Moduli (GPa) = 140.96710 22.20256 103.92948
#
# Poissons Ratio (x) = 0.10989 0.31004
# Poissons Ratio (y) = 0.69768 0.77267
# Poissons Ratio (z) = 0.42054 0.16507
#
# Static dielectric constant tensor:
#      x y z
#    x 1.639440 0.000000 0.000000 
#    y 0.000000 1.662850 0.000000 
#    z 0.000000 0.000000 1.668660 
# 
# From -- ./inp_files/16137.got.cif
#   From: 2010.05.17/outbox.cif.g08.bks.cpg/sg39_9_cif.got.tgz:16137.got - 2010.06.03 18:22:40.
