data_PCOD9360221
_publ_section_title
;
Structure prediction by ZEFSAII (Michael W. Deem and Ramdas Pophale) SiO2 
 PCOD9360221
Probable space group: A B M 2
;
_chemical_formula_sum "Si O2"
_cell_formula_units_Z 60
_cell_length_a 16.913917
_cell_length_b 33.660572
_cell_length_c 5.179162
_cell_angle_alpha 90.000000
_cell_angle_beta 90.000000
_cell_angle_gamma 90.000000
_cell_volume 2948.663286
_symmetry_space_group_name_H-M "A B M 2"
_symmetry_group_IT_number 39
_symmetry_cell_setting 'orthorhombic'
loop_
_space_group_symop_operation_xyz
x,y,z
-x,-y,z
-x,1/2+y,z
x,1/2-y,z
x,1/2+y,1/2+z
-x,1/2-y,1/2+z
-x,y,1/2+z
x,-y,1/2+z
loop_
_atom_site_type_symbol
_atom_site_label
_atom_site_fract_x
_atom_site_fract_y
_atom_site_fract_z
Si Si1 0.309695 0.153283 0.636640
Si Si2 0.702134 0.477480 0.450288
Si Si3 0.105588 0.524250 0.474382
Si Si4 0.049133 0.750000 0.143444
Si Si5 0.878796 0.836667 0.610262
Si Si6 0.545714 0.202378 0.973944
Si Si7 0.889644 0.112898 0.613805
Si Si8 0.698482 0.107283 0.641074
O O1 0.216964 0.163194 0.609000
O O2 0.367561 0.187873 0.548552
O O3 0.325052 0.118107 0.430592
O O4 0.325578 0.139684 0.928043
O O5 0.679849 0.489649 0.162254
O O6 0.798183 0.474769 0.462439
O O7 0.670708 0.435349 0.544383
O O8 0.083310 0.507917 0.192802
O O9 0.078537 0.568585 0.554242
O O10 0.093746 0.708673 0.089958
O O11 0.023453 0.750000 0.442240
O O12 0.910205 0.864606 0.378426
O O13 0.904464 0.857595 0.875973
O O14 0.545066 0.250000 0.970628
O O15 0.514075 0.188440 0.697867
O O16 0.794353 0.107272 0.633088
#
# Coordination Sequence:
#
# PCOD9360221 Si02
#       8
#     8   8   8   4   8   8   8   8
#     4  10  19  33  54  76 106 139 176 215 257 322
#     4   9  15  23  37  60  97 139 170 203 258 314
#     4   9  15  23  40  68 105 145 172 203 256 321
#     4  12  26  44  62  84 112 138 184 236 270 318
#     4  10  21  36  57  79 106 146 179 228 275 316
#     4  10  21  36  53  76 106 137 169 214 261 311
#     4   9  17  31  48  75 110 141 180 217 268 322
#     4   9  17  28  44  72 103 137 175 218 258 302
#
# _framework density 20.348203999999999
#
# number of rings (size 3 to 8) (size 9 to 14) (size 15 to 20)
#    0.000    2.400    0.000    3.200    0.933    6.400 
#    0.000    0.000    0.000    0.000    0.000    0.000 
#    0.000   74.667    0.000    0.000    0.000    0.000 
#
# Total GULP energy -167479.144307 kJ/mol
# GULP energy per Si atom -5582.638144 kJ/mol
# Density = 2.030189 g / cm^3
# Si number density = 20.348204 Si / 1000 Ang^3
#
#
#
# Elastic Constant Matrix: (Units=GPa)
#
#
# Indices 1 2 3 4 5 6 
#
# 1 39.6603 4.6590 4.2860 0.0000 0.0000 0.0000
# 2 4.6590 73.1891 -6.1920 0.0000 0.0000 0.0000
# 3 4.2860 -6.1920 57.9257 0.0000 0.0000 0.0000
# 4 0.0000 0.0000 0.0000 27.2440 0.0000 0.0000
# 5 0.0000 0.0000 0.0000 0.0000 87.9547 0.0000
# 6 0.0000 0.0000 0.0000 0.0000 0.0000 2.4664
#
#
#
# Elastic Compliance Matrix: (Units=1/GPa)
#
#
# Indices 1 2 3 4 5 6 
#
# 1 0.025653 -0.001810 -0.002092 0.000000 0.000000 0.000000
# 2 -0.001810 0.013916 0.001621 0.000000 0.000000 0.000000
# 3 -0.002092 0.001621 0.017592 0.000000 0.000000 0.000000
# 4 0.000000 0.000000 0.000000 0.036705 0.000000 0.000000
# 5 0.000000 0.000000 0.000000 0.000000 0.011369 0.000000
# 6 0.000000 0.000000 0.000000 0.000000 0.000000 0.405456
#
#
# Mechanical properties :
#
#
# Convention : Reuss Voigt Hill
#
# Bulk Modulus (GPa) = 19.01144 19.58678 19.29911
# Shear Modulus (GPa) = 9.38467 34.73449 22.05958
#
# Velocity S-wave (km/s) = 2.14990 4.13607 3.29615
# Velocity P-wave (km/s) = 3.94031 5.69703 4.89807
#
# Compressibility (1/GPa) = 0.05259991
#
# Stress axis : x y z
#
# Youngs Moduli (GPa) = 38.98212 71.86167 56.84536
#
# Poissons Ratio (x) = 0.13006 0.11889
# Poissons Ratio (y) = 0.07055 -0.09217
# Poissons Ratio (z) = 0.08153 -0.11652
#
# Static dielectric constant tensor:
#      x y z
#    x 1.719610 0.000000 0.000000 
#    y 0.000000 1.708760 0.000000 
#    z 0.000000 0.000000 1.714830 
# 
# From -- ./inp_files/871.got.cif
#   From: 2010.05.17/outbox.cif.g08.bks.cpg/sg39_1_cif.got.tgz:871.got - 2010.06.03 18:22:40.
