data_PCOD9360779
_publ_section_title
;
Structure prediction by ZEFSAII (Michael W. Deem and Ramdas Pophale) SiO2 
 PCOD9360779
Probable space group: A B M 2
;
_chemical_formula_sum "Si O2"
_cell_formula_units_Z 64
_cell_length_a 25.455289
_cell_length_b 8.723038
_cell_length_c 15.057782
_cell_angle_alpha 90.000000
_cell_angle_beta 90.000000
_cell_angle_gamma 90.000000
_cell_volume 3343.542145
_symmetry_space_group_name_H-M "A B M 2"
_symmetry_group_IT_number 39
_symmetry_cell_setting 'orthorhombic'
loop_
_space_group_symop_operation_xyz
x,y,z
-x,-y,z
-x,1/2+y,z
x,1/2-y,z
x,1/2+y,1/2+z
-x,1/2-y,1/2+z
-x,y,1/2+z
x,-y,1/2+z
loop_
_atom_site_type_symbol
_atom_site_label
_atom_site_fract_x
_atom_site_fract_y
_atom_site_fract_z
Si Si1 0.056013 0.565719 0.741860
Si Si2 0.135071 0.564762 0.589766
Si Si3 0.330393 0.434123 0.743754
Si Si4 0.552818 0.433195 0.942233
Si Si5 0.669709 0.934035 0.442997
Si Si6 0.943515 0.933715 0.447381
Si Si7 0.743382 0.065913 0.593438
Si Si8 0.447033 0.066896 0.741966
O O1 0.052833 0.750000 0.739467
O O2 0.103081 0.517147 0.677855
O O3 0.064056 0.519798 0.844336
O O4 0.000000 0.500000 0.711671
O O5 0.133584 0.750000 0.584809
O O6 0.102944 0.497453 0.507498
O O7 0.195712 0.517540 0.591943
O O8 0.326899 0.250000 0.748267
O O9 0.325716 0.501864 0.842952
O O10 0.286659 0.500270 0.678916
O O11 0.389050 0.472315 0.706735
O O12 0.500000 0.500000 0.985282
O O13 0.547985 0.250000 0.938163
O O14 0.610665 0.470648 0.978564
O O15 0.554070 0.501487 0.842448
O O16 0.674379 0.750000 0.440923
O O17 0.712840 0.004938 0.507275
O O18 0.945196 0.750000 0.452474
O O19 0.000000 0.000000 0.476391
O O20 0.741288 0.250000 0.595447
O O21 0.451746 0.250000 0.744269
O O22 0.500000 0.000000 0.699495
#
# Coordination Sequence:
#
# PCOD9360779 Si02
#       8
#     8   8   8   8   8   8   8   8
#     4   9  19  36  57  83 115 146 178 218 266 321
#     4  10  22  39  57  81 113 147 187 234 278 325
#     4  10  21  38  59  83 112 147 188 235 287 344
#     4   9  16  27  48  77 106 137 175 222 279 341
#     4  10  21  38  59  82 111 148 189 235 287 343
#     4  10  20  35  58  87 117 150 184 222 272 327
#     4  11  24  40  58  82 113 151 195 242 288 336
#     4   9  16  27  48  77 107 138 175 222 277 339
#
# _framework density 19.141376999999999
#
# number of rings (size 3 to 8) (size 9 to 14) (size 15 to 20)
#    0.000    2.250    0.000    3.375    0.000    7.000 
#    0.000    1.875    0.000    0.000    0.000    0.000 
#    0.000    0.000    0.000    0.000    0.000    0.000 
#
# Total GULP energy -178617.743012 kJ/mol
# GULP energy per Si atom -5581.804469 kJ/mol
# Density = 1.909781 g / cm^3
# Si number density = 19.141377 Si / 1000 Ang^3
#
#
#
# Elastic Constant Matrix: (Units=GPa)
#
#
# Indices 1 2 3 4 5 6 
#
# 1 224.1909 61.9053 90.0617 0.0000 0.0000 0.0000
# 2 61.9053 49.6694 30.5035 0.0000 0.0000 0.0000
# 3 90.0617 30.5035 99.0458 0.0000 0.0000 0.0000
# 4 0.0000 0.0000 0.0000 24.1333 0.0000 0.0000
# 5 0.0000 0.0000 0.0000 0.0000 -24.4948 0.0000
# 6 0.0000 0.0000 0.0000 0.0000 0.0000 32.6232
#
#
#
# Elastic Compliance Matrix: (Units=1/GPa)
#
#
# Indices 1 2 3 4 5 6 
#
# 1 0.008825 -0.007487 -0.005719 0.000000 0.000000 0.000000
# 2 -0.007487 0.031181 -0.002795 0.000000 0.000000 0.000000
# 3 -0.005719 -0.002795 0.016157 0.000000 0.000000 0.000000
# 4 0.000000 0.000000 0.000000 0.041436 0.000000 0.000000
# 5 0.000000 0.000000 0.000000 0.000000 -0.040825 0.000000
# 6 0.000000 0.000000 0.000000 0.000000 0.000000 0.030653
#
#
# Mechanical properties :
#
#
# Convention : Reuss Voigt Hill
#
# Bulk Modulus (GPa) = 41.38776 81.98302 61.68539
# Shear Modulus (GPa) = 39.22043 19.14804 29.18424
#
# Velocity S-wave (km/s) = 4.53148 3.16626 3.90894
# Velocity P-wave (km/s) = 7.00344 7.50268 7.25735
#
# Compressibility (1/GPa) = 0.02416173
#
# Stress axis : x y z
#
# Youngs Moduli (GPa) = 113.31018 32.07051 61.89161
#
# Poissons Ratio (x) = 0.24012 0.35395
# Poissons Ratio (y) = 0.84838 0.17298
# Poissons Ratio (z) = 0.64801 0.08963
#
# Static dielectric constant tensor:
#      x y z
#    x 1.673370 0.000000 0.000000 
#    y 0.000000 1.640150 0.000000 
#    z 0.000000 0.000000 1.674370 
# 
# From -- ./inp_files/10663.got.cif
#   From: 2010.05.17/outbox.cif.g08.bks.cpg/sg39_6_cif.got.tgz:10663.got - 2010.06.03 18:22:40.
