data_PCOD9360165
_publ_section_title
;
Structure prediction by ZEFSAII (Michael W. Deem and Ramdas Pophale) SiO2 
 PCOD9360165
Probable space group: A B M 2
;
_chemical_formula_sum "Si O2"
_cell_formula_units_Z 64
_cell_length_a 20.147101
_cell_length_b 17.970017
_cell_length_c 8.036411
_cell_angle_alpha 90.000000
_cell_angle_beta 90.000000
_cell_angle_gamma 90.000000
_cell_volume 2909.532355
_symmetry_space_group_name_H-M "A B M 2"
_symmetry_group_IT_number 39
_symmetry_cell_setting 'orthorhombic'
loop_
_space_group_symop_operation_xyz
x,y,z
-x,-y,z
-x,1/2+y,z
x,1/2-y,z
x,1/2+y,1/2+z
-x,1/2-y,1/2+z
-x,y,1/2+z
x,-y,1/2+z
loop_
_atom_site_type_symbol
_atom_site_label
_atom_site_fract_x
_atom_site_fract_y
_atom_site_fract_z
Si Si1 0.947700 0.093497 0.394280
Si Si2 0.175791 0.668295 0.472275
Si Si3 0.293760 0.417237 0.068152
Si Si4 0.912351 0.428312 0.010347
Si Si5 0.666522 0.918454 0.680642
Si Si6 0.583432 0.163339 0.642579
Si Si7 0.473226 0.415722 0.820711
Si Si8 0.211734 0.164910 0.575903
O O1 0.902383 0.155359 0.479475
O O2 0.930833 0.085518 0.201470
O O3 0.025839 0.106165 0.410580
O O4 0.921452 0.015722 0.473206
O O5 0.196049 0.750000 0.529602
O O6 0.217490 0.606895 0.571728
O O7 0.193036 0.663699 0.274188
O O8 0.312635 0.409896 0.873492
O O9 0.340876 0.361040 0.168704
O O10 0.311436 0.499490 0.125837
O O11 0.840159 0.391244 0.987264
O O12 0.586792 0.910322 0.685364
O O13 0.712031 0.862667 0.574255
O O14 0.579247 0.250000 0.600487
O O15 0.533342 0.140412 0.786729
O O16 0.557983 0.110051 0.494067
O O17 0.500000 0.500000 0.824720
O O18 0.204462 0.250000 0.518722
#
# Coordination Sequence:
#
# PCOD9360165 Si02
#       8
#     8   8   8   8   8   8   8   8
#     4  10  19  32  54  78 105 138 178 220 270 324
#     4   9  18  33  53  77 106 138 176 220 267 323
#     4  10  20  36  57  81 107 141 185 226 271 330
#     4  10  19  33  54  79 106 140 177 227 267 323
#     4  10  21  35  60  80 106 144 184 227 273 329
#     4  11  23  37  58  85 115 149 186 234 286 335
#     4  11  22  38  59  84 115 149 189 232 281 345
#     4   9  19  35  54  79 109 142 183 228 276 327
#
# _framework density 21.996662000000001
#
# number of rings (size 3 to 8) (size 9 to 14) (size 15 to 20)
#    0.000    2.000    1.250    3.375    1.750    4.000 
#    0.000    1.250    0.000    6.750    0.000    0.000 
#    0.000    0.000    0.000    0.000    0.000    0.000 
#
# Total GULP energy -178621.028667 kJ/mol
# GULP energy per Si atom -5581.907146 kJ/mol
# Density = 2.194660 g / cm^3
# Si number density = 21.996662 Si / 1000 Ang^3
#
#
#
# Elastic Constant Matrix: (Units=GPa)
#
#
# Indices 1 2 3 4 5 6 
#
# 1 36.8631 11.3928 7.4334 0.0000 0.0000 0.0000
# 2 11.3928 63.6735 -8.9733 0.0000 0.0000 0.0000
# 3 7.4334 -8.9733 31.0956 0.0000 0.0000 0.0000
# 4 0.0000 0.0000 0.0000 -21.2630 0.0000 0.0000
# 5 0.0000 0.0000 0.0000 0.0000 9.2204 0.0000
# 6 0.0000 0.0000 0.0000 0.0000 0.0000 31.8739
#
#
#
# Elastic Compliance Matrix: (Units=1/GPa)
#
#
# Indices 1 2 3 4 5 6 
#
# 1 0.031166 -0.006907 -0.009444 0.000000 0.000000 0.000000
# 2 -0.006907 0.017902 0.006817 0.000000 0.000000 0.000000
# 3 -0.009444 0.006817 0.036384 0.000000 0.000000 0.000000
# 4 0.000000 0.000000 0.000000 -0.047030 0.000000 0.000000
# 5 0.000000 0.000000 0.000000 0.000000 0.108455 0.000000
# 6 0.000000 0.000000 0.000000 0.000000 0.000000 0.031374
#
#
# Mechanical properties :
#
#
# Convention : Reuss Voigt Hill
#
# Bulk Modulus (GPa) = 15.06381 16.81532 15.93957
# Shear Modulus (GPa) = 22.78466 12.08489 17.43478
#
# Velocity S-wave (km/s) = 3.22191 2.34646 2.81839
# Velocity P-wave (km/s) = 4.55017 3.87328 4.22530
#
# Compressibility (1/GPa) = 0.06638425
#
# Stress axis : x y z
#
# Youngs Moduli (GPa) = 32.08581 55.86049 27.48492
#
# Poissons Ratio (x) = 0.38585 0.25956
# Poissons Ratio (y) = 0.22163 -0.18737
# Poissons Ratio (z) = 0.30300 -0.38081
#
# Static dielectric constant tensor:
#      x y z
#    x 1.863140 0.000000 0.000000 
#    y 0.000000 1.787250 0.000000 
#    z 0.000000 0.000000 1.818000 
# 
# From -- ./inp_files/4021.got.cif
#   From: 2010.05.17/outbox.cif.g08.bks.cpg/sg39_3_cif.got.tgz:4021.got - 2010.06.03 18:22:40.
