data_PCOD9360008
_publ_section_title
;
Structure prediction by ZEFSAII (Michael W. Deem and Ramdas Pophale) SiO2 
 PCOD9360008
Probable space group: A B M 2
;
_chemical_formula_sum "Si O2"
_cell_formula_units_Z 52
_cell_length_a 7.311518
_cell_length_b 21.573923
_cell_length_c 14.420995
_cell_angle_alpha 90.000000
_cell_angle_beta 90.000000
_cell_angle_gamma 90.000000
_cell_volume 2274.740731
_symmetry_space_group_name_H-M "A B M 2"
_symmetry_group_IT_number 39
_symmetry_cell_setting 'orthorhombic'
loop_
_space_group_symop_operation_xyz
x,y,z
-x,-y,z
-x,1/2+y,z
x,1/2-y,z
x,1/2+y,1/2+z
-x,1/2-y,1/2+z
-x,y,1/2+z
x,-y,1/2+z
loop_
_atom_site_type_symbol
_atom_site_label
_atom_site_fract_x
_atom_site_fract_y
_atom_site_fract_z
Si Si1 0.212346 0.750000 0.909860
Si Si2 0.779776 0.653764 0.277953
Si Si3 0.747927 0.453317 0.904904
Si Si4 0.205936 0.144305 0.549191
Si Si5 0.363685 0.823198 0.571613
Si Si6 0.176859 0.319416 0.751364
Si Si7 0.676421 0.909324 0.903668
O O1 0.328985 0.805000 0.852368
O O2 0.132825 0.696226 0.980502
O O3 0.808465 0.584482 0.313765
O O4 0.704088 0.661178 0.175231
O O5 0.974210 0.688044 0.293273
O O6 0.531689 0.434510 0.907591
O O7 0.784869 0.525897 0.900130
O O8 0.819940 0.420858 0.998320
O O9 0.420065 0.162265 0.564547
O O10 0.131851 0.150773 0.652089
O O11 0.335050 0.750000 0.553773
O O12 0.279310 0.867706 0.493366
O O13 0.256155 0.250000 0.741208
O O14 0.288285 0.366758 0.814245
#
# Coordination Sequence:
#
# PCOD9360008 Si02
#       7
#     4   8   8   8   8   8   8
#     4  10  18  38  56  86 116 160 190 254 292 366
#     4  11  23  38  62  88 131 158 205 246 316 362
#     4   9  22  44  63  91 115 171 203 265 299 359
#     4  10  21  37  65  86 123 156 212 250 313 353
#     4  11  20  38  60  97 119 163 200 265 299 369
#     4  12  23  40  58  97 125 169 195 255 305 384
#     4  10  23  41  65  88 127 155 218 249 309 359
#
# _framework density 22.859749000000001
#
# number of rings (size 3 to 8) (size 9 to 14) (size 15 to 20)
#    0.000    1.538    3.077    1.385    0.000    4.308 
#    6.923    3.077    0.000    0.000    0.000    0.000 
#    0.000    0.000    0.000    0.000    0.000    0.000 
#
# Total GULP energy -144758.320303 kJ/mol
# GULP energy per Si atom -5567.627704 kJ/mol
# Density = 2.280772 g / cm^3
# Si number density = 22.859749 Si / 1000 Ang^3
#
#
#
# Elastic Constant Matrix: (Units=GPa)
#
#
# Indices 1 2 3 4 5 6 
#
# 1 40.8688 5.8511 -9.1932 0.0000 0.0000 0.0000
# 2 5.8511 160.9311 39.2403 0.0000 0.0000 0.0000
# 3 -9.1932 39.2403 117.2601 0.0000 0.0000 0.0000
# 4 0.0000 0.0000 0.0000 21.4349 0.0000 0.0000
# 5 0.0000 0.0000 0.0000 0.0000 12.5890 0.0000
# 6 0.0000 0.0000 0.0000 0.0000 0.0000 21.5669
#
#
#
# Elastic Compliance Matrix: (Units=1/GPa)
#
#
# Indices 1 2 3 4 5 6 
#
# 1 0.025247 -0.001525 0.002490 0.000000 0.000000 0.000000
# 2 -0.001525 0.006858 -0.002415 0.000000 0.000000 0.000000
# 3 0.002490 -0.002415 0.009531 0.000000 0.000000 0.000000
# 4 0.000000 0.000000 0.000000 0.046653 0.000000 0.000000
# 5 0.000000 0.000000 0.000000 0.000000 0.079434 0.000000
# 6 0.000000 0.000000 0.000000 0.000000 0.000000 0.046367
#
#
# Mechanical properties :
#
#
# Convention : Reuss Voigt Hill
#
# Bulk Modulus (GPa) = 25.81545 43.42850 34.62197
# Shear Modulus (GPa) = 21.74834 29.99561 25.87198
#
# Velocity S-wave (km/s) = 3.08779 3.62630 3.36783
# Velocity P-wave (km/s) = 4.90205 6.04752 5.50466
#
# Compressibility (1/GPa) = 0.03873649
#
# Stress axis : x y z
#
# Youngs Moduli (GPa) = 39.60879 145.81437 104.91799
#
# Poissons Ratio (x) = 0.22237 -0.26121
# Poissons Ratio (y) = 0.06040 0.25333
# Poissons Ratio (z) = -0.09861 0.35208
#
# Static dielectric constant tensor:
#      x y z
#    x 2.109400 0.000000 0.000000 
#    y 0.000000 1.793080 0.000000 
#    z 0.000000 0.000000 1.968570 
# 
# From -- ./inp_files/8540.got.cif
#   From: 2010.05.17/outbox.cif.g08.bks.cpg/sg39_5_cif.got.tgz:8540.got - 2010.06.03 18:22:40.
