data_PCOD9360853
_publ_section_title
;
Structure prediction by ZEFSAII (Michael W. Deem and Ramdas Pophale) SiO2 
 PCOD9360853
Probable space group: A B M 2
;
_chemical_formula_sum "Si O2"
_cell_formula_units_Z 64
_cell_length_a 20.159769
_cell_length_b 8.782718
_cell_length_c 20.437736
_cell_angle_alpha 90.000000
_cell_angle_beta 90.000000
_cell_angle_gamma 90.000000
_cell_volume 3618.655792
_symmetry_space_group_name_H-M "A B M 2"
_symmetry_group_IT_number 39
_symmetry_cell_setting 'orthorhombic'
loop_
_space_group_symop_operation_xyz
x,y,z
-x,-y,z
-x,1/2+y,z
x,1/2-y,z
x,1/2+y,1/2+z
-x,1/2-y,1/2+z
-x,y,1/2+z
x,-y,1/2+z
loop_
_atom_site_type_symbol
_atom_site_label
_atom_site_fract_x
_atom_site_fract_y
_atom_site_fract_z
Si Si1 0.656978 0.432119 0.968030
Si Si2 0.427565 0.932680 0.583285
Si Si3 0.303939 0.568666 0.333901
Si Si4 0.825825 0.431272 0.648334
Si Si5 0.927488 0.931444 0.752124
Si Si6 0.808250 0.568483 0.509896
Si Si7 0.322870 0.067257 0.196346
Si Si8 0.840501 0.432740 0.864065
O O1 0.651113 0.250000 0.963135
O O2 0.656218 0.505162 0.896190
O O3 0.603028 0.499983 0.016761
O O4 0.730351 0.466240 0.997442
O O5 0.430289 0.750000 0.578844
O O6 0.377160 0.973288 0.641986
O O7 0.500000 0.000000 0.595117
O O8 0.298966 0.750000 0.337184
O O9 0.333549 0.515168 0.265095
O O10 0.230301 0.496182 0.339465
O O11 0.833582 0.250000 0.655493
O O12 0.877667 0.514223 0.695242
O O13 0.833312 0.480301 0.573091
O O14 0.750750 0.471691 0.670159
O O15 0.930292 0.750000 0.754050
O O16 0.897195 0.995171 0.819806
O O17 0.000000 0.000000 0.741135
O O18 0.813780 0.750000 0.520996
O O19 0.844235 0.531803 0.441358
O O20 0.324673 0.250000 0.206139
O O21 0.839985 0.250000 0.856652
#
# Coordination Sequence:
#
# PCOD9360853 Si02
#       8
#     8   8   8   8   8   8   8   8
#     4  10  20  36  58  84 117 154 193 242 292 347
#     4  11  23  40  60  86 119 158 199 243 297 360
#     4  11  21  33  57  89 118 149 193 245 293 346
#     4  11  21  36  60  88 120 155 195 246 295 349
#     4  12  25  41  61  86 118 158 199 243 296 358
#     4   9  19  34  57  87 118 149 190 241 290 340
#     4  10  21  37  58  85 120 157 196 245 298 351
#     4  10  20  37  58  85 119 153 191 239 292 348
#
# _framework density 17.686125000000001
#
# number of rings (size 3 to 8) (size 9 to 14) (size 15 to 20)
#    0.000    1.500    2.500    4.500    0.000    4.000 
#    0.000    1.250    0.000    4.500    0.000    0.000 
#    0.000    0.000    0.000    0.000    0.000    0.000 
#
# Total GULP energy -178811.437496 kJ/mol
# GULP energy per Si atom -5587.857422 kJ/mol
# Density = 1.764587 g / cm^3
# Si number density = 17.686125 Si / 1000 Ang^3
#
#
#
# Elastic Constant Matrix: (Units=GPa)
#
#
# Indices 1 2 3 4 5 6 
#
# 1 120.4001 63.2701 75.1317 0.0000 0.0000 0.0000
# 2 63.2701 95.1187 74.5992 0.0000 0.0000 0.0000
# 3 75.1317 74.5992 147.2047 0.0000 0.0000 0.0000
# 4 0.0000 0.0000 0.0000 35.3317 0.0000 0.0000
# 5 0.0000 0.0000 0.0000 0.0000 25.6133 0.0000
# 6 0.0000 0.0000 0.0000 0.0000 0.0000 27.1139
#
#
#
# Elastic Compliance Matrix: (Units=1/GPa)
#
#
# Indices 1 2 3 4 5 6 
#
# 1 0.014089 -0.006194 -0.004052 0.000000 0.000000 0.000000
# 2 -0.006194 0.020170 -0.007061 0.000000 0.000000 0.000000
# 3 -0.004052 -0.007061 0.012440 0.000000 0.000000 0.000000
# 4 0.000000 0.000000 0.000000 0.028303 0.000000 0.000000
# 5 0.000000 0.000000 0.000000 0.000000 0.039042 0.000000
# 6 0.000000 0.000000 0.000000 0.000000 0.000000 0.036881
#
#
# Mechanical properties :
#
#
# Convention : Reuss Voigt Hill
#
# Bulk Modulus (GPa) = 82.73875 87.63615 85.18745
# Shear Modulus (GPa) = 26.37584 27.59327 26.98455
#
# Velocity S-wave (km/s) = 3.86596 3.95418 3.91032
# Velocity P-wave (km/s) = 8.17379 8.39677 8.28603
#
# Compressibility (1/GPa) = 0.01208623
#
# Stress axis : x y z
#
# Youngs Moduli (GPa) = 70.97762 49.57739 80.38852
#
# Poissons Ratio (x) = 0.30706 0.32574
# Poissons Ratio (y) = 0.43960 0.56760
# Poissons Ratio (z) = 0.28761 0.35005
#
# Static dielectric constant tensor:
#      x y z
#    x 1.580250 0.000000 0.000000 
#    y 0.000000 1.586190 0.000000 
#    z 0.000000 0.000000 1.598160 
# 
# From -- ./inp_files/13232.got.cif
#   From: 2010.05.17/outbox.cif.g08.bks.cpg/sg39_7_cif.got.tgz:13232.got - 2010.06.03 18:22:40.
