data_PCOD9360995
_publ_section_title
;
Structure prediction by ZEFSAII (Michael W. Deem and Ramdas Pophale) SiO2 
 PCOD9360995
Probable space group: A B M 2
;
_chemical_formula_sum "Si O2"
_cell_formula_units_Z 56
_cell_length_a 5.231316
_cell_length_b 16.646293
_cell_length_c 30.454402
_cell_angle_alpha 90.000000
_cell_angle_beta 90.000000
_cell_angle_gamma 90.000000
_cell_volume 2652.030811
_symmetry_space_group_name_H-M "A B M 2"
_symmetry_group_IT_number 39
_symmetry_cell_setting 'orthorhombic'
loop_
_space_group_symop_operation_xyz
x,y,z
-x,-y,z
-x,1/2+y,z
x,1/2-y,z
x,1/2+y,1/2+z
-x,1/2-y,1/2+z
-x,y,1/2+z
x,-y,1/2+z
loop_
_atom_site_type_symbol
_atom_site_label
_atom_site_fract_x
_atom_site_fract_y
_atom_site_fract_z
Si Si1 0.456730 0.750000 0.986210
Si Si2 0.940244 0.250000 0.431252
Si Si3 0.132858 0.582207 0.918554
Si Si4 0.752563 0.555097 0.610918
Si Si5 0.349162 0.584190 0.015545
Si Si6 0.248165 0.943795 0.206450
Si Si7 0.418345 0.347173 0.346459
Si Si8 0.082307 0.154480 0.791061
O O1 0.652386 0.750000 0.946699
O O2 0.509320 0.666104 0.010152
O O3 0.162779 0.750000 0.969116
O O4 0.983559 0.165000 0.408265
O O5 0.182275 0.579142 0.971007
O O6 0.385072 0.600348 0.890415
O O7 0.000000 0.500000 0.905570
O O8 0.500000 0.500000 0.608833
O O9 0.777811 0.595760 0.563233
O O10 0.728039 0.598161 0.658231
O O11 0.000000 0.500000 0.613490
O O12 0.500000 0.500000 0.015852
O O13 0.177677 0.885146 0.245994
O O14 0.500000 0.000000 0.213398
O O15 0.000000 0.000000 0.204054
O O16 0.396822 0.250000 0.354275
O O17 0.688089 0.362534 0.324389
O O18 0.188473 0.370932 0.312607
O O19 0.063017 0.250000 0.784689
#
# Coordination Sequence:
#
# PCOD9360995 Si02
#       8
#     4   4   8   8   8   8   8   8
#     4  10  22  36  58  84 112 156 202 246 296 352
#     4  10  22  40  56  80 118 152 198 256 298 344
#     4  11  22  37  61  89 118 164 208 250 299 361
#     4   9  19  36  60  85 118 157 192 237 303 358
#     4  10  21  39  60  89 123 162 203 250 300 359
#     4  10  20  37  62  91 118 155 196 247 302 357
#     4  10  22  40  58  84 120 160 198 247 308 357
#     4  10  22  40  62  86 119 159 194 245 309 359
#
# _framework density 21.115894000000001
#
# number of rings (size 3 to 8) (size 9 to 14) (size 15 to 20)
#    0.000    2.000    0.714    2.143    0.000    8.571 
#    1.286    0.000    0.000    0.000    1.857    0.000 
#    0.000    0.000    0.000    0.000    0.000    0.000 
#
# Total GULP energy -156126.640053 kJ/mol
# GULP energy per Si atom -5575.951430 kJ/mol
# Density = 2.106783 g / cm^3
# Si number density = 21.115894 Si / 1000 Ang^3
#
#
#
# Elastic Constant Matrix: (Units=GPa)
#
#
# Indices 1 2 3 4 5 6 
#
# 1 92.3166 15.1495 29.6904 0.0000 0.0000 0.0000
# 2 15.1495 98.5641 21.8880 0.0000 0.0000 0.0000
# 3 29.6904 21.8880 147.3685 0.0000 0.0000 0.0000
# 4 0.0000 0.0000 0.0000 10.6061 0.0000 0.0000
# 5 0.0000 0.0000 0.0000 0.0000 17.1317 0.0000
# 6 0.0000 0.0000 0.0000 0.0000 0.0000 17.8496
#
#
#
# Elastic Compliance Matrix: (Units=1/GPa)
#
#
# Indices 1 2 3 4 5 6 
#
# 1 0.011747 -0.001324 -0.002170 0.000000 0.000000 0.000000
# 2 -0.001324 0.010641 -0.001314 0.000000 0.000000 0.000000
# 3 -0.002170 -0.001314 0.007418 0.000000 0.000000 0.000000
# 4 0.000000 0.000000 0.000000 0.094286 0.000000 0.000000
# 5 0.000000 0.000000 0.000000 0.000000 0.058371 0.000000
# 6 0.000000 0.000000 0.000000 0.000000 0.000000 0.056024
#
#
# Mechanical properties :
#
#
# Convention : Reuss Voigt Hill
#
# Bulk Modulus (GPa) = 49.52655 52.41166 50.96910
# Shear Modulus (GPa) = 19.62072 27.21889 23.41981
#
# Velocity S-wave (km/s) = 3.05157 3.59419 3.33394
# Velocity P-wave (km/s) = 5.99347 6.48838 6.24583
#
# Compressibility (1/GPa) = 0.02019119
#
# Stress axis : x y z
#
# Youngs Moduli (GPa) = 85.12472 93.97721 134.80611
#
# Poissons Ratio (x) = 0.12440 0.29255
# Poissons Ratio (y) = 0.11268 0.17710
# Poissons Ratio (z) = 0.18473 0.12346
#
# Static dielectric constant tensor:
#      x y z
#    x 1.790200 0.000000 0.000000 
#    y 0.000000 1.780170 0.000000 
#    z 0.000000 0.000000 1.872430 
# 
# From -- ./inp_files/17328.got.cif
#   From: 2010.05.17/outbox.cif.g08.bks.cpg/sg39_9_cif.got.tgz:17328.got - 2010.06.03 18:22:40.
