data_PCOD9360547
_publ_section_title
;
Structure prediction by ZEFSAII (Michael W. Deem and Ramdas Pophale) SiO2 
 PCOD9360547
Probable space group: A B M 2
;
_chemical_formula_sum "Si O2"
_cell_formula_units_Z 36
_cell_length_a 11.692444
_cell_length_b 9.238382
_cell_length_c 18.139767
_cell_angle_alpha 90.000000
_cell_angle_beta 90.000000
_cell_angle_gamma 90.000000
_cell_volume 1959.444284
_symmetry_space_group_name_H-M "A B M 2"
_symmetry_group_IT_number 39
_symmetry_cell_setting 'orthorhombic'
loop_
_space_group_symop_operation_xyz
x,y,z
-x,-y,z
-x,1/2+y,z
x,1/2-y,z
x,1/2+y,1/2+z
-x,1/2-y,1/2+z
-x,y,1/2+z
x,-y,1/2+z
loop_
_atom_site_type_symbol
_atom_site_label
_atom_site_fract_x
_atom_site_fract_y
_atom_site_fract_z
Si Si1 0.380978 0.919332 0.878860
Si Si2 0.787246 0.082459 0.268281
Si Si3 0.000000 0.000000 0.367622
Si Si4 0.823205 0.908142 0.489302
Si Si5 0.878915 0.421929 0.630707
O O1 0.397244 0.750000 0.859159
O O2 0.299073 0.921973 0.950374
O O3 0.500000 0.000000 0.891060
O O4 0.308871 0.004968 0.817322
O O5 0.760654 0.250000 0.254440
O O6 0.800493 0.992143 0.193451
O O7 0.907410 0.075762 0.314234
O O8 0.918106 0.913894 0.424355
O O9 0.833510 0.750000 0.526025
O O10 0.841179 0.032757 0.548715
O O11 0.887270 0.250000 0.638966
O O12 0.000000 0.500000 0.641237
#
# Coordination Sequence:
#
# PCOD9360547 Si02
#       5
#     8   8   4   8   8
#     4  10  22  41  64  89 118 153 200 248 295 348
#     4  11  22  37  60  87 120 157 197 244 296 350
#     4  10  20  32  58  86 120 150 196 236 294 354
#     4  10  21  37  58  86 119 153 195 242 292 351
#     4  12  24  37  56  85 123 160 196 238 294 358
#
# _framework density 18.372555999999999
#
# number of rings (size 3 to 8) (size 9 to 14) (size 15 to 20)
#    0.000    1.333    2.222    4.000    0.000    6.222 
#    0.000    1.111    0.000    2.667    0.000    0.000 
#    0.000    0.000    0.000    0.000    0.000    0.000 
#
# Total GULP energy -100469.028248 kJ/mol
# GULP energy per Si atom -5581.612680 kJ/mol
# Density = 1.833074 g / cm^3
# Si number density = 18.372556 Si / 1000 Ang^3
#
#
#
# Elastic Constant Matrix: (Units=GPa)
#
#
# Indices 1 2 3 4 5 6 
#
# 1 87.8744 28.5293 0.1063 0.0000 0.0000 0.0000
# 2 28.5293 174.2382 33.8908 0.0000 0.0000 0.0000
# 3 0.1063 33.8908 64.0449 0.0000 0.0000 0.0000
# 4 0.0000 0.0000 0.0000 5.2126 0.0000 0.0000
# 5 0.0000 0.0000 0.0000 0.0000 14.7371 0.0000
# 6 0.0000 0.0000 0.0000 0.0000 0.0000 17.5030
#
#
#
# Elastic Compliance Matrix: (Units=1/GPa)
#
#
# Indices 1 2 3 4 5 6 
#
# 1 0.012094 -0.002203 0.001146 0.000000 0.000000 0.000000
# 2 -0.002203 0.006799 -0.003594 0.000000 0.000000 0.000000
# 3 0.001146 -0.003594 0.017514 0.000000 0.000000 0.000000
# 4 0.000000 0.000000 0.000000 0.191844 0.000000 0.000000
# 5 0.000000 0.000000 0.000000 0.000000 0.067856 0.000000
# 6 0.000000 0.000000 0.000000 0.000000 0.000000 0.057133
#
#
# Mechanical properties :
#
#
# Convention : Reuss Voigt Hill
#
# Bulk Modulus (GPa) = 36.89517 50.13449 43.51483
# Shear Modulus (GPa) = 13.45614 25.06594 19.26104
#
# Velocity S-wave (km/s) = 2.70923 3.69767 3.24135
# Velocity P-wave (km/s) = 5.46917 6.75110 6.14366
#
# Compressibility (1/GPa) = 0.02710382
#
# Stress axis : x y z
#
# Youngs Moduli (GPa) = 82.68745 147.07826 57.09677
#
# Poissons Ratio (x) = 0.32402 -0.06542
# Poissons Ratio (y) = 0.18216 0.20522
# Poissons Ratio (z) = -0.09474 0.52864
#
# Static dielectric constant tensor:
#      x y z
#    x 1.620030 0.000000 0.000000 
#    y 0.000000 1.628120 0.000000 
#    z 0.000000 0.000000 1.638660 
# 
# From -- ./inp_files/12054.got.cif
#   From: 2010.05.17/outbox.cif.g08.bks.cpg/sg39_7_cif.got.tgz:12054.got - 2010.06.03 18:22:40.
