data_PCOD9360237
_publ_section_title
;
Structure prediction by ZEFSAII (Michael W. Deem and Ramdas Pophale) SiO2 
 PCOD9360237
Probable space group: A B M 2
;
_chemical_formula_sum "Si O2"
_cell_formula_units_Z 64
_cell_length_a 17.419233
_cell_length_b 8.389650
_cell_length_c 22.202491
_cell_angle_alpha 90.000000
_cell_angle_beta 90.000000
_cell_angle_gamma 90.000000
_cell_volume 3244.700191
_symmetry_space_group_name_H-M "A B M 2"
_symmetry_group_IT_number 39
_symmetry_cell_setting 'orthorhombic'
loop_
_space_group_symop_operation_xyz
x,y,z
-x,-y,z
-x,1/2+y,z
x,1/2-y,z
x,1/2+y,1/2+z
-x,1/2-y,1/2+z
-x,y,1/2+z
x,-y,1/2+z
loop_
_atom_site_type_symbol
_atom_site_label
_atom_site_fract_x
_atom_site_fract_y
_atom_site_fract_z
Si Si1 0.248346 0.435894 0.078500
Si Si2 0.415869 0.934156 0.618544
Si Si3 0.876987 0.942565 0.765321
Si Si4 0.419115 0.433589 0.263233
Si Si5 0.235236 0.566407 0.949971
Si Si6 0.915436 0.558266 0.631665
Si Si7 0.722664 0.065782 0.325556
Si Si8 0.920865 0.559481 0.898902
O O1 0.245368 0.250000 0.096010
O O2 0.331242 0.503789 0.101552
O O3 0.165782 0.508346 0.100045
O O4 0.253672 0.457783 0.006767
O O5 0.414190 0.750000 0.598630
O O6 0.417643 0.940218 0.690969
O O7 0.500000 0.000000 0.598230
O O8 0.879187 0.750000 0.760873
O O9 0.907297 0.002209 0.701412
O O10 0.789923 0.992485 0.780718
O O11 0.918216 0.985429 0.827835
O O12 0.500000 0.500000 0.284264
O O13 0.406671 0.250000 0.281084
O O14 0.354808 0.544790 0.290347
O O15 0.245154 0.750000 0.966934
O O16 0.279603 0.526421 0.888461
O O17 0.148184 0.528319 0.931305
O O18 0.917528 0.750000 0.630393
O O19 0.000000 0.500000 0.609074
O O20 0.740278 0.250000 0.339886
O O21 0.912520 0.750000 0.903592
O O22 0.000000 0.500000 0.925390
#
# Coordination Sequence:
#
# PCOD9360237 Si02
#       8
#     8   8   8   8   8   8   8   8
#     4  11  23  41  60  82 112 150 193 241 288 335
#     4   9  20  37  61  90 120 150 186 230 282 339
#     4   8  17  32  53  80 111 143 179 222 277 335
#     4  10  19  33  54  85 118 148 179 218 269 331
#     4  11  23  39  57  79 105 142 188 233 278 333
#     4  11  22  37  56  83 116 153 192 234 282 339
#     4  10  19  35  57  82 111 145 181 226 278 333
#     4  10  19  34  55  81 110 143 181 228 280 333
#
# _framework density 19.724471999999999
#
# number of rings (size 3 to 8) (size 9 to 14) (size 15 to 20)
#    0.000    2.000    0.000    4.875    0.000    2.000 
#    0.000    9.375    0.000    1.500    0.000    0.000 
#    0.000    0.000    0.000    0.000    0.000    0.000 
#
# Total GULP energy -178324.443273 kJ/mol
# GULP energy per Si atom -5572.638852 kJ/mol
# Density = 1.967958 g / cm^3
# Si number density = 19.724472 Si / 1000 Ang^3
#
#
#
# Elastic Constant Matrix: (Units=GPa)
#
#
# Indices 1 2 3 4 5 6 
#
# 1 149.1671 19.9918 19.2173 0.0000 0.0000 0.0000
# 2 19.9918 41.4857 2.7837 0.0000 0.0000 0.0000
# 3 19.2173 2.7837 25.9989 0.0000 0.0000 0.0000
# 4 0.0000 0.0000 0.0000 17.8700 0.0000 0.0000
# 5 0.0000 0.0000 0.0000 0.0000 -10.6948 0.0000
# 6 0.0000 0.0000 0.0000 0.0000 0.0000 28.0959
#
#
#
# Elastic Compliance Matrix: (Units=1/GPa)
#
#
# Indices 1 2 3 4 5 6 
#
# 1 0.007865 -0.003424 -0.005446 0.000000 0.000000 0.000000
# 2 -0.003424 0.025770 -0.000228 0.000000 0.000000 0.000000
# 3 -0.005446 -0.000228 0.042513 0.000000 0.000000 0.000000
# 4 0.000000 0.000000 0.000000 0.055960 0.000000 0.000000
# 5 0.000000 0.000000 0.000000 0.000000 -0.093504 0.000000
# 6 0.000000 0.000000 0.000000 0.000000 0.000000 0.035592
#
#
# Mechanical properties :
#
#
# Convention : Reuss Voigt Hill
#
# Bulk Modulus (GPa) = 17.25619 33.40416 25.33018
# Shear Modulus (GPa) = 44.75839 18.69816 31.72828
#
# Velocity S-wave (km/s) = 4.76876 3.08225 4.01505
# Velocity P-wave (km/s) = 6.25212 5.44419 5.86209
#
# Compressibility (1/GPa) = 0.05795021
#
# Stress axis : x y z
#
# Youngs Moduli (GPa) = 127.15341 38.80449 23.52202
#
# Poissons Ratio (x) = 0.13288 0.12811
# Poissons Ratio (y) = 0.43543 0.00536
# Poissons Ratio (z) = 0.69254 0.00885
#
# Static dielectric constant tensor:
#      x y z
#    x 1.743380 0.000000 0.000000 
#    y 0.000000 1.700140 0.000000 
#    z 0.000000 0.000000 1.684130 
# 
# From -- ./inp_files/16220.got.cif
#   From: 2010.05.17/outbox.cif.g08.bks.cpg/sg39_9_cif.got.tgz:16220.got - 2010.06.03 18:22:40.
