data_PCOD9360286
_publ_section_title
;
Structure prediction by ZEFSAII (Michael W. Deem and Ramdas Pophale) SiO2 
 PCOD9360286
Probable space group: A B M 2
;
_chemical_formula_sum "Si O2"
_cell_formula_units_Z 64
_cell_length_a 14.642507
_cell_length_b 8.727562
_cell_length_c 32.019908
_cell_angle_alpha 90.000000
_cell_angle_beta 90.000000
_cell_angle_gamma 90.000000
_cell_volume 4091.932516
_symmetry_space_group_name_H-M "A B M 2"
_symmetry_group_IT_number 39
_symmetry_cell_setting 'orthorhombic'
loop_
_space_group_symop_operation_xyz
x,y,z
-x,-y,z
-x,1/2+y,z
x,1/2-y,z
x,1/2+y,1/2+z
-x,1/2-y,1/2+z
-x,y,1/2+z
x,-y,1/2+z
loop_
_atom_site_type_symbol
_atom_site_label
_atom_site_fract_x
_atom_site_fract_y
_atom_site_fract_z
Si Si1 0.897264 0.933827 0.537700
Si Si2 0.216207 0.565819 0.210688
Si Si3 0.790362 0.934692 0.373505
Si Si4 0.597343 0.434187 0.838746
Si Si5 0.598009 0.566236 0.240952
Si Si6 0.101740 0.566235 0.788056
Si Si7 0.102674 0.932407 0.451674
Si Si8 0.102201 0.565546 0.129937
O O1 0.899309 0.750000 0.533590
O O2 0.860010 0.974343 0.583691
O O3 0.857178 0.005399 0.495585
O O4 0.000000 0.000000 0.538760
O O5 0.218165 0.750000 0.212072
O O6 0.317917 0.501131 0.215319
O O7 0.157917 0.503514 0.249653
O O8 0.166412 0.516699 0.167930
O O9 0.792545 0.750000 0.378977
O O10 0.685792 0.982617 0.364931
O O11 0.847552 0.969828 0.331556
O O12 0.836682 0.013082 0.413010
O O13 0.500000 0.500000 0.852473
O O14 0.593167 0.250000 0.839962
O O15 0.611363 0.477543 0.789967
O O16 0.500000 0.500000 0.228058
O O17 0.597771 0.750000 0.238591
O O18 0.099399 0.750000 0.783674
O O19 0.000000 0.500000 0.788439
O O20 0.095855 0.750000 0.453160
O O21 0.000000 0.000000 0.446822
O O22 0.094613 0.750000 0.131193
O O23 0.000000 0.500000 0.134773
#
# Coordination Sequence:
#
# PCOD9360286 Si02
#       8
#     8   8   8   8   8   8   8   8
#     4   9  16  30  49  68  93 125 159 200 244 286
#     4  11  21  33  49  72  99 131 166 202 243 291
#     4  10  20  35  50  68  96 129 164 200 239 286
#     4   9  18  33  51  71  94 122 158 201 243 284
#     4  10  19  34  52  73  96 126 163 206 249 290
#     4  11  22  35  47  65  96 133 171 203 236 284
#     4  11  21  32  48  72  98 127 163 201 242 290
#     4   9  19  32  48  71  98 129 166 201 240 287
#
# _framework density 15.640532
#
# number of rings (size 3 to 8) (size 9 to 14) (size 15 to 20)
#    0.000    2.000    1.250    4.125    0.000    5.500 
#    0.000    0.000    0.000    0.000    0.000    0.875 
#    0.000    4.000    0.000    0.000    0.000    0.000 
#
# Total GULP energy -178517.683053 kJ/mol
# GULP energy per Si atom -5578.677595 kJ/mol
# Density = 1.560493 g / cm^3
# Si number density = 15.640532 Si / 1000 Ang^3
#
#
#
# Elastic Constant Matrix: (Units=GPa)
#
#
# Indices 1 2 3 4 5 6 
#
# 1 123.1250 40.7135 74.8392 0.0000 0.0000 0.0000
# 2 40.7135 56.7423 53.7463 0.0000 0.0000 0.0000
# 3 74.8392 53.7463 145.1604 0.0000 0.0000 0.0000
# 4 0.0000 0.0000 0.0000 22.7603 0.0000 0.0000
# 5 0.0000 0.0000 0.0000 0.0000 3.4165 0.0000
# 6 0.0000 0.0000 0.0000 0.0000 0.0000 26.5129
#
#
#
# Elastic Compliance Matrix: (Units=1/GPa)
#
#
# Indices 1 2 3 4 5 6 
#
# 1 0.012508 -0.004415 -0.004814 0.000000 0.000000 0.000000
# 2 -0.004415 0.028701 -0.008351 0.000000 0.000000 0.000000
# 3 -0.004814 -0.008351 0.012463 0.000000 0.000000 0.000000
# 4 0.000000 0.000000 0.000000 0.043936 0.000000 0.000000
# 5 0.000000 0.000000 0.000000 0.000000 0.292698 0.000000
# 6 0.000000 0.000000 0.000000 0.000000 0.000000 0.037718
#
#
# Mechanical properties :
#
#
# Convention : Reuss Voigt Hill
#
# Bulk Modulus (GPa) = 54.01681 73.73619 63.87650
# Shear Modulus (GPa) = 10.65299 20.91984 15.78641
#
# Velocity S-wave (km/s) = 2.61265 3.66121 3.18044
# Velocity P-wave (km/s) = 6.61155 8.06965 7.37672
#
# Compressibility (1/GPa) = 0.01851276
#
# Stress axis : x y z
#
# Youngs Moduli (GPa) = 79.95092 34.84225 80.23986
#
# Poissons Ratio (x) = 0.15382 0.38627
# Poissons Ratio (y) = 0.35296 0.67005
# Poissons Ratio (z) = 0.38488 0.29095
#
# Static dielectric constant tensor:
#      x y z
#    x 1.523710 0.000000 0.000000 
#    y 0.000000 1.525800 0.000000 
#    z 0.000000 0.000000 1.535960 
# 
# From -- ./inp_files/17964.got.cif
#   From: 2010.05.17/outbox.cif.g08.bks.cpg/sg39_9_cif.got.tgz:17964.got - 2010.06.03 18:22:40.
