data_PCOD9360106
_publ_section_title
;
Structure prediction by ZEFSAII (Michael W. Deem and Ramdas Pophale) SiO2 
 PCOD9360106
Probable space group: A B M 2
;
_chemical_formula_sum "Si O2"
_cell_formula_units_Z 64
_cell_length_a 14.718872
_cell_length_b 8.722463
_cell_length_c 32.033822
_cell_angle_alpha 90.000000
_cell_angle_beta 90.000000
_cell_angle_gamma 90.000000
_cell_volume 4112.656357
_symmetry_space_group_name_H-M "A B M 2"
_symmetry_group_IT_number 39
_symmetry_cell_setting 'orthorhombic'
loop_
_space_group_symop_operation_xyz
x,y,z
-x,-y,z
-x,1/2+y,z
x,1/2-y,z
x,1/2+y,1/2+z
-x,1/2-y,1/2+z
-x,y,1/2+z
x,-y,1/2+z
loop_
_atom_site_type_symbol
_atom_site_label
_atom_site_fract_x
_atom_site_fract_y
_atom_site_fract_z
Si Si1 0.100891 0.065312 0.550180
Si Si2 0.403244 0.934553 0.000611
Si Si3 0.102024 0.566366 0.802719
Si Si4 0.102376 0.432754 0.888763
Si Si5 0.102108 0.933422 0.709909
Si Si6 0.596755 0.934692 0.597947
Si Si7 0.211943 0.935519 0.132747
Si Si8 0.210778 0.435672 0.466689
O O1 0.096819 0.250000 0.550619
O O2 0.154126 0.017455 0.591917
O O3 0.155632 0.021132 0.508582
O O4 0.000000 0.000000 0.549595
O O5 0.407184 0.750000 0.999976
O O6 0.315473 0.981504 0.974094
O O7 0.500000 0.000000 0.986698
O O8 0.389435 0.980463 0.049277
O O9 0.099653 0.750000 0.807356
O O10 0.141979 0.492991 0.844577
O O11 0.138765 0.528967 0.756569
O O12 0.000000 0.500000 0.801577
O O13 0.096041 0.250000 0.888068
O O14 0.163349 0.490132 0.926908
O O15 0.000000 0.500000 0.893496
O O16 0.095672 0.750000 0.706886
O O17 0.165887 0.997645 0.673811
O O18 0.000000 0.000000 0.705489
O O19 0.593125 0.750000 0.598685
O O20 0.684005 0.983353 0.624597
O O21 0.500000 0.000000 0.611815
O O22 0.209704 0.750000 0.134829
O O23 0.207119 0.250000 0.462952
#
# Coordination Sequence:
#
# PCOD9360106 Si02
#       8
#     8   8   8   8   8   8   8   8
#     4  10  20  32  44  61  90 128 164 193 224 269
#     4   9  17  31  50  69  92 122 157 199 242 280
#     4   9  17  31  49  68  92 122 156 195 238 281
#     4  11  21  32  48  71  97 125 160 198 236 282
#     4  10  20  32  48  71  97 126 161 197 235 281
#     4   9  17  31  49  69  92 122 158 199 242 280
#     4  10  19  32  48  67  95 128 161 196 236 280
#     4  10  19  33  49  66  94 129 161 195 236 279
#
# _framework density 15.561718000000001
#
# number of rings (size 3 to 8) (size 9 to 14) (size 15 to 20)
#    0.000    2.250    1.250    3.375    0.000    5.500 
#    0.000    0.000    0.000    0.000    0.000    0.875 
#    0.000    6.000    0.000    0.000    0.000    0.000 
#
# Total GULP energy -178427.482111 kJ/mol
# GULP energy per Si atom -5575.858816 kJ/mol
# Density = 1.552630 g / cm^3
# Si number density = 15.561718 Si / 1000 Ang^3
#
#
#
# Elastic Constant Matrix: (Units=GPa)
#
#
# Indices 1 2 3 4 5 6 
#
# 1 126.7158 36.8776 78.4800 0.0000 0.0000 0.0000
# 2 36.8776 42.3125 47.0650 0.0000 0.0000 0.0000
# 3 78.4800 47.0650 149.5515 0.0000 0.0000 0.0000
# 4 0.0000 0.0000 0.0000 20.8557 0.0000 0.0000
# 5 0.0000 0.0000 0.0000 0.0000 6.2310 0.0000
# 6 0.0000 0.0000 0.0000 0.0000 0.0000 25.0541
#
#
#
# Elastic Compliance Matrix: (Units=1/GPa)
#
#
# Indices 1 2 3 4 5 6 
#
# 1 0.012478 -0.005526 -0.004809 0.000000 0.000000 0.000000
# 2 -0.005526 0.038810 -0.009314 0.000000 0.000000 0.000000
# 3 -0.004809 -0.009314 0.012141 0.000000 0.000000 0.000000
# 4 0.000000 0.000000 0.000000 0.047949 0.000000 0.000000
# 5 0.000000 0.000000 0.000000 0.000000 0.160488 0.000000
# 6 0.000000 0.000000 0.000000 0.000000 0.000000 0.039914
#
#
# Mechanical properties :
#
#
# Convention : Reuss Voigt Hill
#
# Bulk Modulus (GPa) = 41.43968 71.49167 56.46567
# Shear Modulus (GPa) = 13.92283 20.83865 17.38074
#
# Velocity S-wave (km/s) = 2.99437 3.66334 3.34562
# Velocity P-wave (km/s) = 6.21628 7.99586 7.16156
#
# Compressibility (1/GPa) = 0.02413146
#
# Stress axis : x y z
#
# Youngs Moduli (GPa) = 80.13801 25.76656 82.36257
#
# Poissons Ratio (x) = 0.14240 0.39609
# Poissons Ratio (y) = 0.44287 0.76710
# Poissons Ratio (z) = 0.38539 0.23998
#
# Static dielectric constant tensor:
#      x y z
#    x 1.494390 0.000000 0.000000 
#    y 0.000000 1.514110 0.000000 
#    z 0.000000 0.000000 1.528940 
# 
# From -- ./inp_files/17968.got.cif
#   From: 2010.05.17/outbox.cif.g08.bks.cpg/sg39_9_cif.got.tgz:17968.got - 2010.06.03 18:22:40.
