data_PCOD9360862
_publ_section_title
;
Structure prediction by ZEFSAII (Michael W. Deem and Ramdas Pophale) SiO2 
 PCOD9360862
Probable space group: A B M 2
;
_chemical_formula_sum "Si O2"
_cell_formula_units_Z 56
_cell_length_a 8.943093
_cell_length_b 21.561909
_cell_length_c 14.780310
_cell_angle_alpha 90.000000
_cell_angle_beta 90.000000
_cell_angle_gamma 90.000000
_cell_volume 2850.089504
_symmetry_space_group_name_H-M "A B M 2"
_symmetry_group_IT_number 39
_symmetry_cell_setting 'orthorhombic'
loop_
_space_group_symop_operation_xyz
x,y,z
-x,-y,z
-x,1/2+y,z
x,1/2-y,z
x,1/2+y,1/2+z
-x,1/2-y,1/2+z
-x,y,1/2+z
x,-y,1/2+z
loop_
_atom_site_type_symbol
_atom_site_label
_atom_site_fract_x
_atom_site_fract_y
_atom_site_fract_z
Si Si1 0.834555 0.025889 0.803340
Si Si2 0.208794 0.118071 0.472521
Si Si3 0.475203 0.933336 0.069540
Si Si4 0.426800 0.817444 0.843308
Si Si5 0.889503 0.823673 0.001667
Si Si6 0.284060 0.132396 0.176195
Si Si7 0.667573 0.088559 0.389536
O O1 0.831789 0.070060 0.892245
O O2 0.779028 0.068971 0.720956
O O3 0.731252 0.967688 0.830864
O O4 0.000000 0.000000 0.786571
O O5 0.303347 0.081665 0.548415
O O6 0.329205 0.165811 0.430950
O O7 0.060194 0.153309 0.500709
O O8 0.558626 0.882072 0.128023
O O9 0.500000 0.000000 0.113679
O O10 0.570147 0.935598 0.975218
O O11 0.495220 0.750000 0.851648
O O12 0.315685 0.822327 0.759132
O O13 0.552509 0.869442 0.834063
O O14 0.877295 0.750000 0.982852
O O15 0.821722 0.839417 0.099970
O O16 0.795958 0.866636 0.931055
#
# Coordination Sequence:
#
# PCOD9360862 Si02
#       7
#     8   8   8   8   8   8   8
#     4  11  21  40  62  94 126 154 204 256 316 369
#     4  10  21  37  67  89 116 162 207 259 303 359
#     4  10  20  36  58  91 118 150 196 251 303 362
#     4  10  21  40  60  88 123 164 208 251 303 364
#     4  11  22  42  63  91 123 164 212 252 303 367
#     4  10  25  37  60  89 126 167 192 255 318 361
#     4  10  21  37  65  89 116 160 203 252 298 362
#
# _framework density 19.648506000000001
#
# number of rings (size 3 to 8) (size 9 to 14) (size 15 to 20)
#    0.000    1.714    2.857    1.286    2.000    1.143 
#    0.000    2.143    0.000    0.000    0.000    0.000 
#    0.000    0.000    0.000    0.000    0.000    0.000 
#
# Total GULP energy -156325.070822 kJ/mol
# GULP energy per Si atom -5583.038244 kJ/mol
# Density = 1.960379 g / cm^3
# Si number density = 19.648506 Si / 1000 Ang^3
#
#
#
# Elastic Constant Matrix: (Units=GPa)
#
#
# Indices 1 2 3 4 5 6 
#
# 1 92.5693 26.4501 10.5458 0.0000 0.0000 0.0000
# 2 26.4501 107.3736 8.2191 0.0000 0.0000 0.0000
# 3 10.5458 8.2191 33.6393 0.0000 0.0000 0.0000
# 4 0.0000 0.0000 0.0000 11.0291 0.0000 0.0000
# 5 0.0000 0.0000 0.0000 0.0000 18.2646 0.0000
# 6 0.0000 0.0000 0.0000 0.0000 0.0000 24.9526
#
#
#
# Elastic Compliance Matrix: (Units=1/GPa)
#
#
# Indices 1 2 3 4 5 6 
#
# 1 0.011925 -0.002702 -0.003078 0.000000 0.000000 0.000000
# 2 -0.002702 0.010103 -0.001621 0.000000 0.000000 0.000000
# 3 -0.003078 -0.001621 0.031088 0.000000 0.000000 0.000000
# 4 0.000000 0.000000 0.000000 0.090669 0.000000 0.000000
# 5 0.000000 0.000000 0.000000 0.000000 0.054751 0.000000
# 6 0.000000 0.000000 0.000000 0.000000 0.000000 0.040076
#
#
# Mechanical properties :
#
#
# Convention : Reuss Voigt Hill
#
# Bulk Modulus (GPa) = 26.10067 36.00135 31.05101
# Shear Modulus (GPa) = 18.78374 23.40705 21.09539
#
# Velocity S-wave (km/s) = 3.09526 3.45525 3.28020
# Velocity P-wave (km/s) = 5.10752 5.85498 5.49398
#
# Compressibility (1/GPa) = 0.03831319
#
# Stress axis : x y z
#
# Youngs Moduli (GPa) = 83.85399 98.98040 32.16634
#
# Poissons Ratio (x) = 0.26745 0.09902
# Poissons Ratio (y) = 0.22658 0.05215
# Poissons Ratio (z) = 0.25814 0.16049
#
# Static dielectric constant tensor:
#      x y z
#    x 1.675780 0.000000 0.000000 
#    y 0.000000 1.695620 0.000000 
#    z 0.000000 0.000000 1.685310 
# 
# From -- ./inp_files/8602.got.cif
#   From: 2010.05.17/outbox.cif.g08.bks.cpg/sg39_5_cif.got.tgz:8602.got - 2010.06.03 18:22:40.
