data_PCOD9360302
_publ_section_title
;
Structure prediction by ZEFSAII (Michael W. Deem and Ramdas Pophale) SiO2 
 PCOD9360302
Probable space group: A B M 2
;
_chemical_formula_sum "Si O2"
_cell_formula_units_Z 56
_cell_length_a 20.261418
_cell_length_b 7.752134
_cell_length_c 16.500567
_cell_angle_alpha 90.000000
_cell_angle_beta 90.000000
_cell_angle_gamma 90.000000
_cell_volume 2591.731310
_symmetry_space_group_name_H-M "A B M 2"
_symmetry_group_IT_number 39
_symmetry_cell_setting 'orthorhombic'
loop_
_space_group_symop_operation_xyz
x,y,z
-x,-y,z
-x,1/2+y,z
x,1/2-y,z
x,1/2+y,1/2+z
-x,1/2-y,1/2+z
-x,y,1/2+z
x,-y,1/2+z
loop_
_atom_site_type_symbol
_atom_site_label
_atom_site_fract_x
_atom_site_fract_y
_atom_site_fract_z
Si Si1 0.652616 0.460977 0.068450
Si Si2 0.790147 0.957806 0.500521
Si Si3 0.576782 0.045122 0.908419
Si Si4 0.928557 0.957194 0.567702
Si Si5 0.789382 0.456069 0.316152
Si Si6 0.071318 0.542774 0.253897
Si Si7 0.654517 0.456710 0.245403
O O1 0.649738 0.250000 0.066532
O O2 0.729357 0.511215 0.056939
O O3 0.629542 0.518786 0.157612
O O4 0.612410 0.524052 0.989891
O O5 0.792483 0.750000 0.504048
O O6 0.862679 0.023500 0.524494
O O7 0.773805 0.009886 0.409405
O O8 0.583750 0.250000 0.911208
O O9 0.500000 0.000000 0.909062
O O10 0.610409 0.990068 0.824212
O O11 0.924281 0.750000 0.569987
O O12 0.928348 0.020880 0.660777
O O13 0.000000 0.000000 0.531010
O O14 0.791718 0.250000 0.303112
O O15 0.862479 0.524098 0.296244
O O16 0.728481 0.524411 0.263484
O O17 0.074813 0.750000 0.251997
O O18 0.000000 0.500000 0.290854
O O19 0.659583 0.250000 0.238700
#
# Coordination Sequence:
#
# PCOD9360302 Si02
#       7
#     8   8   8   8   8   8   8
#     4   9  19  37  62  87 115 152 193 233 280 338
#     4  10  19  34  55  78 107 145 188 232 282 338
#     4  11  23  41  63  90 122 153 187 231 279 337
#     4   9  18  32  51  72 100 140 185 233 282 335
#     4  10  20  33  53  80 111 143 184 237 287 334
#     4   9  18  33  50  72 102 141 187 234 284 336
#     4  10  20  38  63  89 117 153 193 236 286 339
#
# _framework density 21.607177
#
# number of rings (size 3 to 8) (size 9 to 14) (size 15 to 20)
#    0.000    2.286    1.429    1.286    0.000    5.714 
#    0.000    6.429    0.000    3.429    0.000    0.000 
#    0.000    0.000    0.000    0.000    0.000    0.000 
#
# Total GULP energy -156267.752014 kJ/mol
# GULP energy per Si atom -5580.991143 kJ/mol
# Density = 2.155800 g / cm^3
# Si number density = 21.607177 Si / 1000 Ang^3
#
#
#
# Elastic Constant Matrix: (Units=GPa)
#
#
# Indices 1 2 3 4 5 6 
#
# 1 144.0093 3.8524 77.1744 0.0000 0.0000 0.0000
# 2 3.8524 29.0410 4.0306 0.0000 0.0000 0.0000
# 3 77.1744 4.0306 152.8782 0.0000 0.0000 0.0000
# 4 0.0000 0.0000 0.0000 18.3926 0.0000 0.0000
# 5 0.0000 0.0000 0.0000 0.0000 10.7049 0.0000
# 6 0.0000 0.0000 0.0000 0.0000 0.0000 13.2969
#
#
#
# Elastic Compliance Matrix: (Units=1/GPa)
#
#
# Indices 1 2 3 4 5 6 
#
# 1 0.009530 -0.000599 -0.004795 0.000000 0.000000 0.000000
# 2 -0.000599 0.034598 -0.000610 0.000000 0.000000 0.000000
# 3 -0.004795 -0.000610 0.008978 0.000000 0.000000 0.000000
# 4 0.000000 0.000000 0.000000 0.054370 0.000000 0.000000
# 5 0.000000 0.000000 0.000000 0.000000 0.093415 0.000000
# 6 0.000000 0.000000 0.000000 0.000000 0.000000 0.075206
#
#
# Mechanical properties :
#
#
# Convention : Reuss Voigt Hill
#
# Bulk Modulus (GPa) = 24.33174 55.11591 39.72383
# Shear Modulus (GPa) = 16.56714 24.53695 20.55204
#
# Velocity S-wave (km/s) = 2.77202 3.37351 3.08745
# Velocity P-wave (km/s) = 4.64013 6.38260 5.57981
#
# Compressibility (1/GPa) = 0.04109858
#
# Stress axis : x y z
#
# Youngs Moduli (GPa) = 104.93676 28.90324 111.38697
#
# Poissons Ratio (x) = 0.01730 0.53408
# Poissons Ratio (y) = 0.06282 0.06794
# Poissons Ratio (z) = 0.50315 0.01763
#
# Static dielectric constant tensor:
#      x y z
#    x 1.789010 0.000000 0.000000 
#    y 0.000000 1.806830 0.000000 
#    z 0.000000 0.000000 1.784090 
# 
# From -- ./inp_files/10328.got.cif
#   From: 2010.05.17/outbox.cif.g08.bks.cpg/sg39_6_cif.got.tgz:10328.got - 2010.06.03 18:22:40.
