data_PCOD9360685
_publ_section_title
;
Structure prediction by ZEFSAII (Michael W. Deem and Ramdas Pophale) SiO2 
 PCOD9360685
Probable space group: A B M 2
;
_chemical_formula_sum "Si O2"
_cell_formula_units_Z 64
_cell_length_a 10.635220
_cell_length_b 14.954865
_cell_length_c 19.802638
_cell_angle_alpha 90.000000
_cell_angle_beta 90.000000
_cell_angle_gamma 90.000000
_cell_volume 3149.575500
_symmetry_space_group_name_H-M "A B M 2"
_symmetry_group_IT_number 39
_symmetry_cell_setting 'orthorhombic'
loop_
_space_group_symop_operation_xyz
x,y,z
-x,-y,z
-x,1/2+y,z
x,1/2-y,z
x,1/2+y,1/2+z
-x,1/2-y,1/2+z
-x,y,1/2+z
x,-y,1/2+z
loop_
_atom_site_type_symbol
_atom_site_label
_atom_site_fract_x
_atom_site_fract_y
_atom_site_fract_z
Si Si1 0.045706 0.147190 0.701240
Si Si2 0.338467 0.148299 0.504772
Si Si3 0.578899 0.351304 0.280219
Si Si4 0.503878 0.392123 0.135688
Si Si5 0.872770 0.535180 0.567147
Si Si6 0.791824 0.481518 0.288376
Si Si7 0.682461 0.355012 0.851182
Si Si8 0.768265 0.603044 0.163688
O O1 0.090661 0.250000 0.707517
O O2 0.092684 0.097933 0.632271
O O3 0.093038 0.082828 0.762910
O O4 0.893927 0.149455 0.692378
O O5 0.296436 0.250000 0.512844
O O6 0.441502 0.131459 0.562591
O O7 0.220937 0.086173 0.519925
O O8 0.372386 0.136050 0.426693
O O9 0.603590 0.250000 0.300802
O O10 0.586725 0.358954 0.198772
O O11 0.680809 0.416570 0.312296
O O12 0.436297 0.372525 0.302148
O O13 0.500000 0.500000 0.138946
O O14 0.364923 0.352836 0.149388
O O15 0.805909 0.447404 0.595807
O O16 0.000000 0.500000 0.534463
O O17 0.788961 0.569712 0.336395
O O18 0.747177 0.525894 0.218469
O O19 0.722119 0.250000 0.841693
#
# Coordination Sequence:
#
# PCOD9360685 Si02
#       8
#     8   8   8   8   8   8   8   8
#     4  10  21  35  59  94 127 159 204 264 320 374
#     4  11  23  38  59  91 124 160 216 272 327 395
#     4  11  21  35  59  88 121 158 202 255 322 388
#     4  12  19  34  60  92 123 162 207 258 318 386
#     4   9  18  36  58  84 120 162 207 255 317 379
#     4  11  19  38  59  82 118 164 206 252 314 387
#     4  10  23  39  57  88 127 168 212 270 335 393
#     4  10  20  34  56  89 124 156 199 262 318 374
#
# _framework density 20.320198999999999
#
# number of rings (size 3 to 8) (size 9 to 14) (size 15 to 20)
#    0.000    1.500    3.750    3.375    0.000    2.500 
#    0.000    1.250    0.000    0.000    0.000    1.750 
#    0.000    0.000    0.000    0.000    0.000    0.000 
#
# Total GULP energy -178327.108278 kJ/mol
# GULP energy per Si atom -5572.722134 kJ/mol
# Density = 2.027395 g / cm^3
# Si number density = 20.320199 Si / 1000 Ang^3
#
#
#
# Elastic Constant Matrix: (Units=GPa)
#
#
# Indices 1 2 3 4 5 6 
#
# 1 81.8887 39.5222 24.3119 0.0000 0.0000 0.0000
# 2 39.5222 113.9509 14.7706 0.0000 0.0000 0.0000
# 3 24.3119 14.7706 70.9559 0.0000 0.0000 0.0000
# 4 0.0000 0.0000 0.0000 41.5908 0.0000 0.0000
# 5 0.0000 0.0000 0.0000 0.0000 18.3699 0.0000
# 6 0.0000 0.0000 0.0000 0.0000 0.0000 20.7865
#
#
#
# Elastic Compliance Matrix: (Units=1/GPa)
#
#
# Indices 1 2 3 4 5 6 
#
# 1 0.015911 -0.004945 -0.004422 0.000000 0.000000 0.000000
# 2 -0.004945 0.010556 -0.000503 0.000000 0.000000 0.000000
# 3 -0.004422 -0.000503 0.015713 0.000000 0.000000 0.000000
# 4 0.000000 0.000000 0.000000 0.024044 0.000000 0.000000
# 5 0.000000 0.000000 0.000000 0.000000 0.054437 0.000000
# 6 0.000000 0.000000 0.000000 0.000000 0.000000 0.048108
#
#
# Mechanical properties :
#
#
# Convention : Reuss Voigt Hill
#
# Bulk Modulus (GPa) = 44.56454 47.11166 45.83810
# Shear Modulus (GPa) = 25.51140 28.69550 27.10345
#
# Velocity S-wave (km/s) = 3.54711 3.76196 3.65611
# Velocity P-wave (km/s) = 6.22533 6.48882 6.35844
#
# Compressibility (1/GPa) = 0.02243937
#
# Stress axis : x y z
#
# Youngs Moduli (GPa) = 62.84776 94.73149 63.64075
#
# Poissons Ratio (x) = 0.46849 0.28144
# Poissons Ratio (y) = 0.31081 0.03201
# Poissons Ratio (z) = 0.27793 0.04765
#
# Static dielectric constant tensor:
#      x y z
#    x 1.803560 0.000000 0.000000 
#    y 0.000000 1.779630 0.000000 
#    z 0.000000 0.000000 1.705510 
# 
# From -- ./inp_files/12389.got.cif
#   From: 2010.05.17/outbox.cif.g08.bks.cpg/sg39_7_cif.got.tgz:12389.got - 2010.06.03 18:22:40.
