data_PCOD9360543
_publ_section_title
;
Structure prediction by ZEFSAII (Michael W. Deem and Ramdas Pophale) SiO2 
 PCOD9360543
Probable space group: A B M 2
;
_chemical_formula_sum "Si O2"
_cell_formula_units_Z 48
_cell_length_a 12.635062
_cell_length_b 22.073048
_cell_length_c 9.047948
_cell_angle_alpha 90.000000
_cell_angle_beta 90.000000
_cell_angle_gamma 90.000000
_cell_volume 2523.421395
_symmetry_space_group_name_H-M "A B M 2"
_symmetry_group_IT_number 39
_symmetry_cell_setting 'orthorhombic'
loop_
_space_group_symop_operation_xyz
x,y,z
-x,-y,z
-x,1/2+y,z
x,1/2-y,z
x,1/2+y,1/2+z
-x,1/2-y,1/2+z
-x,y,1/2+z
x,-y,1/2+z
loop_
_atom_site_type_symbol
_atom_site_label
_atom_site_fract_x
_atom_site_fract_y
_atom_site_fract_z
Si Si1 0.054841 0.877793 0.000000
Si Si2 0.973279 0.250000 0.161809
Si Si3 0.843662 0.750000 0.957770
Si Si4 0.187446 0.880268 0.440073
Si Si5 0.648555 0.034684 0.311436
Si Si6 0.500000 0.500000 0.558715
Si Si7 0.000000 0.000000 0.678821
Si Si8 0.803289 0.429852 0.773033
O O1 0.153398 0.880982 0.888359
O O2 0.939769 0.878431 0.918807
O O3 0.062587 0.815020 0.092038
O O4 0.044328 0.941198 0.090315
O O5 0.935385 0.250000 0.330713
O O6 0.097200 0.250000 0.116419
O O7 0.778790 0.689255 0.938566
O O8 0.255671 0.918676 0.326348
O O9 0.204228 0.906880 0.604992
O O10 0.571521 0.040612 0.451264
O O11 0.578569 0.037031 0.164881
O O12 0.700519 0.967538 0.316959
O O13 0.901745 0.023494 0.772144
#
# Coordination Sequence:
#
# PCOD9360543 Si02
#       8
#     8   4   4   8   8   4   4   8
#     4  10  22  34  54  86 127 164 204 230 294 346
#     4  10  24  36  56  78 126 175 207 243 272 355
#     4  10  24  38  56  82 118 171 211 235 288 343
#     4  10  22  35  59  84 123 160 201 243 286 355
#     4  11  21  41  59  91 113 151 189 254 312 367
#     4  10  24  38  62  86 120 140 190 252 330 364
#     4  10  20  32  52  88 122 162 192 250 282 356
#     4  11  20  33  57  88 122 156 192 247 297 353
#
# _framework density 19.021792000000001
#
# number of rings (size 3 to 8) (size 9 to 14) (size 15 to 20)
#    0.000    1.667    1.667    3.500   16.333    0.000 
#    0.000    0.000    0.000    1.000    0.000    0.000 
#    0.000    0.000    0.000    0.000    0.000    0.000 
#
# Total GULP energy -133871.887157 kJ/mol
# GULP energy per Si atom -5577.995298 kJ/mol
# Density = 1.897850 g / cm^3
# Si number density = 19.021792 Si / 1000 Ang^3
#
#
#
# Elastic Constant Matrix: (Units=GPa)
#
#
# Indices 1 2 3 4 5 6 
#
# 1 60.1686 16.1869 27.9358 0.0000 0.0000 0.0000
# 2 16.1869 97.0077 18.8167 0.0000 0.0000 0.0000
# 3 27.9358 18.8167 63.1865 0.0000 0.0000 0.0000
# 4 0.0000 0.0000 0.0000 24.7981 0.0000 0.0000
# 5 0.0000 0.0000 0.0000 0.0000 34.1904 0.0000
# 6 0.0000 0.0000 0.0000 0.0000 0.0000 12.8328
#
#
#
# Elastic Compliance Matrix: (Units=1/GPa)
#
#
# Indices 1 2 3 4 5 6 
#
# 1 0.021213 -0.001826 -0.008835 0.000000 0.000000 0.000000
# 2 -0.001826 0.011098 -0.002498 0.000000 0.000000 0.000000
# 3 -0.008835 -0.002498 0.020476 0.000000 0.000000 0.000000
# 4 0.000000 0.000000 0.000000 0.040326 0.000000 0.000000
# 5 0.000000 0.000000 0.000000 0.000000 0.029248 0.000000
# 6 0.000000 0.000000 0.000000 0.000000 0.000000 0.077925
#
#
# Mechanical properties :
#
#
# Convention : Reuss Voigt Hill
#
# Bulk Modulus (GPa) = 37.77874 38.47129 38.12502
# Shear Modulus (GPa) = 21.23813 24.85916 23.04864
#
# Velocity S-wave (km/s) = 3.34506 3.61900 3.48472
# Velocity P-wave (km/s) = 5.90111 6.14261 6.02307
#
# Compressibility (1/GPa) = 0.02646992
#
# Stress axis : x y z
#
# Youngs Moduli (GPa) = 47.14052 90.10960 48.83772
#
# Poissons Ratio (x) = 0.16454 0.43148
# Poissons Ratio (y) = 0.08608 0.12197
# Poissons Ratio (z) = 0.41648 0.22505
#
# Static dielectric constant tensor:
#      x y z
#    x 1.666260 0.000000 0.000000 
#    y 0.000000 1.708800 0.000000 
#    z 0.000000 0.000000 1.746020 
# 
# From -- ./inp_files/2748.got.cif
#   From: 2010.05.17/outbox.cif.g08.bks.cpg/sg39_2_cif.got.tgz:2748.got - 2010.06.03 18:22:40.
