data_PCOD9360300
_publ_section_title
;
Structure prediction by ZEFSAII (Michael W. Deem and Ramdas Pophale) SiO2 
 PCOD9360300
Probable space group: A B M 2
;
_chemical_formula_sum "Si O2"
_cell_formula_units_Z 64
_cell_length_a 20.036242
_cell_length_b 9.324647
_cell_length_c 20.734809
_cell_angle_alpha 90.000000
_cell_angle_beta 90.000000
_cell_angle_gamma 90.000000
_cell_volume 3873.902692
_symmetry_space_group_name_H-M "A B M 2"
_symmetry_group_IT_number 39
_symmetry_cell_setting 'orthorhombic'
loop_
_space_group_symop_operation_xyz
x,y,z
-x,-y,z
-x,1/2+y,z
x,1/2-y,z
x,1/2+y,1/2+z
-x,1/2-y,1/2+z
-x,y,1/2+z
x,-y,1/2+z
loop_
_atom_site_type_symbol
_atom_site_label
_atom_site_fract_x
_atom_site_fract_y
_atom_site_fract_z
Si Si1 0.288562 0.576228 0.074840
Si Si2 0.564924 0.084733 0.923962
Si Si3 0.070813 0.921648 0.252310
Si Si4 0.434529 0.415927 0.581117
Si Si5 0.144290 0.077874 0.617623
Si Si6 0.069922 0.579889 0.501175
Si Si7 0.160427 0.580394 0.374213
Si Si8 0.286886 0.576496 0.924309
O O1 0.293613 0.750000 0.074504
O O2 0.361088 0.524908 0.099035
O O3 0.222624 0.537770 0.114382
O O4 0.278275 0.534140 0.999860
O O5 0.558731 0.250000 0.904839
O O6 0.638278 0.031697 0.903947
O O7 0.500000 0.000000 0.901795
O O8 0.565740 0.081178 0.002525
O O9 0.059993 0.750000 0.256607
O O10 0.109975 0.950808 0.185972
O O11 0.116750 0.964516 0.312736
O O12 0.000000 0.000000 0.253251
O O13 0.500000 0.500000 0.603147
O O14 0.439833 0.250000 0.600778
O O15 0.139823 0.250000 0.605064
O O16 0.106222 0.992022 0.562027
O O17 0.059715 0.750000 0.511471
O O18 0.115916 0.560902 0.438281
O O19 0.000000 0.500000 0.491316
O O20 0.175225 0.750000 0.367849
O O21 0.228348 0.493419 0.383491
O O22 0.283821 0.750000 0.921756
#
# Coordination Sequence:
#
# PCOD9360300 Si02
#       8
#     8   8   8   8   8   8   8   8
#     4   8  14  26  45  68  94 123 156 193 234 281
#     4   8  14  23  37  61  93 127 159 192 231 280
#     4  10  22  38  54  72  95 125 162 201 244 293
#     4   8  13  22  36  58  90 124 154 185 224 273
#     4  10  19  34  55  74  95 126 161 200 242 288
#     4  11  22  34  50  72  97 123 154 195 242 293
#     4  10  21  35  49  71  99 125 158 201 245 288
#     4   9  16  28  47  70  96 127 164 199 238 288
#
# _framework density 16.520807000000001
#
# number of rings (size 3 to 8) (size 9 to 14) (size 15 to 20)
#    0.000    2.750    1.250    2.625    0.000    3.000 
#    0.000    2.500    0.000    0.000    0.000    0.875 
#    0.000    4.000    0.000    0.000    0.000    0.000 
#
# Total GULP energy -178275.048771 kJ/mol
# GULP energy per Si atom -5571.095274 kJ/mol
# Density = 1.648320 g / cm^3
# Si number density = 16.520807 Si / 1000 Ang^3
#
#
#
# Elastic Constant Matrix: (Units=GPa)
#
#
# Indices 1 2 3 4 5 6 
#
# 1 192.2513 67.5991 53.3099 0.0000 0.0000 0.0000
# 2 67.5991 43.8663 35.6047 0.0000 0.0000 0.0000
# 3 53.3099 35.6047 69.9024 0.0000 0.0000 0.0000
# 4 0.0000 0.0000 0.0000 14.7500 0.0000 0.0000
# 5 0.0000 0.0000 0.0000 0.0000 17.2083 0.0000
# 6 0.0000 0.0000 0.0000 0.0000 0.0000 32.6968
#
#
#
# Elastic Compliance Matrix: (Units=1/GPa)
#
#
# Indices 1 2 3 4 5 6 
#
# 1 0.011361 -0.017858 0.000432 0.000000 0.000000 0.000000
# 2 -0.017858 0.066934 -0.020474 0.000000 0.000000 0.000000
# 3 0.000432 -0.020474 0.024405 0.000000 0.000000 0.000000
# 4 0.000000 0.000000 0.000000 0.067797 0.000000 0.000000
# 5 0.000000 0.000000 0.000000 0.000000 0.058112 0.000000
# 6 0.000000 0.000000 0.000000 0.000000 0.000000 0.030584
#
#
# Mechanical properties :
#
#
# Convention : Reuss Voigt Hill
#
# Bulk Modulus (GPa) = 37.17517 68.78306 52.97912
# Shear Modulus (GPa) = 14.53665 22.89809 18.71737
#
# Velocity S-wave (km/s) = 2.96953 3.72696 3.36960
# Velocity P-wave (km/s) = 5.85733 7.76176 6.87580
#
# Compressibility (1/GPa) = 0.02689968
#
# Stress axis : x y z
#
# Youngs Moduli (GPa) = 88.02010 14.94014 40.97583
#
# Poissons Ratio (x) = 0.26680 -0.01769
# Poissons Ratio (y) = 1.57186 0.83892
# Poissons Ratio (z) = -0.03799 0.30588
#
# Static dielectric constant tensor:
#      x y z
#    x 1.573880 0.000000 0.000000 
#    y 0.000000 1.554160 0.000000 
#    z 0.000000 0.000000 1.537900 
# 
# From -- ./inp_files/13124.got.cif
#   From: 2010.05.17/outbox.cif.g08.bks.cpg/sg39_7_cif.got.tgz:13124.got - 2010.06.03 18:22:40.
