data_PCOD9360421
_publ_section_title
;
Structure prediction by ZEFSAII (Michael W. Deem and Ramdas Pophale) SiO2 
 PCOD9360421
Probable space group: A B M 2
;
_chemical_formula_sum "Si O2"
_cell_formula_units_Z 56
_cell_length_a 9.262676
_cell_length_b 19.032008
_cell_length_c 14.950052
_cell_angle_alpha 90.000000
_cell_angle_beta 90.000000
_cell_angle_gamma 90.000000
_cell_volume 2635.504657
_symmetry_space_group_name_H-M "A B M 2"
_symmetry_group_IT_number 39
_symmetry_cell_setting 'orthorhombic'
loop_
_space_group_symop_operation_xyz
x,y,z
-x,-y,z
-x,1/2+y,z
x,1/2-y,z
x,1/2+y,1/2+z
-x,1/2-y,1/2+z
-x,y,1/2+z
x,-y,1/2+z
loop_
_atom_site_type_symbol
_atom_site_label
_atom_site_fract_x
_atom_site_fract_y
_atom_site_fract_z
Si Si1 0.307130 0.552045 0.078720
Si Si2 0.992932 0.330297 0.711342
Si Si3 0.527238 0.664605 0.480065
Si Si4 0.217393 0.330032 0.354062
Si Si5 0.839709 0.463459 0.255598
Si Si6 0.021071 0.873249 0.013970
Si Si7 0.274293 0.064962 0.945228
O O1 0.273788 0.521496 0.176614
O O2 0.148122 0.575670 0.045796
O O3 0.409633 0.620333 0.065125
O O4 0.346901 0.490295 0.011597
O O5 0.016187 0.250000 0.739700
O O6 0.120985 0.380907 0.742175
O O7 0.851152 0.359249 0.763264
O O8 0.981569 0.332090 0.604386
O O9 0.530675 0.750000 0.492439
O O10 0.640577 0.642170 0.402135
O O11 0.374202 0.634118 0.449170
O O12 0.253998 0.250000 0.333327
O O13 0.092236 0.333394 0.429964
O O14 0.761207 0.470467 0.350214
O O15 0.000000 0.500000 0.249952
O O16 0.881678 0.913667 0.982004
#
# Coordination Sequence:
#
# PCOD9360421 Si02
#       7
#     8   8   8   8   8   8   8
#     4  10  22  43  65  94 127 173 219 272 334 403
#     4  10  20  35  60  95 126 165 214 266 326 386
#     4  10  24  44  64  89 134 181 219 265 326 398
#     4   9  18  36  58  85 126 170 209 257 319 385
#     4  11  23  40  69 101 131 168 221 289 341 395
#     4  10  19  35  64  94 124 159 214 274 331 379
#     4  12  23  41  66  98 130 169 220 277 336 400
#
# _framework density 21.248303
#
# number of rings (size 3 to 8) (size 9 to 14) (size 15 to 20)
#    0.000    1.714    1.429    3.857    2.000    5.143 
#    2.571    1.429    0.000    0.000    0.000    0.000 
#    0.000    0.000    0.000    0.000    0.000    0.000 
#
# Total GULP energy -156099.189686 kJ/mol
# GULP energy per Si atom -5574.971060 kJ/mol
# Density = 2.119994 g / cm^3
# Si number density = 21.248303 Si / 1000 Ang^3
#
#
#
# Elastic Constant Matrix: (Units=GPa)
#
#
# Indices 1 2 3 4 5 6 
#
# 1 40.9386 2.5399 21.9484 0.0000 0.0000 0.0000
# 2 2.5399 79.4262 21.2965 0.0000 0.0000 0.0000
# 3 21.9484 21.2965 107.4792 0.0000 0.0000 0.0000
# 4 0.0000 0.0000 0.0000 -8.4140 0.0000 0.0000
# 5 0.0000 0.0000 0.0000 0.0000 3.7092 0.0000
# 6 0.0000 0.0000 0.0000 0.0000 0.0000 25.3618
#
#
#
# Elastic Compliance Matrix: (Units=1/GPa)
#
#
# Indices 1 2 3 4 5 6 
#
# 1 0.027463 0.000661 -0.005739 0.000000 0.000000 0.000000
# 2 0.000661 0.013313 -0.002773 0.000000 0.000000 0.000000
# 3 -0.005739 -0.002773 0.011026 0.000000 0.000000 0.000000
# 4 0.000000 0.000000 0.000000 -0.118849 0.000000 0.000000
# 5 0.000000 0.000000 0.000000 0.000000 0.269602 0.000000
# 6 0.000000 0.000000 0.000000 0.000000 0.000000 0.039429
#
#
# Mechanical properties :
#
#
# Convention : Reuss Voigt Hill
#
# Bulk Modulus (GPa) = 27.70201 35.49040 31.59621
# Shear Modulus (GPa) = 18.53786 16.26868 17.40327
#
# Velocity S-wave (km/s) = 2.95691 2.77003 2.86500
# Velocity P-wave (km/s) = 4.97226 5.19324 5.08395
#
# Compressibility (1/GPa) = 0.03609846
#
# Stress axis : x y z
#
# Youngs Moduli (GPa) = 36.41298 75.11666 90.69874
#
# Poissons Ratio (x) = -0.04962 0.52053
# Poissons Ratio (y) = -0.02405 0.25148
# Poissons Ratio (z) = 0.20898 0.20828
#
# Static dielectric constant tensor:
#      x y z
#    x 1.758420 0.000000 0.000000 
#    y 0.000000 1.825420 0.000000 
#    z 0.000000 0.000000 1.858450 
# 
# From -- ./inp_files/8604.got.cif
#   From: 2010.05.17/outbox.cif.g08.bks.cpg/sg39_5_cif.got.tgz:8604.got - 2010.06.03 18:22:40.
