data_PCOD9360976
_publ_section_title
;
Structure prediction by ZEFSAII (Michael W. Deem and Ramdas Pophale) SiO2 
 PCOD9360976
Probable space group: A B M 2
;
_chemical_formula_sum "Si O2"
_cell_formula_units_Z 64
_cell_length_a 25.359389
_cell_length_b 8.711003
_cell_length_c 15.008480
_cell_angle_alpha 90.000000
_cell_angle_beta 90.000000
_cell_angle_gamma 90.000000
_cell_volume 3315.458985
_symmetry_space_group_name_H-M "A B M 2"
_symmetry_group_IT_number 39
_symmetry_cell_setting 'orthorhombic'
loop_
_space_group_symop_operation_xyz
x,y,z
-x,-y,z
-x,1/2+y,z
x,1/2-y,z
x,1/2+y,1/2+z
-x,1/2-y,1/2+z
-x,y,1/2+z
x,-y,1/2+z
loop_
_atom_site_type_symbol
_atom_site_label
_atom_site_fract_x
_atom_site_fract_y
_atom_site_fract_z
Si Si1 0.245428 0.066896 0.078190
Si Si2 0.170389 0.565474 0.228088
Si Si3 0.442915 0.065442 0.220640
Si Si4 0.946856 0.433345 0.227819
Si Si5 0.443729 0.934037 0.927842
Si Si6 0.170394 0.934549 0.928310
Si Si7 0.362732 0.934630 0.078700
Si Si8 0.053155 0.566659 0.928831
O O1 0.245319 0.250000 0.078225
O O2 0.214022 0.004740 0.164032
O O3 0.304785 0.004738 0.078481
O O4 0.214108 0.004223 0.992418
O O5 0.174908 0.750000 0.230573
O O6 0.111266 0.528429 0.191853
O O7 0.174806 0.500127 0.328231
O O8 0.443034 0.250000 0.212813
O O9 0.435575 0.022822 0.324661
O O10 0.500000 0.000000 0.192894
O O11 0.397033 0.993896 0.161555
O O12 0.951599 0.250000 0.231025
O O13 0.945684 0.500069 0.328309
O O14 0.000000 0.500000 0.184996
O O15 0.447201 0.750000 0.931729
O O16 0.500000 0.000000 0.957677
O O17 0.396177 0.982378 0.991366
O O18 0.174912 0.750000 0.925567
O O19 0.111308 0.971580 0.964691
O O20 0.359287 0.750000 0.080557
O O21 0.048416 0.750000 0.925720
O O22 0.000000 0.500000 0.971622
#
# Coordination Sequence:
#
# PCOD9360976 Si02
#       8
#     8   8   8   8   8   8   8   8
#     4  12  26  42  60  84 114 154 202 249 294 348
#     4  10  21  39  61  85 114 151 193 241 295 352
#     4  10  20  37  60  90 123 155 192 233 282 342
#     4   9  16  27  49  79 110 142 180 227 284 348
#     4   9  20  37  60  88 120 154 187 227 278 333
#     4  10  21  39  61  85 115 152 192 240 295 352
#     4  11  23  40  60  84 116 155 195 242 293 341
#     4   9  16  27  49  79 110 143 181 227 284 346
#
# _framework density 19.303509999999999
#
# number of rings (size 3 to 8) (size 9 to 14) (size 15 to 20)
#    0.000    2.000    0.000    4.500    0.000    6.500 
#    0.000    4.375    0.000    0.000    0.000    0.000 
#    0.000    0.000    0.000    0.000    0.000    0.000 
#
# Total GULP energy -178708.165682 kJ/mol
# GULP energy per Si atom -5584.630178 kJ/mol
# Density = 1.925957 g / cm^3
# Si number density = 19.303510 Si / 1000 Ang^3
#
#
#
# Elastic Constant Matrix: (Units=GPa)
#
#
# Indices 1 2 3 4 5 6 
#
# 1 230.5497 81.5961 93.1604 0.0000 0.0000 0.0000
# 2 81.5961 92.0241 44.1808 0.0000 0.0000 0.0000
# 3 93.1604 44.1808 102.9831 0.0000 0.0000 0.0000
# 4 0.0000 0.0000 0.0000 9.1503 0.0000 0.0000
# 5 0.0000 0.0000 0.0000 0.0000 -219.1593 0.0000
# 6 0.0000 0.0000 0.0000 0.0000 0.0000 36.5475
#
#
#
# Elastic Compliance Matrix: (Units=1/GPa)
#
#
# Indices 1 2 3 4 5 6 
#
# 1 0.008159 -0.004649 -0.005387 0.000000 0.000000 0.000000
# 2 -0.004649 0.016334 -0.002802 0.000000 0.000000 0.000000
# 3 -0.005387 -0.002802 0.015786 0.000000 0.000000 0.000000
# 4 0.000000 0.000000 0.000000 0.109286 0.000000 0.000000
# 5 0.000000 0.000000 0.000000 0.000000 -0.004563 0.000000
# 6 0.000000 0.000000 0.000000 0.000000 0.000000 0.027362
#
#
# Mechanical properties :
#
#
# Convention : Reuss Voigt Hill
#
# Bulk Modulus (GPa) = 68.47653 95.93683 82.20668
# Shear Modulus (GPa) = 24.64190 -20.91767 1.86212
#
# Velocity S-wave (km/s) = 3.57676 -3.29541 0.98323
# Velocity P-wave (km/s) = 7.25315 5.94369 6.63082
#
# Compressibility (1/GPa) = 0.01460354
#
# Stress axis : x y z
#
# Youngs Moduli (GPa) = 122.55804 61.22251 63.34895
#
# Poissons Ratio (x) = 0.28460 0.34125
# Poissons Ratio (y) = 0.56972 0.17752
# Poissons Ratio (z) = 0.66020 0.17156
#
# Static dielectric constant tensor:
#      x y z
#    x 1.671480 0.000000 0.000000 
#    y 0.000000 1.642030 0.000000 
#    z 0.000000 0.000000 1.691680 
# 
# From -- ./inp_files/10621.got.cif
#   From: 2010.05.17/outbox.cif.g08.bks.cpg/sg39_6_cif.got.tgz:10621.got - 2010.06.03 18:22:40.
