data_PCOD9360546
_publ_section_title
;
Structure prediction by ZEFSAII (Michael W. Deem and Ramdas Pophale) SiO2 
 PCOD9360546
Probable space group: A B M 2
;
_chemical_formula_sum "Si O2"
_cell_formula_units_Z 64
_cell_length_a 7.011343
_cell_length_b 15.891336
_cell_length_c 23.840226
_cell_angle_alpha 90.000000
_cell_angle_beta 90.000000
_cell_angle_gamma 90.000000
_cell_volume 2656.268622
_symmetry_space_group_name_H-M "A B M 2"
_symmetry_group_IT_number 39
_symmetry_cell_setting 'orthorhombic'
loop_
_space_group_symop_operation_xyz
x,y,z
-x,-y,z
-x,1/2+y,z
x,1/2-y,z
x,1/2+y,1/2+z
-x,1/2-y,1/2+z
-x,y,1/2+z
x,-y,1/2+z
loop_
_atom_site_type_symbol
_atom_site_label
_atom_site_fract_x
_atom_site_fract_y
_atom_site_fract_z
Si Si1 0.302417 0.475641 0.521590
Si Si2 0.218933 0.157485 0.605884
Si Si3 0.771918 0.522421 0.222849
Si Si4 0.326660 0.157504 0.131262
Si Si5 0.220020 0.157919 0.731990
Si Si6 0.851182 0.845076 0.309289
Si Si7 0.173328 0.158114 0.007181
Si Si8 0.217181 0.842465 0.938247
O O1 0.500000 0.500000 0.550366
O O2 0.181231 0.423927 0.567685
O O3 0.230525 0.561654 0.494666
O O4 0.340985 0.409937 0.471489
O O5 0.176489 0.250000 0.580385
O O6 0.449092 0.157053 0.615032
O O7 0.133809 0.156785 0.668438
O O8 0.717993 0.577230 0.169056
O O9 0.674005 0.431542 0.231384
O O10 0.743524 0.583523 0.275335
O O11 0.000000 0.500000 0.220289
O O12 0.291187 0.250000 0.158388
O O13 0.200969 0.155871 0.074734
O O14 0.317439 0.250000 0.736145
O O15 0.061906 0.155594 0.780880
O O16 0.776621 0.750000 0.301627
O O17 0.842655 0.864182 0.375086
O O18 0.267211 0.250000 0.992532
O O19 0.973812 0.162553 0.975127
O O20 0.307292 0.750000 0.937199
#
# Coordination Sequence:
#
# PCOD9360546 Si02
#       8
#     8   8   8   8   8   8   8   8
#     4  12  23  37  63  93 127 169 214 260 319 391
#     4  10  21  38  59  85 124 166 207 255 315 388
#     4  10  20  32  55  84 112 149 194 251 313 371
#     4  10  20  36  57  82 120 160 202 257 318 382
#     4   9  19  33  55  84 115 153 197 246 306 372
#     4   9  19  39  62  86 114 151 203 263 315 365
#     4  10  22  38  57  88 124 164 206 260 324 382
#     4  10  23  42  66  90 122 165 216 271 324 384
#
# _framework density 24.093948000000001
#
# number of rings (size 3 to 8) (size 9 to 14) (size 15 to 20)
#    0.000    2.000    1.250    1.875    0.000    7.000 
#    0.000    6.250    5.500    0.000    0.000    0.000 
#    0.000    0.000    0.000    0.000    0.000    0.000 
#
# Total GULP energy -178562.004462 kJ/mol
# GULP energy per Si atom -5580.062639 kJ/mol
# Density = 2.403911 g / cm^3
# Si number density = 24.093948 Si / 1000 Ang^3
#
#
#
# Elastic Constant Matrix: (Units=GPa)
#
#
# Indices 1 2 3 4 5 6 
#
# 1 66.8097 17.6508 21.6850 0.0000 0.0000 0.0000
# 2 17.6508 226.4406 47.6228 0.0000 0.0000 0.0000
# 3 21.6850 47.6228 129.1552 0.0000 0.0000 0.0000
# 4 0.0000 0.0000 0.0000 38.7538 0.0000 0.0000
# 5 0.0000 0.0000 0.0000 0.0000 22.4082 0.0000
# 6 0.0000 0.0000 0.0000 0.0000 0.0000 19.9773
#
#
#
# Elastic Compliance Matrix: (Units=1/GPa)
#
#
# Indices 1 2 3 4 5 6 
#
# 1 0.015943 -0.000737 -0.002405 0.000000 0.000000 0.000000
# 2 -0.000737 0.004821 -0.001654 0.000000 0.000000 0.000000
# 3 -0.002405 -0.001654 0.008756 0.000000 0.000000 0.000000
# 4 0.000000 0.000000 0.000000 0.025804 0.000000 0.000000
# 5 0.000000 0.000000 0.000000 0.000000 0.044626 0.000000
# 6 0.000000 0.000000 0.000000 0.000000 0.000000 0.050057
#
#
# Mechanical properties :
#
#
# Convention : Reuss Voigt Hill
#
# Bulk Modulus (GPa) = 50.17867 66.25808 58.21838
# Shear Modulus (GPa) = 30.07638 38.59099 34.33368
#
# Velocity S-wave (km/s) = 3.53696 4.00645 3.77900
# Velocity P-wave (km/s) = 6.12793 6.99727 6.57698
#
# Compressibility (1/GPa) = 0.01992879
#
# Stress axis : x y z
#
# Youngs Moduli (GPa) = 62.72253 207.40520 114.20301
#
# Poissons Ratio (x) = 0.15284 0.27467
# Poissons Ratio (y) = 0.04622 0.18890
# Poissons Ratio (z) = 0.15086 0.34306
#
# Static dielectric constant tensor:
#      x y z
#    x 1.991170 0.000000 0.000000 
#    y 0.000000 2.010400 0.000000 
#    z 0.000000 0.000000 1.872150 
# 
# From -- ./inp_files/15681.got.cif
#   From: 2010.05.17/outbox.cif.g08.bks.cpg/sg39_8_cif.got.tgz:15681.got - 2010.06.03 18:22:40.
