data_PCOD9360243
_publ_section_title
;
Structure prediction by ZEFSAII (Michael W. Deem and Ramdas Pophale) SiO2 
 PCOD9360243
Probable space group: A B M 2
;
_chemical_formula_sum "Si O2"
_cell_formula_units_Z 64
_cell_length_a 19.800116
_cell_length_b 8.686635
_cell_length_c 20.967770
_cell_angle_alpha 90.000000
_cell_angle_beta 90.000000
_cell_angle_gamma 90.000000
_cell_volume 3606.380550
_symmetry_space_group_name_H-M "A B M 2"
_symmetry_group_IT_number 39
_symmetry_cell_setting 'orthorhombic'
loop_
_space_group_symop_operation_xyz
x,y,z
-x,-y,z
-x,1/2+y,z
x,1/2-y,z
x,1/2+y,1/2+z
-x,1/2-y,1/2+z
-x,y,1/2+z
x,-y,1/2+z
loop_
_atom_site_type_symbol
_atom_site_label
_atom_site_fract_x
_atom_site_fract_y
_atom_site_fract_z
Si Si1 0.428413 0.434599 0.585650
Si Si2 0.710969 0.935696 0.891142
Si Si3 0.927445 0.066505 0.069300
Si Si4 0.204213 0.433970 0.016035
Si Si5 0.792369 0.064307 0.264791
Si Si6 0.427270 0.434374 0.437137
Si Si7 0.285793 0.564172 0.135485
Si Si8 0.926814 0.933864 0.211444
O O1 0.500000 0.500000 0.607196
O O2 0.432414 0.250000 0.585787
O O3 0.417360 0.483033 0.511646
O O4 0.364094 0.480339 0.627539
O O5 0.704965 0.750000 0.890875
O O6 0.754171 0.980737 0.953445
O O7 0.751966 0.981697 0.828089
O O8 0.636322 0.004840 0.897640
O O9 0.929814 0.250000 0.073717
O O10 0.913114 0.999782 0.140217
O O11 0.000000 0.000000 0.050065
O O12 0.868571 0.012082 0.022602
O O13 0.196341 0.250000 0.015643
O O14 0.245547 0.486058 0.078125
O O15 0.800898 0.250000 0.265741
O O16 0.747637 0.024557 0.202740
O O17 0.865530 0.988562 0.255787
O O18 0.500000 0.500000 0.416793
O O19 0.429104 0.250000 0.435157
O O20 0.280991 0.750000 0.127727
O O21 0.930050 0.750000 0.208139
O O22 0.000000 0.000000 0.230844
#
# Coordination Sequence:
#
# PCOD9360243 Si02
#       8
#     8   8   8   8   8   8   8   8
#     4   9  18  31  50  79 108 139 180 229 281 333
#     4  10  22  38  56  82 116 153 190 231 280 335
#     4  11  21  35  56  83 114 146 184 230 283 335
#     4  11  21  34  55  83 113 143 184 232 279 329
#     4  10  21  38  58  81 114 153 189 228 280 335
#     4  10  19  33  55  81 110 144 188 233 281 338
#     4  10  19  34  56  80 108 143 185 229 280 333
#     4  11  21  35  57  85 113 145 187 230 278 332
#
# _framework density 17.746324999999999
#
# number of rings (size 3 to 8) (size 9 to 14) (size 15 to 20)
#    0.000    1.750    2.500    3.750    0.000    2.000 
#    0.000    1.250    0.000    1.500    0.000    0.000 
#    0.000    0.000    0.000    0.000    0.000    0.000 
#
# Total GULP energy -178689.764977 kJ/mol
# GULP energy per Si atom -5584.055156 kJ/mol
# Density = 1.770593 g / cm^3
# Si number density = 17.746325 Si / 1000 Ang^3
#
#
#
# Elastic Constant Matrix: (Units=GPa)
#
#
# Indices 1 2 3 4 5 6 
#
# 1 183.6770 57.9146 74.8580 0.0000 0.0000 0.0000
# 2 57.9146 62.2521 42.1760 0.0000 0.0000 0.0000
# 3 74.8580 42.1760 99.8465 0.0000 0.0000 0.0000
# 4 0.0000 0.0000 0.0000 16.3772 0.0000 0.0000
# 5 0.0000 0.0000 0.0000 0.0000 27.7160 0.0000
# 6 0.0000 0.0000 0.0000 0.0000 0.0000 35.1836
#
#
#
# Elastic Compliance Matrix: (Units=1/GPa)
#
#
# Indices 1 2 3 4 5 6 
#
# 1 0.008929 -0.005283 -0.004463 0.000000 0.000000 0.000000
# 2 -0.005283 0.025630 -0.006865 0.000000 0.000000 0.000000
# 3 -0.004463 -0.006865 0.016261 0.000000 0.000000 0.000000
# 4 0.000000 0.000000 0.000000 0.061060 0.000000 0.000000
# 5 0.000000 0.000000 0.000000 0.000000 0.036080 0.000000
# 6 0.000000 0.000000 0.000000 0.000000 0.000000 0.028422
#
#
# Mechanical properties :
#
#
# Convention : Reuss Voigt Hill
#
# Bulk Modulus (GPa) = 56.82556 77.29697 67.06127
# Shear Modulus (GPa) = 23.20491 27.24384 25.22437
#
# Velocity S-wave (km/s) = 3.61998 3.92239 3.77422
# Velocity P-wave (km/s) = 7.04009 8.01029 7.54081
#
# Compressibility (1/GPa) = 0.01759771
#
# Stress axis : x y z
#
# Youngs Moduli (GPa) = 111.99517 39.01639 61.49662
#
# Poissons Ratio (x) = 0.20614 0.27443
# Poissons Ratio (y) = 0.59172 0.42219
# Poissons Ratio (z) = 0.49978 0.26786
#
# Static dielectric constant tensor:
#      x y z
#    x 1.610140 0.000000 0.000000 
#    y 0.000000 1.598220 0.000000 
#    z 0.000000 0.000000 1.586500 
# 
# From -- ./inp_files/13115.got.cif
#   From: 2010.05.17/outbox.cif.g08.bks.cpg/sg39_7_cif.got.tgz:13115.got - 2010.06.03 18:22:40.
