data_PCOD9360085
_publ_section_title
;
Structure prediction by ZEFSAII (Michael W. Deem and Ramdas Pophale) SiO2 
 PCOD9360085
Probable space group: A B M 2
;
_chemical_formula_sum "Si O2"
_cell_formula_units_Z 64
_cell_length_a 14.890242
_cell_length_b 9.091280
_cell_length_c 25.170512
_cell_angle_alpha 90.000000
_cell_angle_beta 90.000000
_cell_angle_gamma 90.000000
_cell_volume 3407.366423
_symmetry_space_group_name_H-M "A B M 2"
_symmetry_group_IT_number 39
_symmetry_cell_setting 'orthorhombic'
loop_
_space_group_symop_operation_xyz
x,y,z
-x,-y,z
-x,1/2+y,z
x,1/2-y,z
x,1/2+y,1/2+z
-x,1/2-y,1/2+z
-x,y,1/2+z
x,-y,1/2+z
loop_
_atom_site_type_symbol
_atom_site_label
_atom_site_fract_x
_atom_site_fract_y
_atom_site_fract_z
Si Si1 0.285390 0.926420 0.743810
Si Si2 0.402312 0.573822 0.639978
Si Si3 0.133425 0.080716 0.397750
Si Si4 0.342902 0.581346 0.926360
Si Si5 0.089867 0.075161 0.006508
Si Si6 0.090708 0.925725 0.776678
Si Si7 0.707828 0.926974 0.033920
Si Si8 0.589024 0.075921 0.326239
O O1 0.293623 0.750000 0.754021
O O2 0.341004 0.962274 0.690994
O O3 0.179707 0.960942 0.743088
O O4 0.329014 0.015588 0.791773
O O5 0.500000 0.500000 0.641494
O O6 0.414953 0.750000 0.639886
O O7 0.345391 0.535329 0.587371
O O8 0.102024 0.250000 0.405501
O O9 0.241042 0.082929 0.403867
O O10 0.107631 0.031347 0.338580
O O11 0.099307 0.979423 0.445473
O O12 0.375410 0.750000 0.927261
O O13 0.398183 0.482089 0.885918
O O14 0.336234 0.511212 0.984445
O O15 0.080134 0.250000 0.008274
O O16 0.185423 0.035852 0.033920
O O17 0.000000 0.000000 0.028843
O O18 0.080426 0.750000 0.776468
O O19 0.000000 0.000000 0.757451
O O20 0.702353 0.750000 0.025659
O O21 0.582202 0.250000 0.324256
O O22 0.500000 0.000000 0.303444
#
# Coordination Sequence:
#
# PCOD9360085 Si02
#       8
#     8   8   8   8   8   8   8   8
#     4  10  21  41  62  83 115 153 192 241 293 343
#     4  10  22  41  66  87 110 145 191 242 294 348
#     4   9  17  31  51  76 110 151 191 230 276 332
#     4  10  19  35  57  83 117 154 189 233 287 342
#     4  10  19  31  50  77 113 151 193 234 276 334
#     4  10  20  34  53  80 115 152 191 234 281 338
#     4   9  20  38  57  83 115 151 192 235 287 348
#     4  12  24  37  57  85 117 153 190 235 289 351
#
# _framework density 18.782834999999999
#
# number of rings (size 3 to 8) (size 9 to 14) (size 15 to 20)
#    0.000    2.000    1.250    2.625    0.000    5.500 
#    0.000    1.875    0.000    0.000    0.000    0.000 
#    0.000    0.000    0.000    0.000    0.000    0.000 
#
# Total GULP energy -178654.817554 kJ/mol
# GULP energy per Si atom -5582.963049 kJ/mol
# Density = 1.874008 g / cm^3
# Si number density = 18.782835 Si / 1000 Ang^3
#
#
#
# Elastic Constant Matrix: (Units=GPa)
#
#
# Indices 1 2 3 4 5 6 
#
# 1 145.9860 55.7708 65.4655 0.0000 0.0000 0.0000
# 2 55.7708 66.7812 48.6397 0.0000 0.0000 0.0000
# 3 65.4655 48.6397 101.7173 0.0000 0.0000 0.0000
# 4 0.0000 0.0000 0.0000 12.1997 0.0000 0.0000
# 5 0.0000 0.0000 0.0000 0.0000 16.6605 0.0000
# 6 0.0000 0.0000 0.0000 0.0000 0.0000 33.7677
#
#
#
# Elastic Compliance Matrix: (Units=1/GPa)
#
#
# Indices 1 2 3 4 5 6 
#
# 1 0.011099 -0.006239 -0.004160 0.000000 0.000000 0.000000
# 2 -0.006239 0.026484 -0.008649 0.000000 0.000000 0.000000
# 3 -0.004160 -0.008649 0.016644 0.000000 0.000000 0.000000
# 4 0.000000 0.000000 0.000000 0.081970 0.000000 0.000000
# 5 0.000000 0.000000 0.000000 0.000000 0.060022 0.000000
# 6 0.000000 0.000000 0.000000 0.000000 0.000000 0.029614
#
#
# Mechanical properties :
#
#
# Convention : Reuss Voigt Hill
#
# Bulk Modulus (GPa) = 61.99001 72.69295 67.34148
# Shear Modulus (GPa) = 18.56626 22.16614 20.36620
#
# Velocity S-wave (km/s) = 3.14740 3.43902 3.29644
# Velocity P-wave (km/s) = 6.80319 7.38614 7.10065
#
# Compressibility (1/GPa) = 0.01613163
#
# Stress axis : x y z
#
# Youngs Moduli (GPa) = 90.09859 37.75858 60.08139
#
# Poissons Ratio (x) = 0.23559 0.24993
# Poissons Ratio (y) = 0.56215 0.51962
# Poissons Ratio (z) = 0.37479 0.32656
#
# Static dielectric constant tensor:
#      x y z
#    x 1.693030 0.000000 0.000000 
#    y 0.000000 1.633030 0.000000 
#    z 0.000000 0.000000 1.639400 
# 
# From -- ./inp_files/16175.got.cif
#   From: 2010.05.17/outbox.cif.g08.bks.cpg/sg39_9_cif.got.tgz:16175.got - 2010.06.03 18:22:40.
