data_PCOD9360328
_publ_section_title
;
Structure prediction by ZEFSAII (Michael W. Deem and Ramdas Pophale) SiO2 
 PCOD9360328
Probable space group: A B M 2
;
_chemical_formula_sum "Si O2"
_cell_formula_units_Z 64
_cell_length_a 24.448615
_cell_length_b 7.745319
_cell_length_c 15.771874
_cell_angle_alpha 90.000000
_cell_angle_beta 90.000000
_cell_angle_gamma 90.000000
_cell_volume 2986.598687
_symmetry_space_group_name_H-M "A B M 2"
_symmetry_group_IT_number 39
_symmetry_cell_setting 'orthorhombic'
loop_
_space_group_symop_operation_xyz
x,y,z
-x,-y,z
-x,1/2+y,z
x,1/2-y,z
x,1/2+y,1/2+z
-x,1/2-y,1/2+z
-x,y,1/2+z
x,-y,1/2+z
loop_
_atom_site_type_symbol
_atom_site_label
_atom_site_fract_x
_atom_site_fract_y
_atom_site_fract_z
Si Si1 0.176020 0.462536 0.806480
Si Si2 0.638062 0.047259 0.515047
Si Si3 0.563205 0.043545 0.858663
Si Si4 0.436864 0.541914 0.666578
Si Si5 0.823333 0.949433 0.621513
Si Si6 0.939958 0.955992 0.070099
Si Si7 0.245069 0.549815 0.464308
Si Si8 0.940135 0.456726 0.373811
O O1 0.175321 0.250000 0.806495
O O2 0.194220 0.517446 0.713189
O O3 0.215628 0.524011 0.881308
O O4 0.113882 0.519888 0.826201
O O5 0.646292 0.250000 0.534791
O O6 0.604265 0.974140 0.594835
O O7 0.697681 0.971036 0.494850
O O8 0.601554 0.032365 0.430910
O O9 0.569589 0.250000 0.860335
O O10 0.574896 0.980751 0.762595
O O11 0.500000 0.000000 0.876611
O O12 0.500000 0.500000 0.646059
O O13 0.433328 0.750000 0.668065
O O14 0.807114 0.750000 0.613837
O O15 0.888956 0.962228 0.617616
O O16 0.797532 0.043761 0.541543
O O17 0.932933 0.750000 0.070916
O O18 0.938226 0.018268 0.971841
O O19 0.000000 0.000000 0.104004
O O20 0.256279 0.750000 0.443082
O O21 0.936698 0.250000 0.376713
O O22 0.000000 0.500000 0.338287
#
# Coordination Sequence:
#
# PCOD9360328 Si02
#       8
#     8   8   8   8   8   8   8   8
#     4   9  19  37  57  77 106 145 182 224 278 334
#     4  10  21  36  58  83 109 147 192 231 275 328
#     4  10  20  35  56  82 117 149 180 224 273 325
#     4   9  19  35  54  82 115 148 181 222 273 326
#     4  11  22  36  57  83 110 141 184 233 278 328
#     4  10  19  34  57  82 111 145 179 220 276 337
#     4  10  21  41  60  76 108 151 190 230 277 330
#     4   9  17  32  54  77 104 138 174 214 266 328
#
# _framework density 21.429061000000001
#
# number of rings (size 3 to 8) (size 9 to 14) (size 15 to 20)
#    0.000    2.250    1.250    1.500    0.000    4.500 
#    0.000    3.750    0.000    0.000    0.000    0.000 
#    0.000    0.000    0.000    0.000    0.000    0.000 
#
# Total GULP energy -178694.567215 kJ/mol
# GULP energy per Si atom -5584.205225 kJ/mol
# Density = 2.138029 g / cm^3
# Si number density = 21.429061 Si / 1000 Ang^3
#
#
#
# Elastic Constant Matrix: (Units=GPa)
#
#
# Indices 1 2 3 4 5 6 
#
# 1 77.3340 -15.5560 27.2715 0.0000 0.0000 0.0000
# 2 -15.5560 32.9939 -11.8908 0.0000 0.0000 0.0000
# 3 27.2715 -11.8908 81.8884 0.0000 0.0000 0.0000
# 4 0.0000 0.0000 0.0000 -10.0715 0.0000 0.0000
# 5 0.0000 0.0000 0.0000 0.0000 -9.6980 0.0000
# 6 0.0000 0.0000 0.0000 0.0000 0.0000 17.0352
#
#
#
# Elastic Compliance Matrix: (Units=1/GPa)
#
#
# Indices 1 2 3 4 5 6 
#
# 1 0.015637 0.005799 -0.004366 0.000000 0.000000 0.000000
# 2 0.005799 0.034133 0.003025 0.000000 0.000000 0.000000
# 3 -0.004366 0.003025 0.014105 0.000000 0.000000 0.000000
# 4 0.000000 0.000000 0.000000 -0.099290 0.000000 0.000000
# 5 0.000000 0.000000 0.000000 0.000000 -0.103114 0.000000
# 6 0.000000 0.000000 0.000000 0.000000 0.000000 0.058702
#
#
# Mechanical properties :
#
#
# Convention : Reuss Voigt Hill
#
# Bulk Modulus (GPa) = 13.73771 21.31840 17.52805
# Shear Modulus (GPa) = -77.54180 12.27927 -32.63127
#
# Velocity S-wave (km/s) = -6.02195 2.39638 -3.90649
# Velocity P-wave (km/s) = 6.47512 4.19843 3.48571
#
# Compressibility (1/GPa) = 0.07279236
#
# Stress axis : x y z
#
# Youngs Moduli (GPa) = 63.95116 29.29712 70.89758
#
# Poissons Ratio (x) = -0.16990 0.30950
# Poissons Ratio (y) = -0.37087 -0.21447
# Poissons Ratio (z) = 0.27918 -0.08863
#
# Static dielectric constant tensor:
#      x y z
#    x 1.759920 0.000000 0.000000 
#    y 0.000000 1.813200 0.000000 
#    z 0.000000 0.000000 1.778440 
# 
# From -- ./inp_files/10557.got.cif
#   From: 2010.05.17/outbox.cif.g08.bks.cpg/sg39_6_cif.got.tgz:10557.got - 2010.06.03 18:22:40.
