data_PCOD9360203
_publ_section_title
;
Structure prediction by ZEFSAII (Michael W. Deem and Ramdas Pophale) SiO2 
 PCOD9360203
Probable space group: A B M 2
;
_chemical_formula_sum "Si O2"
_cell_formula_units_Z 64
_cell_length_a 19.675205
_cell_length_b 14.547575
_cell_length_c 9.870246
_cell_angle_alpha 90.000000
_cell_angle_beta 90.000000
_cell_angle_gamma 90.000000
_cell_volume 2825.126168
_symmetry_space_group_name_H-M "A B M 2"
_symmetry_group_IT_number 39
_symmetry_cell_setting 'orthorhombic'
loop_
_space_group_symop_operation_xyz
x,y,z
-x,-y,z
-x,1/2+y,z
x,1/2-y,z
x,1/2+y,1/2+z
-x,1/2-y,1/2+z
-x,y,1/2+z
x,-y,1/2+z
loop_
_atom_site_type_symbol
_atom_site_label
_atom_site_fract_x
_atom_site_fract_y
_atom_site_fract_z
Si Si1 0.389168 0.637134 0.014520
Si Si2 0.946296 0.897397 0.173059
Si Si3 0.935121 0.088402 0.348145
Si Si4 0.800212 0.897693 0.197972
Si Si5 0.351120 0.355108 0.225383
Si Si6 0.208936 0.449963 0.909376
Si Si7 0.343522 0.139160 0.798038
Si Si8 0.455165 0.862140 0.502543
O O1 0.388172 0.750000 0.020551
O O2 0.346182 0.606928 0.143465
O O3 0.467715 0.607361 0.018427
O O4 0.358350 0.603391 0.873856
O O5 0.873119 0.848933 0.189320
O O6 0.011250 0.857152 0.253770
O O7 0.934235 0.991264 0.263096
O O8 0.957241 0.912373 0.009521
O O9 0.855163 0.111654 0.357781
O O10 0.727153 0.850925 0.182229
O O11 0.795212 0.953632 0.335135
O O12 0.802322 0.964210 0.068007
O O13 0.374733 0.250000 0.240245
O O14 0.403565 0.395936 0.118345
O O15 0.279822 0.403040 0.874653
O O16 0.337490 0.250000 0.805476
O O17 0.416259 0.115226 0.864078
O O18 0.457765 0.750000 0.506585
#
# Coordination Sequence:
#
# PCOD9360203 Si02
#       8
#     8   8   8   8   8   8   8   8
#     4   9  18  30  49  79 102 125 164 212 257 287
#     4   9  16  28  46  70  96 124 163 202 239 284
#     4   9  16  28  46  70  96 124 163 202 239 284
#     4  10  21  34  51  75 103 136 166 200 249 298
#     4  10  19  33  53  77 102 129 167 209 249 295
#     4  10  21  34  51  75 103 136 166 200 249 298
#     4  10  19  33  53  77 102 129 167 209 249 295
#     4   9  16  30  53  75  98 127 166 212 249 289
#
# _framework density 22.653855
#
# number of rings (size 3 to 8) (size 9 to 14) (size 15 to 20)
#    0.000    2.500    1.250    2.250    1.750    4.000 
#    0.000    0.000    0.000    5.250    0.000    0.000 
#    0.000    0.000    0.000    0.000    0.000    0.000 
#
# Total GULP energy -178245.180902 kJ/mol
# GULP energy per Si atom -5570.161903 kJ/mol
# Density = 2.260229 g / cm^3
# Si number density = 22.653855 Si / 1000 Ang^3
#
#
#
# Elastic Constant Matrix: (Units=GPa)
#
#
# Indices 1 2 3 4 5 6 
#
# 1 132.3287 -2.6829 15.9618 0.0000 0.0000 0.0000
# 2 -2.6829 47.0432 10.1283 0.0000 0.0000 0.0000
# 3 15.9618 10.1283 134.5941 0.0000 0.0000 0.0000
# 4 0.0000 0.0000 0.0000 0.6866 0.0000 0.0000
# 5 0.0000 0.0000 0.0000 0.0000 38.1363 0.0000
# 6 0.0000 0.0000 0.0000 0.0000 0.0000 67.9255
#
#
#
# Elastic Compliance Matrix: (Units=1/GPa)
#
#
# Indices 1 2 3 4 5 6 
#
# 1 0.007686 0.000645 -0.000960 0.000000 0.000000 0.000000
# 2 0.000645 0.021661 -0.001707 0.000000 0.000000 0.000000
# 3 -0.000960 -0.001707 0.007672 0.000000 0.000000 0.000000
# 4 0.000000 0.000000 0.000000 1.456380 0.000000 0.000000
# 5 0.000000 0.000000 0.000000 0.000000 0.026222 0.000000
# 6 0.000000 0.000000 0.000000 0.000000 0.000000 0.014722
#
#
# Mechanical properties :
#
#
# Convention : Reuss Voigt Hill
#
# Bulk Modulus (GPa) = 30.32503 40.08671 35.20587
# Shear Modulus (GPa) = 3.22710 40.72027 21.97368
#
# Velocity S-wave (km/s) = 1.19483 4.24429 3.11782
# Velocity P-wave (km/s) = 3.91393 6.46161 5.34187
#
# Compressibility (1/GPa) = 0.03297606
#
# Stress axis : x y z
#
# Youngs Moduli (GPa) = 130.10979 46.16534 130.34384
#
# Poissons Ratio (x) = -0.02978 0.12513
# Poissons Ratio (y) = -0.08392 0.22243
# Poissons Ratio (z) = 0.12491 0.07878
#
# Static dielectric constant tensor:
#      x y z
#    x 1.874930 0.000000 0.000000 
#    y 0.000000 1.888020 0.000000 
#    z 0.000000 0.000000 1.852130 
# 
# From -- ./inp_files/3869.got.cif
#   From: 2010.05.17/outbox.cif.g08.bks.cpg/sg39_2_cif.got.tgz:3869.got - 2010.06.03 18:22:40.
