data_PCOD9360721
_publ_section_title
;
Structure prediction by ZEFSAII (Michael W. Deem and Ramdas Pophale) SiO2 
 PCOD9360721
Probable space group: A B M 2
;
_chemical_formula_sum "Si O2"
_cell_formula_units_Z 64
_cell_length_a 21.070828
_cell_length_b 8.577159
_cell_length_c 18.922179
_cell_angle_alpha 90.000000
_cell_angle_beta 90.000000
_cell_angle_gamma 90.000000
_cell_volume 3419.764577
_symmetry_space_group_name_H-M "A B M 2"
_symmetry_group_IT_number 39
_symmetry_cell_setting 'orthorhombic'
loop_
_space_group_symop_operation_xyz
x,y,z
-x,-y,z
-x,1/2+y,z
x,1/2-y,z
x,1/2+y,1/2+z
-x,1/2-y,1/2+z
-x,y,1/2+z
x,-y,1/2+z
loop_
_atom_site_type_symbol
_atom_site_label
_atom_site_fract_x
_atom_site_fract_y
_atom_site_fract_z
Si Si1 0.811430 0.938446 0.721580
Si Si2 0.190713 0.940208 0.384134
Si Si3 0.569320 0.937195 0.725520
Si Si4 0.068821 0.561987 0.472531
Si Si5 0.930934 0.936797 0.136416
Si Si6 0.685445 0.437055 0.472209
Si Si7 0.311092 0.061395 0.630456
Si Si8 0.430587 0.064255 0.382758
O O1 0.812890 0.750000 0.721690
O O2 0.806715 0.991020 0.802849
O O3 0.749863 0.986843 0.676633
O O4 0.874849 0.999321 0.684635
O O5 0.190292 0.750000 0.384320
O O6 0.126539 0.991739 0.423437
O O7 0.252608 0.988613 0.427983
O O8 0.567050 0.750000 0.729093
O O9 0.624698 0.983476 0.671701
O O10 0.500000 0.000000 0.704803
O O11 0.583483 0.000257 0.804050
O O12 0.067218 0.750000 0.470882
O O13 0.079554 0.514668 0.554360
O O14 0.000000 0.500000 0.450336
O O15 0.931471 0.750000 0.138910
O O16 0.000000 0.000000 0.157819
O O17 0.681953 0.250000 0.468795
O O18 0.691362 0.490179 0.552848
O O19 0.623097 0.507221 0.436076
O O20 0.310489 0.250000 0.625004
O O21 0.432945 0.250000 0.380433
O O22 0.500000 0.000000 0.402671
#
# Coordination Sequence:
#
# PCOD9360721 Si02
#       8
#     8   8   8   8   8   8   8   8
#     4  10  20  36  57  79 108 145 183 227 279 332
#     4   9  19  36  57  80 108 144 182 223 275 331
#     4  10  20  37  60  85 115 150 187 228 277 332
#     4   9  18  34  55  78 106 140 179 221 266 320
#     4  10  20  35  55  80 109 142 181 225 274 330
#     4  11  22  38  60  83 111 149 191 234 282 335
#     4  10  22  38  56  81 115 152 190 234 283 335
#     4  11  22  38  60  86 116 148 186 230 278 335
#
# _framework density 18.714739999999999
#
# number of rings (size 3 to 8) (size 9 to 14) (size 15 to 20)
#    0.000    2.000    0.000    4.500    0.000    6.000 
#    0.000    6.875    0.000    0.000    0.000    0.000 
#    0.000    0.000    0.000    0.000    0.000    0.000 
#
# Total GULP energy -178777.435644 kJ/mol
# GULP energy per Si atom -5586.794864 kJ/mol
# Density = 1.867214 g / cm^3
# Si number density = 18.714740 Si / 1000 Ang^3
#
#
#
# Elastic Constant Matrix: (Units=GPa)
#
#
# Indices 1 2 3 4 5 6 
#
# 1 182.8665 45.6899 138.5202 0.0000 0.0000 0.0000
# 2 45.6899 42.5716 42.8115 0.0000 0.0000 0.0000
# 3 138.5202 42.8115 160.3535 0.0000 0.0000 0.0000
# 4 0.0000 0.0000 0.0000 14.5087 0.0000 0.0000
# 5 0.0000 0.0000 0.0000 0.0000 43.1785 0.0000
# 6 0.0000 0.0000 0.0000 0.0000 0.0000 26.7651
#
#
#
# Elastic Compliance Matrix: (Units=1/GPa)
#
#
# Indices 1 2 3 4 5 6 
#
# 1 0.016455 -0.004601 -0.012986 0.000000 0.000000 0.000000
# 2 -0.004601 0.033398 -0.004942 0.000000 0.000000 0.000000
# 3 -0.012986 -0.004942 0.018774 0.000000 0.000000 0.000000
# 4 0.000000 0.000000 0.000000 0.068924 0.000000 0.000000
# 5 0.000000 0.000000 0.000000 0.000000 0.023160 0.000000
# 6 0.000000 0.000000 0.000000 0.000000 0.000000 0.037362
#
#
# Mechanical properties :
#
#
# Convention : Reuss Voigt Hill
#
# Bulk Modulus (GPa) = 42.43036 93.31498 67.87267
# Shear Modulus (GPa) = 19.92141 27.47515 23.69828
#
# Velocity S-wave (km/s) = 3.26617 3.83574 3.56236
# Velocity P-wave (km/s) = 6.07826 8.34189 7.29837
#
# Compressibility (1/GPa) = 0.02356803
#
# Stress axis : x y z
#
# Youngs Moduli (GPa) = 60.77207 29.94209 53.26625
#
# Poissons Ratio (x) = 0.13776 0.69172
# Poissons Ratio (y) = 0.27961 0.26325
# Poissons Ratio (z) = 0.78919 0.14798
#
# Static dielectric constant tensor:
#      x y z
#    x 1.622630 0.000000 0.000000 
#    y 0.000000 1.637360 0.000000 
#    z 0.000000 0.000000 1.622030 
# 
# From -- ./inp_files/13182.got.cif
#   From: 2010.05.17/outbox.cif.g08.bks.cpg/sg39_7_cif.got.tgz:13182.got - 2010.06.03 18:22:40.
