data_PCOD9360072
_publ_section_title
;
Structure prediction by ZEFSAII (Michael W. Deem and Ramdas Pophale) SiO2 
 PCOD9360072
Probable space group: A B M 2
;
_chemical_formula_sum "Si O2"
_cell_formula_units_Z 64
_cell_length_a 14.667596
_cell_length_b 8.699967
_cell_length_c 32.109755
_cell_angle_alpha 90.000000
_cell_angle_beta 90.000000
_cell_angle_gamma 90.000000
_cell_volume 4097.448810
_symmetry_space_group_name_H-M "A B M 2"
_symmetry_group_IT_number 39
_symmetry_cell_setting 'orthorhombic'
loop_
_space_group_symop_operation_xyz
x,y,z
-x,-y,z
-x,1/2+y,z
x,1/2-y,z
x,1/2+y,1/2+z
-x,1/2-y,1/2+z
-x,y,1/2+z
x,-y,1/2+z
loop_
_atom_site_type_symbol
_atom_site_label
_atom_site_fract_x
_atom_site_fract_y
_atom_site_fract_z
Si Si1 0.397603 0.435423 0.247810
Si Si2 0.710361 0.564979 0.503514
Si Si3 0.601560 0.565769 0.587658
Si Si4 0.096542 0.565610 0.632133
Si Si5 0.602708 0.934352 0.339754
Si Si6 0.602593 0.432753 0.425753
Si Si7 0.096626 0.434488 0.538929
Si Si8 0.710707 0.564287 0.166371
O O1 0.500000 0.500000 0.243007
O O2 0.404161 0.250000 0.246554
O O3 0.360166 0.475818 0.293927
O O4 0.334120 0.486586 0.209795
O O5 0.704235 0.750000 0.498659
O O6 0.655843 0.523373 0.545651
O O7 0.663851 0.486245 0.464196
O O8 0.816023 0.524243 0.511169
O O9 0.500000 0.500000 0.586087
O O10 0.598489 0.750000 0.590119
O O11 0.653640 0.501633 0.627839
O O12 0.091148 0.750000 0.629709
O O13 0.110978 0.500456 0.585481
O O14 0.183745 0.521456 0.659696
O O15 0.000000 0.500000 0.647189
O O16 0.600904 0.750000 0.343597
O O17 0.500000 0.000000 0.338786
O O18 0.642471 0.005003 0.381925
O O19 0.500000 0.500000 0.430834
O O20 0.595558 0.250000 0.424103
O O21 0.091725 0.250000 0.541865
O O22 0.000000 0.500000 0.523804
O O23 0.705566 0.750000 0.164712
#
# Coordination Sequence:
#
# PCOD9360072 Si02
#       8
#     8   8   8   8   8   8   8   8
#     4   9  18  31  47  69  95 125 159 194 233 280
#     4  10  21  35  49  68  95 127 162 196 233 281
#     4  11  22  34  46  64  94 130 165 195 228 273
#     4  10  19  31  49  69  93 123 158 200 241 282
#     4   9  16  29  48  67  92 122 155 195 238 281
#     4  11  21  32  49  71  97 126 160 198 238 284
#     4  10  19  33  51  71  94 121 157 199 240 282
#     4  10  20  33  48  69  95 126 162 197 236 281
#
# _framework density 15.619475
#
# number of rings (size 3 to 8) (size 9 to 14) (size 15 to 20)
#    0.000    2.000    1.250    4.875    0.000    5.500 
#    0.000    0.000    0.000    0.000    0.000    0.875 
#    0.000    2.000    0.000    0.000    0.000    0.000 
#
# Total GULP energy -178490.820749 kJ/mol
# GULP energy per Si atom -5577.838148 kJ/mol
# Density = 1.558392 g / cm^3
# Si number density = 15.619475 Si / 1000 Ang^3
#
#
#
# Elastic Constant Matrix: (Units=GPa)
#
#
# Indices 1 2 3 4 5 6 
#
# 1 121.6815 40.7882 76.0436 0.0000 0.0000 0.0000
# 2 40.7882 50.5859 47.0801 0.0000 0.0000 0.0000
# 3 76.0436 47.0801 149.3503 0.0000 0.0000 0.0000
# 4 0.0000 0.0000 0.0000 22.3483 0.0000 0.0000
# 5 0.0000 0.0000 0.0000 0.0000 6.5158 0.0000
# 6 0.0000 0.0000 0.0000 0.0000 0.0000 21.5738
#
#
#
# Elastic Compliance Matrix: (Units=1/GPa)
#
#
# Indices 1 2 3 4 5 6 
#
# 1 0.013324 -0.006269 -0.004808 0.000000 0.000000 0.000000
# 2 -0.006269 0.030925 -0.006557 0.000000 0.000000 0.000000
# 3 -0.004808 -0.006557 0.011211 0.000000 0.000000 0.000000
# 4 0.000000 0.000000 0.000000 0.044746 0.000000 0.000000
# 5 0.000000 0.000000 0.000000 0.000000 0.153473 0.000000
# 6 0.000000 0.000000 0.000000 0.000000 0.000000 0.046352
#
#
# Mechanical properties :
#
#
# Convention : Reuss Voigt Hill
#
# Bulk Modulus (GPa) = 49.52223 72.16018 60.84121
# Shear Modulus (GPa) = 14.61857 20.60129 17.60993
#
# Velocity S-wave (km/s) = 3.06260 3.63567 3.36137
# Velocity P-wave (km/s) = 6.65434 7.99521 7.35539
#
# Compressibility (1/GPa) = 0.02019295
#
# Stress axis : x y z
#
# Youngs Moduli (GPa) = 75.05118 32.33596 89.20008
#
# Poissons Ratio (x) = 0.20270 0.42889
# Poissons Ratio (y) = 0.47047 0.58488
# Poissons Ratio (z) = 0.36086 0.21202
#
# Static dielectric constant tensor:
#      x y z
#    x 1.494260 0.000000 0.000000 
#    y 0.000000 1.527550 0.000000 
#    z 0.000000 0.000000 1.529820 
# 
# From -- ./inp_files/17959.got.cif
#   From: 2010.05.17/outbox.cif.g08.bks.cpg/sg39_9_cif.got.tgz:17959.got - 2010.06.03 18:22:40.
