data_PCOD9360160
_publ_section_title
;
Structure prediction by ZEFSAII (Michael W. Deem and Ramdas Pophale) SiO2 
 PCOD9360160
Probable space group: A B M 2
;
_chemical_formula_sum "Si O2"
_cell_formula_units_Z 64
_cell_length_a 14.937244
_cell_length_b 8.712659
_cell_length_c 25.124482
_cell_angle_alpha 90.000000
_cell_angle_beta 90.000000
_cell_angle_gamma 90.000000
_cell_volume 3269.778309
_symmetry_space_group_name_H-M "A B M 2"
_symmetry_group_IT_number 39
_symmetry_cell_setting 'orthorhombic'
loop_
_space_group_symop_operation_xyz
x,y,z
-x,-y,z
-x,1/2+y,z
x,1/2-y,z
x,1/2+y,1/2+z
-x,1/2-y,1/2+z
-x,y,1/2+z
x,-y,1/2+z
loop_
_atom_site_type_symbol
_atom_site_label
_atom_site_fract_x
_atom_site_fract_y
_atom_site_fract_z
Si Si1 0.786642 0.434740 0.305100
Si Si2 0.841006 0.430456 0.421547
Si Si3 0.782505 0.932407 0.106426
Si Si4 0.407570 0.065771 0.063627
Si Si5 0.100525 0.934031 0.201924
Si Si6 0.405914 0.429439 0.332329
Si Si7 0.091714 0.570175 0.022161
Si Si8 0.653685 0.568785 0.452033
O O1 0.779598 0.250000 0.304230
O O2 0.838148 0.475620 0.359760
O O3 0.845065 0.484670 0.254701
O O4 0.685554 0.498779 0.308914
O O5 0.862171 0.250000 0.427203
O O6 0.901624 0.531999 0.459834
O O7 0.740821 0.465469 0.441995
O O8 0.790469 0.750000 0.112781
O O9 0.677934 0.972023 0.100411
O O10 0.838787 0.013766 0.152387
O O11 0.828034 0.984396 0.051477
O O12 0.411407 0.250000 0.057503
O O13 0.500000 0.000000 0.085699
O O14 0.392978 0.989387 0.005534
O O15 0.094007 0.750000 0.202228
O O16 0.000000 0.000000 0.199593
O O17 0.500000 0.500000 0.314027
O O18 0.404910 0.250000 0.320144
O O19 0.400303 0.446028 0.396806
O O20 0.096175 0.750000 0.031866
O O21 0.000000 0.500000 0.043832
O O22 0.677577 0.750000 0.457909
#
# Coordination Sequence:
#
# PCOD9360160 Si02
#       8
#     8   8   8   8   8   8   8   8
#     4   9  21  40  62  88 121 159 201 250 304 359
#     4  10  19  35  57  85 123 161 198 245 300 358
#     4  11  24  43  64  89 121 158 201 252 305 358
#     4  11  23  37  58  86 121 160 202 248 299 359
#     4  11  24  44  69  94 118 153 200 253 308 365
#     4  10  20  33  54  86 123 164 207 250 297 356
#     4  12  24  38  59  87 121 160 200 246 302 367
#     4  10  19  32  53  83 120 163 207 245 294 353
#
# _framework density 19.573193
#
# number of rings (size 3 to 8) (size 9 to 14) (size 15 to 20)
#    0.000    1.500    1.250    4.125    0.000    6.000 
#    0.000    1.875    0.000    1.500    0.000    0.000 
#    0.000    0.000    0.000    0.000    0.000    0.000 
#
# Total GULP energy -178745.452195 kJ/mol
# GULP energy per Si atom -5585.795381 kJ/mol
# Density = 1.952864 g / cm^3
# Si number density = 19.573193 Si / 1000 Ang^3
#
#
#
# Elastic Constant Matrix: (Units=GPa)
#
#
# Indices 1 2 3 4 5 6 
#
# 1 128.2756 37.2257 51.9339 0.0000 0.0000 0.0000
# 2 37.2257 44.4187 23.8105 0.0000 0.0000 0.0000
# 3 51.9339 23.8105 99.1466 0.0000 0.0000 0.0000
# 4 0.0000 0.0000 0.0000 35.4681 0.0000 0.0000
# 5 0.0000 0.0000 0.0000 0.0000 16.2875 0.0000
# 6 0.0000 0.0000 0.0000 0.0000 0.0000 31.5248
#
#
#
# Elastic Compliance Matrix: (Units=1/GPa)
#
#
# Indices 1 2 3 4 5 6 
#
# 1 0.011732 -0.007504 -0.004343 0.000000 0.000000 0.000000
# 2 -0.007504 0.030639 -0.003428 0.000000 0.000000 0.000000
# 3 -0.004343 -0.003428 0.013184 0.000000 0.000000 0.000000
# 4 0.000000 0.000000 0.000000 0.028194 0.000000 0.000000
# 5 0.000000 0.000000 0.000000 0.000000 0.061397 0.000000
# 6 0.000000 0.000000 0.000000 0.000000 0.000000 0.031721
#
#
# Mechanical properties :
#
#
# Convention : Reuss Voigt Hill
#
# Bulk Modulus (GPa) = 39.99038 55.30899 47.64968
# Shear Modulus (GPa) = 23.17486 27.24748 25.21117
#
# Velocity S-wave (km/s) = 3.44468 3.73511 3.59283
# Velocity P-wave (km/s) = 6.02467 6.84984 6.45046
#
# Compressibility (1/GPa) = 0.02500601
#
# Stress axis : x y z
#
# Youngs Moduli (GPa) = 85.23943 32.63814 75.84856
#
# Poissons Ratio (x) = 0.24491 0.32942
# Poissons Ratio (y) = 0.63962 0.25997
# Poissons Ratio (z) = 0.37020 0.11187
#
# Static dielectric constant tensor:
#      x y z
#    x 1.687050 0.000000 0.000000 
#    y 0.000000 1.641680 0.000000 
#    z 0.000000 0.000000 1.699140 
# 
# From -- ./inp_files/16217.got.cif
#   From: 2010.05.17/outbox.cif.g08.bks.cpg/sg39_9_cif.got.tgz:16217.got - 2010.06.03 18:22:40.
