data_PCOD9360559
_publ_section_title
;
Structure prediction by ZEFSAII (Michael W. Deem and Ramdas Pophale) SiO2 
 PCOD9360559
Probable space group: A B M 2
;
_chemical_formula_sum "Si O2"
_cell_formula_units_Z 64
_cell_length_a 14.561172
_cell_length_b 8.710081
_cell_length_c 31.951995
_cell_angle_alpha 90.000000
_cell_angle_beta 90.000000
_cell_angle_gamma 90.000000
_cell_volume 4052.439177
_symmetry_space_group_name_H-M "A B M 2"
_symmetry_group_IT_number 39
_symmetry_cell_setting 'orthorhombic'
loop_
_space_group_symop_operation_xyz
x,y,z
-x,-y,z
-x,1/2+y,z
x,1/2-y,z
x,1/2+y,1/2+z
-x,1/2-y,1/2+z
-x,y,1/2+z
x,-y,1/2+z
loop_
_atom_site_type_symbol
_atom_site_label
_atom_site_fract_x
_atom_site_fract_y
_atom_site_fract_z
Si Si1 0.099583 0.565969 0.500000
Si Si2 0.603152 0.433787 0.197434
Si Si3 0.900700 0.566325 0.901719
Si Si4 0.283981 0.434328 0.367806
Si Si5 0.285192 0.065398 0.533039
Si Si6 0.396566 0.566068 0.290697
Si Si7 0.397879 0.934848 0.950004
Si Si8 0.396272 0.566665 0.611034
O O1 0.099558 0.750000 0.503380
O O2 0.114657 0.525049 0.450830
O O3 0.182227 0.494780 0.526396
O O4 0.000000 0.500000 0.511744
O O5 0.500000 0.500000 0.198822
O O6 0.600702 0.250000 0.192322
O O7 0.640435 0.469292 0.243776
O O8 0.643431 0.508981 0.155671
O O9 0.901534 0.750000 0.898609
O O10 0.818032 0.497460 0.874968
O O11 0.000000 0.500000 0.889872
O O12 0.282292 0.250000 0.366774
O O13 0.332675 0.497607 0.326505
O O14 0.343813 0.483777 0.408314
O O15 0.285675 0.250000 0.535792
O O16 0.342441 0.018968 0.491530
O O17 0.334893 0.994753 0.573197
O O18 0.500000 0.500000 0.294717
O O19 0.401890 0.750000 0.294624
O O20 0.402469 0.750000 0.949679
O O21 0.500000 0.000000 0.950501
O O22 0.500000 0.500000 0.606729
O O23 0.401623 0.750000 0.610645
#
# Coordination Sequence:
#
# PCOD9360559 Si02
#       8
#     8   8   8   8   8   8   8   8
#     4  10  20  34  53  75  98 129 166 210 256 299
#     4   9  17  31  50  71  97 129 166 208 253 297
#     4  10  20  34  53  74  98 129 166 211 256 299
#     4  11  21  34  50  72 100 134 172 208 250 298
#     4  11  21  35  51  71 100 134 171 209 250 297
#     4  10  20  33  50  74 102 134 171 209 252 300
#     4  10  22  34  46  65  95 134 171 204 239 287
#     4  11  21  33  50  74 102 133 171 209 252 301
#
# _framework density 15.792956999999999
#
# number of rings (size 3 to 8) (size 9 to 14) (size 15 to 20)
#    0.000    1.750    1.250    4.875    0.000    6.500 
#    0.000    0.000    0.000    0.000    0.000    0.875 
#    0.000    6.000    0.000    0.000    0.000    0.000 
#
# Total GULP energy -178624.788742 kJ/mol
# GULP energy per Si atom -5582.024648 kJ/mol
# Density = 1.575701 g / cm^3
# Si number density = 15.792957 Si / 1000 Ang^3
#
#
#
# Elastic Constant Matrix: (Units=GPa)
#
#
# Indices 1 2 3 4 5 6 
#
# 1 119.1538 45.4328 75.9130 0.0000 0.0000 0.0000
# 2 45.4328 75.1909 58.6648 0.0000 0.0000 0.0000
# 3 75.9130 58.6648 148.5486 0.0000 0.0000 0.0000
# 4 0.0000 0.0000 0.0000 26.0452 0.0000 0.0000
# 5 0.0000 0.0000 0.0000 0.0000 6.7159 0.0000
# 6 0.0000 0.0000 0.0000 0.0000 0.0000 29.5574
#
#
#
# Elastic Compliance Matrix: (Units=1/GPa)
#
#
# Indices 1 2 3 4 5 6 
#
# 1 0.013198 -0.003920 -0.005196 0.000000 0.000000 0.000000
# 2 -0.003920 0.020387 -0.006048 0.000000 0.000000 0.000000
# 3 -0.005196 -0.006048 0.011776 0.000000 0.000000 0.000000
# 4 0.000000 0.000000 0.000000 0.038395 0.000000 0.000000
# 5 0.000000 0.000000 0.000000 0.000000 0.148901 0.000000
# 6 0.000000 0.000000 0.000000 0.000000 0.000000 0.033832
#
#
# Mechanical properties :
#
#
# Convention : Reuss Voigt Hill
#
# Bulk Modulus (GPa) = 66.52681 78.10160 72.31420
# Shear Modulus (GPa) = 16.56571 23.32255 19.94413
#
# Velocity S-wave (km/s) = 3.24223 3.84704 3.55751
# Velocity P-wave (km/s) = 7.49879 8.32429 7.92230
#
# Compressibility (1/GPa) = 0.01503153
#
# Stress axis : x y z
#
# Youngs Moduli (GPa) = 75.76956 49.05139 84.92113
#
# Poissons Ratio (x) = 0.19230 0.44128
# Poissons Ratio (y) = 0.29705 0.51358
# Poissons Ratio (z) = 0.39372 0.29665
#
# Static dielectric constant tensor:
#      x y z
#    x 1.493120 0.000000 0.000000 
#    y 0.000000 1.527120 0.000000 
#    z 0.000000 0.000000 1.541000 
# 
# From -- ./inp_files/17857.got.cif
#   From: 2010.05.17/outbox.cif.g08.bks.cpg/sg39_9_cif.got.tgz:17857.got - 2010.06.03 18:22:40.
