data_PCOD9360488
_publ_section_title
;
Structure prediction by ZEFSAII (Michael W. Deem and Ramdas Pophale) SiO2 
 PCOD9360488
Probable space group: A B M 2
;
_chemical_formula_sum "Si O2"
_cell_formula_units_Z 56
_cell_length_a 15.357909
_cell_length_b 9.053125
_cell_length_c 20.335587
_cell_angle_alpha 90.000000
_cell_angle_beta 90.000000
_cell_angle_gamma 90.000000
_cell_volume 2827.400431
_symmetry_space_group_name_H-M "A B M 2"
_symmetry_group_IT_number 39
_symmetry_cell_setting 'orthorhombic'
loop_
_space_group_symop_operation_xyz
x,y,z
-x,-y,z
-x,1/2+y,z
x,1/2-y,z
x,1/2+y,1/2+z
-x,1/2-y,1/2+z
-x,y,1/2+z
x,-y,1/2+z
loop_
_atom_site_type_symbol
_atom_site_label
_atom_site_fract_x
_atom_site_fract_y
_atom_site_fract_z
Si Si1 0.268300 0.425878 0.077660
Si Si2 0.281409 0.072478 0.710864
Si Si3 0.909348 0.424929 0.032066
Si Si4 0.130192 0.082127 0.378411
Si Si5 0.412720 0.074763 0.967325
Si Si6 0.666465 0.078166 0.843416
Si Si7 0.914410 0.923401 0.749127
O O1 0.259382 0.250000 0.086922
O O2 0.308525 0.501284 0.142237
O O3 0.174607 0.498526 0.063756
O O4 0.331572 0.452271 0.015800
O O5 0.288200 0.250000 0.710843
O O6 0.178744 0.031460 0.719565
O O7 0.330175 0.003821 0.773504
O O8 0.909512 0.250000 0.046898
O O9 0.000000 0.500000 0.051682
O O10 0.898338 0.442778 0.953000
O O11 0.104809 0.250000 0.359008
O O12 0.234658 0.072923 0.371792
O O13 0.092832 0.967951 0.325921
O O14 0.424223 0.250000 0.960981
O O15 0.500000 0.000000 0.994185
O O16 0.392194 0.002883 0.896887
O O17 0.642596 0.250000 0.835964
O O18 0.923000 0.750000 0.741538
O O19 0.000000 0.000000 0.720897
#
# Coordination Sequence:
#
# PCOD9360488 Si02
#       7
#     8   8   8   8   8   8   8
#     4  11  24  42  63  90 125 166 210 260 313 371
#     4  10  22  39  60  86 120 164 207 253 311 371
#     4  11  22  36  55  84 121 165 212 258 312 366
#     4   9  18  32  53  81 114 154 197 248 306 358
#     4  11  24  42  68  99 128 160 202 252 312 375
#     4  10  19  37  64  93 123 156 199 251 306 367
#     4  10  20  32  50  77 111 153 202 254 304 358
#
# _framework density 19.806180000000001
#
# number of rings (size 3 to 8) (size 9 to 14) (size 15 to 20)
#    0.000    1.714    1.429    3.000    0.000    6.857 
#    0.000    2.143    0.000    1.714    0.000    0.000 
#    0.000    0.000    0.000    0.000    0.000    0.000 
#
# Total GULP energy -156510.450091 kJ/mol
# GULP energy per Si atom -5589.658932 kJ/mol
# Density = 1.976110 g / cm^3
# Si number density = 19.806180 Si / 1000 Ang^3
#
#
#
# Elastic Constant Matrix: (Units=GPa)
#
#
# Indices 1 2 3 4 5 6 
#
# 1 64.5154 43.9554 23.9520 0.0000 0.0000 0.0000
# 2 43.9554 95.2669 62.3070 0.0000 0.0000 0.0000
# 3 23.9520 62.3070 102.1350 0.0000 0.0000 0.0000
# 4 0.0000 0.0000 0.0000 27.7184 0.0000 0.0000
# 5 0.0000 0.0000 0.0000 0.0000 -1.1609 0.0000
# 6 0.0000 0.0000 0.0000 0.0000 0.0000 30.5820
#
#
#
# Elastic Compliance Matrix: (Units=1/GPa)
#
#
# Indices 1 2 3 4 5 6 
#
# 1 0.022800 -0.011685 0.001781 0.000000 0.000000 0.000000
# 2 -0.011685 0.023453 -0.011567 0.000000 0.000000 0.000000
# 3 0.001781 -0.011567 0.016430 0.000000 0.000000 0.000000
# 4 0.000000 0.000000 0.000000 0.036077 0.000000 0.000000
# 5 0.000000 0.000000 0.000000 0.000000 -0.861403 0.000000
# 6 0.000000 0.000000 0.000000 0.000000 0.000000 0.032699
#
#
# Mechanical properties :
#
#
# Convention : Reuss Voigt Hill
#
# Bulk Modulus (GPa) = 50.65460 58.03843 54.34652
# Shear Modulus (GPa) = -7.34839 20.20809 6.42985
#
# Velocity S-wave (km/s) = -1.92826 3.19767 1.80373
# Velocity P-wave (km/s) = 4.54676 6.55746 5.64240
#
# Compressibility (1/GPa) = 0.01974154
#
# Stress axis : x y z
#
# Youngs Moduli (GPa) = 43.86002 42.63766 60.86469
#
# Poissons Ratio (x) = 0.49821 -0.10842
# Poissons Ratio (y) = 0.51249 0.70405
# Poissons Ratio (z) = -0.07813 0.49321
#
# Static dielectric constant tensor:
#      x y z
#    x 1.700870 0.000000 0.000000 
#    y 0.000000 1.661550 0.000000 
#    z 0.000000 0.000000 1.690450 
# 
# From -- ./inp_files/14752.got.cif
#   From: 2010.05.17/outbox.cif.g08.bks.cpg/sg39_8_cif.got.tgz:14752.got - 2010.06.03 18:22:40.
