data_PCOD9360643
_publ_section_title
;
Structure prediction by ZEFSAII (Michael W. Deem and Ramdas Pophale) SiO2 
 PCOD9360643
Probable space group: A B M 2
;
_chemical_formula_sum "Si O2"
_cell_formula_units_Z 56
_cell_length_a 15.551585
_cell_length_b 8.972299
_cell_length_c 20.460155
_cell_angle_alpha 90.000000
_cell_angle_beta 90.000000
_cell_angle_gamma 90.000000
_cell_volume 2854.876435
_symmetry_space_group_name_H-M "A B M 2"
_symmetry_group_IT_number 39
_symmetry_cell_setting 'orthorhombic'
loop_
_space_group_symop_operation_xyz
x,y,z
-x,-y,z
-x,1/2+y,z
x,1/2-y,z
x,1/2+y,1/2+z
-x,1/2-y,1/2+z
-x,y,1/2+z
x,-y,1/2+z
loop_
_atom_site_type_symbol
_atom_site_label
_atom_site_fract_x
_atom_site_fract_y
_atom_site_fract_z
Si Si1 0.275151 0.571358 0.107360
Si Si2 0.850304 0.423936 0.300219
Si Si3 0.674382 0.427000 0.840749
Si Si4 0.587463 0.572422 0.720195
Si Si5 0.279665 0.570793 0.474003
Si Si6 0.913634 0.422465 0.444323
Si Si7 0.911704 0.427927 0.156173
O O1 0.275294 0.750000 0.096279
O O2 0.334014 0.542532 0.170495
O O3 0.176807 0.523667 0.121783
O O4 0.309818 0.487070 0.043917
O O5 0.820450 0.250000 0.294830
O O6 0.768131 0.526711 0.312618
O O7 0.907442 0.432628 0.365284
O O8 0.897860 0.461527 0.233293
O O9 0.665253 0.250000 0.843922
O O10 0.608489 0.498911 0.789860
O O11 0.671476 0.499243 0.912692
O O12 0.500000 0.500000 0.694264
O O13 0.578858 0.750000 0.726756
O O14 0.281793 0.750000 0.468673
O O15 0.179153 0.520362 0.467924
O O16 0.918415 0.250000 0.462621
O O17 0.000000 0.500000 0.467532
O O18 0.918058 0.250000 0.149431
O O19 0.000000 0.500000 0.132838
#
# Coordination Sequence:
#
# PCOD9360643 Si02
#       7
#     8   8   8   8   8   8   8
#     4  10  22  41  62  86 124 166 203 251 306 364
#     4   9  17  33  52  76 115 157 197 249 310 355
#     4  11  21  36  62  93 120 153 200 247 301 364
#     4  11  23  43  69  97 128 158 196 247 306 366
#     4  10  22  39  59  83 118 161 204 253 307 361
#     4   9  18  30  48  74 108 151 200 252 303 355
#     4  10  20  34  53  81 119 164 207 253 305 357
#
# _framework density 19.615559999999999
#
# number of rings (size 3 to 8) (size 9 to 14) (size 15 to 20)
#    0.000    2.000    1.429    3.429    0.000    5.714 
#    0.000    3.571    0.000    1.714    0.000    0.000 
#    0.000    0.000    0.000    0.000    0.000    0.000 
#
# Total GULP energy -156362.721438 kJ/mol
# GULP energy per Si atom -5584.382909 kJ/mol
# Density = 1.957091 g / cm^3
# Si number density = 19.615560 Si / 1000 Ang^3
#
#
#
# Elastic Constant Matrix: (Units=GPa)
#
#
# Indices 1 2 3 4 5 6 
#
# 1 68.6767 35.1021 22.5378 0.0000 0.0000 0.0000
# 2 35.1021 66.3207 48.5304 0.0000 0.0000 0.0000
# 3 22.5378 48.5304 114.1510 0.0000 0.0000 0.0000
# 4 0.0000 0.0000 0.0000 21.4714 0.0000 0.0000
# 5 0.0000 0.0000 0.0000 0.0000 -2.6538 0.0000
# 6 0.0000 0.0000 0.0000 0.0000 0.0000 29.8079
#
#
#
# Elastic Compliance Matrix: (Units=1/GPa)
#
#
# Indices 1 2 3 4 5 6 
#
# 1 0.020011 -0.011178 0.000801 0.000000 0.000000 0.000000
# 2 -0.011178 0.028131 -0.009753 0.000000 0.000000 0.000000
# 3 0.000801 -0.009753 0.012748 0.000000 0.000000 0.000000
# 4 0.000000 0.000000 0.000000 0.046574 0.000000 0.000000
# 5 0.000000 0.000000 0.000000 0.000000 -0.376819 0.000000
# 6 0.000000 0.000000 0.000000 0.000000 0.000000 0.033548
#
#
# Mechanical properties :
#
#
# Convention : Reuss Voigt Hill
#
# Bulk Modulus (GPa) = 48.46845 51.27655 49.87250
# Shear Modulus (GPa) = -26.50126 19.25697 -3.62214
#
# Velocity S-wave (km/s) = -3.67963 3.13664 -1.36036
# Velocity P-wave (km/s) = 2.59036 6.27021 4.79716
#
# Compressibility (1/GPa) = 0.02063198
#
# Stress axis : x y z
#
# Youngs Moduli (GPa) = 49.97190 35.54798 78.44095
#
# Poissons Ratio (x) = 0.39735 -0.06284
# Poissons Ratio (y) = 0.55857 0.76501
# Poissons Ratio (z) = -0.04003 0.34669
#
# Static dielectric constant tensor:
#      x y z
#    x 1.699240 0.000000 0.000000 
#    y 0.000000 1.662340 0.000000 
#    z 0.000000 0.000000 1.692800 
# 
# From -- ./inp_files/14767.got.cif
#   From: 2010.05.17/outbox.cif.g08.bks.cpg/sg39_8_cif.got.tgz:14767.got - 2010.06.03 18:22:40.
