data_PCOD9360571
_publ_section_title
;
Structure prediction by ZEFSAII (Michael W. Deem and Ramdas Pophale) SiO2 
 PCOD9360571
Probable space group: A B M 2
;
_chemical_formula_sum "Si O2"
_cell_formula_units_Z 60
_cell_length_a 12.119517
_cell_length_b 15.967995
_cell_length_c 13.802297
_cell_angle_alpha 90.000000
_cell_angle_beta 90.000000
_cell_angle_gamma 90.000000
_cell_volume 2671.081064
_symmetry_space_group_name_H-M "A B M 2"
_symmetry_group_IT_number 39
_symmetry_cell_setting 'orthorhombic'
loop_
_space_group_symop_operation_xyz
x,y,z
-x,-y,z
-x,1/2+y,z
x,1/2-y,z
x,1/2+y,1/2+z
-x,1/2-y,1/2+z
-x,y,1/2+z
x,-y,1/2+z
loop_
_atom_site_type_symbol
_atom_site_label
_atom_site_fract_x
_atom_site_fract_y
_atom_site_fract_z
Si Si1 0.812135 0.156813 0.632700
Si Si2 0.084763 0.065087 0.397805
Si Si3 0.709071 0.470327 0.785069
Si Si4 0.397793 0.652528 0.935954
Si Si5 0.406064 0.653220 0.553501
Si Si6 0.208286 0.651464 0.071395
Si Si7 0.500000 0.000000 0.682815
Si Si8 0.025147 0.903225 0.199490
O O1 0.792664 0.250000 0.674342
O O2 0.768456 0.083606 0.701517
O O3 0.726319 0.148986 0.544531
O O4 0.942694 0.146343 0.627589
O O5 0.185156 0.009207 0.352148
O O6 0.135974 0.125059 0.477683
O O7 0.019813 0.111654 0.309335
O O8 0.000000 0.000000 0.443453
O O9 0.642945 0.403414 0.849765
O O10 0.610018 0.526578 0.743577
O O11 0.372350 0.750000 0.918269
O O12 0.330392 0.627266 0.033969
O O13 0.526520 0.642305 0.955498
O O14 0.431966 0.750000 0.586621
O O15 0.452558 0.579390 0.622234
O O16 0.207239 0.750000 0.086138
O O17 0.150065 0.612657 0.165932
O O18 0.000000 0.000000 0.184887
#
# Coordination Sequence:
#
# PCOD9360571 Si02
#       8
#     8   8   8   8   8   8   4   8
#     4   9  17  32  54  77 102 135 175 215 255 307
#     4   9  19  35  52  72 101 135 171 215 260 309
#     4   9  18  32  52  76 100 133 175 214 256 311
#     4   9  18  33  52  75 104 135 171 217 265 311
#     4   9  19  34  53  78 107 138 172 217 266 313
#     4  10  20  33  52  76 102 136 175 216 262 313
#     4  10  20  34  54  78 104 136 174 216 264 316
#     4  10  20  33  53  78 104 135 172 216 266 315
#
# _framework density 22.462814000000002
#
# number of rings (size 3 to 8) (size 9 to 14) (size 15 to 20)
#    0.000    2.667    0.000    1.200    0.000    9.067 
#    0.000    2.667    0.000    0.800    0.000    5.600 
#    0.000    0.000    0.000    0.000    0.000    0.000 
#
# Total GULP energy -167045.727438 kJ/mol
# GULP energy per Si atom -5568.190915 kJ/mol
# Density = 2.241169 g / cm^3
# Si number density = 22.462814 Si / 1000 Ang^3
#
#
#
# Elastic Constant Matrix: (Units=GPa)
#
#
# Indices 1 2 3 4 5 6 
#
# 1 53.4754 -1.5155 -4.8804 0.0000 0.0000 0.0000
# 2 -1.5155 30.3828 -2.0135 0.0000 0.0000 0.0000
# 3 -4.8804 -2.0135 35.8409 0.0000 0.0000 0.0000
# 4 0.0000 0.0000 0.0000 15.6454 0.0000 0.0000
# 5 0.0000 0.0000 0.0000 0.0000 33.1058 0.0000
# 6 0.0000 0.0000 0.0000 0.0000 0.0000 27.3062
#
#
#
# Elastic Compliance Matrix: (Units=1/GPa)
#
#
# Indices 1 2 3 4 5 6 
#
# 1 0.018974 0.001122 0.002647 0.000000 0.000000 0.000000
# 2 0.001122 0.033103 0.002012 0.000000 0.000000 0.000000
# 3 0.002647 0.002012 0.028375 0.000000 0.000000 0.000000
# 4 0.000000 0.000000 0.000000 0.063916 0.000000 0.000000
# 5 0.000000 0.000000 0.000000 0.000000 0.030206 0.000000
# 6 0.000000 0.000000 0.000000 0.000000 0.000000 0.036622
#
#
# Mechanical properties :
#
#
# Convention : Reuss Voigt Hill
#
# Bulk Modulus (GPa) = 10.86810 11.43114 11.14962
# Shear Modulus (GPa) = 21.71042 23.75206 22.73124
#
# Velocity S-wave (km/s) = 3.11224 3.25529 3.18457
# Velocity P-wave (km/s) = 4.21467 4.38511 4.30073
#
# Compressibility (1/GPa) = 0.09201244
#
# Stress axis : x y z
#
# Youngs Moduli (GPa) = 52.70502 30.20905 35.24283
#
# Poissons Ratio (x) = -0.03389 -0.09327
# Poissons Ratio (y) = -0.05912 -0.07092
# Poissons Ratio (z) = -0.13949 -0.06079
#
# Static dielectric constant tensor:
#      x y z
#    x 1.922590 0.000000 0.000000 
#    y 0.000000 1.814960 0.000000 
#    z 0.000000 0.000000 1.877200 
# 
# From -- ./inp_files/9390.got.cif
#   From: 2010.05.17/outbox.cif.g08.bks.cpg/sg39_5_cif.got.tgz:9390.got - 2010.06.03 18:22:40.
