data_PCOD9360474
_publ_section_title
;
Structure prediction by ZEFSAII (Michael W. Deem and Ramdas Pophale) SiO2 
 PCOD9360474
Probable space group: A B M 2
;
_chemical_formula_sum "Si O2"
_cell_formula_units_Z 56
_cell_length_a 9.444168
_cell_length_b 18.880806
_cell_length_c 15.058234
_cell_angle_alpha 90.000000
_cell_angle_beta 90.000000
_cell_angle_gamma 90.000000
_cell_volume 2685.086466
_symmetry_space_group_name_H-M "A B M 2"
_symmetry_group_IT_number 39
_symmetry_cell_setting 'orthorhombic'
loop_
_space_group_symop_operation_xyz
x,y,z
-x,-y,z
-x,1/2+y,z
x,1/2-y,z
x,1/2+y,1/2+z
-x,1/2-y,1/2+z
-x,y,1/2+z
x,-y,1/2+z
loop_
_atom_site_type_symbol
_atom_site_label
_atom_site_fract_x
_atom_site_fract_y
_atom_site_fract_z
Si Si1 0.002975 0.326335 0.698560
Si Si2 0.004715 0.327967 0.910080
Si Si3 0.849617 0.536439 0.478790
Si Si4 0.703821 0.396004 0.459650
Si Si5 0.530313 0.416267 0.297199
Si Si6 0.718833 0.604762 0.166557
Si Si7 0.223420 0.943958 0.163296
O O1 0.055190 0.250000 0.665139
O O2 0.017594 0.326863 0.804298
O O3 0.087401 0.394352 0.666066
O O4 0.840612 0.337574 0.673296
O O5 0.957584 0.250000 0.940204
O O6 0.160422 0.345042 0.948743
O O7 0.898739 0.392077 0.932345
O O8 0.769662 0.472753 0.429358
O O9 0.744497 0.555216 0.558851
O O10 0.000000 0.500000 0.509457
O O11 0.577995 0.382253 0.390332
O O12 0.665019 0.397783 0.564127
O O13 0.500000 0.500000 0.310598
O O14 0.398848 0.385239 0.242020
O O15 0.661602 0.412172 0.229010
O O16 0.788368 0.527188 0.185520
#
# Coordination Sequence:
#
# PCOD9360474 Si02
#       7
#     8   8   8   8   8   8   8
#     4  11  22  37  61  90 119 157 204 251 300 360
#     4  10  21  35  58  91 120 157 204 247 302 361
#     4   9  19  32  55  90 118 152 196 250 301 357
#     4  10  20  39  60  88 124 160 199 246 305 360
#     4  10  22  37  60  90 119 162 196 246 301 351
#     4  10  23  39  61  92 124 158 201 248 302 360
#     4  10  19  37  60  88 118 152 199 247 299 358
#
# _framework density 20.855938999999999
#
# number of rings (size 3 to 8) (size 9 to 14) (size 15 to 20)
#    0.000    2.000    1.429    3.000    4.000    6.286 
#    0.000    1.429    0.000    0.000    0.000    0.000 
#    0.000    0.000    0.000    0.000    0.000    0.000 
#
# Total GULP energy -156130.670037 kJ/mol
# GULP energy per Si atom -5576.095358 kJ/mol
# Density = 2.080847 g / cm^3
# Si number density = 20.855939 Si / 1000 Ang^3
#
#
#
# Elastic Constant Matrix: (Units=GPa)
#
#
# Indices 1 2 3 4 5 6 
#
# 1 60.1297 9.1785 21.8335 0.0000 0.0000 0.0000
# 2 9.1785 83.6448 18.3407 0.0000 0.0000 0.0000
# 3 21.8335 18.3407 69.5815 0.0000 0.0000 0.0000
# 4 0.0000 0.0000 0.0000 -61.8364 0.0000 0.0000
# 5 0.0000 0.0000 0.0000 0.0000 24.0301 0.0000
# 6 0.0000 0.0000 0.0000 0.0000 0.0000 9.9446
#
#
#
# Elastic Compliance Matrix: (Units=1/GPa)
#
#
# Indices 1 2 3 4 5 6 
#
# 1 0.018822 -0.000818 -0.005690 0.000000 0.000000 0.000000
# 2 -0.000818 0.012724 -0.003097 0.000000 0.000000 0.000000
# 3 -0.005690 -0.003097 0.016974 0.000000 0.000000 0.000000
# 4 0.000000 0.000000 0.000000 -0.016172 0.000000 0.000000
# 5 0.000000 0.000000 0.000000 0.000000 0.041614 0.000000
# 6 0.000000 0.000000 0.000000 0.000000 0.000000 0.100557
#
#
# Mechanical properties :
#
#
# Convention : Reuss Voigt Hill
#
# Bulk Modulus (GPa) = 34.11950 34.67348 34.39649
# Shear Modulus (GPa) = 24.57008 5.36123 14.96566
#
# Velocity S-wave (km/s) = 3.43605 1.60505 2.68166
# Velocity P-wave (km/s) = 5.66895 4.48288 5.11044
#
# Compressibility (1/GPa) = 0.02930875
#
# Stress axis : x y z
#
# Youngs Moduli (GPa) = 53.12996 78.59045 58.91489
#
# Poissons Ratio (x) = 0.06426 0.33525
# Poissons Ratio (y) = 0.04344 0.18248
# Poissons Ratio (z) = 0.30233 0.24342
#
# Static dielectric constant tensor:
#      x y z
#    x 1.759120 0.000000 0.000000 
#    y 0.000000 1.756390 0.000000 
#    z 0.000000 0.000000 1.784450 
# 
# From -- ./inp_files/8629.got.cif
#   From: 2010.05.17/outbox.cif.g08.bks.cpg/sg39_5_cif.got.tgz:8629.got - 2010.06.03 18:22:40.
