data_PCOD9360560
_publ_section_title
;
Structure prediction by ZEFSAII (Michael W. Deem and Ramdas Pophale) SiO2 
 PCOD9360560
Probable space group: A B M 2
;
_chemical_formula_sum "Si O2"
_cell_formula_units_Z 64
_cell_length_a 7.078126
_cell_length_b 17.806832
_cell_length_c 21.890615
_cell_angle_alpha 90.000000
_cell_angle_beta 90.000000
_cell_angle_gamma 90.000000
_cell_volume 2759.071236
_symmetry_space_group_name_H-M "A B M 2"
_symmetry_group_IT_number 39
_symmetry_cell_setting 'orthorhombic'
loop_
_space_group_symop_operation_xyz
x,y,z
-x,-y,z
-x,1/2+y,z
x,1/2-y,z
x,1/2+y,1/2+z
-x,1/2-y,1/2+z
-x,y,1/2+z
x,-y,1/2+z
loop_
_atom_site_type_symbol
_atom_site_label
_atom_site_fract_x
_atom_site_fract_y
_atom_site_fract_z
Si Si1 0.904794 0.163983 0.668900
Si Si2 0.659275 0.165164 0.131682
Si Si3 0.488758 0.909717 0.880404
Si Si4 0.901533 0.659556 0.907660
Si Si5 0.455170 0.587343 0.248311
Si Si6 0.608537 0.836381 0.499788
Si Si7 0.984576 0.912272 0.786910
Si Si8 0.167845 0.836267 0.536636
O O1 0.836609 0.250000 0.679192
O O2 0.130266 0.169282 0.657562
O O3 0.889386 0.113724 0.729380
O O4 0.835468 0.129854 0.604322
O O5 0.588999 0.250000 0.121072
O O6 0.528235 0.128431 0.183298
O O7 0.680812 0.130514 0.064057
O O8 0.695250 0.874969 0.893381
O O9 0.440670 0.887345 0.810708
O O10 0.500000 0.000000 0.881553
O O11 0.365150 0.880590 0.936936
O O12 0.891408 0.750000 0.908300
O O13 0.019616 0.632589 0.849393
O O14 0.947038 0.634882 0.977555
O O15 0.500000 0.500000 0.239333
O O16 0.234258 0.597433 0.266577
O O17 0.672805 0.750000 0.491034
O O18 0.383186 0.834735 0.513865
O O19 0.000000 0.000000 0.799962
O O20 0.103976 0.750000 0.547050
#
# Coordination Sequence:
#
# PCOD9360560 Si02
#       8
#     8   8   8   8   8   8   8   8
#     4   9  17  32  51  71  96 128 163 204 249 297
#     4   9  18  31  50  74  97 124 165 209 248 291
#     4   9  17  30  49  75 101 126 164 211 251 292
#     4   9  17  33  56  77  97 134 179 210 245 307
#     4   9  19  34  50  68  96 133 164 197 247 304
#     4   9  17  30  48  72  99 130 165 203 245 296
#     4  10  20  33  50  75 102 128 164 213 256 294
#     4   8  15  29  51  74  96 125 167 209 243 289
#
# _framework density 23.196210000000001
#
# number of rings (size 3 to 8) (size 9 to 14) (size 15 to 20)
#    0.000    3.000    0.000    1.500    0.000    5.000 
#    0.000    8.125    0.000    0.750    0.000    7.875 
#    0.000    0.000    0.000    0.000    0.000    0.000 
#
# Total GULP energy -178512.016083 kJ/mol
# GULP energy per Si atom -5578.500503 kJ/mol
# Density = 2.314341 g / cm^3
# Si number density = 23.196210 Si / 1000 Ang^3
#
#
#
# Elastic Constant Matrix: (Units=GPa)
#
#
# Indices 1 2 3 4 5 6 
#
# 1 57.2477 4.5460 31.6474 0.0000 0.0000 0.0000
# 2 4.5460 55.4243 69.3662 0.0000 0.0000 0.0000
# 3 31.6474 69.3662 238.1301 0.0000 0.0000 0.0000
# 4 0.0000 0.0000 0.0000 -11.2550 0.0000 0.0000
# 5 0.0000 0.0000 0.0000 0.0000 46.4158 0.0000
# 6 0.0000 0.0000 0.0000 0.0000 0.0000 17.6596
#
#
#
# Elastic Compliance Matrix: (Units=1/GPa)
#
#
# Indices 1 2 3 4 5 6 
#
# 1 0.019076 0.002531 -0.003272 0.000000 0.000000 0.000000
# 2 0.002531 0.028730 -0.008705 0.000000 0.000000 0.000000
# 3 -0.003272 -0.008705 0.007170 0.000000 0.000000 0.000000
# 4 0.000000 0.000000 0.000000 -0.088850 0.000000 0.000000
# 5 0.000000 0.000000 0.000000 0.000000 0.021544 0.000000
# 6 0.000000 0.000000 0.000000 0.000000 0.000000 0.056627
#
#
# Mechanical properties :
#
#
# Convention : Reuss Voigt Hill
#
# Bulk Modulus (GPa) = 27.71413 62.43571 45.07492
# Shear Modulus (GPa) = 66.47272 26.91357 46.69315
#
# Velocity S-wave (km/s) = 5.35900 3.40995 4.49147
# Velocity P-wave (km/s) = 7.08982 6.51755 6.80970
#
# Compressibility (1/GPa) = 0.03608268
#
# Stress axis : x y z
#
# Youngs Moduli (GPa) = 52.42185 34.80660 139.46771
#
# Poissons Ratio (x) = -0.08809 0.45640
# Poissons Ratio (y) = -0.13268 1.21411
# Poissons Ratio (z) = 0.17155 0.30300
#
# Static dielectric constant tensor:
#      x y z
#    x 1.962970 0.000000 0.000000 
#    y 0.000000 1.794380 0.000000 
#    z 0.000000 0.000000 1.948290 
# 
# From -- ./inp_files/14177.got.cif
#   From: 2010.05.17/outbox.cif.g08.bks.cpg/sg39_8_cif.got.tgz:14177.got - 2010.06.03 18:22:40.
