data_PCOD9360278
_publ_section_title
;
Structure prediction by ZEFSAII (Michael W. Deem and Ramdas Pophale) SiO2 
 PCOD9360278
Probable space group: A B M 2
;
_chemical_formula_sum "Si O2"
_cell_formula_units_Z 56
_cell_length_a 17.310092
_cell_length_b 29.266462
_cell_length_c 5.281357
_cell_angle_alpha 90.000000
_cell_angle_beta 90.000000
_cell_angle_gamma 90.000000
_cell_volume 2675.562654
_symmetry_space_group_name_H-M "A B M 2"
_symmetry_group_IT_number 39
_symmetry_cell_setting 'orthorhombic'
loop_
_space_group_symop_operation_xyz
x,y,z
-x,-y,z
-x,1/2+y,z
x,1/2-y,z
x,1/2+y,1/2+z
-x,1/2-y,1/2+z
-x,y,1/2+z
x,-y,1/2+z
loop_
_atom_site_type_symbol
_atom_site_label
_atom_site_fract_x
_atom_site_fract_y
_atom_site_fract_z
Si Si1 0.322384 0.302750 0.503240
Si Si2 0.173107 0.201252 0.157435
Si Si3 0.245118 0.873254 0.389330
Si Si4 0.712114 0.029560 0.279319
Si Si5 0.446919 0.250000 0.886833
Si Si6 0.458544 0.562833 0.419804
Si Si7 0.601073 0.654573 0.086318
Si Si8 0.949261 0.250000 0.934536
O O1 0.334953 0.250000 0.581950
O O2 0.257371 0.297328 0.282145
O O3 0.280285 0.338614 0.683548
O O4 0.396841 0.325887 0.371338
O O5 0.166336 0.250000 0.007704
O O6 0.107735 0.207463 0.371001
O O7 0.173214 0.154352 0.004822
O O8 0.236677 0.924414 0.294600
O O9 0.318067 0.874154 0.582307
O O10 0.622702 0.045695 0.309636
O O11 0.725396 0.996724 0.518432
O O12 0.502257 0.250000 0.135437
O O13 0.403295 0.298758 0.924085
O O14 0.521555 0.548947 0.208566
O O15 0.454840 0.617852 0.458370
O O16 0.012071 0.250000 0.707216
#
# Coordination Sequence:
#
# PCOD9360278 Si02
#       8
#     8   8   8   8   4   8   8   4
#     4  10  19  33  59  83 113 157 200 242 284 352
#     4   8  19  34  55  91 125 166 205 227 274 333
#     4  10  22  35  63  80 117 149 198 246 301 344
#     4  11  26  43  62  86 113 142 191 258 325 374
#     4  12  26  37  48  69 104 142 174 226 278 340
#     4  11  24  40  61  77 103 141 188 239 303 385
#     4  10  23  35  51  79 105 142 190 236 290 351
#     4  10  22  35  56  89 140 184 204 234 262 312
#
# _framework density 20.930175999999999
#
# number of rings (size 3 to 8) (size 9 to 14) (size 15 to 20)
#    0.429    1.429    0.714    2.143   16.000    1.714 
#    0.000    0.000    0.000    0.000    0.000    0.000 
#    0.000    3.429    0.000    0.000    0.000    0.000 
#
# Total GULP energy -156042.812711 kJ/mol
# GULP energy per Si atom -5572.957597 kJ/mol
# Density = 2.088254 g / cm^3
# Si number density = 20.930176 Si / 1000 Ang^3
#
#
#
# Elastic Constant Matrix: (Units=GPa)
#
#
# Indices 1 2 3 4 5 6 
#
# 1 35.0743 4.3631 -10.8471 0.0000 0.0000 0.0000
# 2 4.3631 102.2214 -3.2004 0.0000 0.0000 0.0000
# 3 -10.8471 -3.2004 52.2280 0.0000 0.0000 0.0000
# 4 0.0000 0.0000 0.0000 17.4323 0.0000 0.0000
# 5 0.0000 0.0000 0.0000 0.0000 25.4832 0.0000
# 6 0.0000 0.0000 0.0000 0.0000 0.0000 7.4482
#
#
#
# Elastic Compliance Matrix: (Units=1/GPa)
#
#
# Indices 1 2 3 4 5 6 
#
# 1 0.030593 -0.001109 0.006286 0.000000 0.000000 0.000000
# 2 -0.001109 0.009842 0.000373 0.000000 0.000000 0.000000
# 3 0.006286 0.000373 0.020475 0.000000 0.000000 0.000000
# 4 0.000000 0.000000 0.000000 0.057365 0.000000 0.000000
# 5 0.000000 0.000000 0.000000 0.000000 0.039242 0.000000
# 6 0.000000 0.000000 0.000000 0.000000 0.000000 0.134261
#
#
# Mechanical properties :
#
#
# Convention : Reuss Voigt Hill
#
# Bulk Modulus (GPa) = 13.88722 18.90610 16.39666
# Shear Modulus (GPa) = 16.41061 23.35328 19.88194
#
# Velocity S-wave (km/s) = 2.80315 3.34394 3.08542
# Velocity P-wave (km/s) = 4.13840 4.89508 4.53255
#
# Compressibility (1/GPa) = 0.07200867
#
# Stress axis : x y z
#
# Youngs Moduli (GPa) = 32.68747 101.60853 48.83975
#
# Poissons Ratio (x) = 0.11268 -0.30700
# Poissons Ratio (y) = 0.03625 -0.01820
# Poissons Ratio (z) = -0.20547 -0.03787
#
# Static dielectric constant tensor:
#      x y z
#    x 1.794150 0.000000 0.000000 
#    y 0.000000 1.831520 0.000000 
#    z 0.000000 0.000000 1.924570 
# 
# From -- ./inp_files/1152.got.cif
#   From: 2010.05.17/outbox.cif.g08.bks.cpg/sg39_1_cif.got.tgz:1152.got - 2010.06.03 18:22:40.
