data_PCOD9360082
_publ_section_title
;
Structure prediction by ZEFSAII (Michael W. Deem and Ramdas Pophale) SiO2 
 PCOD9360082
Probable space group: A B M 2
;
_chemical_formula_sum "Si O2"
_cell_formula_units_Z 56
_cell_length_a 18.587887
_cell_length_b 8.661445
_cell_length_c 19.633997
_cell_angle_alpha 90.000000
_cell_angle_beta 90.000000
_cell_angle_gamma 90.000000
_cell_volume 3161.033482
_symmetry_space_group_name_H-M "A B M 2"
_symmetry_group_IT_number 39
_symmetry_cell_setting 'orthorhombic'
loop_
_space_group_symop_operation_xyz
x,y,z
-x,-y,z
-x,1/2+y,z
x,1/2-y,z
x,1/2+y,1/2+z
-x,1/2-y,1/2+z
-x,y,1/2+z
x,-y,1/2+z
loop_
_atom_site_type_symbol
_atom_site_label
_atom_site_fract_x
_atom_site_fract_y
_atom_site_fract_z
Si Si1 0.080103 0.568822 0.253120
Si Si2 0.077092 0.431410 0.916463
Si Si3 0.702105 0.935594 0.086946
Si Si4 0.313208 0.430484 0.865258
Si Si5 0.787919 0.427023 0.973573
Si Si6 0.579659 0.936105 0.978861
Si Si7 0.237893 0.933945 0.731637
O O1 0.077920 0.750000 0.236636
O O2 0.088618 0.551959 0.335115
O O3 0.156007 0.499685 0.225691
O O4 0.000000 0.500000 0.235768
O O5 0.084273 0.250000 0.932979
O O6 0.130727 0.538031 0.957852
O O7 0.000000 0.500000 0.930865
O O8 0.710074 0.750000 0.079397
O O9 0.712290 0.971778 0.166201
O O10 0.630608 0.979202 0.043492
O O11 0.765196 0.025332 0.048504
O O12 0.322422 0.250000 0.850456
O O13 0.253622 0.457117 0.923293
O O14 0.383647 0.488090 0.907059
O O15 0.280951 0.509720 0.798460
O O16 0.768422 0.250000 0.958756
O O17 0.578161 0.750000 0.977001
O O18 0.500000 0.000000 0.986249
O O19 0.230227 0.750000 0.735817
#
# Coordination Sequence:
#
# PCOD9360082 Si02
#       7
#     8   8   8   8   8   8   8
#     4  10  20  33  52  77 110 148 186 232 283 330
#     4  10  19  31  49  74 106 141 178 230 282 326
#     4   9  21  39  56  78 112 149 181 222 276 329
#     4  10  20  35  55  80 111 143 176 222 273 322
#     4  11  20  32  53  79 104 137 182 226 267 325
#     4   9  19  37  60  83 110 143 181 223 274 330
#     4  11  21  35  57  83 112 147 189 233 275 328
#
# _framework density 17.715726
#
# number of rings (size 3 to 8) (size 9 to 14) (size 15 to 20)
#    0.000    2.000    1.429    3.857    0.000    5.143 
#    0.000    1.429    0.000    6.857    0.000    0.000 
#    0.000    0.000    0.000    0.000    0.000    0.000 
#
# Total GULP energy -155940.400165 kJ/mol
# GULP energy per Si atom -5569.300006 kJ/mol
# Density = 1.767540 g / cm^3
# Si number density = 17.715726 Si / 1000 Ang^3
#
#
#
# Elastic Constant Matrix: (Units=GPa)
#
#
# Indices 1 2 3 4 5 6 
#
# 1 112.3814 24.0382 43.3796 0.0000 0.0000 0.0000
# 2 24.0382 35.3713 27.4753 0.0000 0.0000 0.0000
# 3 43.3796 27.4753 86.8982 0.0000 0.0000 0.0000
# 4 0.0000 0.0000 0.0000 14.4684 0.0000 0.0000
# 5 0.0000 0.0000 0.0000 0.0000 21.0114 0.0000
# 6 0.0000 0.0000 0.0000 0.0000 0.0000 32.0445
#
#
#
# Elastic Compliance Matrix: (Units=1/GPa)
#
#
# Indices 1 2 3 4 5 6 
#
# 1 0.011530 -0.004460 -0.004345 0.000000 0.000000 0.000000
# 2 -0.004460 0.039201 -0.010168 0.000000 0.000000 0.000000
# 3 -0.004345 -0.010168 0.016892 0.000000 0.000000 0.000000
# 4 0.000000 0.000000 0.000000 0.069116 0.000000 0.000000
# 5 0.000000 0.000000 0.000000 0.000000 0.047593 0.000000
# 6 0.000000 0.000000 0.000000 0.000000 0.000000 0.031207
#
#
# Mechanical properties :
#
#
# Convention : Reuss Voigt Hill
#
# Bulk Modulus (GPa) = 33.69809 47.15967 40.42888
# Shear Modulus (GPa) = 18.98422 22.82204 20.90313
#
# Velocity S-wave (km/s) = 3.27709 3.59309 3.43872
# Velocity P-wave (km/s) = 5.77771 6.62509 6.21586
#
# Compressibility (1/GPa) = 0.02967528
#
# Stress axis : x y z
#
# Youngs Moduli (GPa) = 86.73315 25.50978 59.20029
#
# Poissons Ratio (x) = 0.11378 0.25725
# Poissons Ratio (y) = 0.38684 0.60194
# Poissons Ratio (z) = 0.37689 0.25938
#
# Static dielectric constant tensor:
#      x y z
#    x 1.601470 0.000000 0.000000 
#    y 0.000000 1.605420 0.000000 
#    z 0.000000 0.000000 1.604590 
# 
# From -- ./inp_files/14948.got.cif
#   From: 2010.05.17/outbox.cif.g08.bks.cpg/sg39_8_cif.got.tgz:14948.got - 2010.06.03 18:22:40.
