data_PCOD9360394
_publ_section_title
;
Structure prediction by ZEFSAII (Michael W. Deem and Ramdas Pophale) SiO2 
 PCOD9360394
Probable space group: A B M 2
;
_chemical_formula_sum "Si O2"
_cell_formula_units_Z 40
_cell_length_a 14.825571
_cell_length_b 8.686398
_cell_length_c 15.903354
_cell_angle_alpha 90.000000
_cell_angle_beta 90.000000
_cell_angle_gamma 90.000000
_cell_volume 2048.046814
_symmetry_space_group_name_H-M "A B M 2"
_symmetry_group_IT_number 39
_symmetry_cell_setting 'orthorhombic'
loop_
_space_group_symop_operation_xyz
x,y,z
-x,-y,z
-x,1/2+y,z
x,1/2-y,z
x,1/2+y,1/2+z
-x,1/2-y,1/2+z
-x,y,1/2+z
x,-y,1/2+z
loop_
_atom_site_type_symbol
_atom_site_label
_atom_site_fract_x
_atom_site_fract_y
_atom_site_fract_z
Si Si1 0.594088 0.565278 0.414970
Si Si2 0.899644 0.064317 0.008347
Si Si3 0.212206 0.935439 0.843310
Si Si4 0.405488 0.066476 0.104222
Si Si5 0.778731 0.065979 0.167349
O O1 0.500000 0.500000 0.380291
O O2 0.588635 0.750000 0.420883
O O3 0.683574 0.524749 0.363547
O O4 0.604338 0.498231 0.509144
O O5 0.902838 0.250000 0.008828
O O6 0.847483 0.017614 0.923415
O O7 0.842075 0.016318 0.089909
O O8 0.000000 0.000000 0.010653
O O9 0.207008 0.750000 0.835018
O O10 0.183377 0.013892 0.756985
O O11 0.409744 0.250000 0.102241
O O12 0.500000 0.000000 0.137476
O O13 0.318966 0.010214 0.154992
O O14 0.769196 0.250000 0.163803
#
# Coordination Sequence:
#
# PCOD9360394 Si02
#       5
#     8   8   8   8   8
#     4  10  19  35  58  86 124 162 202 247 297 353
#     4  10  23  44  66  88 121 158 199 254 311 365
#     4  10  22  41  62  88 125 162 200 250 303 359
#     4  11  21  35  59  89 123 164 207 248 298 357
#     4  11  23  41  63  91 125 161 203 252 304 361
#
# _framework density 19.530805000000001
#
# number of rings (size 3 to 8) (size 9 to 14) (size 15 to 20)
#    0.000    1.600    2.000    4.200    0.000    5.600 
#    0.000    6.000    0.000    0.000    0.000    0.000 
#    0.000    0.000    0.000    0.000    0.000    0.000 
#
# Total GULP energy -111802.133012 kJ/mol
# GULP energy per Si atom -5590.106651 kJ/mol
# Density = 1.948635 g / cm^3
# Si number density = 19.530805 Si / 1000 Ang^3
#
#
#
# Elastic Constant Matrix: (Units=GPa)
#
#
# Indices 1 2 3 4 5 6 
#
# 1 138.7251 39.6619 76.0240 0.0000 0.0000 0.0000
# 2 39.6619 61.1037 39.9749 0.0000 0.0000 0.0000
# 3 76.0240 39.9749 143.0903 0.0000 0.0000 0.0000
# 4 0.0000 0.0000 0.0000 27.9145 0.0000 0.0000
# 5 0.0000 0.0000 0.0000 0.0000 -3.8738 0.0000
# 6 0.0000 0.0000 0.0000 0.0000 0.0000 34.9886
#
#
#
# Elastic Compliance Matrix: (Units=1/GPa)
#
#
# Indices 1 2 3 4 5 6 
#
# 1 0.010925 -0.004030 -0.004678 0.000000 0.000000 0.000000
# 2 -0.004030 0.021513 -0.003869 0.000000 0.000000 0.000000
# 3 -0.004678 -0.003869 0.010555 0.000000 0.000000 0.000000
# 4 0.000000 0.000000 0.000000 0.035824 0.000000 0.000000
# 5 0.000000 0.000000 0.000000 0.000000 -0.258148 0.000000
# 6 0.000000 0.000000 0.000000 0.000000 0.000000 0.028581
#
#
# Mechanical properties :
#
#
# Convention : Reuss Voigt Hill
#
# Bulk Modulus (GPa) = 56.06152 72.69343 64.37748
# Shear Modulus (GPa) = -41.78833 24.28976 -8.74928
#
# Velocity S-wave (km/s) = -4.63061 3.53039 -2.11883
# Velocity P-wave (km/s) = 0.41998 7.34295 5.20073
#
# Compressibility (1/GPa) = 0.01783755
#
# Stress axis : x y z
#
# Youngs Moduli (GPa) = 91.53647 46.48434 94.74264
#
# Poissons Ratio (x) = 0.18735 0.44323
# Poissons Ratio (y) = 0.36894 0.36652
# Poissons Ratio (z) = 0.42823 0.17983
#
# Static dielectric constant tensor:
#      x y z
#    x 1.666690 0.000000 0.000000 
#    y 0.000000 1.656030 0.000000 
#    z 0.000000 0.000000 1.695330 
# 
# From -- ./inp_files/9631.got.cif
#   From: 2010.05.17/outbox.cif.g08.bks.cpg/sg39_5_cif.got.tgz:9631.got - 2010.06.03 18:22:40.
