data_PCOD9360185
_publ_section_title
;
Structure prediction by ZEFSAII (Michael W. Deem and Ramdas Pophale) SiO2 
 PCOD9360185
Probable space group: A B M 2
;
_chemical_formula_sum "Si O2"
_cell_formula_units_Z 28
_cell_length_a 13.806060
_cell_length_b 5.529546
_cell_length_c 13.773754
_cell_angle_alpha 90.000000
_cell_angle_beta 90.000000
_cell_angle_gamma 90.000000
_cell_volume 1051.505513
_symmetry_space_group_name_H-M "A B M 2"
_symmetry_group_IT_number 39
_symmetry_cell_setting 'orthorhombic'
loop_
_space_group_symop_operation_xyz
x,y,z
-x,-y,z
-x,1/2+y,z
x,1/2-y,z
x,1/2+y,1/2+z
-x,1/2-y,1/2+z
-x,y,1/2+z
x,-y,1/2+z
loop_
_atom_site_type_symbol
_atom_site_label
_atom_site_fract_x
_atom_site_fract_y
_atom_site_fract_z
Si Si1 0.552434 0.250000 0.305650
Si Si2 0.046250 0.250000 0.443415
Si Si3 0.523479 0.250000 0.015842
Si Si4 0.876442 0.750000 0.250863
Si Si5 0.778630 0.250000 0.320550
Si Si6 0.736655 0.750000 0.528271
Si Si7 0.206407 0.750000 0.557891
O O1 0.500000 0.500000 0.276377
O O2 0.545034 0.250000 0.423014
O O3 0.666711 0.250000 0.289531
O O4 0.034867 0.250000 0.326228
O O5 0.159322 0.250000 0.473998
O O6 0.000000 0.500000 0.478341
O O7 0.500000 0.500000 0.068481
O O8 0.633727 0.250000 0.975472
O O9 0.823608 0.499718 0.281089
O O10 0.883127 0.750000 0.134260
O O11 0.796399 0.250000 0.439097
O O12 0.738133 0.496260 0.583004
#
# Coordination Sequence:
#
# PCOD9360185 Si02
#       7
#     4   4   4   4   4   4   4
#     4  10  19  32  60 100 133 181 243 279 343 427
#     4  12  26  47  73 107 145 185 238 300 366 433
#     4  10  20  32  62 108 133 183 250 276 342 436
#     4  12  27  44  75 105 141 187 240 300 361 428
#     4  12  22  44  73 102 143 194 234 294 363 419
#     4  12  23  45  74 108 145 193 241 295 362 425
#     4  12  23  44  75 108 136 193 240 288 361 438
#
# _framework density 26.628488000000001
#
# number of rings (size 3 to 8) (size 9 to 14) (size 15 to 20)
#    0.000    0.571    2.857    7.714    0.000    0.000 
#    0.000    4.286    0.000   32.571    0.000    0.000 
#    0.000    0.000    0.000    0.000    0.000    0.000 
#
# Total GULP energy -78205.907199 kJ/mol
# GULP energy per Si atom -5586.136229 kJ/mol
# Density = 2.656788 g / cm^3
# Si number density = 26.628488 Si / 1000 Ang^3
#
#
#
# Elastic Constant Matrix: (Units=GPa)
#
#
# Indices 1 2 3 4 5 6 
#
# 1 130.0343 84.8726 22.1768 0.0000 0.0000 0.0000
# 2 84.8726 335.0416 50.7694 0.0000 0.0000 0.0000
# 3 22.1768 50.7694 156.5467 0.0000 0.0000 0.0000
# 4 0.0000 0.0000 0.0000 -18.9349 0.0000 0.0000
# 5 0.0000 0.0000 0.0000 0.0000 7.7609 0.0000
# 6 0.0000 0.0000 0.0000 0.0000 0.0000 40.5747
#
#
#
# Elastic Compliance Matrix: (Units=1/GPa)
#
#
# Indices 1 2 3 4 5 6 
#
# 1 0.009263 -0.002259 -0.000580 0.000000 0.000000 0.000000
# 2 -0.002259 0.003690 -0.000877 0.000000 0.000000 0.000000
# 3 -0.000580 -0.000877 0.006754 0.000000 0.000000 0.000000
# 4 0.000000 0.000000 0.000000 -0.052813 0.000000 0.000000
# 5 0.000000 0.000000 0.000000 0.000000 0.128852 0.000000
# 6 0.000000 0.000000 0.000000 0.000000 0.000000 0.024646
#
#
# Mechanical properties :
#
#
# Convention : Reuss Voigt Hill
#
# Bulk Modulus (GPa) = 81.45188 104.14004 92.79596
# Shear Modulus (GPa) = 37.90321 36.80038 37.35180
#
# Velocity S-wave (km/s) = 3.77690 3.72155 3.74933
# Velocity P-wave (km/s) = 7.04802 7.59342 7.32580
#
# Compressibility (1/GPa) = 0.01227719
#
# Stress axis : x y z
#
# Youngs Moduli (GPa) = 107.95132 271.02258 148.05389
#
# Poissons Ratio (x) = 0.61218 0.08583
# Poissons Ratio (y) = 0.24384 0.12979
# Poissons Ratio (z) = 0.06258 0.23759
#
# Static dielectric constant tensor:
#      x y z
#    x 2.089580 0.000000 0.000000 
#    y 0.000000 2.126250 0.000000 
#    z 0.000000 0.000000 2.079400 
# 
# From -- ./inp_files/9561.got.cif
#   From: 2010.05.17/outbox.cif.g08.bks.cpg/sg39_5_cif.got.tgz:9561.got - 2010.06.03 18:22:40.
