data_PCOD9360694
_publ_section_title
;
Structure prediction by ZEFSAII (Michael W. Deem and Ramdas Pophale) SiO2 
 PCOD9360694
Probable space group: A B M 2
;
_chemical_formula_sum "Si O2"
_cell_formula_units_Z 40
_cell_length_a 9.932520
_cell_length_b 15.176460
_cell_length_c 11.567440
_cell_angle_alpha 90.000000
_cell_angle_beta 90.000000
_cell_angle_gamma 90.000000
_cell_volume 1743.681602
_symmetry_space_group_name_H-M "A B M 2"
_symmetry_group_IT_number 39
_symmetry_cell_setting 'orthorhombic'
loop_
_space_group_symop_operation_xyz
x,y,z
-x,-y,z
-x,1/2+y,z
x,1/2-y,z
x,1/2+y,1/2+z
-x,1/2-y,1/2+z
-x,y,1/2+z
x,-y,1/2+z
loop_
_atom_site_type_symbol
_atom_site_label
_atom_site_fract_x
_atom_site_fract_y
_atom_site_fract_z
Si Si1 0.205324 0.909828 0.665850
Si Si2 0.000000 0.000000 0.035174
Si Si3 0.243053 0.750000 0.520550
Si Si4 0.615702 0.070472 0.133784
Si Si5 0.701327 0.750000 0.749368
Si Si6 0.922587 0.250000 0.066397
Si Si7 0.224981 0.096911 0.427827
O O1 0.053181 0.923007 0.620570
O O2 0.284550 0.841419 0.583418
O O3 0.226006 0.877931 0.795393
O O4 0.255658 0.010614 0.665618
O O5 0.127493 0.986640 0.950004
O O6 0.283777 0.750000 0.387308
O O7 0.081789 0.750000 0.544831
O O8 0.625267 0.162412 0.201420
O O9 0.500000 0.000000 0.159869
O O10 0.634582 0.085935 0.995660
O O11 0.852261 0.750000 0.692870
O O12 0.854437 0.330655 0.999393
#
# Coordination Sequence:
#
# PCOD9360694 Si02
#       7
#     8   4   4   8   4   4   8
#     4  11  24  38  65 106 141 181 237 287 362 427
#     4  10  20  34  58  96 138 188 226 280 352 428
#     4  12  25  39  66 110 148 189 232 285 359 440
#     4  10  25  48  74  97 134 189 241 298 357 412
#     4  10  26  47  70 107 143 188 244 298 358 429
#     4  10  21  38  64  95 143 193 226 283 351 429
#     4  10  21  38  62  96 136 182 232 290 345 420
#
# _framework density 22.939965999999998
#
# number of rings (size 3 to 8) (size 9 to 14) (size 15 to 20)
#    0.000    1.600    2.000    1.200    8.400    1.600 
#    0.000    0.000    0.000    0.000    0.000    0.000 
#    0.000    0.000    0.000    0.000    0.000    0.000 
#
# Total GULP energy -111456.025705 kJ/mol
# GULP energy per Si atom -5572.801285 kJ/mol
# Density = 2.288775 g / cm^3
# Si number density = 22.939966 Si / 1000 Ang^3
#
#
#
# Elastic Constant Matrix: (Units=GPa)
#
#
# Indices 1 2 3 4 5 6 
#
# 1 57.0635 28.5604 23.9285 0.0000 0.0000 0.0000
# 2 28.5604 144.5244 56.5023 0.0000 0.0000 0.0000
# 3 23.9285 56.5023 192.6308 0.0000 0.0000 0.0000
# 4 0.0000 0.0000 0.0000 23.7258 0.0000 0.0000
# 5 0.0000 0.0000 0.0000 0.0000 10.2084 0.0000
# 6 0.0000 0.0000 0.0000 0.0000 0.0000 22.9507
#
#
#
# Elastic Compliance Matrix: (Units=1/GPa)
#
#
# Indices 1 2 3 4 5 6 
#
# 1 0.019816 -0.003336 -0.001483 0.000000 0.000000 0.000000
# 2 -0.003336 0.008377 -0.002043 0.000000 0.000000 0.000000
# 3 -0.001483 -0.002043 0.005975 0.000000 0.000000 0.000000
# 4 0.000000 0.000000 0.000000 0.042148 0.000000 0.000000
# 5 0.000000 0.000000 0.000000 0.000000 0.097959 0.000000
# 6 0.000000 0.000000 0.000000 0.000000 0.000000 0.043572
#
#
# Mechanical properties :
#
#
# Convention : Reuss Voigt Hill
#
# Bulk Modulus (GPa) = 48.91418 68.02235 58.46827
# Shear Modulus (GPa) = 20.97448 30.39214 25.68331
#
# Velocity S-wave (km/s) = 3.02705 3.64381 3.34965
# Velocity P-wave (km/s) = 5.79538 6.88620 6.36420
#
# Compressibility (1/GPa) = 0.02044397
#
# Stress axis : x y z
#
# Youngs Moduli (GPa) = 50.46435 119.37227 167.37321
#
# Poissons Ratio (x) = 0.39825 0.24821
# Poissons Ratio (y) = 0.16836 0.34190
# Poissons Ratio (z) = 0.07484 0.24385
#
# Static dielectric constant tensor:
#      x y z
#    x 2.060920 0.000000 0.000000 
#    y 0.000000 2.020450 0.000000 
#    z 0.000000 0.000000 1.858820 
# 
# From -- ./inp_files/5717.got.cif
#   From: 2010.05.17/outbox.cif.g08.bks.cpg/sg39_3_cif.got.tgz:5717.got - 2010.06.03 18:22:40.
