data_PCOD9360517
_publ_section_title
;
Structure prediction by ZEFSAII (Michael W. Deem and Ramdas Pophale) SiO2 
 PCOD9360517
Probable space group: A B M 2
;
_chemical_formula_sum "Si O2"
_cell_formula_units_Z 40
_cell_length_a 7.701357
_cell_length_b 15.485968
_cell_length_c 16.455997
_cell_angle_alpha 90.000000
_cell_angle_beta 90.000000
_cell_angle_gamma 90.000000
_cell_volume 1962.591045
_symmetry_space_group_name_H-M "A B M 2"
_symmetry_group_IT_number 39
_symmetry_cell_setting 'orthorhombic'
loop_
_space_group_symop_operation_xyz
x,y,z
-x,-y,z
-x,1/2+y,z
x,1/2-y,z
x,1/2+y,1/2+z
-x,1/2-y,1/2+z
-x,y,1/2+z
x,-y,1/2+z
loop_
_atom_site_type_symbol
_atom_site_label
_atom_site_fract_x
_atom_site_fract_y
_atom_site_fract_z
Si Si1 0.432840 0.407015 0.604940
Si Si2 0.500000 0.500000 0.950556
Si Si3 0.208483 0.750000 0.322634
Si Si4 0.862364 0.566433 0.905854
Si Si5 0.085587 0.750000 0.691121
Si Si6 0.540240 0.250000 0.718867
Si Si7 0.020387 0.406992 0.587296
O O1 0.500000 0.500000 0.639298
O O2 0.497441 0.417563 0.511977
O O3 0.503658 0.332303 0.661476
O O4 0.226968 0.392875 0.592640
O O5 0.680076 0.514502 0.905546
O O6 0.164741 0.839478 0.367705
O O7 0.407074 0.750000 0.293090
O O8 0.087481 0.750000 0.243479
O O9 0.000000 0.500000 0.866349
O O10 0.938693 0.583881 0.997055
O O11 0.259289 0.750000 0.743894
O O12 0.079898 0.666782 0.634034
O O13 0.000000 0.500000 0.628154
#
# Coordination Sequence:
#
# PCOD9360517 Si02
#       7
#     8   4   4   8   4   4   8
#     4  10  19  39  70 103 124 157 218 277 325 377
#     4  10  20  40  68 102 120 166 218 268 332 376
#     4  12  29  44  60  96 138 181 220 256 331 408
#     4  11  23  45  67  97 133 170 219 271 327 391
#     4  12  25  43  66  94 129 174 217 267 323 381
#     4  12  24  45  60  98 133 169 217 271 328 385
#     4  11  19  41  72  96 123 163 215 275 322 370
#
# _framework density 20.381219999999999
#
# number of rings (size 3 to 8) (size 9 to 14) (size 15 to 20)
#    0.600    0.400    6.000    3.000    0.000    3.200 
#    5.400    0.000    0.000    0.000    0.000    0.000 
#    0.000    0.000    0.000    0.000    0.000    0.000 
#
# Total GULP energy -111491.167266 kJ/mol
# GULP energy per Si atom -5574.558363 kJ/mol
# Density = 2.033483 g / cm^3
# Si number density = 20.381220 Si / 1000 Ang^3
#
#
#
# Elastic Constant Matrix: (Units=GPa)
#
#
# Indices 1 2 3 4 5 6 
#
# 1 105.7120 11.4532 4.3111 0.0000 0.0000 0.0000
# 2 11.4532 153.2011 36.3987 0.0000 0.0000 0.0000
# 3 4.3111 36.3987 34.6578 0.0000 0.0000 0.0000
# 4 0.0000 0.0000 0.0000 89.3821 0.0000 0.0000
# 5 0.0000 0.0000 0.0000 0.0000 13.5214 0.0000
# 6 0.0000 0.0000 0.0000 0.0000 0.0000 29.7524
#
#
#
# Elastic Compliance Matrix: (Units=1/GPa)
#
#
# Indices 1 2 3 4 5 6 
#
# 1 0.009546 -0.000575 -0.000584 0.000000 0.000000 0.000000
# 2 -0.000575 0.008732 -0.009099 0.000000 0.000000 0.000000
# 3 -0.000584 -0.009099 0.038483 0.000000 0.000000 0.000000
# 4 0.000000 0.000000 0.000000 0.011188 0.000000 0.000000
# 5 0.000000 0.000000 0.000000 0.000000 0.073957 0.000000
# 6 0.000000 0.000000 0.000000 0.000000 0.000000 0.033611
#
#
# Mechanical properties :
#
#
# Convention : Reuss Voigt Hill
#
# Bulk Modulus (GPa) = 27.59014 44.21076 35.90045
# Shear Modulus (GPa) = 24.02533 42.62503 33.32518
#
# Velocity S-wave (km/s) = 3.43709 4.57813 4.04801
# Velocity P-wave (km/s) = 5.41460 7.04874 6.28500
#
# Compressibility (1/GPa) = 0.03624483
#
# Stress axis : x y z
#
# Youngs Moduli (GPa) = 104.75856 114.51802 25.98578
#
# Poissons Ratio (x) = 0.06585 0.01516
# Poissons Ratio (y) = 0.06024 0.23645
# Poissons Ratio (z) = 0.06113 1.04204
#
# Static dielectric constant tensor:
#      x y z
#    x 1.824600 0.000000 0.000000 
#    y 0.000000 1.737810 0.000000 
#    z 0.000000 0.000000 1.718140 
# 
# From -- ./inp_files/8116.got.cif
#   From: 2010.05.17/outbox.cif.g08.bks.cpg/sg39_5_cif.got.tgz:8116.got - 2010.06.03 18:22:40.
