data_PCOD9360350
_publ_section_title
;
Structure prediction by ZEFSAII (Michael W. Deem and Ramdas Pophale) SiO2 
 PCOD9360350
Probable space group: A B M 2
;
_chemical_formula_sum "Si O2"
_cell_formula_units_Z 64
_cell_length_a 24.318671
_cell_length_b 8.977683
_cell_length_c 15.132419
_cell_angle_alpha 90.000000
_cell_angle_beta 90.000000
_cell_angle_gamma 90.000000
_cell_volume 3303.790209
_symmetry_space_group_name_H-M "A B M 2"
_symmetry_group_IT_number 39
_symmetry_cell_setting 'orthorhombic'
loop_
_space_group_symop_operation_xyz
x,y,z
-x,-y,z
-x,1/2+y,z
x,1/2-y,z
x,1/2+y,1/2+z
-x,1/2-y,1/2+z
-x,y,1/2+z
x,-y,1/2+z
loop_
_atom_site_type_symbol
_atom_site_label
_atom_site_fract_x
_atom_site_fract_y
_atom_site_fract_z
Si Si1 0.647663 0.571686 0.807290
Si Si2 0.239240 0.577945 0.826416
Si Si3 0.855601 0.426939 0.581662
Si Si4 0.057511 0.072015 0.933417
Si Si5 0.883039 0.072377 0.776430
Si Si6 0.630488 0.928224 0.011787
Si Si7 0.440789 0.070751 0.659055
Si Si8 0.256089 0.578130 0.038246
O O1 0.651540 0.750000 0.805538
O O2 0.708111 0.507157 0.789094
O O3 0.602408 0.526117 0.735785
O O4 0.630882 0.529309 0.907761
O O5 0.242470 0.750000 0.797899
O O6 0.179115 0.521778 0.800137
O O7 0.243915 0.572540 0.932797
O O8 0.844029 0.250000 0.574040
O O9 0.893258 0.473332 0.499467
O O10 0.888646 0.450312 0.672160
O O11 0.797826 0.511757 0.583572
O O12 0.053240 0.250000 0.935059
O O13 0.074415 0.013914 0.837011
O O14 0.000000 0.000000 0.960448
O O15 0.886703 0.250000 0.795258
O O16 0.625671 0.750000 0.018422
O O17 0.583312 0.008484 0.067289
O O18 0.688886 0.982973 0.050926
O O19 0.444159 0.250000 0.656718
O O20 0.500000 0.000000 0.676364
O O21 0.265682 0.750000 0.063327
#
# Coordination Sequence:
#
# PCOD9360350 Si02
#       8
#     8   8   8   8   8   8   8   8
#     4   9  21  39  59  85 119 155 197 244 293 350
#     4   9  18  33  57  87 120 155 192 238 295 350
#     4  10  22  38  59  89 121 156 197 242 296 354
#     4  11  24  42  63  86 117 159 202 248 297 350
#     4  10  21  39  60  88 121 155 197 244 294 354
#     4  10  21  39  61  87 119 158 198 245 297 351
#     4  11  24  42  61  87 119 157 202 248 296 354
#     4  10  19  34  58  89 122 157 196 243 295 352
#
# _framework density 19.371690000000001
#
# number of rings (size 3 to 8) (size 9 to 14) (size 15 to 20)
#    0.000    2.000    1.250    1.500    1.750    4.500 
#    0.000    2.500    0.000    0.000    0.000    0.000 
#    0.000    0.000    0.000    0.000    0.000    0.000 
#
# Total GULP energy -178774.129848 kJ/mol
# GULP energy per Si atom -5586.691558 kJ/mol
# Density = 1.932760 g / cm^3
# Si number density = 19.371690 Si / 1000 Ang^3
#
#
#
# Elastic Constant Matrix: (Units=GPa)
#
#
# Indices 1 2 3 4 5 6 
#
# 1 66.5997 18.6673 6.9632 0.0000 0.0000 0.0000
# 2 18.6673 37.7739 15.8512 0.0000 0.0000 0.0000
# 3 6.9632 15.8512 38.2976 0.0000 0.0000 0.0000
# 4 0.0000 0.0000 0.0000 22.1619 0.0000 0.0000
# 5 0.0000 0.0000 0.0000 0.0000 22.6098 0.0000
# 6 0.0000 0.0000 0.0000 0.0000 0.0000 37.2219
#
#
#
# Elastic Compliance Matrix: (Units=1/GPa)
#
#
# Indices 1 2 3 4 5 6 
#
# 1 0.017437 -0.008818 0.000480 0.000000 0.000000 0.000000
# 2 -0.008818 0.036497 -0.013503 0.000000 0.000000 0.000000
# 3 0.000480 -0.013503 0.031613 0.000000 0.000000 0.000000
# 4 0.000000 0.000000 0.000000 0.045122 0.000000 0.000000
# 5 0.000000 0.000000 0.000000 0.000000 0.044229 0.000000
# 6 0.000000 0.000000 0.000000 0.000000 0.000000 0.026866
#
#
# Mechanical properties :
#
#
# Convention : Reuss Voigt Hill
#
# Bulk Modulus (GPa) = 23.88690 25.07050 24.47870
# Shear Modulus (GPa) = 19.27515 23.14468 21.20992
#
# Velocity S-wave (km/s) = 3.15781 3.46029 3.31251
# Velocity P-wave (km/s) = 5.06491 5.37910 5.22437
#
# Compressibility (1/GPa) = 0.04186396
#
# Stress axis : x y z
#
# Youngs Moduli (GPa) = 57.35070 27.39925 31.63266
#
# Poissons Ratio (x) = 0.24161 -0.01517
# Poissons Ratio (y) = 0.50572 0.42713
# Poissons Ratio (z) = -0.02750 0.36997
#
# Static dielectric constant tensor:
#      x y z
#    x 1.645450 0.000000 0.000000 
#    y 0.000000 1.653430 0.000000 
#    z 0.000000 0.000000 1.695840 
# 
# From -- ./inp_files/10601.got.cif
#   From: 2010.05.17/outbox.cif.g08.bks.cpg/sg39_6_cif.got.tgz:10601.got - 2010.06.03 18:22:40.
