data_PCOD9360453
_publ_section_title
;
Structure prediction by ZEFSAII (Michael W. Deem and Ramdas Pophale) SiO2 
 PCOD9360453
Probable space group: A B M 2
;
_chemical_formula_sum "Si O2"
_cell_formula_units_Z 64
_cell_length_a 15.762159
_cell_length_b 8.942531
_cell_length_c 24.184424
_cell_angle_alpha 90.000000
_cell_angle_beta 90.000000
_cell_angle_gamma 90.000000
_cell_volume 3408.881518
_symmetry_space_group_name_H-M "A B M 2"
_symmetry_group_IT_number 39
_symmetry_cell_setting 'orthorhombic'
loop_
_space_group_symop_operation_xyz
x,y,z
-x,-y,z
-x,1/2+y,z
x,1/2-y,z
x,1/2+y,1/2+z
-x,1/2-y,1/2+z
-x,y,1/2+z
x,-y,1/2+z
loop_
_atom_site_type_symbol
_atom_site_label
_atom_site_fract_x
_atom_site_fract_y
_atom_site_fract_z
Si Si1 0.911305 0.928684 0.679640
Si Si2 0.744315 0.929339 0.611244
Si Si3 0.350954 0.572274 0.800805
Si Si4 0.148683 0.071626 0.293048
Si Si5 0.742879 0.570200 0.481207
Si Si6 0.410640 0.572129 0.413518
Si Si7 0.911686 0.570268 0.414961
Si Si8 0.410676 0.571378 0.677476
O O1 0.918472 0.750000 0.679424
O O2 0.832440 0.972678 0.640702
O O3 0.889785 0.985377 0.741272
O O4 0.000000 0.000000 0.661658
O O5 0.734859 0.750000 0.617807
O O6 0.745749 0.962567 0.546210
O O7 0.666284 0.008922 0.641221
O O8 0.363313 0.750000 0.811354
O O9 0.249831 0.546008 0.797026
O O10 0.390061 0.480558 0.851055
O O11 0.391389 0.534173 0.741723
O O12 0.135983 0.250000 0.285104
O O13 0.107598 0.027107 0.351388
O O14 0.733169 0.750000 0.473823
O O15 0.665008 0.489665 0.451480
O O16 0.830990 0.526379 0.451847
O O17 0.500000 0.500000 0.430318
O O18 0.415462 0.750000 0.416292
O O19 0.917790 0.750000 0.416785
O O20 0.000000 0.500000 0.433366
O O21 0.500000 0.500000 0.660997
O O22 0.414254 0.750000 0.672814
#
# Coordination Sequence:
#
# PCOD9360453 Si02
#       8
#     8   8   8   8   8   8   8   8
#     4  11  23  38  59  90 123 159 201 246 299 359
#     4  10  23  42  64  87 116 157 206 254 301 352
#     4  10  20  38  63  91 123 160 195 240 301 359
#     4  10  19  36  61  89 120 158 195 241 301 356
#     4  10  22  44  65  84 117 160 203 253 304 352
#     4  12  25  40  63  93 123 158 199 246 299 359
#     4  10  21  37  60  87 119 154 194 241 296 354
#     4  11  23  39  63  91 123 158 197 243 299 359
#
# _framework density 18.774486
#
# number of rings (size 3 to 8) (size 9 to 14) (size 15 to 20)
#    0.000    1.500    2.500    2.625    0.000    6.500 
#    0.000    0.000    0.000    0.000    0.000    0.000 
#    0.000    0.000    0.000    0.000    0.000    0.000 
#
# Total GULP energy -178921.888002 kJ/mol
# GULP energy per Si atom -5591.309000 kJ/mol
# Density = 1.873175 g / cm^3
# Si number density = 18.774486 Si / 1000 Ang^3
#
#
#
# Elastic Constant Matrix: (Units=GPa)
#
#
# Indices 1 2 3 4 5 6 
#
# 1 195.7728 74.6941 90.7477 0.0000 0.0000 0.0000
# 2 74.6941 56.4777 63.8157 0.0000 0.0000 0.0000
# 3 90.7477 63.8157 133.0878 0.0000 0.0000 0.0000
# 4 0.0000 0.0000 0.0000 21.0090 0.0000 0.0000
# 5 0.0000 0.0000 0.0000 0.0000 -34.1875 0.0000
# 6 0.0000 0.0000 0.0000 0.0000 0.0000 30.6327
#
#
#
# Elastic Compliance Matrix: (Units=1/GPa)
#
#
# Indices 1 2 3 4 5 6 
#
# 1 0.010381 -0.012509 -0.001081 0.000000 0.000000 0.000000
# 2 -0.012509 0.053714 -0.017227 0.000000 0.000000 0.000000
# 3 -0.001081 -0.017227 0.016511 0.000000 0.000000 0.000000
# 4 0.000000 0.000000 0.000000 0.047599 0.000000 0.000000
# 5 0.000000 0.000000 0.000000 0.000000 -0.029250 0.000000
# 6 0.000000 0.000000 0.000000 0.000000 0.000000 0.032645
#
#
# Mechanical properties :
#
#
# Convention : Reuss Voigt Hill
#
# Bulk Modulus (GPa) = 52.70304 93.76148 73.23226
# Shear Modulus (GPa) = 25.05540 13.89622 19.47581
#
# Velocity S-wave (km/s) = 3.65711 2.72355 3.22429
# Velocity P-wave (km/s) = 6.77976 7.74207 7.27684
#
# Compressibility (1/GPa) = 0.01897424
#
# Stress axis : x y z
#
# Youngs Moduli (GPa) = 96.32580 18.61696 60.56512
#
# Poissons Ratio (x) = 0.23287 0.06546
# Poissons Ratio (y) = 1.20490 1.04335
# Poissons Ratio (z) = 0.10411 0.32071
#
# Static dielectric constant tensor:
#      x y z
#    x 1.643960 0.000000 0.000000 
#    y 0.000000 1.627190 0.000000 
#    z 0.000000 0.000000 1.626270 
# 
# From -- ./inp_files/16187.got.cif
#   From: 2010.05.17/outbox.cif.g08.bks.cpg/sg39_9_cif.got.tgz:16187.got - 2010.06.03 18:22:40.
