data_PCOD9360232
_publ_section_title
;
Structure prediction by ZEFSAII (Michael W. Deem and Ramdas Pophale) SiO2 
 PCOD9360232
Probable space group: A B M 2
;
_chemical_formula_sum "Si O2"
_cell_formula_units_Z 56
_cell_length_a 15.602985
_cell_length_b 8.754220
_cell_length_c 20.396291
_cell_angle_alpha 90.000000
_cell_angle_beta 90.000000
_cell_angle_gamma 90.000000
_cell_volume 2785.969433
_symmetry_space_group_name_H-M "A B M 2"
_symmetry_group_IT_number 39
_symmetry_cell_setting 'orthorhombic'
loop_
_space_group_symop_operation_xyz
x,y,z
-x,-y,z
-x,1/2+y,z
x,1/2-y,z
x,1/2+y,1/2+z
-x,1/2-y,1/2+z
-x,y,1/2+z
x,-y,1/2+z
loop_
_atom_site_type_symbol
_atom_site_label
_atom_site_fract_x
_atom_site_fract_y
_atom_site_fract_z
Si Si1 0.090341 0.431085 0.985450
Si Si2 0.729622 0.567787 0.441092
Si Si3 0.317065 0.068292 0.168962
Si Si4 0.408765 0.931386 0.538799
Si Si5 0.721703 0.434298 0.303765
Si Si6 0.912955 0.072210 0.270049
Si Si7 0.861841 0.070845 0.121596
O O1 0.091075 0.250000 0.976345
O O2 0.174626 0.502832 0.952396
O O3 0.000000 0.500000 0.962400
O O4 0.099886 0.473380 0.062553
O O5 0.732291 0.750000 0.439978
O O6 0.667918 0.509254 0.498688
O O7 0.693835 0.500926 0.372994
O O8 0.301508 0.250000 0.174270
O O9 0.391462 0.043258 0.116141
O O10 0.328541 0.997541 0.240813
O O11 0.233293 0.987847 0.138035
O O12 0.406029 0.750000 0.526847
O O13 0.500000 0.000000 0.519711
O O14 0.719912 0.250000 0.303283
O O15 0.821151 0.487452 0.294283
O O16 0.914670 0.250000 0.286602
O O17 0.909859 0.057456 0.190979
O O18 0.000000 0.000000 0.295504
O O19 0.860608 0.250000 0.102627
#
# Coordination Sequence:
#
# PCOD9360232 Si02
#       7
#     8   8   8   8   8   8   8
#     4  12  24  38  57  86 124 169 219 269 322 379
#     4  12  25  43  66  93 129 171 217 268 324 384
#     4  10  20  37  63  94 125 160 206 258 314 376
#     4  11  24  43  70 102 133 166 208 260 320 385
#     4  10  22  40  61  86 123 167 212 262 319 378
#     4   9  19  32  50  78 113 156 205 258 309 367
#     4  10  19  33  54  83 119 161 207 259 320 373
#
# _framework density 20.100725000000001
#
# number of rings (size 3 to 8) (size 9 to 14) (size 15 to 20)
#    0.000    1.429    1.429    5.571    0.000    6.857 
#    0.000    2.143    0.000    1.714    0.000    0.000 
#    0.000    0.000    0.000    0.000    0.000    0.000 
#
# Total GULP energy -156510.182280 kJ/mol
# GULP energy per Si atom -5589.649367 kJ/mol
# Density = 2.005497 g / cm^3
# Si number density = 20.100725 Si / 1000 Ang^3
#
#
#
# Elastic Constant Matrix: (Units=GPa)
#
#
# Indices 1 2 3 4 5 6 
#
# 1 71.5789 45.1630 21.8221 0.0000 0.0000 0.0000
# 2 45.1630 117.6040 48.2276 0.0000 0.0000 0.0000
# 3 21.8221 48.2276 110.5015 0.0000 0.0000 0.0000
# 4 0.0000 0.0000 0.0000 25.2009 0.0000 0.0000
# 5 0.0000 0.0000 0.0000 0.0000 -11.3518 0.0000
# 6 0.0000 0.0000 0.0000 0.0000 0.0000 28.7388
#
#
#
# Elastic Compliance Matrix: (Units=1/GPa)
#
#
# Indices 1 2 3 4 5 6 
#
# 1 0.018479 -0.006821 -0.000672 0.000000 0.000000 0.000000
# 2 -0.006821 0.012874 -0.004272 0.000000 0.000000 0.000000
# 3 -0.000672 -0.004272 0.011047 0.000000 0.000000 0.000000
# 4 0.000000 0.000000 0.000000 0.039681 0.000000 0.000000
# 5 0.000000 0.000000 0.000000 0.000000 -0.088092 0.000000
# 6 0.000000 0.000000 0.000000 0.000000 0.000000 0.034796
#
#
# Mechanical properties :
#
#
# Convention : Reuss Voigt Hill
#
# Bulk Modulus (GPa) = 52.99369 58.90107 55.94738
# Shear Modulus (GPa) = 85.31505 20.81570 53.06537
#
# Velocity S-wave (km/s) = 6.52196 3.22152 5.14364
# Velocity P-wave (km/s) = 9.11789 6.57299 7.94796
#
# Compressibility (1/GPa) = 0.01887017
#
# Stress axis : x y z
#
# Youngs Moduli (GPa) = 54.11502 77.67417 90.52316
#
# Poissons Ratio (x) = 0.52979 0.06087
# Poissons Ratio (y) = 0.36910 0.38671
# Poissons Ratio (z) = 0.03639 0.33182
#
# Static dielectric constant tensor:
#      x y z
#    x 1.705050 0.000000 0.000000 
#    y 0.000000 1.672490 0.000000 
#    z 0.000000 0.000000 1.737640 
# 
# From -- ./inp_files/14724.got.cif
#   From: 2010.05.17/outbox.cif.g08.bks.cpg/sg39_8_cif.got.tgz:14724.got - 2010.06.03 18:22:40.
