data_PCOD9360481
_publ_section_title
;
Structure prediction by ZEFSAII (Michael W. Deem and Ramdas Pophale) SiO2 
 PCOD9360481
Probable space group: A B M 2
;
_chemical_formula_sum "Si O2"
_cell_formula_units_Z 64
_cell_length_a 8.675810
_cell_length_b 18.398536
_cell_length_c 21.185889
_cell_angle_alpha 90.000000
_cell_angle_beta 90.000000
_cell_angle_gamma 90.000000
_cell_volume 3381.738267
_symmetry_space_group_name_H-M "A B M 2"
_symmetry_group_IT_number 39
_symmetry_cell_setting 'orthorhombic'
loop_
_space_group_symop_operation_xyz
x,y,z
-x,-y,z
-x,1/2+y,z
x,1/2-y,z
x,1/2+y,1/2+z
-x,1/2-y,1/2+z
-x,y,1/2+z
x,-y,1/2+z
loop_
_atom_site_type_symbol
_atom_site_label
_atom_site_fract_x
_atom_site_fract_y
_atom_site_fract_z
Si Si1 0.100323 0.075842 0.885270
Si Si2 0.301926 0.925902 0.511851
Si Si3 0.312710 0.665950 0.139262
Si Si4 0.698074 0.425902 0.258689
Si Si5 0.312709 0.834050 0.631278
Si Si6 0.337827 0.096784 0.260072
Si Si7 0.193899 0.835940 0.885270
Si Si8 0.662172 0.096784 0.010468
O O1 0.203032 0.081089 0.948338
O O2 0.203032 0.081089 0.822202
O O3 0.984591 0.143213 0.885270
O O4 0.000000 0.000000 0.885270
O O5 0.248730 0.883277 0.574537
O O6 0.477031 0.897446 0.502469
O O7 0.308482 0.012038 0.523859
O O8 0.276960 0.750000 0.150606
O O9 0.248731 0.616722 0.196003
O O10 0.500000 0.657870 0.135270
O O11 0.268389 0.640545 0.069418
O O12 0.691517 0.512038 0.246682
O O13 0.522969 0.397446 0.268071
O O14 0.276959 0.750000 0.619934
O O15 0.268388 0.859455 0.701122
O O16 0.264600 0.125718 0.323924
O O17 0.222316 0.750000 0.885270
O O18 0.264600 0.874282 0.946617
#
# Coordination Sequence:
#
# PCOD9360481 Si02
#       8
#     8   8   8   8   8   8   8   8
#     4  12  23  41  58  83 120 161 201 250 291 357
#     4  10  20  36  64  88 115 153 201 247 297 352
#     4   9  18  33  56  89 124 150 185 246 306 353
#     4  10  20  36  64  88 115 153 201 247 297 352
#     4   9  18  33  56  89 124 150 185 246 306 353
#     4  10  19  37  62  92 115 150 199 249 298 357
#     4  12  25  39  59  85 121 160 194 242 305 363
#     4  10  19  37  62  92 115 150 199 249 298 357
#
# _framework density 18.925177999999999
#
# number of rings (size 3 to 8) (size 9 to 14) (size 15 to 20)
#    0.000    1.750    2.500    2.250    0.000    7.000 
#    0.000    2.500    0.000    3.000    0.000    0.000 
#    0.000    0.000    0.000    0.000    0.000    0.000 
#
# Total GULP energy -178529.956699 kJ/mol
# GULP energy per Si atom -5579.061147 kJ/mol
# Density = 1.888210 g / cm^3
# Si number density = 18.925178 Si / 1000 Ang^3
#
#
#
# Elastic Constant Matrix: (Units=GPa)
#
#
# Indices 1 2 3 4 5 6 
#
# 1 37.6066 27.7914 47.5563 0.0000 0.0000 0.0000
# 2 27.7914 79.5292 68.0150 0.0000 0.0000 0.0000
# 3 47.5563 68.0150 201.1967 0.0000 0.0000 0.0000
# 4 0.0000 0.0000 0.0000 -845.4018 0.0000 0.0000
# 5 0.0000 0.0000 0.0000 0.0000 -30.7063 0.0000
# 6 0.0000 0.0000 0.0000 0.0000 0.0000 21.0037
#
#
#
# Elastic Compliance Matrix: (Units=1/GPa)
#
#
# Indices 1 2 3 4 5 6 
#
# 1 0.041774 -0.008656 -0.006948 0.000000 0.000000 0.000000
# 2 -0.008656 0.019481 -0.004540 0.000000 0.000000 0.000000
# 3 -0.006948 -0.004540 0.008147 0.000000 0.000000 0.000000
# 4 0.000000 0.000000 0.000000 -0.001183 0.000000 0.000000
# 5 0.000000 0.000000 0.000000 0.000000 -0.032567 0.000000
# 6 0.000000 0.000000 0.000000 0.000000 0.000000 0.047611
#
#
# Mechanical properties :
#
#
# Convention : Reuss Voigt Hill
#
# Bulk Modulus (GPa) = 34.34606 67.22866 50.78736
# Shear Modulus (GPa) = 37.52193 -159.35622 -60.91715
#
# Velocity S-wave (km/s) = 4.45752 -9.18619 -5.67964
# Velocity P-wave (km/s) = 6.68434 8.77008 4.01459
#
# Compressibility (1/GPa) = 0.02911542
#
# Stress axis : x y z
#
# Youngs Moduli (GPa) = 23.93839 51.33143 122.74208
#
# Poissons Ratio (x) = 0.44432 0.85279
# Poissons Ratio (y) = 0.20721 0.55721
# Poissons Ratio (z) = 0.16632 0.23303
#
# Static dielectric constant tensor:
#      x y z
#    x 1.668650 0.000000 0.000000 
#    y 0.000000 1.641500 0.000000 
#    z 0.000000 0.000000 1.647260 
# 
# From -- ./inp_files/14183.got.cif
#   From: 2010.05.17/outbox.cif.g08.bks.cpg/sg39_8_cif.got.tgz:14183.got - 2010.06.03 18:22:40.
