data_PCOD9360770
_publ_section_title
;
Structure prediction by ZEFSAII (Michael W. Deem and Ramdas Pophale) SiO2 
 PCOD9360770
Probable space group: A B M 2
;
_chemical_formula_sum "Si O2"
_cell_formula_units_Z 64
_cell_length_a 24.768387
_cell_length_b 7.632900
_cell_length_c 15.787311
_cell_angle_alpha 90.000000
_cell_angle_beta 90.000000
_cell_angle_gamma 90.000000
_cell_volume 2984.664100
_symmetry_space_group_name_H-M "A B M 2"
_symmetry_group_IT_number 39
_symmetry_cell_setting 'orthorhombic'
loop_
_space_group_symop_operation_xyz
x,y,z
-x,-y,z
-x,1/2+y,z
x,1/2-y,z
x,1/2+y,1/2+z
-x,1/2-y,1/2+z
-x,y,1/2+z
x,-y,1/2+z
loop_
_atom_site_type_symbol
_atom_site_label
_atom_site_fract_x
_atom_site_fract_y
_atom_site_fract_z
Si Si1 0.248077 0.547603 0.019920
Si Si2 0.129746 0.962167 0.989806
Si Si3 0.625411 0.041582 0.250069
Si Si4 0.857957 0.041298 0.293507
Si Si5 0.562166 0.456881 0.915644
Si Si6 0.261317 0.535883 0.324786
Si Si7 0.937487 0.460490 0.147319
Si Si8 0.636584 0.534393 0.567067
O O1 0.243723 0.750000 0.047869
O O2 0.301090 0.473829 0.064570
O O3 0.187876 0.472074 0.024853
O O4 0.261693 0.536160 0.920154
O O5 0.131659 0.750000 0.990380
O O6 0.124486 0.011159 0.891147
O O7 0.084289 0.021938 0.055654
O O8 0.631348 0.250000 0.243507
O O9 0.684438 0.975964 0.278760
O O10 0.611324 0.979160 0.156256
O O11 0.582325 0.008491 0.322848
O O12 0.855837 0.250000 0.281821
O O13 0.795882 0.979293 0.284831
O O14 0.899392 0.971573 0.223430
O O15 0.500000 0.500000 0.930725
O O16 0.567392 0.250000 0.920324
O O17 0.602414 0.530620 0.987162
O O18 0.261368 0.750000 0.329297
O O19 0.932350 0.250000 0.146706
O O20 0.000000 0.500000 0.160675
O O21 0.637941 0.750000 0.562559
#
# Coordination Sequence:
#
# PCOD9360770 Si02
#       8
#     8   8   8   8   8   8   8   8
#     4   9  16  31  55  80 110 143 177 219 270 328
#     4   9  19  34  55  81 108 141 182 225 273 326
#     4  10  20  35  57  86 114 144 180 221 272 327
#     4   9  19  35  54  79 110 144 181 224 274 326
#     4  11  23  41  60  80 110 148 187 227 270 318
#     4   9  17  30  53  82 113 142 175 221 273 326
#     4  10  22  38  55  78 108 146 189 228 272 327
#     4   9  19  34  56  84 112 143 179 219 269 323
#
# _framework density 21.442948999999999
#
# number of rings (size 3 to 8) (size 9 to 14) (size 15 to 20)
#    0.000    2.500    1.250    0.375    1.750    2.000 
#    0.000    5.625    0.000    0.000    0.000    0.000 
#    0.000    0.000    0.000    0.000    0.000    0.000 
#
# Total GULP energy -178569.739591 kJ/mol
# GULP energy per Si atom -5580.304362 kJ/mol
# Density = 2.139414 g / cm^3
# Si number density = 21.442949 Si / 1000 Ang^3
#
#
#
# Elastic Constant Matrix: (Units=GPa)
#
#
# Indices 1 2 3 4 5 6 
#
# 1 62.0630 -6.9808 3.9046 0.0000 0.0000 0.0000
# 2 -6.9808 36.9733 -5.8756 0.0000 0.0000 0.0000
# 3 3.9046 -5.8756 29.8022 0.0000 0.0000 0.0000
# 4 0.0000 0.0000 0.0000 16.8653 0.0000 0.0000
# 5 0.0000 0.0000 0.0000 0.0000 19.5460 0.0000
# 6 0.0000 0.0000 0.0000 0.0000 0.0000 10.9858
#
#
#
# Elastic Compliance Matrix: (Units=1/GPa)
#
#
# Indices 1 2 3 4 5 6 
#
# 1 0.016536 0.002868 -0.001601 0.000000 0.000000 0.000000
# 2 0.002868 0.028419 0.005227 0.000000 0.000000 0.000000
# 3 -0.001601 0.005227 0.034795 0.000000 0.000000 0.000000
# 4 0.000000 0.000000 0.000000 0.059293 0.000000 0.000000
# 5 0.000000 0.000000 0.000000 0.000000 0.051161 0.000000
# 6 0.000000 0.000000 0.000000 0.000000 0.000000 0.091027
#
#
# Mechanical properties :
#
#
# Convention : Reuss Voigt Hill
#
# Bulk Modulus (GPa) = 10.78321 12.32611 11.55466
# Shear Modulus (GPa) = 16.71370 18.66544 17.68957
#
# Velocity S-wave (km/s) = 2.79489 2.95357 2.87533
# Velocity P-wave (km/s) = 3.93128 4.17040 4.05260
#
# Compressibility (1/GPa) = 0.09273673
#
# Stress axis : x y z
#
# Youngs Moduli (GPa) = 60.47432 35.18816 28.73985
#
# Poissons Ratio (x) = -0.10091 0.04602
# Poissons Ratio (y) = -0.17342 -0.15023
# Poissons Ratio (z) = 0.09683 -0.18393
#
# Static dielectric constant tensor:
#      x y z
#    x 1.756090 0.000000 0.000000 
#    y 0.000000 1.842000 0.000000 
#    z 0.000000 0.000000 1.785050 
# 
# From -- ./inp_files/10585.got.cif
#   From: 2010.05.17/outbox.cif.g08.bks.cpg/sg39_6_cif.got.tgz:10585.got - 2010.06.03 18:22:40.
