data_PCOD9360146
_publ_section_title
;
Structure prediction by ZEFSAII (Michael W. Deem and Ramdas Pophale) SiO2 
 PCOD9360146
Probable space group: A B M 2
;
_chemical_formula_sum "Si O2"
_cell_formula_units_Z 56
_cell_length_a 15.898411
_cell_length_b 8.498031
_cell_length_c 20.739213
_cell_angle_alpha 90.000000
_cell_angle_beta 90.000000
_cell_angle_gamma 90.000000
_cell_volume 2801.975303
_symmetry_space_group_name_H-M "A B M 2"
_symmetry_group_IT_number 39
_symmetry_cell_setting 'orthorhombic'
loop_
_space_group_symop_operation_xyz
x,y,z
-x,-y,z
-x,1/2+y,z
x,1/2-y,z
x,1/2+y,1/2+z
-x,1/2-y,1/2+z
-x,y,1/2+z
x,-y,1/2+z
loop_
_atom_site_type_symbol
_atom_site_label
_atom_site_fract_x
_atom_site_fract_y
_atom_site_fract_z
Si Si1 0.087978 0.933491 0.688540
Si Si2 0.591558 0.561319 0.415547
Si Si3 0.732418 0.940029 0.516495
Si Si4 0.270472 0.436657 0.659720
Si Si5 0.126271 0.435785 0.823741
Si Si6 0.307406 0.562943 0.794353
Si Si7 0.088985 0.937511 0.470599
O O1 0.096262 0.750000 0.673878
O O2 0.170985 0.023679 0.665106
O O3 0.088786 0.961516 0.765868
O O4 0.000000 0.000000 0.663197
O O5 0.500000 0.500000 0.432817
O O6 0.590336 0.750000 0.420253
O O7 0.666282 0.504553 0.462628
O O8 0.616908 0.521023 0.342047
O O9 0.735554 0.750000 0.514155
O O10 0.703081 0.985934 0.588165
O O11 0.826666 0.999409 0.503669
O O12 0.281389 0.250000 0.667183
O O13 0.315733 0.521558 0.719261
O O14 0.109651 0.250000 0.812553
O O15 0.225837 0.468635 0.819056
O O16 0.096075 0.481592 0.894691
O O17 0.290484 0.750000 0.800648
O O18 0.089355 0.750000 0.474835
O O19 0.000000 0.000000 0.496033
#
# Coordination Sequence:
#
# PCOD9360146 Si02
#       7
#     8   8   8   8   8   8   8
#     4  11  21  33  51  76 110 151 198 248 294 345
#     4  10  22  40  65  94 120 153 194 240 298 354
#     4  10  22  42  62  84 120 160 198 245 296 350
#     4  10  21  37  59  83 113 154 195 238 293 351
#     4  10  19  32  52  81 113 149 193 241 296 346
#     4  10  19  35  60  87 117 150 187 238 292 346
#     4  11  23  35  54  83 117 159 203 248 295 348
#
# _framework density 19.985901999999999
#
# number of rings (size 3 to 8) (size 9 to 14) (size 15 to 20)
#    0.000    1.714    1.429    5.143    0.000    6.286 
#    0.000    0.714    0.000    3.429    0.000    0.000 
#    0.000    0.000    0.000    0.000    0.000    0.000 
#
# Total GULP energy -156417.630542 kJ/mol
# GULP energy per Si atom -5586.343948 kJ/mol
# Density = 1.994041 g / cm^3
# Si number density = 19.985902 Si / 1000 Ang^3
#
#
#
# Elastic Constant Matrix: (Units=GPa)
#
#
# Indices 1 2 3 4 5 6 
#
# 1 95.8932 8.5372 43.8574 0.0000 0.0000 0.0000
# 2 8.5372 20.7465 19.1795 0.0000 0.0000 0.0000
# 3 43.8574 19.1795 117.7872 0.0000 0.0000 0.0000
# 4 0.0000 0.0000 0.0000 18.5629 0.0000 0.0000
# 5 0.0000 0.0000 0.0000 0.0000 -5.4360 0.0000
# 6 0.0000 0.0000 0.0000 0.0000 0.0000 27.7239
#
#
#
# Elastic Compliance Matrix: (Units=1/GPa)
#
#
# Indices 1 2 3 4 5 6 
#
# 1 0.012586 -0.000997 -0.004524 0.000000 0.000000 0.000000
# 2 -0.000997 0.056821 -0.008881 0.000000 0.000000 0.000000
# 3 -0.004524 -0.008881 0.011621 0.000000 0.000000 0.000000
# 4 0.000000 0.000000 0.000000 0.053871 0.000000 0.000000
# 5 0.000000 0.000000 0.000000 0.000000 -0.183958 0.000000
# 6 0.000000 0.000000 0.000000 0.000000 0.000000 0.036070
#
#
# Mechanical properties :
#
#
# Convention : Reuss Voigt Hill
#
# Bulk Modulus (GPa) = 19.14829 41.95278 30.55053
# Shear Modulus (GPa) = 150.49800 19.02701 84.76251
#
# Velocity S-wave (km/s) = 8.68709 3.08883 6.51945
# Velocity P-wave (km/s) = 10.49869 5.81016 8.48470
#
# Compressibility (1/GPa) = 0.05222399
#
# Stress axis : x y z
#
# Youngs Moduli (GPa) = 79.45257 17.59900 86.05470
#
# Poissons Ratio (x) = 0.01754 0.38932
# Poissons Ratio (y) = 0.07920 0.76426
# Poissons Ratio (z) = 0.35945 0.15630
#
# Static dielectric constant tensor:
#      x y z
#    x 1.686800 0.000000 0.000000 
#    y 0.000000 1.676010 0.000000 
#    z 0.000000 0.000000 1.750990 
# 
# From -- ./inp_files/14738.got.cif
#   From: 2010.05.17/outbox.cif.g08.bks.cpg/sg39_8_cif.got.tgz:14738.got - 2010.06.03 18:22:40.
