data_PCOD9360451
_publ_section_title
;
Structure prediction by ZEFSAII (Michael W. Deem and Ramdas Pophale) SiO2 
 PCOD9360451
Probable space group: A B M 2
;
_chemical_formula_sum "Si O2"
_cell_formula_units_Z 48
_cell_length_a 20.831131
_cell_length_b 19.691064
_cell_length_c 5.502595
_cell_angle_alpha 90.000000
_cell_angle_beta 90.000000
_cell_angle_gamma 90.000000
_cell_volume 2257.093671
_symmetry_space_group_name_H-M "A B M 2"
_symmetry_group_IT_number 39
_symmetry_cell_setting 'orthorhombic'
loop_
_space_group_symop_operation_xyz
x,y,z
-x,-y,z
-x,1/2+y,z
x,1/2-y,z
x,1/2+y,1/2+z
-x,1/2-y,1/2+z
-x,y,1/2+z
x,-y,1/2+z
loop_
_atom_site_type_symbol
_atom_site_label
_atom_site_fract_x
_atom_site_fract_y
_atom_site_fract_z
Si Si1 0.459792 0.750000 0.277331
Si Si2 0.821518 0.961749 0.274509
Si Si3 0.292109 0.367386 0.277985
Si Si4 0.342867 0.151362 0.777968
Si Si5 0.041008 0.098520 0.282839
Si Si6 0.962316 0.250000 0.721749
Si Si7 0.613418 0.999289 0.278071
O O1 0.500044 0.750000 0.527232
O O2 0.412925 0.684791 0.277495
O O3 0.780225 0.893416 0.277268
O O4 0.897581 0.949405 0.275990
O O5 0.804292 0.000652 0.523305
O O6 0.308455 0.329797 0.527467
O O7 0.338650 0.434824 0.278063
O O8 0.308636 0.329735 0.028760
O O9 0.347010 0.069463 0.778035
O O10 0.067480 0.176287 0.269536
O O11 0.002371 0.089816 0.538123
O O12 0.983314 0.250000 0.437473
O O13 0.575732 0.000007 0.528069
#
# Coordination Sequence:
#
# PCOD9360451 Si02
#       7
#     4   8   8   8   8   4   8
#     4  12  26  44  64  90 126 166 198 224 276 356
#     4  12  23  35  57  89 122 154 194 249 310 375
#     4  10  19  36  61  86 112 148 196 245 300 346
#     4  10  20  37  61  84 114 153 189 232 281 338
#     4  10  21  37  55  78 115 164 209 251 305 365
#     4   8  16  34  56  70  90 140 202 242 278 332
#     4   8  14  27  52  78 101 133 176 222 275 325
#
# _framework density 21.266283999999999
#
# number of rings (size 3 to 8) (size 9 to 14) (size 15 to 20)
#    0.000    2.000    0.000    6.000    0.000    2.000 
#    0.000    1.667    0.000   29.000    0.000    0.000 
#    0.000    0.000    0.000    0.000    0.000    0.000 
#
# Total GULP energy -133751.851177 kJ/mol
# GULP energy per Si atom -5572.993799 kJ/mol
# Density = 2.121788 g / cm^3
# Si number density = 21.266284 Si / 1000 Ang^3
#
#
#
# Elastic Constant Matrix: (Units=GPa)
#
#
# Indices 1 2 3 4 5 6 
#
# 1 90.1300 5.8569 62.0469 0.0000 0.0000 0.0000
# 2 5.8569 58.7788 21.5346 0.0000 0.0000 0.0000
# 3 62.0469 21.5346 264.6686 0.0000 0.0000 0.0000
# 4 0.0000 0.0000 0.0000 5.0278 0.0000 0.0000
# 5 0.0000 0.0000 0.0000 0.0000 14.0645 0.0000
# 6 0.0000 0.0000 0.0000 0.0000 0.0000 22.2277
#
#
#
# Elastic Compliance Matrix: (Units=1/GPa)
#
#
# Indices 1 2 3 4 5 6 
#
# 1 0.013232 -0.000188 -0.003087 0.000000 0.000000 0.000000
# 2 -0.000188 0.017538 -0.001383 0.000000 0.000000 0.000000
# 3 -0.003087 -0.001383 0.004614 0.000000 0.000000 0.000000
# 4 0.000000 0.000000 0.000000 0.198893 0.000000 0.000000
# 5 0.000000 0.000000 0.000000 0.000000 0.071101 0.000000
# 6 0.000000 0.000000 0.000000 0.000000 0.000000 0.044989
#
#
# Mechanical properties :
#
#
# Convention : Reuss Voigt Hill
#
# Bulk Modulus (GPa) = 38.35789 65.82824 52.09307
# Shear Modulus (GPa) = 13.57322 29.87328 21.72325
#
# Velocity S-wave (km/s) = 2.52910 3.75203 3.19954
# Velocity P-wave (km/s) = 5.15796 7.05633 6.18047
#
# Compressibility (1/GPa) = 0.02607025
#
# Stress axis : x y z
#
# Youngs Moduli (GPa) = 75.57270 57.01799 216.70878
#
# Poissons Ratio (x) = 0.01070 0.66894
# Poissons Ratio (y) = 0.01418 0.29971
# Poissons Ratio (z) = 0.23328 0.07886
#
# Static dielectric constant tensor:
#      x y z
#    x 1.700660 0.000000 0.000000 
#    y 0.000000 1.793180 0.000000 
#    z 0.000000 0.000000 1.839470 
# 
# From -- ./inp_files/811.got.cif
#   From: 2010.05.17/outbox.cif.g08.bks.cpg/sg39_1_cif.got.tgz:811.got - 2010.06.03 18:22:40.
