data_PCOD9360708
_publ_section_title
;
Structure prediction by ZEFSAII (Michael W. Deem and Ramdas Pophale) SiO2 
 PCOD9360708
Probable space group: A B M 2
;
_chemical_formula_sum "Si O2"
_cell_formula_units_Z 56
_cell_length_a 20.141241
_cell_length_b 9.117100
_cell_length_c 15.799824
_cell_angle_alpha 90.000000
_cell_angle_beta 90.000000
_cell_angle_gamma 90.000000
_cell_volume 2901.317073
_symmetry_space_group_name_H-M "A B M 2"
_symmetry_group_IT_number 39
_symmetry_cell_setting 'orthorhombic'
loop_
_space_group_symop_operation_xyz
x,y,z
-x,-y,z
-x,1/2+y,z
x,1/2-y,z
x,1/2+y,1/2+z
-x,1/2-y,1/2+z
-x,y,1/2+z
x,-y,1/2+z
loop_
_atom_site_type_symbol
_atom_site_label
_atom_site_fract_x
_atom_site_fract_y
_atom_site_fract_z
Si Si1 0.208350 0.421468 0.386340
Si Si2 0.066558 0.918037 0.630852
Si Si3 0.351835 0.572777 0.829075
Si Si4 0.933874 0.581507 0.335591
Si Si5 0.665684 0.075194 0.640709
Si Si6 0.571141 0.426390 0.482345
Si Si7 0.797679 0.919974 0.587034
O O1 0.204156 0.250000 0.359766
O O2 0.275570 0.477967 0.344286
O O3 0.136675 0.486563 0.362988
O O4 0.216877 0.427944 0.486873
O O5 0.066781 0.750000 0.601915
O O6 0.065573 0.917786 0.733453
O O7 0.133202 0.999343 0.603582
O O8 0.000000 0.000000 0.601665
O O9 0.354925 0.750000 0.843324
O O10 0.367858 0.543076 0.731124
O O11 0.397447 0.491736 0.896697
O O12 0.936654 0.750000 0.365924
O O13 0.000000 0.500000 0.365227
O O14 0.678058 0.250000 0.638258
O O15 0.619657 0.037037 0.560985
O O16 0.736110 0.995128 0.633541
O O17 0.500000 0.500000 0.496175
O O18 0.565549 0.250000 0.477120
O O19 0.803541 0.750000 0.611318
#
# Coordination Sequence:
#
# PCOD9360708 Si02
#       7
#     8   8   8   8   8   8   8
#     4   9  18  33  55  81 111 149 193 241 295 352
#     4  10  20  35  54  76 108 150 197 252 307 363
#     4  10  20  40  66  90 120 162 204 249 302 355
#     4   9  18  34  53  74 104 144 192 241 295 352
#     4  10  22  40  64  92 124 161 203 247 298 356
#     4  11  24  42  64  94 128 160 197 245 296 356
#     4  11  21  34  56  85 117 154 198 247 301 360
#
# _framework density 19.301579
#
# number of rings (size 3 to 8) (size 9 to 14) (size 15 to 20)
#    0.000    2.000    1.429    2.143    0.000    5.143 
#    0.000    5.000    0.000    0.000    0.000    0.000 
#    0.000    0.000    0.000    0.000    0.000    0.000 
#
# Total GULP energy -156327.629306 kJ/mol
# GULP energy per Si atom -5583.129618 kJ/mol
# Density = 1.925765 g / cm^3
# Si number density = 19.301579 Si / 1000 Ang^3
#
#
#
# Elastic Constant Matrix: (Units=GPa)
#
#
# Indices 1 2 3 4 5 6 
#
# 1 128.0992 60.7966 44.6020 0.0000 0.0000 0.0000
# 2 60.7966 72.4181 47.9585 0.0000 0.0000 0.0000
# 3 44.6020 47.9585 70.7653 0.0000 0.0000 0.0000
# 4 0.0000 0.0000 0.0000 19.0399 0.0000 0.0000
# 5 0.0000 0.0000 0.0000 0.0000 4.7342 0.0000
# 6 0.0000 0.0000 0.0000 0.0000 0.0000 34.4303
#
#
#
# Elastic Compliance Matrix: (Units=1/GPa)
#
#
# Indices 1 2 3 4 5 6 
#
# 1 0.013059 -0.010001 -0.001453 0.000000 0.000000 0.000000
# 2 -0.010001 0.032712 -0.015866 0.000000 0.000000 0.000000
# 3 -0.001453 -0.015866 0.025799 0.000000 0.000000 0.000000
# 4 0.000000 0.000000 0.000000 0.052521 0.000000 0.000000
# 5 0.000000 0.000000 0.000000 0.000000 0.211230 0.000000
# 6 0.000000 0.000000 0.000000 0.000000 0.000000 0.029044
#
#
# Mechanical properties :
#
#
# Convention : Reuss Voigt Hill
#
# Bulk Modulus (GPa) = 59.06446 64.22187 61.64316
# Shear Modulus (GPa) = 11.77446 19.50258 15.63852
#
# Velocity S-wave (km/s) = 2.47255 3.18215 2.84952
# Velocity P-wave (km/s) = 6.23046 6.84445 6.54466
#
# Compressibility (1/GPa) = 0.01693066
#
# Stress axis : x y z
#
# Youngs Moduli (GPa) = 76.57632 30.57006 38.76063
#
# Poissons Ratio (x) = 0.30573 0.05632
# Poissons Ratio (y) = 0.76584 0.61497
# Poissons Ratio (z) = 0.11126 0.48502
#
# Static dielectric constant tensor:
#      x y z
#    x 1.663010 0.000000 0.000000 
#    y 0.000000 1.664670 0.000000 
#    z 0.000000 0.000000 1.679340 
# 
# From -- ./inp_files/10334.got.cif
#   From: 2010.05.17/outbox.cif.g08.bks.cpg/sg39_6_cif.got.tgz:10334.got - 2010.06.03 18:22:40.
