data_PCOD9360076
_publ_section_title
;
Structure prediction by ZEFSAII (Michael W. Deem and Ramdas Pophale) SiO2 
 PCOD9360076
Probable space group: A B M 2
;
_chemical_formula_sum "Si O2"
_cell_formula_units_Z 64
_cell_length_a 16.416538
_cell_length_b 9.853909
_cell_length_c 20.941852
_cell_angle_alpha 90.000000
_cell_angle_beta 90.000000
_cell_angle_gamma 90.000000
_cell_volume 3387.702071
_symmetry_space_group_name_H-M "A B M 2"
_symmetry_group_IT_number 39
_symmetry_cell_setting 'orthorhombic'
loop_
_space_group_symop_operation_xyz
x,y,z
-x,-y,z
-x,1/2+y,z
x,1/2-y,z
x,1/2+y,1/2+z
-x,1/2-y,1/2+z
-x,y,1/2+z
x,-y,1/2+z
loop_
_atom_site_type_symbol
_atom_site_label
_atom_site_fract_x
_atom_site_fract_y
_atom_site_fract_z
Si Si1 0.284704 0.900218 0.877940
Si Si2 0.236137 0.407992 0.521298
Si Si3 0.932050 0.096880 0.694773
Si Si4 0.570439 0.903744 0.851784
Si Si5 0.576167 0.592557 0.562605
Si Si6 0.237584 0.905619 0.737010
Si Si7 0.076089 0.592096 0.543332
Si Si8 0.618114 0.601359 0.707840
O O1 0.326355 0.750000 0.875122
O O2 0.232403 0.908258 0.813631
O O3 0.347176 0.023204 0.872542
O O4 0.238832 0.906689 0.944360
O O5 0.222119 0.250000 0.542859
O O6 0.329649 0.445349 0.543327
O O7 0.162252 0.509911 0.538672
O O8 0.935229 0.250000 0.721020
O O9 0.843877 0.035855 0.707993
O O10 0.941257 0.105661 0.618810
O O11 0.000000 0.000000 0.722390
O O12 0.564621 0.750000 0.873963
O O13 0.568049 0.902168 0.773922
O O14 0.500000 0.000000 0.876124
O O15 0.500000 0.500000 0.539974
O O16 0.565570 0.750000 0.542047
O O17 0.574008 0.589877 0.640207
O O18 0.245259 0.750000 0.716016
O O19 0.315808 0.985409 0.714412
O O20 0.080154 0.750000 0.518848
O O21 0.000000 0.500000 0.517292
O O22 0.659107 0.750000 0.707492
#
# Coordination Sequence:
#
# PCOD9360076 Si02
#       8
#     8   8   8   8   8   8   8   8
#     4   9  19  35  52  70  97 133 170 208 250 297
#     4  10  21  37  55  76 105 141 179 219 261 303
#     4   9  18  31  49  76 104 128 157 196 246 303
#     4  10  19  31  49  72  97 126 164 209 256 305
#     4  10  21  35  51  74 105 139 175 216 262 312
#     4   9  17  31  51  73  98 129 164 203 249 301
#     4  10  20  35  57  83 108 135 170 212 259 312
#     4   9  18  31  48  72  99 127 162 207 258 309
#
# _framework density 18.891860999999999
#
# number of rings (size 3 to 8) (size 9 to 14) (size 15 to 20)
#    0.000    2.500    0.000    1.875    0.000    3.500 
#    0.000    1.875    0.000    1.500    0.000    0.000 
#    0.000    0.000    0.000    0.000    0.000    0.000 
#
# Total GULP energy -178138.829105 kJ/mol
# GULP energy per Si atom -5566.838410 kJ/mol
# Density = 1.884886 g / cm^3
# Si number density = 18.891861 Si / 1000 Ang^3
#
#
#
# Elastic Constant Matrix: (Units=GPa)
#
#
# Indices 1 2 3 4 5 6 
#
# 1 82.2987 69.1832 -1.6226 0.0000 0.0000 0.0000
# 2 69.1832 123.7492 11.8093 0.0000 0.0000 0.0000
# 3 -1.6226 11.8093 21.5402 0.0000 0.0000 0.0000
# 4 0.0000 0.0000 0.0000 7.7761 0.0000 0.0000
# 5 0.0000 0.0000 0.0000 0.0000 -3.5128 0.0000
# 6 0.0000 0.0000 0.0000 0.0000 0.0000 32.5106
#
#
#
# Elastic Compliance Matrix: (Units=1/GPa)
#
#
# Indices 1 2 3 4 5 6 
#
# 1 0.024809 -0.014824 0.009996 0.000000 0.000000 0.000000
# 2 -0.014824 0.017384 -0.010648 0.000000 0.000000 0.000000
# 3 0.009996 -0.010648 0.053015 0.000000 0.000000 0.000000
# 4 0.000000 0.000000 0.000000 0.128599 0.000000 0.000000
# 5 0.000000 0.000000 0.000000 0.000000 -0.284670 0.000000
# 6 0.000000 0.000000 0.000000 0.000000 0.000000 0.030759
#
#
# Mechanical properties :
#
#
# Convention : Reuss Voigt Hill
#
# Bulk Modulus (GPa) = 15.56223 42.92533 29.24378
# Shear Modulus (GPa) = 224.54394 17.23600 120.88997
#
# Velocity S-wave (km/s) = 10.91401 3.02379 8.00808
# Velocity P-wave (km/s) = 12.92579 5.91287 10.05082
#
# Compressibility (1/GPa) = 0.06425815
#
# Stress axis : x y z
#
# Youngs Moduli (GPa) = 40.30728 57.52291 18.86251
#
# Poissons Ratio (x) = 0.85271 -0.18855
# Poissons Ratio (y) = 0.59751 0.20084
# Poissons Ratio (z) = -0.40291 0.61248
#
# Static dielectric constant tensor:
#      x y z
#    x 1.670000 0.000000 0.000000 
#    y 0.000000 1.683120 0.000000 
#    z 0.000000 0.000000 1.663460 
# 
# From -- ./inp_files/16179.got.cif
#   From: 2010.05.17/outbox.cif.g08.bks.cpg/sg39_9_cif.got.tgz:16179.got - 2010.06.03 18:22:40.
