data_PCOD9360585
_publ_section_title
;
Structure prediction by ZEFSAII (Michael W. Deem and Ramdas Pophale) SiO2 
 PCOD9360585
Probable space group: A B M 2
;
_chemical_formula_sum "Si O2"
_cell_formula_units_Z 32
_cell_length_a 10.898076
_cell_length_b 23.168014
_cell_length_c 4.951962
_cell_angle_alpha 90.000000
_cell_angle_beta 90.000000
_cell_angle_gamma 90.000000
_cell_volume 1250.304927
_symmetry_space_group_name_H-M "A B M 2"
_symmetry_group_IT_number 39
_symmetry_cell_setting 'orthorhombic'
loop_
_space_group_symop_operation_xyz
x,y,z
-x,-y,z
-x,1/2+y,z
x,1/2-y,z
x,1/2+y,1/2+z
-x,1/2-y,1/2+z
-x,y,1/2+z
x,-y,1/2+z
loop_
_atom_site_type_symbol
_atom_site_label
_atom_site_fract_x
_atom_site_fract_y
_atom_site_fract_z
Si Si1 0.245429 0.657168 0.441840
Si Si2 0.825947 0.967177 0.982972
Si Si3 0.078336 0.250000 0.220512
Si Si4 0.579034 0.073376 0.686187
Si Si5 0.591972 0.750000 0.663638
O O1 0.170372 0.598200 0.366678
O O2 0.155499 0.695613 0.620013
O O3 0.354587 0.633721 0.630748
O O4 0.316632 0.695478 0.220464
O O5 0.873199 0.015744 0.778936
O O6 0.680890 0.969170 0.063603
O O7 0.044033 0.250000 0.533911
O O8 0.462555 0.069498 0.491463
O O9 0.517893 0.750000 0.385386
#
# Coordination Sequence:
#
# PCOD9360585 Si02
#       5
#     8   8   4   8   4
#     4   9  24  40  62  91 122 156 205 252 305 363
#     4  10  22  36  57  87 129 169 203 241 289 354
#     4  11  26  47  72  92 112 151 204 267 322 368
#     4  10  20  33  53  86 125 165 199 230 279 345
#     4  11  22  37  58  86 124 165 202 245 298 356
#
# _framework density 25.593754000000001
#
# number of rings (size 3 to 8) (size 9 to 14) (size 15 to 20)
#    1.500    0.500    0.000    3.000    0.000   13.000 
#    0.000    0.000    0.000    4.500    0.000    0.000 
#    0.000    0.000    0.000    0.000    0.000    0.000 
#
# Total GULP energy -89275.539586 kJ/mol
# GULP energy per Si atom -5579.721224 kJ/mol
# Density = 2.553550 g / cm^3
# Si number density = 25.593754 Si / 1000 Ang^3
#
#
#
# Elastic Constant Matrix: (Units=GPa)
#
#
# Indices 1 2 3 4 5 6 
#
# 1 80.0419 34.4470 -6.1741 0.0000 0.0000 0.0000
# 2 34.4470 115.7030 19.5944 0.0000 0.0000 0.0000
# 3 -6.1741 19.5944 104.6686 0.0000 0.0000 0.0000
# 4 0.0000 0.0000 0.0000 16.3052 0.0000 0.0000
# 5 0.0000 0.0000 0.0000 0.0000 12.5774 0.0000
# 6 0.0000 0.0000 0.0000 0.0000 0.0000 21.6593
#
#
#
# Elastic Compliance Matrix: (Units=1/GPa)
#
#
# Indices 1 2 3 4 5 6 
#
# 1 0.014628 -0.004648 0.001733 0.000000 0.000000 0.000000
# 2 -0.004648 0.010403 -0.002222 0.000000 0.000000 0.000000
# 3 0.001733 -0.002222 0.010072 0.000000 0.000000 0.000000
# 4 0.000000 0.000000 0.000000 0.061330 0.000000 0.000000
# 5 0.000000 0.000000 0.000000 0.000000 0.079508 0.000000
# 6 0.000000 0.000000 0.000000 0.000000 0.000000 0.046170
#
#
# Mechanical properties :
#
#
# Convention : Reuss Voigt Hill
#
# Bulk Modulus (GPa) = 40.27612 44.01647 42.14630
# Shear Modulus (GPa) = 20.77614 26.94479 23.86047
#
# Velocity S-wave (km/s) = 2.85224 3.24819 3.05663
# Velocity P-wave (km/s) = 5.15925 5.59492 5.38150
#
# Compressibility (1/GPa) = 0.02482861
#
# Stress axis : x y z
#
# Youngs Moduli (GPa) = 68.36379 96.12633 99.28421
#
# Poissons Ratio (x) = 0.44683 -0.17206
# Poissons Ratio (y) = 0.31778 0.22058
# Poissons Ratio (z) = -0.11848 0.21356
#
# Static dielectric constant tensor:
#      x y z
#    x 2.080250 0.000000 0.000000 
#    y 0.000000 2.143110 0.000000 
#    z 0.000000 0.000000 1.927050 
# 
# From -- ./inp_files/333.got.cif
#   From: 2010.05.17/outbox.cif.g08.bks.cpg/sg39_1_cif.got.tgz:333.got - 2010.06.03 18:22:40.
