data_PCOD9360247
_publ_section_title
;
Structure prediction by ZEFSAII (Michael W. Deem and Ramdas Pophale) SiO2 
 PCOD9360247
Probable space group: A B M 2
;
_chemical_formula_sum "Si O2"
_cell_formula_units_Z 64
_cell_length_a 19.969765
_cell_length_b 26.940340
_cell_length_c 5.476702
_cell_angle_alpha 90.000000
_cell_angle_beta 90.000000
_cell_angle_gamma 90.000000
_cell_volume 2946.423280
_symmetry_space_group_name_H-M "A B M 2"
_symmetry_group_IT_number 39
_symmetry_cell_setting 'orthorhombic'
loop_
_space_group_symop_operation_xyz
x,y,z
-x,-y,z
-x,1/2+y,z
x,1/2-y,z
x,1/2+y,1/2+z
-x,1/2-y,1/2+z
-x,y,1/2+z
x,-y,1/2+z
loop_
_atom_site_type_symbol
_atom_site_label
_atom_site_fract_x
_atom_site_fract_y
_atom_site_fract_z
Si Si1 0.898568 0.013040 0.283700
Si Si2 0.202437 0.804719 0.942715
Si Si3 0.140829 0.878444 0.283855
Si Si4 0.467175 0.690296 0.945295
Si Si5 0.255349 0.024830 0.317962
Si Si6 0.958201 0.692621 0.022205
Si Si7 0.730335 0.373353 0.576707
Si Si8 0.661583 0.305930 0.247141
O O1 0.892715 0.070481 0.215799
O O2 0.929891 0.012933 0.551104
O O3 0.825319 0.985859 0.317038
O O4 0.174223 0.750000 0.915810
O O5 0.150174 0.842582 0.055100
O O6 0.264539 0.802968 0.132190
O O7 0.235505 0.825681 0.700554
O O8 0.100281 0.847240 0.483657
O O9 0.214408 0.892968 0.384524
O O10 0.475930 0.750000 0.931341
O O11 0.488736 0.671942 0.677629
O O12 0.391190 0.682402 0.034019
O O13 0.274078 0.082289 0.271376
O O14 0.280426 0.004562 0.577380
O O15 0.934242 0.750000 0.008991
O O16 0.995276 0.686045 0.280750
O O17 0.666277 0.350341 0.441871
O O18 0.644916 0.250000 0.344369
#
# Coordination Sequence:
#
# PCOD9360247 Si02
#       8
#     8   8   8   8   8   8   8   8
#     4  10  19  33  55  84 109 140 175 225 272 333
#     4  10  21  33  50  80 115 149 184 228 280 343
#     4  11  22  36  60  82 108 147 191 223 288 347
#     4   9  18  32  52  72  99 150 202 233 267 317
#     4  10  19  34  52  78 110 144 179 222 270 335
#     4  10  24  44  62  82 109 144 189 240 278 322
#     4  11  21  32  56  82 115 152 181 225 287 351
#     4   9  20  34  47  77 119 152 187 234 278 326
#
# _framework density 21.721250000000001
#
# number of rings (size 3 to 8) (size 9 to 14) (size 15 to 20)
#    0.000    2.000    2.500    2.250    5.250    1.500 
#    0.000    0.000    0.000    2.250    0.000    0.000 
#    0.000    3.000    0.000    0.000    0.000    0.000 
#
# Total GULP energy -178674.715749 kJ/mol
# GULP energy per Si atom -5583.584867 kJ/mol
# Density = 2.167181 g / cm^3
# Si number density = 21.721250 Si / 1000 Ang^3
#
#
#
# Elastic Constant Matrix: (Units=GPa)
#
#
# Indices 1 2 3 4 5 6 
#
# 1 42.2307 11.1689 4.8282 0.0000 0.0000 0.0000
# 2 11.1689 67.4373 3.2005 0.0000 0.0000 0.0000
# 3 4.8282 3.2005 104.1712 0.0000 0.0000 0.0000
# 4 0.0000 0.0000 0.0000 13.8550 0.0000 0.0000
# 5 0.0000 0.0000 0.0000 0.0000 85.6368 0.0000
# 6 0.0000 0.0000 0.0000 0.0000 0.0000 5.4458
#
#
#
# Elastic Compliance Matrix: (Units=1/GPa)
#
#
# Indices 1 2 3 4 5 6 
#
# 1 0.024874 -0.004071 -0.001028 0.000000 0.000000 0.000000
# 2 -0.004071 0.015516 -0.000288 0.000000 0.000000 0.000000
# 3 -0.001028 -0.000288 0.009656 0.000000 0.000000 0.000000
# 4 0.000000 0.000000 0.000000 0.072176 0.000000 0.000000
# 5 0.000000 0.000000 0.000000 0.000000 0.011677 0.000000
# 6 0.000000 0.000000 0.000000 0.000000 0.000000 0.183626
#
#
# Mechanical properties :
#
#
# Convention : Reuss Voigt Hill
#
# Bulk Modulus (GPa) = 25.46284 28.02603 26.74444
# Shear Modulus (GPa) = 14.64602 33.96363 24.30482
#
# Velocity S-wave (km/s) = 2.59949 3.95854 3.34869
# Velocity P-wave (km/s) = 4.55607 5.81584 5.22407
#
# Compressibility (1/GPa) = 0.03927292
#
# Stress axis : x y z
#
# Youngs Moduli (GPa) = 40.20326 64.44769 103.56178
#
# Poissons Ratio (x) = 0.26235 0.10644
# Poissons Ratio (y) = 0.16366 0.02983
# Poissons Ratio (z) = 0.04132 0.01856
#
# Static dielectric constant tensor:
#      x y z
#    x 1.788960 0.000000 0.000000 
#    y 0.000000 1.779880 0.000000 
#    z 0.000000 0.000000 1.858260 
# 
# From -- ./inp_files/909.got.cif
#   From: 2010.05.17/outbox.cif.g08.bks.cpg/sg39_1_cif.got.tgz:909.got - 2010.06.03 18:22:40.
