data_PCOD9360024
_publ_section_title
;
Structure prediction by ZEFSAII (Michael W. Deem and Ramdas Pophale) SiO2 
 PCOD9360024
Probable space group: A B M 2
;
_chemical_formula_sum "Si O2"
_cell_formula_units_Z 48
_cell_length_a 10.404285
_cell_length_b 16.867284
_cell_length_c 9.421298
_cell_angle_alpha 90.000000
_cell_angle_beta 90.000000
_cell_angle_gamma 90.000000
_cell_volume 1653.362710
_symmetry_space_group_name_H-M "A B M 2"
_symmetry_group_IT_number 39
_symmetry_cell_setting 'orthorhombic'
loop_
_space_group_symop_operation_xyz
x,y,z
-x,-y,z
-x,1/2+y,z
x,1/2-y,z
x,1/2+y,1/2+z
-x,1/2-y,1/2+z
-x,y,1/2+z
x,-y,1/2+z
loop_
_atom_site_type_symbol
_atom_site_label
_atom_site_fract_x
_atom_site_fract_y
_atom_site_fract_z
Si Si1 0.213052 0.079498 0.486330
Si Si2 0.962496 0.750000 0.277918
Si Si3 0.973952 0.082954 0.281082
Si Si4 0.467610 0.417178 0.300811
Si Si5 0.725324 0.915952 0.975120
Si Si6 0.745885 0.250000 0.003317
Si Si7 0.448224 0.750000 0.197692
Si Si8 0.772319 0.750000 0.946719
O O1 0.327108 0.082556 0.369914
O O2 0.223122 0.163024 0.566724
O O3 0.075779 0.079306 0.410753
O O4 0.242369 0.995639 0.560076
O O5 0.826332 0.750000 0.358789
O O6 0.986501 0.834853 0.205952
O O7 0.080535 0.750000 0.392625
O O8 0.830895 0.083211 0.346549
O O9 0.000000 0.000000 0.202997
O O10 0.500000 0.500000 0.220576
O O11 0.580958 0.419087 0.418099
O O12 0.485199 0.333791 0.223406
O O13 0.746550 0.828898 0.035365
O O14 0.594104 0.250000 0.031052
O O15 0.325784 0.750000 0.310444
#
# Coordination Sequence:
#
# PCOD9360024 Si02
#       8
#     8   4   8   8   8   4   4   4
#     4   9  16  27  44  69  95 123 164 204 236 281
#     4   8  14  25  42  67  92 120 160 196 228 277
#     4   8  13  22  39  66  91 113 144 194 240 271
#     4   9  17  30  48  70  94 127 167 204 238 290
#     4   8  14  25  44  70  93 117 157 201 237 278
#     4  10  19  29  44  73 101 126 160 208 255 293
#     4  10  19  31  48  73 105 134 160 202 261 307
#     4   8  14  27  48  73  94 124 160 196 240 295
#
# _framework density 29.031741
#
# number of rings (size 3 to 8) (size 9 to 14) (size 15 to 20)
#    0.000    3.333    0.000    0.500    0.000    0.000 
#    0.000    2.500    0.000    0.000    0.000  459.667 
#    0.000    0.000    0.000    0.000    0.000    0.000 
#
# Total GULP energy -134231.341097 kJ/mol
# GULP energy per Si atom -5592.972546 kJ/mol
# Density = 2.896566 g / cm^3
# Si number density = 29.031741 Si / 1000 Ang^3
#
#
#
# Elastic Constant Matrix: (Units=GPa)
#
#
# Indices 1 2 3 4 5 6 
#
# 1 194.9437 16.6114 80.4881 0.0000 0.0000 0.0000
# 2 16.6114 346.8081 49.9567 0.0000 0.0000 0.0000
# 3 80.4881 49.9567 74.2066 0.0000 0.0000 0.0000
# 4 0.0000 0.0000 0.0000 -23.6883 0.0000 0.0000
# 5 0.0000 0.0000 0.0000 0.0000 73.0361 0.0000
# 6 0.0000 0.0000 0.0000 0.0000 0.0000 37.8800
#
#
#
# Elastic Compliance Matrix: (Units=1/GPa)
#
#
# Indices 1 2 3 4 5 6 
#
# 1 0.009696 0.001163 -0.011300 0.000000 0.000000 0.000000
# 2 0.001163 0.003333 -0.003505 0.000000 0.000000 0.000000
# 3 -0.011300 -0.003505 0.028092 0.000000 0.000000 0.000000
# 4 0.000000 0.000000 0.000000 -0.042215 0.000000 0.000000
# 5 0.000000 0.000000 0.000000 0.000000 0.013692 0.000000
# 6 0.000000 0.000000 0.000000 0.000000 0.000000 0.026399
#
#
# Mechanical properties :
#
#
# Convention : Reuss Voigt Hill
#
# Bulk Modulus (GPa) = 72.27052 101.11900 86.69476
# Shear Modulus (GPa) = 70.52836 48.70572 59.61704
#
# Velocity S-wave (km/s) = 4.93419 4.10038 4.53649
# Velocity P-wave (km/s) = 7.57690 7.57124 7.57407
#
# Compressibility (1/GPa) = 0.01383690
#
# Stress axis : x y z
#
# Youngs Moduli (GPa) = 103.13428 300.06092 35.59696
#
# Poissons Ratio (x) = -0.34906 0.40225
# Poissons Ratio (y) = -0.11998 0.12478
# Poissons Ratio (z) = 1.16542 1.05182
#
# Static dielectric constant tensor:
#      x y z
#    x 2.200620 0.000000 0.000000 
#    y 0.000000 2.327370 0.000000 
#    z 0.000000 0.000000 2.096420 
# 
# From -- ./inp_files/5876.got.cif
#   From: 2010.05.17/outbox.cif.g08.bks.cpg/sg39_3_cif.got.tgz:5876.got - 2010.06.03 18:22:40.
