data_PCOD9360602
_publ_section_title
;
Structure prediction by ZEFSAII (Michael W. Deem and Ramdas Pophale) SiO2 
 PCOD9360602
Probable space group: A B M 2
;
_chemical_formula_sum "Si O2"
_cell_formula_units_Z 60
_cell_length_a 14.940994
_cell_length_b 27.293112
_cell_length_c 9.045563
_cell_angle_alpha 90.000000
_cell_angle_beta 90.000000
_cell_angle_gamma 90.000000
_cell_volume 3688.655967
_symmetry_space_group_name_H-M "A B M 2"
_symmetry_group_IT_number 39
_symmetry_cell_setting 'orthorhombic'
loop_
_space_group_symop_operation_xyz
x,y,z
-x,-y,z
-x,1/2+y,z
x,1/2-y,z
x,1/2+y,1/2+z
-x,1/2-y,1/2+z
-x,y,1/2+z
x,-y,1/2+z
loop_
_atom_site_type_symbol
_atom_site_label
_atom_site_fract_x
_atom_site_fract_y
_atom_site_fract_z
Si Si1 0.084452 0.058580 0.535680
Si Si2 0.500000 0.500000 0.692641
Si Si3 0.036155 0.306405 0.993991
Si Si4 0.912528 0.592371 0.861349
Si Si5 0.236588 0.600575 0.823756
Si Si6 0.130218 0.694515 0.804762
Si Si7 0.786502 0.530588 0.041654
Si Si8 0.377672 0.459872 0.450776
O O1 0.071890 0.086869 0.688449
O O2 0.156824 0.082796 0.428999
O O3 0.992477 0.063439 0.445639
O O4 0.131141 0.006687 0.576114
O O5 0.448645 0.462456 0.583857
O O6 0.571874 0.476089 0.802095
O O7 0.059001 0.250000 0.949137
O O8 0.085314 0.351363 0.913231
O O9 0.932112 0.312825 0.949253
O O10 0.062264 0.310785 0.165787
O O11 0.821852 0.565328 0.910537
O O12 0.209017 0.655643 0.786753
O O13 0.234452 0.564989 0.681355
O O14 0.327310 0.590489 0.913410
O O15 0.163666 0.750000 0.805070
O O16 0.700980 0.498681 0.992649
#
# Coordination Sequence:
#
# PCOD9360602 Si02
#       8
#     8   4   8   8   8   8   8   8
#     4  11  23  32  47  69 101 144 183 212 259 312
#     4  10  20  38  58  80 106 138 164 200 260 334
#     4  10  20  34  50  68  95 140 196 235 264 296
#     4  12  21  34  48  69 100 146 183 223 263 303
#     4  11  20  36  52  77 107 137 177 220 265 307
#     4  10  20  35  52  71  99 142 190 235 268 302
#     4  11  22  35  49  73 108 138 172 214 252 313
#     4  10  21  36  57  80 109 135 167 207 257 323
#
# _framework density 16.266086000000001
#
# number of rings (size 3 to 8) (size 9 to 14) (size 15 to 20)
#    0.000    1.333    4.000    3.600    1.867    1.067 
#    0.000    0.000    0.000    0.000    0.000    0.933 
#    0.000    0.000    0.000    0.000    0.000    0.000 
#
# Total GULP energy -167295.597297 kJ/mol
# GULP energy per Si atom -5576.519910 kJ/mol
# Density = 1.622906 g / cm^3
# Si number density = 16.266086 Si / 1000 Ang^3
#
#
#
# Elastic Constant Matrix: (Units=GPa)
#
#
# Indices 1 2 3 4 5 6 
#
# 1 69.0722 36.7751 37.7521 0.0000 0.0000 0.0000
# 2 36.7751 100.6742 18.7259 0.0000 0.0000 0.0000
# 3 37.7521 18.7259 88.9816 0.0000 0.0000 0.0000
# 4 0.0000 0.0000 0.0000 18.9823 0.0000 0.0000
# 5 0.0000 0.0000 0.0000 0.0000 27.2680 0.0000
# 6 0.0000 0.0000 0.0000 0.0000 0.0000 18.1784
#
#
#
# Elastic Compliance Matrix: (Units=1/GPa)
#
#
# Indices 1 2 3 4 5 6 
#
# 1 0.022491 -0.006703 -0.008131 0.000000 0.000000 0.000000
# 2 -0.006703 0.012335 0.000248 0.000000 0.000000 0.000000
# 3 -0.008131 0.000248 0.014636 0.000000 0.000000 0.000000
# 4 0.000000 0.000000 0.000000 0.052681 0.000000 0.000000
# 5 0.000000 0.000000 0.000000 0.000000 0.036673 0.000000
# 6 0.000000 0.000000 0.000000 0.000000 0.000000 0.055010
#
#
# Mechanical properties :
#
#
# Convention : Reuss Voigt Hill
#
# Bulk Modulus (GPa) = 49.28778 49.47048 49.37913
# Shear Modulus (GPa) = 21.76160 23.91741 22.83950
#
# Velocity S-wave (km/s) = 3.66163 3.83872 3.75122
# Velocity P-wave (km/s) = 6.94575 7.08004 7.01322
#
# Compressibility (1/GPa) = 0.02028900
#
# Stress axis : x y z
#
# Youngs Moduli (GPa) = 44.46261 81.06696 68.32459
#
# Poissons Ratio (x) = 0.54340 0.55558
# Poissons Ratio (y) = 0.29804 -0.01694
# Poissons Ratio (z) = 0.36155 -0.02010
#
# Static dielectric constant tensor:
#      x y z
#    x 1.547360 0.000000 0.000000 
#    y 0.000000 1.584490 0.000000 
#    z 0.000000 0.000000 1.564870 
# 
# From -- ./inp_files/3547.got.cif
#   From: 2010.05.17/outbox.cif.g08.bks.cpg/sg39_2_cif.got.tgz:3547.got - 2010.06.03 18:22:40.
