data_PCOD9360099
_publ_section_title
;
Structure prediction by ZEFSAII (Michael W. Deem and Ramdas Pophale) SiO2 
 PCOD9360099
Probable space group: A B M 2
;
_chemical_formula_sum "Si O2"
_cell_formula_units_Z 44
_cell_length_a 7.441070
_cell_length_b 7.399293
_cell_length_c 31.257728
_cell_angle_alpha 90.000000
_cell_angle_beta 90.000000
_cell_angle_gamma 90.000000
_cell_volume 1721.008530
_symmetry_space_group_name_H-M "A B M 2"
_symmetry_group_IT_number 39
_symmetry_cell_setting 'orthorhombic'
loop_
_space_group_symop_operation_xyz
x,y,z
-x,-y,z
-x,1/2+y,z
x,1/2-y,z
x,1/2+y,1/2+z
-x,1/2-y,1/2+z
-x,y,1/2+z
x,-y,1/2+z
loop_
_atom_site_type_symbol
_atom_site_label
_atom_site_fract_x
_atom_site_fract_y
_atom_site_fract_z
Si Si1 0.782530 0.533101 0.005130
Si Si2 0.285318 0.034624 0.284763
Si Si3 0.201587 0.551731 0.378301
Si Si4 0.653611 0.250000 0.934129
Si Si5 0.209462 0.536224 0.598859
Si Si6 0.289861 0.535135 0.692933
O O1 0.753753 0.750000 0.999751
O O2 0.717547 0.475784 0.052884
O O3 0.000000 0.500000 0.001708
O O4 0.687530 0.409801 0.970310
O O5 0.257108 0.250000 0.286571
O O6 0.214847 0.967105 0.238418
O O7 0.500000 0.000000 0.287036
O O8 0.202750 0.949911 0.327031
O O9 0.247038 0.750000 0.394840
O O10 0.331978 0.404033 0.396475
O O11 0.000000 0.500000 0.393022
O O12 0.248856 0.750000 0.600866
O O13 0.249679 0.459025 0.645860
O O14 0.000000 0.500000 0.594142
O O15 0.500000 0.500000 0.697453
O O16 0.251115 0.750000 0.691619
#
# Coordination Sequence:
#
# PCOD9360099 Si02
#       6
#     8   8   8   4   8   8
#     4  10  19  31  53  81 116 153 193 238 289 344
#     4  10  20  39  61  86 117 158 198 241 291 357
#     4  12  24  38  58  90 122 152 196 247 302 345
#     4  12  22  36  56  84 118 156 196 246 290 356
#     4   9  19  34  52  85 117 149 188 236 287 341
#     4   9  19  36  59  85 115 151 194 233 282 346
#
# _framework density 25.566403000000001
#
# number of rings (size 3 to 8) (size 9 to 14) (size 15 to 20)
#    0.000    1.818    2.727    1.636    1.273    2.182 
#    0.000    1.818    0.000    1.091    4.727    0.000 
#    0.000    0.000    0.000    0.000    0.000    0.000 
#
# Total GULP energy -122517.939233 kJ/mol
# GULP energy per Si atom -5568.997238 kJ/mol
# Density = 2.550821 g / cm^3
# Si number density = 25.566403 Si / 1000 Ang^3
#
#
#
# Elastic Constant Matrix: (Units=GPa)
#
#
# Indices 1 2 3 4 5 6 
#
# 1 65.5224 2.7852 -1.9167 0.0000 0.0000 0.0000
# 2 2.7852 193.1120 44.0598 0.0000 0.0000 0.0000
# 3 -1.9167 44.0598 232.7800 0.0000 0.0000 0.0000
# 4 0.0000 0.0000 0.0000 22.1320 0.0000 0.0000
# 5 0.0000 0.0000 0.0000 0.0000 760.2061 0.0000
# 6 0.0000 0.0000 0.0000 0.0000 0.0000 13.5688
#
#
#
# Elastic Compliance Matrix: (Units=1/GPa)
#
#
# Indices 1 2 3 4 5 6 
#
# 1 0.015278 -0.000260 0.000175 0.000000 0.000000 0.000000
# 2 -0.000260 0.005416 -0.001027 0.000000 0.000000 0.000000
# 3 0.000175 -0.001027 0.004492 0.000000 0.000000 0.000000
# 4 0.000000 0.000000 0.000000 0.045183 0.000000 0.000000
# 5 0.000000 0.000000 0.000000 0.000000 0.001315 0.000000
# 6 0.000000 0.000000 0.000000 0.000000 0.000000 0.073698
#
#
# Mechanical properties :
#
#
# Convention : Reuss Voigt Hill
#
# Bulk Modulus (GPa) = 43.55160 64.58566 54.06863
# Shear Modulus (GPa) = 32.20352 188.94713 110.57533
#
# Velocity S-wave (km/s) = 3.55294 8.60610 6.58363
# Velocity P-wave (km/s) = 5.82262 11.13867 8.88743
#
# Compressibility (1/GPa) = 0.02296127
#
# Stress axis : x y z
#
# Youngs Moduli (GPa) = 65.45297 184.62123 222.62800
#
# Poissons Ratio (x) = 0.04806 -0.03897
# Poissons Ratio (y) = 0.01704 0.22872
# Poissons Ratio (z) = -0.01146 0.18967
#
# Static dielectric constant tensor:
#      x y z
#    x 1.670300 0.000000 0.000000 
#    y 0.000000 1.953420 0.000000 
#    z 0.000000 0.000000 2.070870 
# 
# From -- ./inp_files/17494.got.cif
#   From: 2010.05.17/outbox.cif.g08.bks.cpg/sg39_9_cif.got.tgz:17494.got - 2010.06.03 18:22:40.
