data_PCOD9360773
_publ_section_title
;
Structure prediction by ZEFSAII (Michael W. Deem and Ramdas Pophale) SiO2 
 PCOD9360773
Probable space group: A B M 2
;
_chemical_formula_sum "Si O2"
_cell_formula_units_Z 56
_cell_length_a 23.415017
_cell_length_b 24.214582
_cell_length_c 5.081324
_cell_angle_alpha 90.000000
_cell_angle_beta 90.000000
_cell_angle_gamma 90.000000
_cell_volume 2881.033722
_symmetry_space_group_name_H-M "A B M 2"
_symmetry_group_IT_number 39
_symmetry_cell_setting 'orthorhombic'
loop_
_space_group_symop_operation_xyz
x,y,z
-x,-y,z
-x,1/2+y,z
x,1/2-y,z
x,1/2+y,1/2+z
-x,1/2-y,1/2+z
-x,y,1/2+z
x,-y,1/2+z
loop_
_atom_site_type_symbol
_atom_site_label
_atom_site_fract_x
_atom_site_fract_y
_atom_site_fract_z
Si Si1 0.342716 0.315614 0.296110
Si Si2 0.725976 0.537833 0.702620
Si Si3 0.621286 0.621125 0.770921
Si Si4 0.155772 0.314714 0.017099
Si Si5 0.563237 0.523340 0.977211
Si Si6 0.033445 0.682883 0.295431
Si Si7 0.219542 0.645725 0.017653
O O1 0.347063 0.250000 0.276222
O O2 0.385028 0.340664 0.517223
O O3 0.279615 0.331870 0.401601
O O4 0.355484 0.343880 0.017000
O O5 0.728857 0.488983 0.490223
O O6 0.668664 0.574808 0.702897
O O7 0.772877 0.583110 0.617742
O O8 0.567616 0.584434 0.863828
O O9 0.151044 0.250000 0.090060
O O10 0.095203 0.334308 0.900626
O O11 0.175838 0.346475 0.277197
O O12 0.200278 0.321040 0.776831
O O13 0.500000 0.500000 0.029654
O O14 0.590899 0.482084 0.763559
O O15 0.034931 0.750000 0.291406
O O16 0.014780 0.665629 0.005104
#
# Coordination Sequence:
#
# PCOD9360773 Si02
#       7
#     8   8   8   8   8   8   8
#     4  11  22  36  53  78 113 151 186 219 252 308
#     4  11  21  35  52  73 106 140 170 216 269 317
#     4  11  21  35  56  82 109 144 182 218 267 324
#     4  11  20  32  51  74 107 145 178 219 262 314
#     4  10  20  35  57  87 113 135 169 225 281 323
#     4   9  17  29  45  68  99 135 173 215 268 320
#     4  11  22  34  50  76 105 142 185 216 257 321
#
# _framework density 19.437467000000002
#
# number of rings (size 3 to 8) (size 9 to 14) (size 15 to 20)
#    0.000    1.429    0.000    8.571    0.000    2.286 
#    0.000    0.000    0.000    0.000    0.000   40.000 
#    0.000   40.000    0.000    0.000    0.000    0.000 
#
# Total GULP energy -156297.696666 kJ/mol
# GULP energy per Si atom -5582.060595 kJ/mol
# Density = 1.939323 g / cm^3
# Si number density = 19.437467 Si / 1000 Ang^3
#
#
#
# Elastic Constant Matrix: (Units=GPa)
#
#
# Indices 1 2 3 4 5 6 
#
# 1 35.3226 17.4225 -2.6125 0.0000 0.0000 0.0000
# 2 17.4225 68.2598 3.6040 0.0000 0.0000 0.0000
# 3 -2.6125 3.6040 98.8135 0.0000 0.0000 0.0000
# 4 0.0000 0.0000 0.0000 47.0097 0.0000 0.0000
# 5 0.0000 0.0000 0.0000 0.0000 20.9806 0.0000
# 6 0.0000 0.0000 0.0000 0.0000 0.0000 14.9446
#
#
#
# Elastic Compliance Matrix: (Units=1/GPa)
#
#
# Indices 1 2 3 4 5 6 
#
# 1 0.032521 -0.008362 0.001165 0.000000 0.000000 0.000000
# 2 -0.008362 0.016828 -0.000835 0.000000 0.000000 0.000000
# 3 0.001165 -0.000835 0.010181 0.000000 0.000000 0.000000
# 4 0.000000 0.000000 0.000000 0.021272 0.000000 0.000000
# 5 0.000000 0.000000 0.000000 0.000000 0.047663 0.000000
# 6 0.000000 0.000000 0.000000 0.000000 0.000000 0.066914
#
#
# Mechanical properties :
#
#
# Convention : Reuss Voigt Hill
#
# Bulk Modulus (GPa) = 23.00625 26.58044 24.79335
# Shear Modulus (GPa) = 22.13045 28.85245 25.49145
#
# Velocity S-wave (km/s) = 3.37790 3.85694 3.62534
# Velocity P-wave (km/s) = 5.20339 5.79130 5.50520
#
# Compressibility (1/GPa) = 0.04346644
#
# Stress axis : x y z
#
# Youngs Moduli (GPa) = 30.74920 59.42363 98.21910
#
# Poissons Ratio (x) = 0.49691 -0.11441
# Poissons Ratio (y) = 0.25713 0.08200
# Poissons Ratio (z) = -0.03582 0.04961
#
# Static dielectric constant tensor:
#      x y z
#    x 1.831580 0.000000 0.000000 
#    y 0.000000 1.677550 0.000000 
#    z 0.000000 0.000000 1.739090 
# 
# From -- ./inp_files/1279.got.cif
#   From: 2010.05.17/outbox.cif.g08.bks.cpg/sg39_1_cif.got.tgz:1279.got - 2010.06.03 18:22:40.
