data_PCOD9360095
_publ_section_title
;
Structure prediction by ZEFSAII (Michael W. Deem and Ramdas Pophale) SiO2 
 PCOD9360095
Probable space group: A B M 2
;
_chemical_formula_sum "Si O2"
_cell_formula_units_Z 64
_cell_length_a 9.199026
_cell_length_b 22.285099
_cell_length_c 14.571471
_cell_angle_alpha 90.000000
_cell_angle_beta 90.000000
_cell_angle_gamma 90.000000
_cell_volume 2987.169115
_symmetry_space_group_name_H-M "A B M 2"
_symmetry_group_IT_number 39
_symmetry_cell_setting 'orthorhombic'
loop_
_space_group_symop_operation_xyz
x,y,z
-x,-y,z
-x,1/2+y,z
x,1/2-y,z
x,1/2+y,1/2+z
-x,1/2-y,1/2+z
-x,y,1/2+z
x,-y,1/2+z
loop_
_atom_site_type_symbol
_atom_site_label
_atom_site_fract_x
_atom_site_fract_y
_atom_site_fract_z
Si Si1 0.437753 0.059075 0.447680
Si Si2 0.158104 0.478346 0.542593
Si Si3 0.836092 0.654693 0.585616
Si Si4 0.387117 0.685050 0.926559
Si Si5 0.066719 0.819380 0.272418
Si Si6 0.334073 0.091852 0.093043
Si Si7 0.867150 0.820193 0.975193
Si Si8 0.247451 0.318564 0.233406
O O1 0.269035 0.042973 0.462618
O O2 0.470476 0.123614 0.405329
O O3 0.518552 0.067907 0.546228
O O4 0.500000 0.000000 0.400678
O O5 0.146263 0.416660 0.597568
O O6 0.232991 0.532860 0.597214
O O7 0.000000 0.500000 0.511000
O O8 0.702198 0.673241 0.520117
O O9 0.822074 0.679178 0.688330
O O10 0.980381 0.676201 0.530916
O O11 0.462172 0.750000 0.931364
O O12 0.278948 0.687111 0.840807
O O13 0.031409 0.750000 0.292286
O O14 0.110514 0.844035 0.371175
O O15 0.916777 0.843226 0.228841
O O16 0.347807 0.132624 0.183284
O O17 0.249613 0.138230 0.025742
O O18 0.824021 0.750000 0.972866
O O19 0.259240 0.250000 0.194699
#
# Coordination Sequence:
#
# PCOD9360095 Si02
#       8
#     8   8   8   8   8   8   8   8
#     4   9  22  40  59  84 119 161 202 251 309 369
#     4  10  19  37  63  86 111 157 206 243 292 369
#     4  11  19  34  57  83 121 152 191 252 312 348
#     4  10  20  36  60  87 118 157 203 250 303 370
#     4  10  19  31  51  88 122 150 195 247 300 362
#     4  11  21  38  58  84 121 155 194 250 310 361
#     4  11  20  31  55  85 118 153 192 246 308 363
#     4  10  19  32  56  87 117 154 204 249 298 370
#
# _framework density 21.424968
#
# number of rings (size 3 to 8) (size 9 to 14) (size 15 to 20)
#    0.000    1.750    3.750    1.500    0.000    1.000 
#    0.000    8.125    2.750    3.000    0.000    0.000 
#    0.000    0.000    0.000    0.000    0.000    0.000 
#
# Total GULP energy -178261.293966 kJ/mol
# GULP energy per Si atom -5570.665436 kJ/mol
# Density = 2.137620 g / cm^3
# Si number density = 21.424968 Si / 1000 Ang^3
#
#
#
# Elastic Constant Matrix: (Units=GPa)
#
#
# Indices 1 2 3 4 5 6 
#
# 1 44.2108 17.8522 -6.4623 0.0000 0.0000 0.0000
# 2 17.8522 169.4499 12.5689 0.0000 0.0000 0.0000
# 3 -6.4623 12.5689 94.1749 0.0000 0.0000 0.0000
# 4 0.0000 0.0000 0.0000 -41.4078 0.0000 0.0000
# 5 0.0000 0.0000 0.0000 0.0000 19.1457 0.0000
# 6 0.0000 0.0000 0.0000 0.0000 0.0000 15.8644
#
#
#
# Elastic Compliance Matrix: (Units=1/GPa)
#
#
# Indices 1 2 3 4 5 6 
#
# 1 0.023992 -0.002676 0.002004 0.000000 0.000000 0.000000
# 2 -0.002676 0.006259 -0.001019 0.000000 0.000000 0.000000
# 3 0.002004 -0.001019 0.010892 0.000000 0.000000 0.000000
# 4 0.000000 0.000000 0.000000 -0.024150 0.000000 0.000000
# 5 0.000000 0.000000 0.000000 0.000000 0.052231 0.000000
# 6 0.000000 0.000000 0.000000 0.000000 0.000000 0.063034
#
#
# Mechanical properties :
#
#
# Convention : Reuss Voigt Hill
#
# Bulk Modulus (GPa) = 26.48307 39.52812 33.00560
# Shear Modulus (GPa) = 33.73166 17.64560 25.68863
#
# Velocity S-wave (km/s) = 3.97219 2.87296 3.46642
# Velocity P-wave (km/s) = 5.78147 5.43091 5.60893
#
# Compressibility (1/GPa) = 0.03775997
#
# Stress axis : x y z
#
# Youngs Moduli (GPa) = 41.67980 159.77012 91.81031
#
# Poissons Ratio (x) = 0.42759 -0.18395
# Poissons Ratio (y) = 0.11155 0.09355
# Poissons Ratio (z) = -0.08351 0.16280
#
# Static dielectric constant tensor:
#      x y z
#    x 1.837720 0.000000 0.000000 
#    y 0.000000 1.870070 0.000000 
#    z 0.000000 0.000000 1.792660 
# 
# From -- ./inp_files/8787.got.cif
#   From: 2010.05.17/outbox.cif.g08.bks.cpg/sg39_5_cif.got.tgz:8787.got - 2010.06.03 18:22:40.
