data_PCOD9360845
_publ_section_title
;
Structure prediction by ZEFSAII (Michael W. Deem and Ramdas Pophale) SiO2 
 PCOD9360845
Probable space group: A B M 2
;
_chemical_formula_sum "Si O2"
_cell_formula_units_Z 48
_cell_length_a 19.543121
_cell_length_b 8.713880
_cell_length_c 15.430342
_cell_angle_alpha 90.000000
_cell_angle_beta 90.000000
_cell_angle_gamma 90.000000
_cell_volume 2627.731866
_symmetry_space_group_name_H-M "A B M 2"
_symmetry_group_IT_number 39
_symmetry_cell_setting 'orthorhombic'
loop_
_space_group_symop_operation_xyz
x,y,z
-x,-y,z
-x,1/2+y,z
x,1/2-y,z
x,1/2+y,1/2+z
-x,1/2-y,1/2+z
-x,y,1/2+z
x,-y,1/2+z
loop_
_atom_site_type_symbol
_atom_site_label
_atom_site_fract_x
_atom_site_fract_y
_atom_site_fract_z
Si Si1 0.074728 0.065743 0.300140
Si Si2 0.074124 0.065384 0.100114
Si Si3 0.425558 0.434389 0.602709
Si Si4 0.574418 0.934398 0.292771
Si Si5 0.675473 0.065138 0.947778
Si Si6 0.172752 0.565971 0.445694
O O1 0.072988 0.250000 0.305246
O O2 0.088117 0.020332 0.199842
O O3 0.131644 0.001117 0.364172
O O4 0.000000 0.000000 0.323787
O O5 0.070125 0.250000 0.098002
O O6 0.131824 0.016283 0.032345
O O7 0.000000 0.000000 0.075229
O O8 0.500000 0.500000 0.577697
O O9 0.430030 0.250000 0.606865
O O10 0.409413 0.500039 0.697735
O O11 0.368868 0.477665 0.532194
O O12 0.569983 0.750000 0.288508
O O13 0.631076 0.977478 0.363335
O O14 0.500000 0.000000 0.317790
O O15 0.682699 0.250000 0.947609
O O16 0.749757 0.991113 0.947437
O O17 0.171188 0.750000 0.441659
#
# Coordination Sequence:
#
# PCOD9360845 Si02
#       6
#     8   8   8   8   8   8
#     4  10  20  37  59  82 110 142 180 224 269 319
#     4   9  20  37  57  81 107 139 178 220 266 316
#     4  10  20  36  58  83 109 140 181 225 271 321
#     4  10  20  36  58  82 108 140 180 224 271 321
#     4  10  23  39  54  77 111 148 181 219 270 324
#     4  11  23  37  55  81 111 145 183 222 270 323
#
# _framework density 18.266704000000001
#
# number of rings (size 3 to 8) (size 9 to 14) (size 15 to 20)
#    0.000    2.000    0.000    4.000    0.000    7.333 
#    0.000    5.000    0.000    0.000    0.000    0.000 
#    0.000    0.000    0.000    0.000    0.000    0.000 
#
# Total GULP energy -134071.486856 kJ/mol
# GULP energy per Si atom -5586.311952 kJ/mol
# Density = 1.822513 g / cm^3
# Si number density = 18.266704 Si / 1000 Ang^3
#
#
#
# Elastic Constant Matrix: (Units=GPa)
#
#
# Indices 1 2 3 4 5 6 
#
# 1 192.8528 60.1337 131.0784 0.0000 0.0000 0.0000
# 2 60.1337 47.5854 49.2799 0.0000 0.0000 0.0000
# 3 131.0784 49.2799 126.6770 0.0000 0.0000 0.0000
# 4 0.0000 0.0000 0.0000 21.7980 0.0000 0.0000
# 5 0.0000 0.0000 0.0000 0.0000 -47.9682 0.0000
# 6 0.0000 0.0000 0.0000 0.0000 0.0000 37.2908
#
#
#
# Elastic Compliance Matrix: (Units=1/GPa)
#
#
# Indices 1 2 3 4 5 6 
#
# 1 0.018423 -0.005927 -0.016758 0.000000 0.000000 0.000000
# 2 -0.005927 0.037100 -0.008299 0.000000 0.000000 0.000000
# 3 -0.016758 -0.008299 0.028463 0.000000 0.000000 0.000000
# 4 0.000000 0.000000 0.000000 0.045876 0.000000 0.000000
# 5 0.000000 0.000000 0.000000 0.000000 -0.020847 0.000000
# 6 0.000000 0.000000 0.000000 0.000000 0.000000 0.026816
#
#
# Mechanical properties :
#
#
# Convention : Reuss Voigt Hill
#
# Bulk Modulus (GPa) = 45.41874 94.23324 69.82599
# Shear Modulus (GPa) = 24.37375 10.66568 17.51972
#
# Velocity S-wave (km/s) = 3.65681 2.41900 3.10030
# Velocity P-wave (km/s) = 6.53818 7.71372 7.15015
#
# Compressibility (1/GPa) = 0.02201734
#
# Stress axis : x y z
#
# Youngs Moduli (GPa) = 54.27901 26.95410 35.13381
#
# Poissons Ratio (x) = 0.15976 0.58876
# Poissons Ratio (y) = 0.32172 0.29159
# Poissons Ratio (z) = 0.90959 0.22371
#
# Static dielectric constant tensor:
#      x y z
#    x 1.585020 0.000000 0.000000 
#    y 0.000000 1.616920 0.000000 
#    z 0.000000 0.000000 1.630490 
# 
# From -- ./inp_files/10043.got.cif
#   From: 2010.05.17/outbox.cif.g08.bks.cpg/sg39_6_cif.got.tgz:10043.got - 2010.06.03 18:22:40.
