data_PCOD9360950
_publ_section_title
;
Structure prediction by ZEFSAII (Michael W. Deem and Ramdas Pophale) SiO2 
 PCOD9360950
Probable space group: A B M 2
;
_chemical_formula_sum "Si O2"
_cell_formula_units_Z 32
_cell_length_a 13.373351
_cell_length_b 8.802905
_cell_length_c 15.704362
_cell_angle_alpha 90.000000
_cell_angle_beta 90.000000
_cell_angle_gamma 90.000000
_cell_volume 1848.785626
_symmetry_space_group_name_H-M "A B M 2"
_symmetry_group_IT_number 39
_symmetry_cell_setting 'orthorhombic'
loop_
_space_group_symop_operation_xyz
x,y,z
-x,-y,z
-x,1/2+y,z
x,1/2-y,z
x,1/2+y,1/2+z
-x,1/2-y,1/2+z
-x,y,1/2+z
x,-y,1/2+z
loop_
_atom_site_type_symbol
_atom_site_label
_atom_site_fract_x
_atom_site_fract_y
_atom_site_fract_z
Si Si1 0.891051 0.571134 0.534410
Si Si2 0.716451 0.428487 0.152508
Si Si3 0.696256 0.068935 0.477599
Si Si4 0.606918 0.930842 0.307800
O O1 0.893855 0.750000 0.513744
O O2 0.833133 0.556445 0.625211
O O3 0.812664 0.484448 0.473110
O O4 0.000000 0.500000 0.534347
O O5 0.693561 0.250000 0.160572
O O6 0.685397 0.515891 0.236490
O O7 0.663022 0.498730 0.068616
O O8 0.688834 0.250000 0.478642
O O9 0.637576 0.998967 0.398924
O O10 0.601845 0.750000 0.312403
O O11 0.500000 0.000000 0.282997
#
# Coordination Sequence:
#
# PCOD9360950 Si02
#       4
#     8   8   8   8
#     4   9  18  34  59  85 115 149 188 231 282 336
#     4   9  20  38  58  84 116 148 189 234 280 335
#     4  10  20  37  59  84 116 150 189 234 281 334
#     4  12  24  39  59  84 114 150 192 235 285 337
#
# _framework density 17.308658000000001
#
# number of rings (size 3 to 8) (size 9 to 14) (size 15 to 20)
#    1.500    0.500    0.000    5.250    0.000    1.000 
#    0.000    6.250    0.000    3.000    0.000    0.000 
#    0.000    0.000    0.000    0.000    0.000    0.000 
#
# Total GULP energy -89089.294860 kJ/mol
# GULP energy per Si atom -5568.080929 kJ/mol
# Density = 1.726926 g / cm^3
# Si number density = 17.308658 Si / 1000 Ang^3
#
#
#
# Elastic Constant Matrix: (Units=GPa)
#
#
# Indices 1 2 3 4 5 6 
#
# 1 31.9731 13.2373 -19.0295 0.0000 0.0000 0.0000
# 2 13.2373 139.1907 10.1807 0.0000 0.0000 0.0000
# 3 -19.0295 10.1807 42.4255 0.0000 0.0000 0.0000
# 4 0.0000 0.0000 0.0000 33.1791 0.0000 0.0000
# 5 0.0000 0.0000 0.0000 0.0000 20.3073 0.0000
# 6 0.0000 0.0000 0.0000 0.0000 0.0000 31.1734
#
#
#
# Elastic Compliance Matrix: (Units=1/GPa)
#
#
# Indices 1 2 3 4 5 6 
#
# 1 0.047349 -0.006165 0.022717 0.000000 0.000000 0.000000
# 2 -0.006165 0.008115 -0.004712 0.000000 0.000000 0.000000
# 3 0.022717 -0.004712 0.034891 0.000000 0.000000 0.000000
# 4 0.000000 0.000000 0.000000 0.030139 0.000000 0.000000
# 5 0.000000 0.000000 0.000000 0.000000 0.049243 0.000000
# 6 0.000000 0.000000 0.000000 0.000000 0.000000 0.032079
#
#
# Mechanical properties :
#
#
# Convention : Reuss Voigt Hill
#
# Bulk Modulus (GPa) = 8.76916 24.70737 16.73827
# Shear Modulus (GPa) = 23.13224 30.87869 27.00546
#
# Velocity S-wave (km/s) = 3.65972 4.22833 3.95426
# Velocity P-wave (km/s) = 4.78909 6.17608 5.52627
#
# Compressibility (1/GPa) = 0.11403594
#
# Stress axis : x y z
#
# Youngs Moduli (GPa) = 21.11972 123.22356 28.66058
#
# Poissons Ratio (x) = 0.75962 -0.65109
# Poissons Ratio (y) = 0.13019 0.13506
# Poissons Ratio (z) = -0.47978 0.58069
#
# Static dielectric constant tensor:
#      x y z
#    x 1.611400 0.000000 0.000000 
#    y 0.000000 1.569460 0.000000 
#    z 0.000000 0.000000 1.570620 
# 
# From -- ./inp_files/6234.got.cif
#   From: 2010.05.17/outbox.cif.g08.bks.cpg/sg39_4_cif.got.tgz:6234.got - 2010.06.03 18:22:40.
