data_PCOD9360971
_publ_section_title
;
Structure prediction by ZEFSAII (Michael W. Deem and Ramdas Pophale) SiO2 
 PCOD9360971
Probable space group: A B M 2
;
_chemical_formula_sum "Si O2"
_cell_formula_units_Z 64
_cell_length_a 25.433144
_cell_length_b 8.879709
_cell_length_c 15.007447
_cell_angle_alpha 90.000000
_cell_angle_beta 90.000000
_cell_angle_gamma 90.000000
_cell_volume 3389.265588
_symmetry_space_group_name_H-M "A B M 2"
_symmetry_group_IT_number 39
_symmetry_cell_setting 'orthorhombic'
loop_
_space_group_symop_operation_xyz
x,y,z
-x,-y,z
-x,1/2+y,z
x,1/2-y,z
x,1/2+y,1/2+z
-x,1/2-y,1/2+z
-x,y,1/2+z
x,-y,1/2+z
loop_
_atom_site_type_symbol
_atom_site_label
_atom_site_fract_x
_atom_site_fract_y
_atom_site_fract_z
Si Si1 0.053446 0.422878 0.262650
Si Si2 0.444581 0.570048 0.555679
Si Si3 0.946434 0.577208 0.044932
Si Si4 0.248309 0.068795 0.407140
Si Si5 0.830359 0.933267 0.048415
Si Si6 0.635961 0.568733 0.903485
Si Si7 0.556446 0.068974 0.763614
Si Si8 0.832288 0.433125 0.755335
O O1 0.051603 0.250000 0.291438
O O2 0.053597 0.425236 0.153797
O O3 0.110315 0.489944 0.287321
O O4 0.000000 0.500000 0.292895
O O5 0.500000 0.500000 0.526606
O O6 0.449733 0.750000 0.550608
O O7 0.396886 0.525302 0.492050
O O8 0.435734 0.530827 0.659160
O O9 0.948371 0.750000 0.016801
O O10 0.889110 0.515114 0.019169
O O11 0.000000 0.500000 0.014847
O O12 0.251414 0.250000 0.410081
O O13 0.214846 0.023298 0.319639
O O14 0.214475 0.006629 0.489413
O O15 0.306003 0.998858 0.405527
O O16 0.828812 0.750000 0.042295
O O17 0.823845 0.974545 0.152437
O O18 0.638149 0.750000 0.898312
O O19 0.602301 0.502412 0.822111
O O20 0.555435 0.250000 0.773230
O O21 0.500000 0.000000 0.790297
O O22 0.835890 0.250000 0.756581
#
# Coordination Sequence:
#
# PCOD9360971 Si02
#       8
#     8   8   8   8   8   8   8   8
#     4   8  13  25  46  72  97 126 164 208 258 318
#     4   9  20  37  59  85 115 147 178 213 261 315
#     4   8  14  25  46  73  99 127 164 208 260 318
#     4  11  23  38  55  78 105 139 184 231 270 315
#     4   9  18  36  57  75 100 139 178 217 267 325
#     4  11  23  39  57  80 111 149 186 225 269 315
#     4  10  20  37  60  88 117 146 179 217 261 313
#     4   8  17  35  56  73 100 141 177 211 267 331
#
# _framework density 18.883146
#
# number of rings (size 3 to 8) (size 9 to 14) (size 15 to 20)
#    0.000    2.750    0.000    3.000    0.000    4.000 
#    0.000   10.000    0.000    3.000    0.000    0.000 
#    0.000    0.000    0.000    0.000    0.000    0.000 
#
# Total GULP energy -178520.395648 kJ/mol
# GULP energy per Si atom -5578.762364 kJ/mol
# Density = 1.884017 g / cm^3
# Si number density = 18.883146 Si / 1000 Ang^3
#
#
#
# Elastic Constant Matrix: (Units=GPa)
#
#
# Indices 1 2 3 4 5 6 
#
# 1 234.5117 64.9133 92.2342 0.0000 0.0000 0.0000
# 2 64.9133 44.2903 33.6188 0.0000 0.0000 0.0000
# 3 92.2342 33.6188 91.1047 0.0000 0.0000 0.0000
# 4 0.0000 0.0000 0.0000 20.2524 0.0000 0.0000
# 5 0.0000 0.0000 0.0000 0.0000 -102.5668 0.0000
# 6 0.0000 0.0000 0.0000 0.0000 0.0000 36.4741
#
#
#
# Elastic Compliance Matrix: (Units=1/GPa)
#
#
# Indices 1 2 3 4 5 6 
#
# 1 0.008990 -0.008706 -0.005889 0.000000 0.000000 0.000000
# 2 -0.008706 0.039795 -0.005870 0.000000 0.000000 0.000000
# 3 -0.005889 -0.005870 0.019105 0.000000 0.000000 0.000000
# 4 0.000000 0.000000 0.000000 0.049377 0.000000 0.000000
# 5 0.000000 0.000000 0.000000 0.000000 -0.009750 0.000000
# 6 0.000000 0.000000 0.000000 0.000000 0.000000 0.027417
#
#
# Mechanical properties :
#
#
# Convention : Reuss Voigt Hill
#
# Bulk Modulus (GPa) = 37.09478 83.49326 60.29402
# Shear Modulus (GPa) = 27.04884 2.77464 14.91174
#
# Velocity S-wave (km/s) = 3.78886 1.21349 2.81318
# Velocity P-wave (km/s) = 6.23118 6.80258 6.52314
#
# Compressibility (1/GPa) = 0.02695797
#
# Stress axis : x y z
#
# Youngs Moduli (GPa) = 111.23149 25.12903 52.34335
#
# Poissons Ratio (x) = 0.21878 0.30825
# Poissons Ratio (y) = 0.96842 0.30728
# Poissons Ratio (z) = 0.65504 0.14752
#
# Static dielectric constant tensor:
#      x y z
#    x 1.640420 0.000000 0.000000 
#    y 0.000000 1.639900 0.000000 
#    z 0.000000 0.000000 1.680300 
# 
# From -- ./inp_files/10551.got.cif
#   From: 2010.05.17/outbox.cif.g08.bks.cpg/sg39_6_cif.got.tgz:10551.got - 2010.06.03 18:22:40.
