data_PCOD9360184
_publ_section_title
;
Structure prediction by ZEFSAII (Michael W. Deem and Ramdas Pophale) SiO2 
 PCOD9360184
Probable space group: A B M 2
;
_chemical_formula_sum "Si O2"
_cell_formula_units_Z 64
_cell_length_a 8.864941
_cell_length_b 22.528094
_cell_length_c 13.394185
_cell_angle_alpha 90.000000
_cell_angle_beta 90.000000
_cell_angle_gamma 90.000000
_cell_volume 2674.955689
_symmetry_space_group_name_H-M "A B M 2"
_symmetry_group_IT_number 39
_symmetry_cell_setting 'orthorhombic'
loop_
_space_group_symop_operation_xyz
x,y,z
-x,-y,z
-x,1/2+y,z
x,1/2-y,z
x,1/2+y,1/2+z
-x,1/2-y,1/2+z
-x,y,1/2+z
x,-y,1/2+z
loop_
_atom_site_type_symbol
_atom_site_label
_atom_site_fract_x
_atom_site_fract_y
_atom_site_fract_z
Si Si1 0.894142 0.944390 0.220160
Si Si2 0.846525 0.027595 0.489106
Si Si3 0.570298 0.313373 0.299002
Si Si4 0.453021 0.441778 0.265657
Si Si5 0.693685 0.137730 0.487894
Si Si6 0.107368 0.183083 0.168932
Si Si7 0.228987 0.686609 0.099338
Si Si8 0.609853 0.428563 0.052668
O O1 0.889585 0.949442 0.099899
O O2 0.723091 0.952716 0.252555
O O3 0.921426 0.874152 0.240447
O O4 0.000000 0.000000 0.248415
O O5 0.800525 0.088383 0.436140
O O6 0.708847 0.981449 0.505526
O O7 0.000000 0.000000 0.449702
O O8 0.489209 0.250000 0.286765
O O9 0.473634 0.373682 0.298148
O O10 0.652906 0.315069 0.404972
O O11 0.690023 0.316717 0.208125
O O12 0.500000 0.500000 0.328128
O O13 0.560911 0.444124 0.166655
O O14 0.760729 0.166221 0.589198
O O15 0.547625 0.097567 0.513029
O O16 0.132006 0.250000 0.210201
O O17 0.949594 0.186247 0.109882
O O18 0.277982 0.750000 0.054437
O O19 0.281872 0.628044 0.045235
#
# Coordination Sequence:
#
# PCOD9360184 Si02
#       8
#     8   8   8   8   8   8   8   8
#     4  10  19  32  57  90 119 151 193 259 308 354
#     4  10  19  33  59  90 122 154 202 259 316 361
#     4  10  24  41  60  86 128 168 203 255 323 377
#     4  11  20  36  60  91 121 159 202 255 308 368
#     4  11  21  36  61  89 120 164 203 260 316 372
#     4  10  20  35  60  90 114 153 214 259 299 367
#     4   9  20  37  59  85 115 160 203 252 307 370
#     4  11  18  34  60  90 122 152 210 259 313 363
#
# _framework density 23.925630999999999
#
# number of rings (size 3 to 8) (size 9 to 14) (size 15 to 20)
#    0.000    1.750    3.750    3.000    1.750    2.500 
#    0.000    0.000    8.250    0.000    0.000    0.000 
#    0.000    0.000    0.000    0.000    0.000    0.000 
#
# Total GULP energy -178454.443457 kJ/mol
# GULP energy per Si atom -5576.701358 kJ/mol
# Density = 2.387117 g / cm^3
# Si number density = 23.925631 Si / 1000 Ang^3
#
#
#
# Elastic Constant Matrix: (Units=GPa)
#
#
# Indices 1 2 3 4 5 6 
#
# 1 109.8163 64.4428 0.1664 0.0000 0.0000 0.0000
# 2 64.4428 240.4573 19.8766 0.0000 0.0000 0.0000
# 3 0.1664 19.8766 37.6095 0.0000 0.0000 0.0000
# 4 0.0000 0.0000 0.0000 -12.0177 0.0000 0.0000
# 5 0.0000 0.0000 0.0000 0.0000 2.7249 0.0000
# 6 0.0000 0.0000 0.0000 0.0000 0.0000 30.0888
#
#
#
# Elastic Compliance Matrix: (Units=1/GPa)
#
#
# Indices 1 2 3 4 5 6 
#
# 1 0.010893 -0.003048 0.001563 0.000000 0.000000 0.000000
# 2 -0.003048 0.005202 -0.002736 0.000000 0.000000 0.000000
# 3 0.001563 -0.002736 0.028028 0.000000 0.000000 0.000000
# 4 0.000000 0.000000 0.000000 -0.083210 0.000000 0.000000
# 5 0.000000 0.000000 0.000000 0.000000 0.366988 0.000000
# 6 0.000000 0.000000 0.000000 0.000000 0.000000 0.033235
#
#
# Mechanical properties :
#
#
# Convention : Reuss Voigt Hill
#
# Bulk Modulus (GPa) = 28.02691 61.87276 44.94984
# Shear Modulus (GPa) = 13.10715 24.38568 18.74641
#
# Velocity S-wave (km/s) = 2.34311 3.19600 2.80219
# Velocity P-wave (km/s) = 4.36576 6.28775 5.41275
#
# Compressibility (1/GPa) = 0.03567999
#
# Stress axis : x y z
#
# Youngs Moduli (GPa) = 91.80515 192.23876 35.67866
#
# Poissons Ratio (x) = 0.58603 -0.05576
# Poissons Ratio (y) = 0.27986 0.09761
# Poissons Ratio (z) = -0.14348 0.52591
#
# Static dielectric constant tensor:
#      x y z
#    x 1.919430 0.000000 0.000000 
#    y 0.000000 2.092650 0.000000 
#    z 0.000000 0.000000 1.964050 
# 
# From -- ./inp_files/11969.got.cif
#   From: 2010.05.17/outbox.cif.g08.bks.cpg/sg39_6_cif.got.tgz:11969.got - 2010.06.03 18:22:40.
