data_PCOD9360060
_publ_section_title
;
Structure prediction by ZEFSAII (Michael W. Deem and Ramdas Pophale) SiO2 
 PCOD9360060
Probable space group: A B M 2
;
_chemical_formula_sum "Si O2"
_cell_formula_units_Z 56
_cell_length_a 15.595462
_cell_length_b 8.902043
_cell_length_c 26.012861
_cell_angle_alpha 90.000000
_cell_angle_beta 90.000000
_cell_angle_gamma 90.000000
_cell_volume 3611.403818
_symmetry_space_group_name_H-M "A B M 2"
_symmetry_group_IT_number 39
_symmetry_cell_setting 'orthorhombic'
loop_
_space_group_symop_operation_xyz
x,y,z
-x,-y,z
-x,1/2+y,z
x,1/2-y,z
x,1/2+y,1/2+z
-x,1/2-y,1/2+z
-x,y,1/2+z
x,-y,1/2+z
loop_
_atom_site_type_symbol
_atom_site_label
_atom_site_fract_x
_atom_site_fract_y
_atom_site_fract_z
Si Si1 0.404943 0.070844 0.326640
Si Si2 0.595467 0.430186 0.711257
Si Si3 0.088316 0.923304 0.635310
Si Si4 0.086173 0.078962 0.010244
Si Si5 0.269755 0.429727 0.632511
Si Si6 0.273050 0.567966 0.519759
Si Si7 0.405469 0.570442 0.429861
O O1 0.410013 0.250000 0.333525
O O2 0.370275 0.040858 0.269441
O O3 0.500000 0.000000 0.325251
O O4 0.365254 0.996387 0.377327
O O5 0.500000 0.500000 0.706858
O O6 0.590016 0.250000 0.704506
O O7 0.658910 0.502729 0.670194
O O8 0.093640 0.750000 0.651878
O O9 0.084660 0.922732 0.572761
O O10 0.175117 0.011516 0.648476
O O11 0.000000 0.000000 0.653190
O O12 0.083077 0.250000 0.992664
O O13 0.180336 0.016537 0.997924
O O14 0.000000 0.000000 0.992033
O O15 0.271620 0.250000 0.632667
O O16 0.286195 0.491647 0.574879
O O17 0.268125 0.750000 0.527328
O O18 0.347078 0.536028 0.479027
O O19 0.500000 0.500000 0.436258
O O20 0.412954 0.750000 0.424835
#
# Coordination Sequence:
#
# PCOD9360060 Si02
#       7
#     8   8   8   8   8   8   8
#     4   9  17  30  49  69  88 112 147 191 234 271
#     4  10  20  34  50  68  92 122 154 192 234 277
#     4   9  16  28  45  65  91 121 154 192 230 272
#     4   8  14  25  41  60  83 112 146 182 220 260
#     4  11  21  31  46  69  96 127 159 191 230 278
#     4   9  19  33  45  62  93 128 155 184 226 275
#     4  10  19  31  48  67  90 120 152 188 228 269
#
# _framework density 15.506435
#
# number of rings (size 3 to 8) (size 9 to 14) (size 15 to 20)
#    0.000    2.571    0.000    4.714    0.000    6.857 
#    0.000    1.429    0.000    0.000    0.000    1.000 
#    0.000    4.571    0.000    0.000    0.000    0.000 
#
# Total GULP energy -155921.860141 kJ/mol
# GULP energy per Si atom -5568.637862 kJ/mol
# Density = 1.547114 g / cm^3
# Si number density = 15.506435 Si / 1000 Ang^3
#
#
#
# Elastic Constant Matrix: (Units=GPa)
#
#
# Indices 1 2 3 4 5 6 
#
# 1 109.2788 56.2825 66.3598 0.0000 0.0000 0.0000
# 2 56.2825 93.2463 54.5169 0.0000 0.0000 0.0000
# 3 66.3598 54.5169 89.6647 0.0000 0.0000 0.0000
# 4 0.0000 0.0000 0.0000 15.5113 0.0000 0.0000
# 5 0.0000 0.0000 0.0000 0.0000 -1.6953 0.0000
# 6 0.0000 0.0000 0.0000 0.0000 0.0000 25.2125
#
#
#
# Elastic Compliance Matrix: (Units=1/GPa)
#
#
# Indices 1 2 3 4 5 6 
#
# 1 0.017876 -0.004740 -0.010348 0.000000 0.000000 0.000000
# 2 -0.004740 0.017896 -0.007373 0.000000 0.000000 0.000000
# 3 -0.010348 -0.007373 0.023294 0.000000 0.000000 0.000000
# 4 0.000000 0.000000 0.000000 0.064469 0.000000 0.000000
# 5 0.000000 0.000000 0.000000 0.000000 -0.589858 0.000000
# 6 0.000000 0.000000 0.000000 0.000000 0.000000 0.039663
#
#
# Mechanical properties :
#
#
# Convention : Reuss Voigt Hill
#
# Bulk Modulus (GPa) = 70.70000 71.83424 71.26712
# Shear Modulus (GPa) = -13.26173 15.47441 1.10634
#
# Velocity S-wave (km/s) = -2.92762 3.16244 0.84559
# Velocity P-wave (km/s) = 5.85363 7.73050 6.85659
#
# Compressibility (1/GPa) = 0.01414427
#
# Stress axis : x y z
#
# Youngs Moduli (GPa) = 55.94155 55.87905 42.92985
#
# Poissons Ratio (x) = 0.26485 0.44423
# Poissons Ratio (y) = 0.26515 0.31652
# Poissons Ratio (z) = 0.57888 0.41199
#
# Static dielectric constant tensor:
#      x y z
#    x 1.520270 0.000000 0.000000 
#    y 0.000000 1.524920 0.000000 
#    z 0.000000 0.000000 1.515410 
# 
# From -- ./inp_files/17923.got.cif
#   From: 2010.05.17/outbox.cif.g08.bks.cpg/sg39_9_cif.got.tgz:17923.got - 2010.06.03 18:22:40.
