data_PCOD9360679
_publ_section_title
;
Structure prediction by ZEFSAII (Michael W. Deem and Ramdas Pophale) SiO2 
 PCOD9360679
Probable space group: A B M 2
;
_chemical_formula_sum "Si O2"
_cell_formula_units_Z 60
_cell_length_a 21.879629
_cell_length_b 9.701964
_cell_length_c 13.840241
_cell_angle_alpha 90.000000
_cell_angle_beta 90.000000
_cell_angle_gamma 90.000000
_cell_volume 2937.942319
_symmetry_space_group_name_H-M "A B M 2"
_symmetry_group_IT_number 39
_symmetry_cell_setting 'orthorhombic'
loop_
_space_group_symop_operation_xyz
x,y,z
-x,-y,z
-x,1/2+y,z
x,1/2-y,z
x,1/2+y,1/2+z
-x,1/2-y,1/2+z
-x,y,1/2+z
x,-y,1/2+z
loop_
_atom_site_type_symbol
_atom_site_label
_atom_site_fract_x
_atom_site_fract_y
_atom_site_fract_z
Si Si1 0.006754 0.250000 0.134251
Si Si2 0.627422 0.093228 0.748116
Si Si3 0.256690 0.906932 0.891787
Si Si4 0.908743 0.497354 0.106254
Si Si5 0.941379 0.906319 0.903008
Si Si6 0.442847 0.589545 0.391355
Si Si7 0.326686 0.590229 0.534933
Si Si8 0.169649 0.593987 0.263141
O O1 0.954989 0.369783 0.112991
O O2 0.058342 0.371136 0.153589
O O3 0.602134 0.250000 0.740569
O O4 0.683454 0.098854 0.823289
O O5 0.653832 0.053874 0.643621
O O6 0.580468 0.984750 0.793489
O O7 0.236744 0.750000 0.911425
O O8 0.277337 0.989826 0.986794
O O9 0.208723 0.993745 0.829307
O O10 0.845132 0.462184 0.157214
O O11 0.904133 0.536813 0.993769
O O12 0.961622 0.750000 0.930339
O O13 0.897785 0.899521 0.811785
O O14 0.000000 0.000000 0.886487
O O15 0.500000 0.500000 0.427049
O O16 0.458456 0.750000 0.376700
O O17 0.387293 0.583838 0.467932
O O18 0.305201 0.750000 0.534319
O O19 0.194475 0.750000 0.262474
#
# Coordination Sequence:
#
# PCOD9360679 Si02
#       8
#     4   8   8   8   8   8   8   8
#     4  10  20  34  60  80 110 138 176 216 276 334
#     4   9  19  38  63  84 110 153 195 234 280 332
#     4  10  22  40  57  83 111 142 188 239 284 329
#     4  11  20  39  56  82 108 144 172 224 272 338
#     4  11  23  38  58  81 107 141 177 218 275 339
#     4  10  20  34  55  88 126 157 189 231 275 321
#     4   9  19  38  63  83 112 154 193 232 281 329
#     4  11  26  39  57  81 110 145 183 227 281 337
#
# _framework density 20.422457999999999
#
# number of rings (size 3 to 8) (size 9 to 14) (size 15 to 20)
#    0.000    1.867    2.667    0.800    2.800    3.733 
#    0.000    5.333    0.000    0.000    0.000    0.000 
#    0.000    0.000    0.000    0.000    0.000    0.000 
#
# Total GULP energy -167047.014957 kJ/mol
# GULP energy per Si atom -5568.233832 kJ/mol
# Density = 2.037598 g / cm^3
# Si number density = 20.422458 Si / 1000 Ang^3
#
#
#
# Elastic Constant Matrix: (Units=GPa)
#
#
# Indices 1 2 3 4 5 6 
#
# 1 15.3674 11.5269 -3.8900 0.0000 0.0000 0.0000
# 2 11.5269 142.9014 14.4967 0.0000 0.0000 0.0000
# 3 -3.8900 14.4967 60.3801 0.0000 0.0000 0.0000
# 4 0.0000 0.0000 0.0000 20.6960 0.0000 0.0000
# 5 0.0000 0.0000 0.0000 0.0000 -8.1694 0.0000
# 6 0.0000 0.0000 0.0000 0.0000 0.0000 30.9639
#
#
#
# Elastic Compliance Matrix: (Units=1/GPa)
#
#
# Indices 1 2 3 4 5 6 
#
# 1 0.071413 -0.006383 0.006133 0.000000 0.000000 0.000000
# 2 -0.006383 0.007743 -0.002270 0.000000 0.000000 0.000000
# 3 0.006133 -0.002270 0.017502 0.000000 0.000000 0.000000
# 4 0.000000 0.000000 0.000000 0.048319 0.000000 0.000000
# 5 0.000000 0.000000 0.000000 0.000000 -0.122409 0.000000
# 6 0.000000 0.000000 0.000000 0.000000 0.000000 0.032296
#
#
# Mechanical properties :
#
#
# Convention : Reuss Voigt Hill
#
# Bulk Modulus (GPa) = 10.91482 29.21290 20.06386
# Shear Modulus (GPa) = 55.28404 21.79914 38.54159
#
# Velocity S-wave (km/s) = 5.20855 3.27067 4.34892
# Velocity P-wave (km/s) = 6.44423 5.34775 5.92142
#
# Compressibility (1/GPa) = 0.09161856
#
# Stress axis : x y z
#
# Youngs Moduli (GPa) = 14.00309 129.14935 57.13651
#
# Poissons Ratio (x) = 0.82431 -0.35043
# Poissons Ratio (y) = 0.08938 0.12971
# Poissons Ratio (z) = -0.08588 0.29320
#
# Static dielectric constant tensor:
#      x y z
#    x 1.779510 0.000000 0.000000 
#    y 0.000000 1.719900 0.000000 
#    z 0.000000 0.000000 1.773530 
# 
# From -- ./inp_files/10498.got.cif
#   From: 2010.05.17/outbox.cif.g08.bks.cpg/sg39_6_cif.got.tgz:10498.got - 2010.06.03 18:22:40.
