data_PCOD9360852
_publ_section_title
;
Structure prediction by ZEFSAII (Michael W. Deem and Ramdas Pophale) SiO2 
 PCOD9360852
Probable space group: A B M 2
;
_chemical_formula_sum "Si O2"
_cell_formula_units_Z 60
_cell_length_a 12.642826
_cell_length_b 16.100415
_cell_length_c 13.962460
_cell_angle_alpha 90.000000
_cell_angle_beta 90.000000
_cell_angle_gamma 90.000000
_cell_volume 2842.124990
_symmetry_space_group_name_H-M "A B M 2"
_symmetry_group_IT_number 39
_symmetry_cell_setting 'orthorhombic'
loop_
_space_group_symop_operation_xyz
x,y,z
-x,-y,z
-x,1/2+y,z
x,1/2-y,z
x,1/2+y,1/2+z
-x,1/2-y,1/2+z
-x,y,1/2+z
x,-y,1/2+z
loop_
_atom_site_type_symbol
_atom_site_label
_atom_site_fract_x
_atom_site_fract_y
_atom_site_fract_z
Si Si1 0.792605 0.089814 0.579350
Si Si2 0.087596 0.056984 0.353616
Si Si3 0.700943 0.467897 0.774600
Si Si4 0.377974 0.658859 0.930469
Si Si5 0.420234 0.656130 0.548164
Si Si6 0.187074 0.605131 0.037378
Si Si7 0.500000 0.000000 0.673808
Si Si8 0.996826 0.846485 0.168302
O O1 0.743990 0.088386 0.687098
O O2 0.701015 0.136107 0.521386
O O3 0.907264 0.130027 0.589487
O O4 0.800484 0.993920 0.549543
O O5 0.188183 0.001830 0.318831
O O6 0.131286 0.119187 0.433986
O O7 0.032593 0.099310 0.261794
O O8 0.000000 0.000000 0.401667
O O9 0.648913 0.411382 0.855300
O O10 0.605612 0.522816 0.733970
O O11 0.352896 0.750000 0.891531
O O12 0.499459 0.655502 0.959909
O O13 0.302942 0.643954 0.023469
O O14 0.425289 0.750000 0.590315
O O15 0.463893 0.579966 0.612773
O O16 0.111003 0.635244 0.121768
O O17 0.988093 0.750000 0.192122
#
# Coordination Sequence:
#
# PCOD9360852 Si02
#       8
#     8   8   8   8   8   8   4   8
#     4  10  20  37  59  82 113 152 197 244 295 359
#     4  10  21  37  57  82 113 149 195 245 294 357
#     4   9  20  33  54  81 110 150 193 240 296 357
#     4  10  21  36  56  85 119 154 199 254 308 366
#     4  10  21  37  59  87 119 157 202 250 303 367
#     4  11  22  38  61  86 115 155 200 247 303 364
#     4  10  20  36  58  84 116 156 200 248 302 364
#     4  11  22  36  58  87 120 156 196 246 303 365
#
# _framework density 21.110965
#
# number of rings (size 3 to 8) (size 9 to 14) (size 15 to 20)
#    0.000    1.867    0.000    5.200    0.000   10.133 
#    0.000    0.000    0.000    0.000    0.000    9.333 
#    0.000    0.000    0.000    0.000    0.000    0.000 
#
# Total GULP energy -167274.716149 kJ/mol
# GULP energy per Si atom -5575.823872 kJ/mol
# Density = 2.106292 g / cm^3
# Si number density = 21.110965 Si / 1000 Ang^3
#
#
#
# Elastic Constant Matrix: (Units=GPa)
#
#
# Indices 1 2 3 4 5 6 
#
# 1 55.9191 9.2548 6.6139 0.0000 0.0000 0.0000
# 2 9.2548 85.9662 0.5578 0.0000 0.0000 0.0000
# 3 6.6139 0.5578 44.5448 0.0000 0.0000 0.0000
# 4 0.0000 0.0000 0.0000 0.2331 0.0000 0.0000
# 5 0.0000 0.0000 0.0000 0.0000 20.1335 0.0000
# 6 0.0000 0.0000 0.0000 0.0000 0.0000 23.5343
#
#
#
# Elastic Compliance Matrix: (Units=1/GPa)
#
#
# Indices 1 2 3 4 5 6 
#
# 1 0.018533 -0.001977 -0.002727 0.000000 0.000000 0.000000
# 2 -0.001977 0.011844 0.000145 0.000000 0.000000 0.000000
# 3 -0.002727 0.000145 0.022852 0.000000 0.000000 0.000000
# 4 0.000000 0.000000 0.000000 4.290539 0.000000 0.000000
# 5 0.000000 0.000000 0.000000 0.000000 0.049668 0.000000
# 6 0.000000 0.000000 0.000000 0.000000 0.000000 0.042491
#
#
# Mechanical properties :
#
#
# Convention : Reuss Voigt Hill
#
# Bulk Modulus (GPa) = 22.66988 24.36477 23.51732
# Shear Modulus (GPa) = 1.12114 20.11376 10.61745
#
# Velocity S-wave (km/s) = 0.72954 3.09004 2.24505
# Velocity P-wave (km/s) = 3.38694 4.92924 4.22900
#
# Compressibility (1/GPa) = 0.04411139
#
# Stress axis : x y z
#
# Youngs Moduli (GPa) = 53.95838 84.42790 43.75908
#
# Poissons Ratio (x) = 0.16695 0.11933
# Poissons Ratio (y) = 0.10670 -0.00636
# Poissons Ratio (z) = 0.14714 -0.01227
#
# Static dielectric constant tensor:
#      x y z
#    x 1.823510 0.000000 0.000000 
#    y 0.000000 1.755690 0.000000 
#    z 0.000000 0.000000 1.816640 
# 
# From -- ./inp_files/9396.got.cif
#   From: 2010.05.17/outbox.cif.g08.bks.cpg/sg39_5_cif.got.tgz:9396.got - 2010.06.03 18:22:40.
