data_PCOD9360626
_publ_section_title
;
Structure prediction by ZEFSAII (Michael W. Deem and Ramdas Pophale) SiO2 
 PCOD9360626
Probable space group: A B M 2
;
_chemical_formula_sum "Si O2"
_cell_formula_units_Z 56
_cell_length_a 20.029008
_cell_length_b 8.547056
_cell_length_c 16.246914
_cell_angle_alpha 90.000000
_cell_angle_beta 90.000000
_cell_angle_gamma 90.000000
_cell_volume 2781.293822
_symmetry_space_group_name_H-M "A B M 2"
_symmetry_group_IT_number 39
_symmetry_cell_setting 'orthorhombic'
loop_
_space_group_symop_operation_xyz
x,y,z
-x,-y,z
-x,1/2+y,z
x,1/2-y,z
x,1/2+y,1/2+z
-x,1/2-y,1/2+z
-x,y,1/2+z
x,-y,1/2+z
loop_
_atom_site_type_symbol
_atom_site_label
_atom_site_fract_x
_atom_site_fract_y
_atom_site_fract_z
Si Si1 0.212679 0.939932 0.932530
Si Si2 0.651309 0.061823 0.187124
Si Si3 0.350879 0.561707 0.862541
Si Si4 0.069698 0.063789 0.178457
Si Si5 0.575306 0.937349 0.025555
Si Si6 0.930234 0.561707 0.370804
Si Si7 0.789872 0.061988 0.119089
O O1 0.210523 0.750000 0.927856
O O2 0.273584 0.990654 0.875286
O O3 0.138550 0.996213 0.910539
O O4 0.228987 0.982504 0.026056
O O5 0.648828 0.250000 0.185527
O O6 0.729026 0.010743 0.176929
O O7 0.624924 0.000626 0.274478
O O8 0.612715 0.998590 0.107360
O O9 0.353385 0.750000 0.862889
O O10 0.390398 0.499988 0.941933
O O11 0.068087 0.250000 0.174808
O O12 0.072240 0.015429 0.274656
O O13 0.137518 0.003741 0.138637
O O14 0.000000 0.000000 0.143046
O O15 0.576338 0.750000 0.025063
O O16 0.500000 0.000000 0.027767
O O17 0.931526 0.750000 0.375470
O O18 0.000000 0.500000 0.406358
O O19 0.794061 0.250000 0.123093
#
# Coordination Sequence:
#
# PCOD9360626 Si02
#       7
#     8   8   8   8   8   8   8
#     4   9  18  35  58  83 117 159 201 252 316 374
#     4  11  23  42  67  99 135 174 217 265 321 383
#     4  11  22  42  69  98 132 173 217 267 322 381
#     4  10  20  34  52  77 109 151 203 260 317 381
#     4  12  26  46  71 101 135 172 213 262 318 383
#     4   9  18  33  52  74 106 148 198 250 307 367
#     4  10  20  36  58  84 120 161 202 256 317 377
#
# _framework density 20.134512999999998
#
# number of rings (size 3 to 8) (size 9 to 14) (size 15 to 20)
#    0.000    1.714    1.429    3.429    0.000    4.000 
#    0.000    6.429    0.000    0.000    0.000    0.000 
#    0.000    0.000    0.000    0.000    0.000    0.000 
#
# Total GULP energy -156391.904774 kJ/mol
# GULP energy per Si atom -5585.425170 kJ/mol
# Density = 2.008869 g / cm^3
# Si number density = 20.134513 Si / 1000 Ang^3
#
#
#
# Elastic Constant Matrix: (Units=GPa)
#
#
# Indices 1 2 3 4 5 6 
#
# 1 137.8652 34.5347 64.7634 0.0000 0.0000 0.0000
# 2 34.5347 59.8159 42.5724 0.0000 0.0000 0.0000
# 3 64.7634 42.5724 137.9480 0.0000 0.0000 0.0000
# 4 0.0000 0.0000 0.0000 27.0375 0.0000 0.0000
# 5 0.0000 0.0000 0.0000 0.0000 16.4294 0.0000
# 6 0.0000 0.0000 0.0000 0.0000 0.0000 31.7477
#
#
#
# Elastic Compliance Matrix: (Units=1/GPa)
#
#
# Indices 1 2 3 4 5 6 
#
# 1 0.009716 -0.003028 -0.003627 0.000000 0.000000 0.000000
# 2 -0.003028 0.022367 -0.005481 0.000000 0.000000 0.000000
# 3 -0.003627 -0.005481 0.010643 0.000000 0.000000 0.000000
# 4 0.000000 0.000000 0.000000 0.036986 0.000000 0.000000
# 5 0.000000 0.000000 0.000000 0.000000 0.060867 0.000000
# 6 0.000000 0.000000 0.000000 0.000000 0.000000 0.031498
#
#
# Mechanical properties :
#
#
# Convention : Reuss Voigt Hill
#
# Bulk Modulus (GPa) = 54.18809 68.81888 61.50349
# Shear Modulus (GPa) = 24.69129 27.96017 26.32573
#
# Velocity S-wave (km/s) = 3.50568 3.73053 3.61985
# Velocity P-wave (km/s) = 6.58467 7.26702 6.93424
#
# Compressibility (1/GPa) = 0.01845424
#
# Stress axis : x y z
#
# Youngs Moduli (GPa) = 102.92620 44.70802 93.95520
#
# Poissons Ratio (x) = 0.13538 0.34076
# Poissons Ratio (y) = 0.31167 0.51499
# Poissons Ratio (z) = 0.37329 0.24505
#
# Static dielectric constant tensor:
#      x y z
#    x 1.721020 0.000000 0.000000 
#    y 0.000000 1.685670 0.000000 
#    z 0.000000 0.000000 1.713930 
# 
# From -- ./inp_files/10323.got.cif
#   From: 2010.05.17/outbox.cif.g08.bks.cpg/sg39_6_cif.got.tgz:10323.got - 2010.06.03 18:22:40.
