data_PCOD9360632
_publ_section_title
;
Structure prediction by ZEFSAII (Michael W. Deem and Ramdas Pophale) SiO2 
 PCOD9360632
Probable space group: A B M 2
;
_chemical_formula_sum "Si O2"
_cell_formula_units_Z 64
_cell_length_a 14.983523
_cell_length_b 7.866280
_cell_length_c 25.999362
_cell_angle_alpha 90.000000
_cell_angle_beta 90.000000
_cell_angle_gamma 90.000000
_cell_volume 3064.404072
_symmetry_space_group_name_H-M "A B M 2"
_symmetry_group_IT_number 39
_symmetry_cell_setting 'orthorhombic'
loop_
_space_group_symop_operation_xyz
x,y,z
-x,-y,z
-x,1/2+y,z
x,1/2-y,z
x,1/2+y,1/2+z
-x,1/2-y,1/2+z
-x,y,1/2+z
x,-y,1/2+z
loop_
_atom_site_type_symbol
_atom_site_label
_atom_site_fract_x
_atom_site_fract_y
_atom_site_fract_z
Si Si1 0.103905 0.045053 0.894410
Si Si2 0.604780 0.452060 0.503929
Si Si3 0.254555 0.547881 0.196495
Si Si4 0.895882 0.953594 0.118699
Si Si5 0.603958 0.950761 0.616122
Si Si6 0.751954 0.541260 0.812996
Si Si7 0.396282 0.045137 0.891915
Si Si8 0.894986 0.545440 0.006451
O O1 0.110204 0.250000 0.895611
O O2 0.163484 0.985111 0.846992
O O3 0.137927 0.983638 0.950734
O O4 0.000000 0.000000 0.888833
O O5 0.500000 0.500000 0.505008
O O6 0.614061 0.250000 0.503383
O O7 0.640516 0.508846 0.559021
O O8 0.636354 0.517482 0.448316
O O9 0.269724 0.750000 0.201528
O O10 0.164345 0.522855 0.164341
O O11 0.334198 0.474734 0.161059
O O12 0.248804 0.479993 0.254414
O O13 0.888817 0.750000 0.118940
O O14 0.863186 0.017373 0.062212
O O15 0.000000 0.000000 0.124242
O O16 0.606293 0.750000 0.620808
O O17 0.500000 0.000000 0.619777
O O18 0.753415 0.750000 0.812096
O O19 0.665106 0.486720 0.845256
O O20 0.390159 0.250000 0.893206
O O21 0.500000 0.000000 0.885726
O O22 0.884322 0.750000 0.006835
O O23 0.000000 0.500000 0.006008
#
# Coordination Sequence:
#
# PCOD9360632 Si02
#       8
#     8   8   8   8   8   8   8   8
#     4   9  17  32  54  76 100 130 163 202 249 299
#     4   9  16  28  50  78 105 131 164 206 255 313
#     4  10  22  38  53  73 103 139 179 218 256 302
#     4  10  20  35  56  80 107 137 170 211 258 308
#     4  10  20  34  53  76 104 137 172 213 261 310
#     4   9  19  36  54  72  99 136 174 209 249 300
#     4   9  18  33  54  78 103 133 167 207 257 309
#     4   8  15  28  49  77 103 127 159 200 248 301
#
# _framework density 20.884974
#
# number of rings (size 3 to 8) (size 9 to 14) (size 15 to 20)
#    0.000    2.750    0.000    1.875    0.000    4.000 
#    0.000    5.625    0.000    0.000    0.000    0.000 
#    0.000    0.000    0.000    0.000    0.000    0.000 
#
# Total GULP energy -178426.395174 kJ/mol
# GULP energy per Si atom -5575.824849 kJ/mol
# Density = 2.083744 g / cm^3
# Si number density = 20.884974 Si / 1000 Ang^3
#
#
#
# Elastic Constant Matrix: (Units=GPa)
#
#
# Indices 1 2 3 4 5 6 
#
# 1 103.2113 -5.4466 96.1675 0.0000 0.0000 0.0000
# 2 -5.4466 24.4414 12.6648 0.0000 0.0000 0.0000
# 3 96.1675 12.6648 259.7912 0.0000 0.0000 0.0000
# 4 0.0000 0.0000 0.0000 27.1869 0.0000 0.0000
# 5 0.0000 0.0000 0.0000 0.0000 31.6747 0.0000
# 6 0.0000 0.0000 0.0000 0.0000 0.0000 2.1017
#
#
#
# Elastic Compliance Matrix: (Units=1/GPa)
#
#
# Indices 1 2 3 4 5 6 
#
# 1 0.015797 0.006720 -0.006175 0.000000 0.000000 0.000000
# 2 0.006720 0.044833 -0.004673 0.000000 0.000000 0.000000
# 3 -0.006175 -0.004673 0.006363 0.000000 0.000000 0.000000
# 4 0.000000 0.000000 0.000000 0.036782 0.000000 0.000000
# 5 0.000000 0.000000 0.000000 0.000000 0.031571 0.000000
# 6 0.000000 0.000000 0.000000 0.000000 0.000000 0.475800
#
#
# Mechanical properties :
#
#
# Convention : Reuss Voigt Hill
#
# Bulk Modulus (GPa) = 17.02503 66.02390 41.52447
# Shear Modulus (GPa) = 7.82494 31.12989 19.47741
#
# Velocity S-wave (km/s) = 1.93773 3.86494 3.05717
# Velocity P-wave (km/s) = 3.62987 7.18323 5.69099
#
# Compressibility (1/GPa) = 0.05873705
#
# Stress axis : x y z
#
# Youngs Moduli (GPa) = 63.30145 22.30480 157.15806
#
# Poissons Ratio (x) = -0.14989 0.97051
# Poissons Ratio (y) = -0.42540 0.73444
# Poissons Ratio (z) = 0.39091 0.10424
#
# Static dielectric constant tensor:
#      x y z
#    x 1.751990 0.000000 0.000000 
#    y 0.000000 1.719700 0.000000 
#    z 0.000000 0.000000 1.787680 
# 
# From -- ./inp_files/16257.got.cif
#   From: 2010.05.17/outbox.cif.g08.bks.cpg/sg39_9_cif.got.tgz:16257.got - 2010.06.03 18:22:40.
