data_PCOD9360938
_publ_section_title
;
Structure prediction by ZEFSAII (Michael W. Deem and Ramdas Pophale) SiO2 
 PCOD9360938
Probable space group: A B M 2
;
_chemical_formula_sum "Si O2"
_cell_formula_units_Z 56
_cell_length_a 10.793352
_cell_length_b 16.277731
_cell_length_c 15.152614
_cell_angle_alpha 90.000000
_cell_angle_beta 90.000000
_cell_angle_gamma 90.000000
_cell_volume 2662.182156
_symmetry_space_group_name_H-M "A B M 2"
_symmetry_group_IT_number 39
_symmetry_cell_setting 'orthorhombic'
loop_
_space_group_symop_operation_xyz
x,y,z
-x,-y,z
-x,1/2+y,z
x,1/2-y,z
x,1/2+y,1/2+z
-x,1/2-y,1/2+z
-x,y,1/2+z
x,-y,1/2+z
loop_
_atom_site_type_symbol
_atom_site_label
_atom_site_fract_x
_atom_site_fract_y
_atom_site_fract_z
Si Si1 0.498707 0.157796 0.961900
Si Si2 0.896369 0.068523 0.909565
Si Si3 0.390344 0.569039 0.115211
Si Si4 0.733033 0.453861 0.500916
Si Si5 0.461071 0.593723 0.773724
Si Si6 0.046508 0.847588 0.559295
Si Si7 0.188035 0.152535 0.236434
O O1 0.455401 0.250000 0.978208
O O2 0.540814 0.147153 0.861881
O O3 0.599003 0.132485 0.034886
O O4 0.392090 0.091689 0.978289
O O5 0.872387 0.130747 0.830580
O O6 0.772372 0.016201 0.924798
O O7 0.000000 0.000000 0.887135
O O8 0.937685 0.109302 0.002778
O O9 0.500000 0.500000 0.114480
O O10 0.276093 0.510807 0.088758
O O11 0.427456 0.615400 0.204987
O O12 0.833497 0.382910 0.509414
O O13 0.500000 0.500000 0.798086
O O14 0.323763 0.608054 0.731669
O O15 0.031855 0.750000 0.553593
O O16 0.086312 0.868467 0.660269
O O17 0.212199 0.250000 0.227848
#
# Coordination Sequence:
#
# PCOD9360938 Si02
#       7
#     8   8   8   8   8   8   8
#     4  11  21  33  53  82 117 151 186 230 275 328
#     4  10  22  38  60  85 111 147 191 239 287 337
#     4   9  19  35  55  79 110 146 187 230 273 332
#     4  10  20  37  58  81 114 154 187 228 283 333
#     4  11  21  35  58  86 115 151 192 229 273 338
#     4  10  21  38  60  84 110 143 189 241 287 334
#     4  11  22  38  61  85 114 152 190 233 287 342
#
# _framework density 21.035374999999998
#
# number of rings (size 3 to 8) (size 9 to 14) (size 15 to 20)
#    0.000    1.714    0.000    6.857    0.000    4.000 
#    0.000    2.143    0.000    3.429    0.000    0.000 
#    0.000    0.000    0.000    0.000    0.000    0.000 
#
# Total GULP energy -155887.701802 kJ/mol
# GULP energy per Si atom -5567.417922 kJ/mol
# Density = 2.098750 g / cm^3
# Si number density = 21.035375 Si / 1000 Ang^3
#
#
#
# Elastic Constant Matrix: (Units=GPa)
#
#
# Indices 1 2 3 4 5 6 
#
# 1 54.3572 32.7582 5.9135 0.0000 0.0000 0.0000
# 2 32.7582 73.2739 39.3718 0.0000 0.0000 0.0000
# 3 5.9135 39.3718 88.3911 0.0000 0.0000 0.0000
# 4 0.0000 0.0000 0.0000 22.3822 0.0000 0.0000
# 5 0.0000 0.0000 0.0000 0.0000 17.0893 0.0000
# 6 0.0000 0.0000 0.0000 0.0000 0.0000 17.4139
#
#
#
# Elastic Compliance Matrix: (Units=1/GPa)
#
#
# Indices 1 2 3 4 5 6 
#
# 1 0.026539 -0.014344 0.004614 0.000000 0.000000 0.000000
# 2 -0.014344 0.025694 -0.010485 0.000000 0.000000 0.000000
# 3 0.004614 -0.010485 0.015675 0.000000 0.000000 0.000000
# 4 0.000000 0.000000 0.000000 0.044678 0.000000 0.000000
# 5 0.000000 0.000000 0.000000 0.000000 0.058516 0.000000
# 6 0.000000 0.000000 0.000000 0.000000 0.000000 0.057425
#
#
# Mechanical properties :
#
#
# Convention : Reuss Voigt Hill
#
# Bulk Modulus (GPa) = 36.39341 41.34548 38.86944
# Shear Modulus (GPa) = 17.97803 20.57567 19.27685
#
# Velocity S-wave (km/s) = 2.92662 3.13093 3.03050
# Velocity P-wave (km/s) = 5.36272 5.72435 5.54648
#
# Compressibility (1/GPa) = 0.02747751
#
# Stress axis : x y z
#
# Youngs Moduli (GPa) = 37.68039 38.91987 63.79562
#
# Poissons Ratio (x) = 0.55825 -0.29432
# Poissons Ratio (y) = 0.54047 0.66890
# Poissons Ratio (z) = -0.17384 0.40808
#
# Static dielectric constant tensor:
#      x y z
#    x 1.771670 0.000000 0.000000 
#    y 0.000000 1.742260 0.000000 
#    z 0.000000 0.000000 1.852150 
# 
# From -- ./inp_files/9314.got.cif
#   From: 2010.05.17/outbox.cif.g08.bks.cpg/sg39_5_cif.got.tgz:9314.got - 2010.06.03 18:22:40.
