data_PCOD9360467
_publ_section_title
;
Structure prediction by ZEFSAII (Michael W. Deem and Ramdas Pophale) SiO2 
 PCOD9360467
Probable space group: A B M 2
;
_chemical_formula_sum "Si O2"
_cell_formula_units_Z 64
_cell_length_a 12.440951
_cell_length_b 17.418085
_cell_length_c 14.776525
_cell_angle_alpha 90.000000
_cell_angle_beta 90.000000
_cell_angle_gamma 90.000000
_cell_volume 3202.036647
_symmetry_space_group_name_H-M "A B M 2"
_symmetry_group_IT_number 39
_symmetry_cell_setting 'orthorhombic'
loop_
_space_group_symop_operation_xyz
x,y,z
-x,-y,z
-x,1/2+y,z
x,1/2-y,z
x,1/2+y,1/2+z
-x,1/2-y,1/2+z
-x,y,1/2+z
x,-y,1/2+z
loop_
_atom_site_type_symbol
_atom_site_label
_atom_site_fract_x
_atom_site_fract_y
_atom_site_fract_z
Si Si1 0.384603 0.661167 0.184590
Si Si2 0.364686 0.841186 0.990179
Si Si3 0.928364 0.341193 0.570793
Si Si4 0.046260 0.086257 0.250446
Si Si5 0.131140 0.089281 0.456825
Si Si6 0.832050 0.664541 0.770800
Si Si7 0.456451 0.415512 0.871070
Si Si8 0.223750 0.921580 0.444816
O O1 0.419822 0.750000 0.189894
O O2 0.254695 0.660022 0.191888
O O3 0.424054 0.619712 0.274501
O O4 0.408120 0.627099 0.086608
O O5 0.365131 0.750000 0.998303
O O6 0.243000 0.866492 0.970918
O O7 0.447719 0.867225 0.914480
O O8 0.945618 0.250000 0.584740
O O9 0.891396 0.389138 0.660110
O O10 0.829085 0.354507 0.502822
O O11 0.034198 0.379141 0.520702
O O12 0.095933 0.094704 0.350701
O O13 0.951058 0.148403 0.240713
O O14 0.000000 0.000000 0.241897
O O15 0.165368 0.000510 0.473273
O O16 0.820251 0.750000 0.810706
O O17 0.809311 0.597940 0.842170
O O18 0.500000 0.500000 0.856148
O O19 0.352619 0.421171 0.937504
#
# Coordination Sequence:
#
# PCOD9360467 Si02
#       8
#     8   8   8   8   8   8   8   8
#     4   9  21  41  67  95 125 169 219 264 319 389
#     4  11  24  43  68  99 133 172 221 273 332 390
#     4  12  26  41  64 100 135 175 221 268 332 400
#     4  12  23  39  65  96 135 175 215 268 331 395
#     4  12  23  44  67  96 135 174 217 273 331 394
#     4  10  19  36  64  93 126 169 214 258 316 391
#     4  11  23  44  69  96 127 170 221 275 329 390
#     4  11  22  43  65  90 130 170 219 272 325 387
#
# _framework density 19.987279000000001
#
# number of rings (size 3 to 8) (size 9 to 14) (size 15 to 20)
#    0.000    1.000    3.750    3.375    0.000    4.500 
#    2.250    0.000    0.000    0.000    0.000    0.000 
#    0.000    0.000    0.000    0.000    0.000    0.000 
#
# Total GULP energy -178471.342570 kJ/mol
# GULP energy per Si atom -5577.229455 kJ/mol
# Density = 1.994179 g / cm^3
# Si number density = 19.987279 Si / 1000 Ang^3
#
#
#
# Elastic Constant Matrix: (Units=GPa)
#
#
# Indices 1 2 3 4 5 6 
#
# 1 79.8123 29.5343 29.3256 0.0000 0.0000 0.0000
# 2 29.5343 102.0779 29.7792 0.0000 0.0000 0.0000
# 3 29.3256 29.7792 103.4070 0.0000 0.0000 0.0000
# 4 0.0000 0.0000 0.0000 21.2775 0.0000 0.0000
# 5 0.0000 0.0000 0.0000 0.0000 77.9683 0.0000
# 6 0.0000 0.0000 0.0000 0.0000 0.0000 16.7959
#
#
#
# Elastic Compliance Matrix: (Units=1/GPa)
#
#
# Indices 1 2 3 4 5 6 
#
# 1 0.014984 -0.003380 -0.003276 0.000000 0.000000 0.000000
# 2 -0.003380 0.011457 -0.002341 0.000000 0.000000 0.000000
# 3 -0.003276 -0.002341 0.011274 0.000000 0.000000 0.000000
# 4 0.000000 0.000000 0.000000 0.046998 0.000000 0.000000
# 5 0.000000 0.000000 0.000000 0.000000 0.012826 0.000000
# 6 0.000000 0.000000 0.000000 0.000000 0.000000 0.059538
#
#
# Mechanical properties :
#
#
# Convention : Reuss Voigt Hill
#
# Bulk Modulus (GPa) = 50.70626 51.39729 51.05177
# Shear Modulus (GPa) = 27.52643 36.31890 31.92267
#
# Velocity S-wave (km/s) = 3.71509 4.26737 4.00077
# Velocity P-wave (km/s) = 6.62018 7.07470 6.85121
#
# Compressibility (1/GPa) = 0.01972143
#
# Stress axis : x y z
#
# Youngs Moduli (GPa) = 66.73917 87.28144 88.70152
#
# Poissons Ratio (x) = 0.29497 0.29059
# Poissons Ratio (y) = 0.22555 0.20765
# Poissons Ratio (z) = 0.21864 0.20433
#
# Static dielectric constant tensor:
#      x y z
#    x 1.680110 0.000000 0.000000 
#    y 0.000000 1.705690 0.000000 
#    z 0.000000 0.000000 1.739700 
# 
# From -- ./inp_files/9483.got.cif
#   From: 2010.05.17/outbox.cif.g08.bks.cpg/sg39_5_cif.got.tgz:9483.got - 2010.06.03 18:22:40.
