data_PCOD9360579
_publ_section_title
;
Structure prediction by ZEFSAII (Michael W. Deem and Ramdas Pophale) SiO2 
 PCOD9360579
Probable space group: A B M 2
;
_chemical_formula_sum "Si O2"
_cell_formula_units_Z 40
_cell_length_a 9.184194
_cell_length_b 8.687706
_cell_length_c 27.227887
_cell_angle_alpha 90.000000
_cell_angle_beta 90.000000
_cell_angle_gamma 90.000000
_cell_volume 2172.501595
_symmetry_space_group_name_H-M "A B M 2"
_symmetry_group_IT_number 39
_symmetry_cell_setting 'orthorhombic'
loop_
_space_group_symop_operation_xyz
x,y,z
-x,-y,z
-x,1/2+y,z
x,1/2-y,z
x,1/2+y,1/2+z
-x,1/2-y,1/2+z
-x,y,1/2+z
x,-y,1/2+z
loop_
_atom_site_type_symbol
_atom_site_label
_atom_site_fract_x
_atom_site_fract_y
_atom_site_fract_z
Si Si1 0.834976 0.934826 0.533100
Si Si2 0.164855 0.934315 0.140324
Si Si3 0.163363 0.065973 0.241128
Si Si4 0.164130 0.566208 0.431838
Si Si5 0.661981 0.934965 0.339431
O O1 0.839943 0.750000 0.528398
O O2 0.769406 0.973409 0.586752
O O3 0.770420 0.007012 0.483719
O O4 0.000000 0.000000 0.534494
O O5 0.158432 0.750000 0.144066
O O6 0.230145 0.002331 0.190209
O O7 0.000000 0.000000 0.139598
O O8 0.154236 0.250000 0.237826
O O9 0.254959 0.023368 0.289069
O O10 0.000000 0.000000 0.246192
O O11 0.157869 0.750000 0.432021
O O12 0.254212 0.504771 0.385891
O O13 0.000000 0.500000 0.428099
O O14 0.660584 0.750000 0.343443
O O15 0.500000 0.000000 0.338066
#
# Coordination Sequence:
#
# PCOD9360579 Si02
#       5
#     8   8   8   8   8
#     4   9  16  27  45  73 106 137 169 209 256 307
#     4   9  16  26  45  73 105 137 168 207 255 303
#     4  10  20  33  53  79 106 136 172 213 257 307
#     4  11  21  34  55  81 108 140 176 218 262 309
#     4  11  24  40  56  76 103 138 177 219 267 318
#
# _framework density 18.411954000000001
#
# number of rings (size 3 to 8) (size 9 to 14) (size 15 to 20)
#    0.000    2.000    0.000    7.200    0.000    7.200 
#    0.000    0.000    0.000    1.200    0.000    2.800 
#    0.000    0.000    0.000    0.000    0.000    0.000 
#
# Total GULP energy -111555.252939 kJ/mol
# GULP energy per Si atom -5577.762647 kJ/mol
# Density = 1.837005 g / cm^3
# Si number density = 18.411954 Si / 1000 Ang^3
#
#
#
# Elastic Constant Matrix: (Units=GPa)
#
#
# Indices 1 2 3 4 5 6 
#
# 1 51.4067 29.3089 64.2070 0.0000 0.0000 0.0000
# 2 29.3089 98.5423 84.0552 0.0000 0.0000 0.0000
# 3 64.2070 84.0552 244.3759 0.0000 0.0000 0.0000
# 4 0.0000 0.0000 0.0000 44.2721 0.0000 0.0000
# 5 0.0000 0.0000 0.0000 0.0000 -4.5801 0.0000
# 6 0.0000 0.0000 0.0000 0.0000 0.0000 19.5074
#
#
#
# Elastic Compliance Matrix: (Units=1/GPa)
#
#
# Indices 1 2 3 4 5 6 
#
# 1 0.029597 -0.003071 -0.006720 0.000000 0.000000 0.000000
# 2 -0.003071 0.014680 -0.004243 0.000000 0.000000 0.000000
# 3 -0.006720 -0.004243 0.007317 0.000000 0.000000 0.000000
# 4 0.000000 0.000000 0.000000 0.022588 0.000000 0.000000
# 5 0.000000 0.000000 0.000000 0.000000 -0.218334 0.000000
# 6 0.000000 0.000000 0.000000 0.000000 0.000000 0.051263
#
#
# Mechanical properties :
#
#
# Convention : Reuss Voigt Hill
#
# Bulk Modulus (GPa) = 42.50402 83.27415 62.88908
# Shear Modulus (GPa) = -87.74771 26.29012 -30.72879
#
# Velocity S-wave (km/s) = -6.91097 3.78283 -4.08972
# Velocity P-wave (km/s) = 6.36764 8.02535 3.45394
#
# Compressibility (1/GPa) = 0.02352719
#
# Stress axis : x y z
#
# Youngs Moduli (GPa) = 33.78751 68.11963 136.66946
#
# Poissons Ratio (x) = 0.20918 0.91842
# Poissons Ratio (y) = 0.10375 0.57983
# Poissons Ratio (z) = 0.22705 0.28900
#
# Static dielectric constant tensor:
#      x y z
#    x 1.646820 0.000000 0.000000 
#    y 0.000000 1.613790 0.000000 
#    z 0.000000 0.000000 1.701770 
# 
# From -- ./inp_files/16740.got.cif
#   From: 2010.05.17/outbox.cif.g08.bks.cpg/sg39_9_cif.got.tgz:16740.got - 2010.06.03 18:22:40.
