data_PCOD9360056
_publ_section_title
;
Structure prediction by ZEFSAII (Michael W. Deem and Ramdas Pophale) SiO2 
 PCOD9360056
Probable space group: A B M 2
;
_chemical_formula_sum "Si O2"
_cell_formula_units_Z 64
_cell_length_a 14.659368
_cell_length_b 8.759921
_cell_length_c 32.075649
_cell_angle_alpha 90.000000
_cell_angle_beta 90.000000
_cell_angle_gamma 90.000000
_cell_volume 4118.991438
_symmetry_space_group_name_H-M "A B M 2"
_symmetry_group_IT_number 39
_symmetry_cell_setting 'orthorhombic'
loop_
_space_group_symop_operation_xyz
x,y,z
-x,-y,z
-x,1/2+y,z
x,1/2-y,z
x,1/2+y,1/2+z
-x,1/2-y,1/2+z
-x,y,1/2+z
x,-y,1/2+z
loop_
_atom_site_type_symbol
_atom_site_label
_atom_site_fract_x
_atom_site_fract_y
_atom_site_fract_z
Si Si1 0.288400 0.066254 0.076840
Si Si2 0.602143 0.932455 0.500067
Si Si3 0.095997 0.066980 0.706317
Si Si4 0.096320 0.066523 0.113349
Si Si5 0.397719 0.932799 0.907481
Si Si6 0.290800 0.066282 0.738660
Si Si7 0.601227 0.433019 0.660130
Si Si8 0.397615 0.066752 0.822001
O O1 0.293400 0.250000 0.073383
O O2 0.183269 0.024433 0.085388
O O3 0.345475 0.021362 0.118055
O O4 0.333510 0.993857 0.036323
O O5 0.594713 0.750000 0.502652
O O6 0.639058 0.970889 0.453544
O O7 0.500000 0.000000 0.504655
O O8 0.089089 0.250000 0.703169
O O9 0.184171 0.027086 0.733771
O O10 0.110797 0.999239 0.659933
O O11 0.000000 0.000000 0.721725
O O12 0.091304 0.250000 0.116119
O O13 0.000000 0.000000 0.098266
O O14 0.400758 0.750000 0.903224
O O15 0.500000 0.000000 0.908322
O O16 0.357100 0.004604 0.865572
O O17 0.298441 0.250000 0.734889
O O18 0.336663 0.022294 0.782353
O O19 0.345012 0.992478 0.700386
O O20 0.500000 0.500000 0.659709
O O21 0.597283 0.250000 0.661430
O O22 0.404086 0.250000 0.823999
O O23 0.500000 0.000000 0.816909
#
# Coordination Sequence:
#
# PCOD9360056 Si02
#       8
#     8   8   8   8   8   8   8   8
#     4  10  21  34  48  69  96 126 162 197 233 282
#     4  10  20  32  49  71  97 127 161 197 237 283
#     4  10  19  32  50  70  93 122 157 199 241 282
#     4  10  19  33  50  71  94 121 158 199 240 282
#     4   9  17  30  47  69  93 121 156 195 236 279
#     4  10  21  34  48  69  95 126 162 196 235 282
#     4  11  22  34  46  64  94 130 165 196 228 273
#     4  10  19  31  47  69  95 125 159 195 234 279
#
# _framework density 15.537784
#
# number of rings (size 3 to 8) (size 9 to 14) (size 15 to 20)
#    0.000    2.000    1.250    4.500    0.000    7.000 
#    0.000    0.000    0.000    0.000    0.000    0.875 
#    0.000    2.000    0.000    0.000    0.000    0.000 
#
# Total GULP energy -178493.581339 kJ/mol
# GULP energy per Si atom -5577.924417 kJ/mol
# Density = 1.550242 g / cm^3
# Si number density = 15.537784 Si / 1000 Ang^3
#
#
#
# Elastic Constant Matrix: (Units=GPa)
#
#
# Indices 1 2 3 4 5 6 
#
# 1 123.5232 41.6933 78.3804 0.0000 0.0000 0.0000
# 2 41.6933 45.4798 48.1212 0.0000 0.0000 0.0000
# 3 78.3804 48.1212 151.4137 0.0000 0.0000 0.0000
# 4 0.0000 0.0000 0.0000 23.8929 0.0000 0.0000
# 5 0.0000 0.0000 0.0000 0.0000 10.8609 0.0000
# 6 0.0000 0.0000 0.0000 0.0000 0.0000 22.3458
#
#
#
# Elastic Compliance Matrix: (Units=1/GPa)
#
#
# Indices 1 2 3 4 5 6 
#
# 1 0.013584 -0.007552 -0.004631 0.000000 0.000000 0.000000
# 2 -0.007552 0.037327 -0.007953 0.000000 0.000000 0.000000
# 3 -0.004631 -0.007953 0.011530 0.000000 0.000000 0.000000
# 4 0.000000 0.000000 0.000000 0.041853 0.000000 0.000000
# 5 0.000000 0.000000 0.000000 0.000000 0.092074 0.000000
# 6 0.000000 0.000000 0.000000 0.000000 0.000000 0.044751
#
#
# Mechanical properties :
#
#
# Convention : Reuss Voigt Hill
#
# Bulk Modulus (GPa) = 45.11486 72.97848 59.04667
# Shear Modulus (GPa) = 17.31417 21.56804 19.44111
#
# Velocity S-wave (km/s) = 3.34177 3.72977 3.54109
# Velocity P-wave (km/s) = 6.63239 8.10053 7.40294
#
# Compressibility (1/GPa) = 0.02216564
#
# Stress axis : x y z
#
# Youngs Moduli (GPa) = 73.61800 26.79057 86.73317
#
# Poissons Ratio (x) = 0.20233 0.40170
# Poissons Ratio (y) = 0.55598 0.68982
# Poissons Ratio (z) = 0.34096 0.21308
#
# Static dielectric constant tensor:
#      x y z
#    x 1.486830 0.000000 0.000000 
#    y 0.000000 1.523920 0.000000 
#    z 0.000000 0.000000 1.523810 
# 
# From -- ./inp_files/17956.got.cif
#   From: 2010.05.17/outbox.cif.g08.bks.cpg/sg39_9_cif.got.tgz:17956.got - 2010.06.03 18:22:40.
