data_PCOD9360081
_publ_section_title
;
Structure prediction by ZEFSAII (Michael W. Deem and Ramdas Pophale) SiO2 
 PCOD9360081
Probable space group: A B M 2
;
_chemical_formula_sum "Si O2"
_cell_formula_units_Z 56
_cell_length_a 16.059906
_cell_length_b 7.546614
_cell_length_c 20.973735
_cell_angle_alpha 90.000000
_cell_angle_beta 90.000000
_cell_angle_gamma 90.000000
_cell_volume 2541.972877
_symmetry_space_group_name_H-M "A B M 2"
_symmetry_group_IT_number 39
_symmetry_cell_setting 'orthorhombic'
loop_
_space_group_symop_operation_xyz
x,y,z
-x,-y,z
-x,1/2+y,z
x,1/2-y,z
x,1/2+y,1/2+z
-x,1/2-y,1/2+z
-x,y,1/2+z
x,-y,1/2+z
loop_
_atom_site_type_symbol
_atom_site_label
_atom_site_fract_x
_atom_site_fract_y
_atom_site_fract_z
Si Si1 0.868454 0.964676 0.491650
Si Si2 0.319538 0.464601 0.531271
Si Si3 0.091491 0.962365 0.851180
Si Si4 0.270496 0.460106 0.308998
Si Si5 0.269635 0.963709 0.168134
Si Si6 0.593790 0.962664 0.409079
Si Si7 0.911092 0.961633 0.630007
O O1 0.875529 0.750000 0.490868
O O2 0.770607 0.004514 0.500129
O O3 0.903284 0.029826 0.424540
O O4 0.909934 0.030539 0.556929
O O5 0.324912 0.250000 0.534691
O O6 0.316803 0.527493 0.604414
O O7 0.387425 0.528823 0.480854
O O8 0.097186 0.750000 0.852891
O O9 0.175731 0.029829 0.817189
O O10 0.000000 0.000000 0.824151
O O11 0.265303 0.250000 0.320524
O O12 0.301742 0.485693 0.237223
O O13 0.335969 0.531648 0.360511
O O14 0.268995 0.750000 0.165591
O O15 0.173413 0.027449 0.162467
O O16 0.602706 0.750000 0.410849
O O17 0.500000 0.000000 0.388930
O O18 0.903221 0.750000 0.626895
O O19 0.000000 0.000000 0.660387
#
# Coordination Sequence:
#
# PCOD9360081 Si02
#       7
#     8   8   8   8   8   8   8
#     4   8  13  26  48  71  97 131 173 217 261 311
#     4   8  14  31  57  79 100 133 174 213 261 320
#     4  10  19  31  49  74 104 142 183 222 264 310
#     4  10  21  37  55  77 110 149 181 216 266 323
#     4   9  19  34  54  76 102 141 182 220 263 313
#     4  10  20  37  62  87 108 136 176 220 270 325
#     4   9  17  28  45  70  99 134 178 224 266 310
#
# _framework density 22.030135000000001
#
# number of rings (size 3 to 8) (size 9 to 14) (size 15 to 20)
#    0.000    2.857    1.429    2.143    0.000    2.286 
#    0.000    4.286    0.000    5.143    0.000    0.000 
#    0.000    0.000    0.000    0.000    0.000    0.000 
#
# Total GULP energy -156192.686263 kJ/mol
# GULP energy per Si atom -5578.310224 kJ/mol
# Density = 2.197999 g / cm^3
# Si number density = 22.030135 Si / 1000 Ang^3
#
#
#
# Elastic Constant Matrix: (Units=GPa)
#
#
# Indices 1 2 3 4 5 6 
#
# 1 97.1757 4.7262 61.5312 0.0000 0.0000 0.0000
# 2 4.7262 53.7791 1.9180 0.0000 0.0000 0.0000
# 3 61.5312 1.9180 134.4857 0.0000 0.0000 0.0000
# 4 0.0000 0.0000 0.0000 11.6173 0.0000 0.0000
# 5 0.0000 0.0000 0.0000 0.0000 0.4437 0.0000
# 6 0.0000 0.0000 0.0000 0.0000 0.0000 15.9292
#
#
#
# Elastic Compliance Matrix: (Units=1/GPa)
#
#
# Indices 1 2 3 4 5 6 
#
# 1 0.014546 -0.001041 -0.006640 0.000000 0.000000 0.000000
# 2 -0.001041 0.018679 0.000210 0.000000 0.000000 0.000000
# 3 -0.006640 0.000210 0.010471 0.000000 0.000000 0.000000
# 4 0.000000 0.000000 0.000000 0.086078 0.000000 0.000000
# 5 0.000000 0.000000 0.000000 0.000000 2.253658 0.000000
# 6 0.000000 0.000000 0.000000 0.000000 0.000000 0.062778
#
#
# Mechanical properties :
#
#
# Convention : Reuss Voigt Hill
#
# Bulk Modulus (GPa) = 34.78017 46.86569 40.82293
# Shear Modulus (GPa) = 2.02369 20.08241 11.05305
#
# Velocity S-wave (km/s) = 0.95948 3.02253 2.24235
# Velocity P-wave (km/s) = 4.12908 5.78796 5.02741
#
# Compressibility (1/GPa) = 0.02875201
#
# Stress axis : x y z
#
# Youngs Moduli (GPa) = 68.74786 53.53719 95.50292
#
# Poissons Ratio (x) = 0.05576 0.63417
# Poissons Ratio (y) = 0.07160 -0.02007
# Poissons Ratio (z) = 0.45651 -0.01125
#
# Static dielectric constant tensor:
#      x y z
#    x 1.806760 0.000000 0.000000 
#    y 0.000000 1.846120 0.000000 
#    z 0.000000 0.000000 1.819200 
# 
# From -- ./inp_files/14458.got.cif
#   From: 2010.05.17/outbox.cif.g08.bks.cpg/sg39_8_cif.got.tgz:14458.got - 2010.06.03 18:22:40.
