data_PCOD9360322
_publ_section_title
;
Structure prediction by ZEFSAII (Michael W. Deem and Ramdas Pophale) SiO2 
 PCOD9360322
Probable space group: A B M 2
;
_chemical_formula_sum "Si O2"
_cell_formula_units_Z 64
_cell_length_a 15.356999
_cell_length_b 18.118018
_cell_length_c 11.141658
_cell_angle_alpha 90.000000
_cell_angle_beta 90.000000
_cell_angle_gamma 90.000000
_cell_volume 3100.036920
_symmetry_space_group_name_H-M "A B M 2"
_symmetry_group_IT_number 39
_symmetry_cell_setting 'orthorhombic'
loop_
_space_group_symop_operation_xyz
x,y,z
-x,-y,z
-x,1/2+y,z
x,1/2-y,z
x,1/2+y,1/2+z
-x,1/2-y,1/2+z
-x,y,1/2+z
x,-y,1/2+z
loop_
_atom_site_type_symbol
_atom_site_label
_atom_site_fract_x
_atom_site_fract_y
_atom_site_fract_z
Si Si1 0.736329 0.669608 0.111810
Si Si2 0.536640 0.583655 0.799684
Si Si3 0.804445 0.878504 0.335942
Si Si4 0.873146 0.420486 0.473735
Si Si5 0.264189 0.539740 0.280925
Si Si6 0.460919 0.659967 0.557153
Si Si7 0.138353 0.419754 0.578272
Si Si8 0.999080 0.910626 0.780818
O O1 0.745253 0.750000 0.055760
O O2 0.746680 0.674087 0.255106
O O3 0.641701 0.640765 0.075820
O O4 0.817952 0.621371 0.072041
O O5 0.500000 0.500000 0.801073
O O6 0.640473 0.571481 0.793616
O O7 0.506804 0.625671 0.676772
O O8 0.513651 0.625518 0.926147
O O9 0.825369 0.866409 0.475297
O O10 0.902185 0.885226 0.282314
O O11 0.750919 0.955107 0.319405
O O12 0.803083 0.420270 0.367502
O O13 0.893503 0.503894 0.515541
O O14 0.956940 0.387404 0.408178
O O15 0.222797 0.552855 0.151386
O O16 0.469796 0.750000 0.556100
O O17 0.063224 0.390792 0.668165
O O18 0.000000 0.000000 0.777846
#
# Coordination Sequence:
#
# PCOD9360322 Si02
#       8
#     8   8   8   8   8   8   8   8
#     4  11  23  42  62  80 116 171 213 247 308 390
#     4  12  25  41  69 104 133 168 222 287 345 392
#     4  11  22  32  57  90 123 159 204 255 320 371
#     4  10  19  34  56  84 117 154 200 244 302 366
#     4  10  20  35  58  88 124 152 191 255 324 376
#     4  11  26  47  69  94 134 180 227 272 340 422
#     4  10  20  32  55  87 126 150 193 255 313 368
#     4  11  19  30  54  92 121 160 194 253 311 376
#
# _framework density 20.644915999999998
#
# number of rings (size 3 to 8) (size 9 to 14) (size 15 to 20)
#    0.000    1.250    6.250    1.500    3.500    3.000 
#    0.000    0.625    0.000    3.750    0.000    0.000 
#    0.000    0.000    0.000    0.000    0.000    0.000 
#
# Total GULP energy -178281.029093 kJ/mol
# GULP energy per Si atom -5571.282159 kJ/mol
# Density = 2.059793 g / cm^3
# Si number density = 20.644916 Si / 1000 Ang^3
#
#
#
# Elastic Constant Matrix: (Units=GPa)
#
#
# Indices 1 2 3 4 5 6 
#
# 1 72.9736 22.0988 39.0633 0.0000 0.0000 0.0000
# 2 22.0988 43.9717 39.1829 0.0000 0.0000 0.0000
# 3 39.0633 39.1829 143.3538 0.0000 0.0000 0.0000
# 4 0.0000 0.0000 0.0000 17.8337 0.0000 0.0000
# 5 0.0000 0.0000 0.0000 0.0000 25.5111 0.0000
# 6 0.0000 0.0000 0.0000 0.0000 0.0000 -0.0150
#
#
#
# Elastic Compliance Matrix: (Units=1/GPa)
#
#
# Indices 1 2 3 4 5 6 
#
# 1 0.017121 -0.005879 -0.003059 0.000000 0.000000 0.000000
# 2 -0.005879 0.032083 -0.007167 0.000000 0.000000 0.000000
# 3 -0.003059 -0.007167 0.009768 0.000000 0.000000 0.000000
# 4 0.000000 0.000000 0.000000 0.056074 0.000000 0.000000
# 5 0.000000 0.000000 0.000000 0.000000 0.039199 0.000000
# 6 0.000000 0.000000 0.000000 0.000000 0.000000-66.860724
#
#
# Mechanical properties :
#
#
# Convention : Reuss Voigt Hill
#
# Bulk Modulus (GPa) = 37.36526 51.22101 44.29314
# Shear Modulus (GPa) = -0.07500 19.32959 9.62729
#
# Velocity S-wave (km/s) = -0.19081 3.06320 2.16180
# Velocity P-wave (km/s) = 4.25321 6.11353 5.26617
#
# Compressibility (1/GPa) = 0.02676282
#
# Stress axis : x y z
#
# Youngs Moduli (GPa) = 58.40698 31.16882 102.37296
#
# Poissons Ratio (x) = 0.18325 0.31311
# Poissons Ratio (y) = 0.34339 0.73373
# Poissons Ratio (z) = 0.17864 0.22340
#
# Static dielectric constant tensor:
#      x y z
#    x 1.828790 0.000000 0.000000 
#    y 0.000000 1.740330 0.000000 
#    z 0.000000 0.000000 1.897730 
# 
# From -- ./inp_files/6675.got.cif
#   From: 2010.05.17/outbox.cif.g08.bks.cpg/sg39_4_cif.got.tgz:6675.got - 2010.06.03 18:22:40.
