data_PCOD9360542
_publ_section_title
;
Structure prediction by ZEFSAII (Michael W. Deem and Ramdas Pophale) SiO2 
 PCOD9360542
Probable space group: A B M 2
;
_chemical_formula_sum "Si O2"
_cell_formula_units_Z 64
_cell_length_a 15.462498
_cell_length_b 22.977682
_cell_length_c 8.237058
_cell_angle_alpha 90.000000
_cell_angle_beta 90.000000
_cell_angle_gamma 90.000000
_cell_volume 2926.563793
_symmetry_space_group_name_H-M "A B M 2"
_symmetry_group_IT_number 39
_symmetry_cell_setting 'orthorhombic'
loop_
_space_group_symop_operation_xyz
x,y,z
-x,-y,z
-x,1/2+y,z
x,1/2-y,z
x,1/2+y,1/2+z
-x,1/2-y,1/2+z
-x,y,1/2+z
x,-y,1/2+z
loop_
_atom_site_type_symbol
_atom_site_label
_atom_site_fract_x
_atom_site_fract_y
_atom_site_fract_z
Si Si1 0.916945 0.318237 0.616810
Si Si2 0.531654 0.367240 0.626405
Si Si3 0.876214 0.435610 0.199060
Si Si4 0.403981 0.564114 0.917680
Si Si5 0.814574 0.811164 0.801801
Si Si6 0.961993 0.399271 0.899685
Si Si7 0.628058 0.660630 0.834973
Si Si8 0.688427 0.539615 0.744984
O O1 0.933250 0.250000 0.657554
O O2 0.836941 0.319127 0.492002
O O3 0.908734 0.361737 0.768431
O O4 0.991975 0.349493 0.510512
O O5 0.588635 0.386424 0.780054
O O6 0.492374 0.422613 0.521661
O O7 0.445621 0.338815 0.699681
O O8 0.583190 0.326448 0.504762
O O9 0.845811 0.368117 0.211187
O O10 0.791433 0.472276 0.248557
O O11 0.961029 0.435007 0.311944
O O12 0.907379 0.441548 0.014642
O O13 0.378068 0.509194 0.805938
O O14 0.333791 0.559618 0.061226
O O15 0.856735 0.750000 0.750599
O O16 0.712895 0.807116 0.783224
O O17 0.665307 0.594914 0.854752
#
# Coordination Sequence:
#
# PCOD9360542 Si02
#       8
#     8   8   8   8   8   8   8   8
#     4   9  16  26  45  72  98 125 163 209 249 286
#     4   9  19  33  52  76  99 125 166 206 246 292
#     4   9  19  34  52  73  97 131 167 203 244 293
#     4  10  20  32  51  76 101 127 155 204 252 297
#     4   9  18  32  48  70 102 135 165 200 244 290
#     4   9  17  30  49  70  96 129 165 203 247 290
#     4   9  18  32  49  70  99 131 162 202 244 291
#     4  10  20  33  50  75 102 126 159 198 254 303
#
# _framework density 21.868649999999999
#
# number of rings (size 3 to 8) (size 9 to 14) (size 15 to 20)
#    0.000    2.750    0.000    1.125    0.000   13.000 
#    0.000    3.125    0.000    2.250    0.000    0.000 
#    0.000    0.000    0.000    0.000    0.000    0.000 
#
# Total GULP energy -178174.379492 kJ/mol
# GULP energy per Si atom -5567.949359 kJ/mol
# Density = 2.181888 g / cm^3
# Si number density = 21.868650 Si / 1000 Ang^3
#
#
#
# Elastic Constant Matrix: (Units=GPa)
#
#
# Indices 1 2 3 4 5 6 
#
# 1 81.2378 8.4460 29.2866 0.0000 0.0000 0.0000
# 2 8.4460 38.6821 5.4532 0.0000 0.0000 0.0000
# 3 29.2866 5.4532 89.3752 0.0000 0.0000 0.0000
# 4 0.0000 0.0000 0.0000 -10.5859 0.0000 0.0000
# 5 0.0000 0.0000 0.0000 0.0000 22.0888 0.0000
# 6 0.0000 0.0000 0.0000 0.0000 0.0000 4.1672
#
#
#
# Elastic Compliance Matrix: (Units=1/GPa)
#
#
# Indices 1 2 3 4 5 6 
#
# 1 0.014187 -0.002464 -0.004499 0.000000 0.000000 0.000000
# 2 -0.002464 0.026504 -0.000810 0.000000 0.000000 0.000000
# 3 -0.004499 -0.000810 0.012712 0.000000 0.000000 0.000000
# 4 0.000000 0.000000 0.000000 -0.094465 0.000000 0.000000
# 5 0.000000 0.000000 0.000000 0.000000 0.045272 0.000000
# 6 0.000000 0.000000 0.000000 0.000000 0.000000 0.239967
#
#
# Mechanical properties :
#
#
# Convention : Reuss Voigt Hill
#
# Bulk Modulus (GPa) = 26.41348 32.85186 29.63267
# Shear Modulus (GPa) = 18.35928 14.20797 16.28363
#
# Velocity S-wave (km/s) = 2.90060 2.55168 2.73172
# Velocity P-wave (km/s) = 4.82933 4.87200 4.85071
#
# Compressibility (1/GPa) = 0.03785945
#
# Stress axis : x y z
#
# Youngs Moduli (GPa) = 70.48482 37.73045 78.66388
#
# Poissons Ratio (x) = 0.09295 0.35388
# Poissons Ratio (y) = 0.17364 0.06371
# Poissons Ratio (z) = 0.31709 0.03056
#
# Static dielectric constant tensor:
#      x y z
#    x 1.837530 0.000000 0.000000 
#    y 0.000000 1.947950 0.000000 
#    z 0.000000 0.000000 1.810480 
# 
# From -- ./inp_files/3575.got.cif
#   From: 2010.05.17/outbox.cif.g08.bks.cpg/sg39_2_cif.got.tgz:3575.got - 2010.06.03 18:22:40.
