data_PCOD9360913
_publ_section_title
;
Structure prediction by ZEFSAII (Michael W. Deem and Ramdas Pophale) SiO2 
 PCOD9360913
Probable space group: A B M 2
;
_chemical_formula_sum "Si O2"
_cell_formula_units_Z 60
_cell_length_a 22.779923
_cell_length_b 13.938401
_cell_length_c 9.539967
_cell_angle_alpha 90.000000
_cell_angle_beta 90.000000
_cell_angle_gamma 90.000000
_cell_volume 3029.089315
_symmetry_space_group_name_H-M "A B M 2"
_symmetry_group_IT_number 39
_symmetry_cell_setting 'orthorhombic'
loop_
_space_group_symop_operation_xyz
x,y,z
-x,-y,z
-x,1/2+y,z
x,1/2-y,z
x,1/2+y,1/2+z
-x,1/2-y,1/2+z
-x,y,1/2+z
x,-y,1/2+z
loop_
_atom_site_type_symbol
_atom_site_label
_atom_site_fract_x
_atom_site_fract_y
_atom_site_fract_z
Si Si1 0.921199 0.549607 0.464310
Si Si2 0.568003 0.138151 0.186423
Si Si3 0.151539 0.859802 0.415209
Si Si4 0.265710 0.041281 0.031020
Si Si5 0.000000 0.500000 0.714485
Si Si6 0.812680 0.641784 0.589623
Si Si7 0.541595 0.137352 0.868687
Si Si8 0.653958 0.017842 0.772423
O O1 0.895401 0.440605 0.459422
O O2 0.960166 0.559143 0.604816
O O3 0.865556 0.618251 0.482437
O O4 0.959079 0.559534 0.322653
O O5 0.582578 0.250000 0.208149
O O6 0.519659 0.107169 0.299741
O O7 0.625041 0.072918 0.194537
O O8 0.538623 0.127330 0.035214
O O9 0.134730 0.750000 0.446653
O O10 0.213059 0.888038 0.488581
O O11 0.162736 0.867949 0.248072
O O12 0.309354 0.022411 0.902560
O O13 0.235584 0.939462 0.067572
O O14 0.302732 0.071740 0.166223
O O15 0.790912 0.750000 0.571461
O O16 0.548405 0.250000 0.834097
O O17 0.599060 0.082536 0.816840
#
# Coordination Sequence:
#
# PCOD9360913 Si02
#       8
#     8   8   8   8   4   8   8   8
#     4  10  20  39  60  91 122 165 191 244 289 352
#     4  10  23  41  61  85 117 156 192 236 297 363
#     4  10  21  40  63  87 120 160 201 243 294 352
#     4  11  24  39  60  90 119 152 199 250 295 347
#     4  10  20  36  62  90 132 154 192 246 300 324
#     4  10  21  40  64  86 119 163 201 239 295 355
#     4  10  23  41  60  85 118 154 193 238 296 361
#     4  12  23  39  61  87 117 154 196 246 296 351
#
# _framework density 19.807933999999999
#
# number of rings (size 3 to 8) (size 9 to 14) (size 15 to 20)
#    0.000    1.600    4.000    0.400    1.867    3.200 
#    0.000    6.000    0.000    0.000    0.000    0.000 
#    0.000    0.000    0.000    0.000    0.000    0.000 
#
# Total GULP energy -167530.625648 kJ/mol
# GULP energy per Si atom -5584.354188 kJ/mol
# Density = 1.976285 g / cm^3
# Si number density = 19.807934 Si / 1000 Ang^3
#
#
#
# Elastic Constant Matrix: (Units=GPa)
#
#
# Indices 1 2 3 4 5 6 
#
# 1 59.9620 8.7822 5.3994 0.0000 0.0000 0.0000
# 2 8.7822 73.2743 8.3221 0.0000 0.0000 0.0000
# 3 5.3994 8.3221 55.8438 0.0000 0.0000 0.0000
# 4 0.0000 0.0000 0.0000 18.7223 0.0000 0.0000
# 5 0.0000 0.0000 0.0000 0.0000 47.6546 0.0000
# 6 0.0000 0.0000 0.0000 0.0000 0.0000 9.8375
#
#
#
# Elastic Compliance Matrix: (Units=1/GPa)
#
#
# Indices 1 2 3 4 5 6 
#
# 1 0.017078 -0.001891 -0.001369 0.000000 0.000000 0.000000
# 2 -0.001891 0.014092 -0.001917 0.000000 0.000000 0.000000
# 3 -0.001369 -0.001917 0.018325 0.000000 0.000000 0.000000
# 4 0.000000 0.000000 0.000000 0.053412 0.000000 0.000000
# 5 0.000000 0.000000 0.000000 0.000000 0.020984 0.000000
# 6 0.000000 0.000000 0.000000 0.000000 0.000000 0.101652
#
#
# Mechanical properties :
#
#
# Convention : Reuss Voigt Hill
#
# Bulk Modulus (GPa) = 25.54999 26.00971 25.77985
# Shear Modulus (GPa) = 20.08477 26.34797 23.21637
#
# Velocity S-wave (km/s) = 3.18775 3.65111 3.42727
# Velocity P-wave (km/s) = 5.14547 5.56180 5.35768
#
# Compressibility (1/GPa) = 0.03913896
#
# Stress axis : x y z
#
# Youngs Moduli (GPa) = 58.55644 70.96346 54.56970
#
# Poissons Ratio (x) = 0.13421 0.07472
# Poissons Ratio (y) = 0.11075 0.10462
# Poissons Ratio (z) = 0.08018 0.13605
#
# Static dielectric constant tensor:
#      x y z
#    x 1.679680 0.000000 0.000000 
#    y 0.000000 1.681680 0.000000 
#    z 0.000000 0.000000 1.695920 
# 
# From -- ./inp_files/4072.got.cif
#   From: 2010.05.17/outbox.cif.g08.bks.cpg/sg39_3_cif.got.tgz:4072.got - 2010.06.03 18:22:40.
