data_PCOD9360857
_publ_section_title
;
Structure prediction by ZEFSAII (Michael W. Deem and Ramdas Pophale) SiO2 
 PCOD9360857
Probable space group: A B M 2
;
_chemical_formula_sum "Si O2"
_cell_formula_units_Z 64
_cell_length_a 14.298123
_cell_length_b 8.591273
_cell_length_c 26.692004
_cell_angle_alpha 90.000000
_cell_angle_beta 90.000000
_cell_angle_gamma 90.000000
_cell_volume 3278.821163
_symmetry_space_group_name_H-M "A B M 2"
_symmetry_group_IT_number 39
_symmetry_cell_setting 'orthorhombic'
loop_
_space_group_symop_operation_xyz
x,y,z
-x,-y,z
-x,1/2+y,z
x,1/2-y,z
x,1/2+y,1/2+z
-x,1/2-y,1/2+z
-x,y,1/2+z
x,-y,1/2+z
loop_
_atom_site_type_symbol
_atom_site_label
_atom_site_fract_x
_atom_site_fract_y
_atom_site_fract_z
Si Si1 0.285158 0.063674 0.720780
Si Si2 0.605080 0.563351 0.316431
Si Si3 0.105271 0.437067 0.956390
Si Si4 0.894780 0.436993 0.677551
Si Si5 0.894220 0.062443 0.567210
Si Si6 0.394131 0.437122 0.619880
Si Si7 0.287124 0.936413 0.917339
Si Si8 0.605922 0.564091 0.014132
O O1 0.284775 0.250000 0.722707
O O2 0.338575 0.015700 0.669630
O O3 0.339551 0.998021 0.768314
O O4 0.179725 0.001350 0.716647
O O5 0.500000 0.500000 0.316424
O O6 0.602376 0.750000 0.314855
O O7 0.658195 0.515334 0.367284
O O8 0.103526 0.250000 0.954264
O O9 0.180662 0.504130 0.918215
O O10 0.000000 0.500000 0.949844
O O11 0.141232 0.485596 0.012437
O O12 0.897086 0.250000 0.678997
O O13 0.859027 0.488741 0.621754
O O14 0.000000 0.500000 0.684231
O O15 0.892904 0.250000 0.567451
O O16 0.000000 0.000000 0.566974
O O17 0.500000 0.500000 0.624305
O O18 0.395750 0.250000 0.616467
O O19 0.355083 0.504361 0.567559
O O20 0.288346 0.750000 0.920565
O O21 0.338698 0.005431 0.965901
O O22 0.500000 0.500000 0.010758
O O23 0.605135 0.750000 0.014991
#
# Coordination Sequence:
#
# PCOD9360857 Si02
#       8
#     8   8   8   8   8   8   8   8
#     4  11  24  40  62  91 122 159 205 251 306 365
#     4  11  25  45  69  93 120 156 202 256 312 367
#     4  10  20  36  58  88 124 165 208 251 304 359
#     4  10  20  36  58  86 124 164 207 253 302 360
#     4   8  16  30  50  79 114 156 199 240 288 345
#     4  10  21  37  57  86 121 158 196 243 302 366
#     4  11  24  41  62  90 122 159 205 253 306 365
#     4  11  22  37  59  87 121 159 198 245 304 367
#
# _framework density 19.519209
#
# number of rings (size 3 to 8) (size 9 to 14) (size 15 to 20)
#    0.000    1.750    0.000    4.875    1.750    7.000 
#    0.000    0.625    0.000    3.000    0.000    0.000 
#    0.000    0.000    0.000    0.000    0.000    0.000 
#
# Total GULP energy -178759.981875 kJ/mol
# GULP energy per Si atom -5586.249434 kJ/mol
# Density = 1.947478 g / cm^3
# Si number density = 19.519209 Si / 1000 Ang^3
#
#
#
# Elastic Constant Matrix: (Units=GPa)
#
#
# Indices 1 2 3 4 5 6 
#
# 1 138.2993 39.6433 96.1681 0.0000 0.0000 0.0000
# 2 39.6433 64.7362 53.8399 0.0000 0.0000 0.0000
# 3 96.1681 53.8399 154.5445 0.0000 0.0000 0.0000
# 4 0.0000 0.0000 0.0000 20.0382 0.0000 0.0000
# 5 0.0000 0.0000 0.0000 0.0000 40.4488 0.0000
# 6 0.0000 0.0000 0.0000 0.0000 0.0000 31.3991
#
#
#
# Elastic Compliance Matrix: (Units=1/GPa)
#
#
# Indices 1 2 3 4 5 6 
#
# 1 0.012880 -0.001720 -0.007416 0.000000 0.000000 0.000000
# 2 -0.001720 0.021979 -0.006586 0.000000 0.000000 0.000000
# 3 -0.007416 -0.006586 0.013380 0.000000 0.000000 0.000000
# 4 0.000000 0.000000 0.000000 0.049905 0.000000 0.000000
# 5 0.000000 0.000000 0.000000 0.000000 0.024723 0.000000
# 6 0.000000 0.000000 0.000000 0.000000 0.000000 0.031848
#
#
# Mechanical properties :
#
#
# Convention : Reuss Voigt Hill
#
# Bulk Modulus (GPa) = 59.54520 81.87583 70.71052
# Shear Modulus (GPa) = 26.07466 29.57246 27.82356
#
# Velocity S-wave (km/s) = 3.65889 3.89658 3.77960
# Velocity P-wave (km/s) = 6.95860 7.89188 7.43989
#
# Compressibility (1/GPa) = 0.01679396
#
# Stress axis : x y z
#
# Youngs Moduli (GPa) = 77.63696 45.49900 74.73935
#
# Poissons Ratio (x) = 0.07826 0.55425
# Poissons Ratio (y) = 0.13355 0.49227
# Poissons Ratio (z) = 0.57574 0.29968
#
# Static dielectric constant tensor:
#      x y z
#    x 1.675490 0.000000 0.000000 
#    y 0.000000 1.676230 0.000000 
#    z 0.000000 0.000000 1.692090 
# 
# From -- ./inp_files/16152.got.cif
#   From: 2010.05.17/outbox.cif.g08.bks.cpg/sg39_9_cif.got.tgz:16152.got - 2010.06.03 18:22:40.
