data_PCOD9360619
_publ_section_title
;
Structure prediction by ZEFSAII (Michael W. Deem and Ramdas Pophale) SiO2 
 PCOD9360619
Probable space group: A B M 2
;
_chemical_formula_sum "Si O2"
_cell_formula_units_Z 64
_cell_length_a 21.471745
_cell_length_b 9.034253
_cell_length_c 14.741767
_cell_angle_alpha 90.000000
_cell_angle_beta 90.000000
_cell_angle_gamma 90.000000
_cell_volume 2859.625309
_symmetry_space_group_name_H-M "A B M 2"
_symmetry_group_IT_number 39
_symmetry_cell_setting 'orthorhombic'
loop_
_space_group_symop_operation_xyz
x,y,z
-x,-y,z
-x,1/2+y,z
x,1/2-y,z
x,1/2+y,1/2+z
-x,1/2-y,1/2+z
-x,y,1/2+z
x,-y,1/2+z
loop_
_atom_site_type_symbol
_atom_site_label
_atom_site_fract_x
_atom_site_fract_y
_atom_site_fract_z
Si Si1 0.687181 0.085344 0.868160
Si Si2 0.063293 0.419386 0.150713
Si Si3 0.438593 0.072791 0.611143
Si Si4 0.190131 0.580531 0.150373
Si Si5 0.312819 0.914655 0.655099
Si Si6 0.809870 0.919469 0.872885
Si Si7 0.561407 0.427209 0.412117
Si Si8 0.936707 0.580614 0.372544
O O1 0.674824 0.250000 0.907301
O O2 0.698846 0.103473 0.761630
O O3 0.749628 0.010290 0.904825
O O4 0.627270 0.980434 0.874120
O O5 0.064558 0.250000 0.119940
O O6 0.125539 0.504961 0.123016
O O7 0.063137 0.418047 0.261629
O O8 0.000000 0.500000 0.122350
O O9 0.444181 0.250000 0.609623
O O10 0.500000 0.000000 0.655922
O O11 0.372730 0.019566 0.649140
O O12 0.437383 1.000000 0.511630
O O13 0.193439 0.750000 0.120204
O O14 0.250372 0.489709 0.118434
O O15 0.190789 0.581845 0.261629
O O16 0.325177 0.750000 0.615958
O O17 0.806562 0.750000 0.903055
O O18 0.874462 0.995040 0.900241
O O19 0.500000 0.500000 0.367338
O O20 0.555819 0.250000 0.413637
O O21 0.935442 0.750000 0.403317
O O22 0.000000 0.500000 0.400907
#
# Coordination Sequence:
#
# PCOD9360619 Si02
#       8
#     8   8   8   8   8   8   8   8
#     4  10  20  34  52  75 103 134 168 206 249 297
#     4   9  15  22  33  51  78 115 157 198 240 288
#     4  11  22  38  58  78 102 131 165 204 248 297
#     4   9  16  26  40  60  88 122 159 199 244 292
#     4  10  20  34  52  75 103 134 168 206 249 297
#     4   9  16  26  40  60  88 122 159 199 244 292
#     4  11  22  38  58  78 102 131 165 204 248 297
#     4   9  15  22  33  51  78 115 157 198 240 288
#
# _framework density 22.380554
#
# number of rings (size 3 to 8) (size 9 to 14) (size 15 to 20)
#    0.000    2.250    0.000    5.250    0.000    8.000 
#    0.000    0.000    0.000    0.000    0.000    0.000 
#    0.000    1.000    0.000   10.000    0.000   15.500 
#
# Total GULP energy -178808.685802 kJ/mol
# GULP energy per Si atom -5587.771431 kJ/mol
# Density = 2.232961 g / cm^3
# Si number density = 22.380554 Si / 1000 Ang^3
#
#
#
# Elastic Constant Matrix: (Units=GPa)
#
#
# Indices 1 2 3 4 5 6 
#
# 1 225.5520 122.9650 6.7617 0.0000 0.0000 0.0000
# 2 122.9650 246.2823 11.4327 0.0000 0.0000 0.0000
# 3 6.7617 11.4327 47.3958 0.0000 0.0000 0.0000
# 4 0.0000 0.0000 0.0000 9.4679 0.0000 0.0000
# 5 0.0000 0.0000 0.0000 0.0000 12.8924 0.0000
# 6 0.0000 0.0000 0.0000 0.0000 0.0000 28.1770
#
#
#
# Elastic Compliance Matrix: (Units=1/GPa)
#
#
# Indices 1 2 3 4 5 6 
#
# 1 0.006093 -0.003036 -0.000137 0.000000 0.000000 0.000000
# 2 -0.003036 0.005619 -0.000922 0.000000 0.000000 0.000000
# 3 -0.000137 -0.000922 0.021341 0.000000 0.000000 0.000000
# 4 0.000000 0.000000 0.000000 0.105620 0.000000 0.000000
# 5 0.000000 0.000000 0.000000 0.000000 0.077565 0.000000
# 6 0.000000 0.000000 0.000000 0.000000 0.000000 0.035490
#
#
# Mechanical properties :
#
#
# Convention : Reuss Voigt Hill
#
# Bulk Modulus (GPa) = 40.22092 89.06097 64.64094
# Shear Modulus (GPa) = 18.64249 35.31219 26.97734
#
# Velocity S-wave (km/s) = 2.88927 3.97647 3.47564
# Velocity P-wave (km/s) = 5.39823 7.80791 6.71209
#
# Compressibility (1/GPa) = 0.02486268
#
# Stress axis : x y z
#
# Youngs Moduli (GPa) = 164.13381 177.97351 46.85832
#
# Poissons Ratio (x) = 0.54025 0.00642
# Poissons Ratio (y) = 0.49824 0.04322
# Poissons Ratio (z) = 0.02248 0.16414
#
# Static dielectric constant tensor:
#      x y z
#    x 1.815710 0.000000 0.000000 
#    y 0.000000 1.787500 0.000000 
#    z 0.000000 0.000000 1.958940 
# 
# From -- ./inp_files/4004.got.cif
#   From: 2010.05.17/outbox.cif.g08.bks.cpg/sg39_3_cif.got.tgz:4004.got - 2010.06.03 18:22:40.
