data_PCOD9360731
_publ_section_title
;
Structure prediction by ZEFSAII (Michael W. Deem and Ramdas Pophale) SiO2 
 PCOD9360731
Probable space group: A B M 2
;
_chemical_formula_sum "Si O2"
_cell_formula_units_Z 64
_cell_length_a 7.851862
_cell_length_b 16.954756
_cell_length_c 20.404546
_cell_angle_alpha 90.000000
_cell_angle_beta 90.000000
_cell_angle_gamma 90.000000
_cell_volume 2716.383841
_symmetry_space_group_name_H-M "A B M 2"
_symmetry_group_IT_number 39
_symmetry_cell_setting 'orthorhombic'
loop_
_space_group_symop_operation_xyz
x,y,z
-x,-y,z
-x,1/2+y,z
x,1/2-y,z
x,1/2+y,1/2+z
-x,1/2-y,1/2+z
-x,y,1/2+z
x,-y,1/2+z
loop_
_atom_site_type_symbol
_atom_site_label
_atom_site_fract_x
_atom_site_fract_y
_atom_site_fract_z
Si Si1 0.460786 0.086527 0.565400
Si Si2 0.572769 0.911069 0.929969
Si Si3 0.236335 0.342702 0.821427
Si Si4 0.082367 0.085902 0.498714
Si Si5 0.031609 0.843848 0.630330
Si Si6 0.088714 0.914902 0.758080
Si Si7 0.243175 0.158677 0.372777
Si Si8 0.342647 0.842438 0.188319
O O1 0.589247 0.106217 0.506810
O O2 0.274508 0.082680 0.530118
O O3 0.466600 0.140536 0.628616
O O4 0.500000 0.000000 0.590465
O O5 0.734673 0.895326 0.885225
O O6 0.430716 0.852060 0.902413
O O7 0.500000 0.000000 0.924975
O O8 0.260548 0.250000 0.836141
O O9 0.052013 0.355134 0.789049
O O10 0.358442 0.373871 0.762032
O O11 0.972204 0.128035 0.555543
O O12 0.114233 0.132482 0.431019
O O13 0.000000 0.000000 0.487660
O O14 0.056154 0.750000 0.634188
O O15 0.141804 0.889227 0.684996
O O16 0.841607 0.864692 0.658081
O O17 0.232279 0.901772 0.812144
O O18 0.000000 0.000000 0.757445
O O19 0.218496 0.250000 0.354571
O O20 0.337806 0.750000 0.198927
#
# Coordination Sequence:
#
# PCOD9360731 Si02
#       8
#     8   8   8   8   8   8   8   8
#     4   9  19  34  53  77 103 132 171 216 261 310
#     4  10  21  36  54  79 108 139 178 223 271 323
#     4  10  20  36  56  79 106 141 180 219 263 319
#     4  10  20  35  56  79 106 141 180 222 269 320
#     4   9  17  33  55  80 106 137 180 224 263 316
#     4  11  21  35  56  81 110 144 181 225 272 323
#     4  11  22  36  55  81 110 144 182 225 274 325
#     4   8  16  31  53  76 100 132 173 212 253 308
#
# _framework density 23.560735000000001
#
# number of rings (size 3 to 8) (size 9 to 14) (size 15 to 20)
#    0.000    2.250    0.000    4.125    0.000    6.000 
#    0.000    2.500    0.000    3.000    0.000    0.000 
#    0.000    0.000    0.000    0.000    0.000    0.000 
#
# Total GULP energy -178642.208696 kJ/mol
# GULP energy per Si atom -5582.569022 kJ/mol
# Density = 2.350711 g / cm^3
# Si number density = 23.560735 Si / 1000 Ang^3
#
#
#
# Elastic Constant Matrix: (Units=GPa)
#
#
# Indices 1 2 3 4 5 6 
#
# 1 47.6792 4.4470 17.5114 0.0000 0.0000 0.0000
# 2 4.4470 62.0546 1.3817 0.0000 0.0000 0.0000
# 3 17.5114 1.3817 45.7658 0.0000 0.0000 0.0000
# 4 0.0000 0.0000 0.0000 19.8058 0.0000 0.0000
# 5 0.0000 0.0000 0.0000 0.0000 19.6358 0.0000
# 6 0.0000 0.0000 0.0000 0.0000 0.0000 23.0197
#
#
#
# Elastic Compliance Matrix: (Units=1/GPa)
#
#
# Indices 1 2 3 4 5 6 
#
# 1 0.024551 -0.001551 -0.009347 0.000000 0.000000 0.000000
# 2 -0.001551 0.016224 0.000104 0.000000 0.000000 0.000000
# 3 -0.009347 0.000104 0.025424 0.000000 0.000000 0.000000
# 4 0.000000 0.000000 0.000000 0.050490 0.000000 0.000000
# 5 0.000000 0.000000 0.000000 0.000000 0.050927 0.000000
# 6 0.000000 0.000000 0.000000 0.000000 0.000000 0.043441
#
#
# Mechanical properties :
#
#
# Convention : Reuss Voigt Hill
#
# Bulk Modulus (GPa) = 22.41688 22.46441 22.44065
# Shear Modulus (GPa) = 20.20067 21.30289 20.75178
#
# Velocity S-wave (km/s) = 2.93129 3.01020 2.97101
# Velocity P-wave (km/s) = 4.58168 4.65157 4.61676
#
# Compressibility (1/GPa) = 0.04460924
#
# Stress axis : x y z
#
# Youngs Moduli (GPa) = 40.73124 61.63819 39.33331
#
# Poissons Ratio (x) = 0.09562 0.36766
# Poissons Ratio (y) = 0.06319 -0.00408
# Poissons Ratio (z) = 0.38072 -0.00640
#
# Static dielectric constant tensor:
#      x y z
#    x 2.044210 0.000000 0.000000 
#    y 0.000000 1.825550 0.000000 
#    z 0.000000 0.000000 1.977700 
# 
# From -- ./inp_files/14227.got.cif
#   From: 2010.05.17/outbox.cif.g08.bks.cpg/sg39_8_cif.got.tgz:14227.got - 2010.06.03 18:22:40.
