data_PCOD9360285
_publ_section_title
;
Structure prediction by ZEFSAII (Michael W. Deem and Ramdas Pophale) SiO2 
 PCOD9360285
Probable space group: A B M 2
;
_chemical_formula_sum "Si O2"
_cell_formula_units_Z 64
_cell_length_a 14.605199
_cell_length_b 8.654074
_cell_length_c 32.044200
_cell_angle_alpha 90.000000
_cell_angle_beta 90.000000
_cell_angle_gamma 90.000000
_cell_volume 4050.209769
_symmetry_space_group_name_H-M "A B M 2"
_symmetry_group_IT_number 39
_symmetry_cell_setting 'orthorhombic'
loop_
_space_group_symop_operation_xyz
x,y,z
-x,-y,z
-x,1/2+y,z
x,1/2-y,z
x,1/2+y,1/2+z
-x,1/2-y,1/2+z
-x,y,1/2+z
x,-y,1/2+z
loop_
_atom_site_type_symbol
_atom_site_label
_atom_site_fract_x
_atom_site_fract_y
_atom_site_fract_z
Si Si1 0.288881 0.063624 0.078860
Si Si2 0.603201 0.934678 0.500691
Si Si3 0.098781 0.065221 0.710470
Si Si4 0.097891 0.064157 0.116860
Si Si5 0.396658 0.935364 0.908154
Si Si6 0.282896 0.936022 0.743913
Si Si7 0.602113 0.436251 0.661792
Si Si8 0.603788 0.934570 0.821448
O O1 0.293505 0.250000 0.076826
O O2 0.183602 0.020992 0.087946
O O3 0.347627 0.013408 0.119328
O O4 0.332827 0.996081 0.037303
O O5 0.596848 0.750000 0.502903
O O6 0.640218 0.974956 0.454218
O O7 0.500000 0.000000 0.505402
O O8 0.096753 0.250000 0.709696
O O9 0.114074 0.002224 0.663331
O O10 0.181550 0.003538 0.738462
O O11 0.000000 0.000000 0.723775
O O12 0.094141 0.250000 0.120098
O O13 0.000000 0.000000 0.102438
O O14 0.397896 0.750000 0.903607
O O15 0.500000 0.000000 0.909409
O O16 0.357031 0.009723 0.866239
O O17 0.279290 0.750000 0.745452
O O18 0.339838 0.982184 0.702422
O O19 0.335398 0.000438 0.783992
O O20 0.500000 0.500000 0.663882
O O21 0.598835 0.250000 0.661368
O O22 0.599514 0.750000 0.820239
O O23 0.500000 0.000000 0.817460
#
# Coordination Sequence:
#
# PCOD9360285 Si02
#       8
#     8   8   8   8   8   8   8   8
#     4  10  20  34  49  69  98 132 167 203 246 294
#     4  10  20  32  49  73 100 131 169 206 247 296
#     4  11  21  34  53  75  98 128 166 209 254 299
#     4  10  19  34  52  72  97 127 165 209 254 297
#     4   9  17  31  49  70  96 128 164 206 251 293
#     4  11  21  36  52  70 100 134 169 209 250 294
#     4  10  21  34  46  64  95 133 169 201 235 284
#     4  11  21  33  50  75 102 133 171 207 249 299
#
# _framework density 15.80165
#
# number of rings (size 3 to 8) (size 9 to 14) (size 15 to 20)
#    0.000    1.750    1.250    6.000    0.000    6.000 
#    0.000    0.000    0.000    0.000    0.000    0.875 
#    0.000    4.000    0.000    0.000    0.000    0.000 
#
# Total GULP energy -178590.128678 kJ/mol
# GULP energy per Si atom -5580.941521 kJ/mol
# Density = 1.576568 g / cm^3
# Si number density = 15.801650 Si / 1000 Ang^3
#
#
#
# Elastic Constant Matrix: (Units=GPa)
#
#
# Indices 1 2 3 4 5 6 
#
# 1 119.5197 44.9670 75.6317 0.0000 0.0000 0.0000
# 2 44.9670 79.7777 50.3601 0.0000 0.0000 0.0000
# 3 75.6317 50.3601 146.2774 0.0000 0.0000 0.0000
# 4 0.0000 0.0000 0.0000 -4.7807 0.0000 0.0000
# 5 0.0000 0.0000 0.0000 0.0000 6.9791 0.0000
# 6 0.0000 0.0000 0.0000 0.0000 0.0000 26.6391
#
#
#
# Elastic Compliance Matrix: (Units=1/GPa)
#
#
# Indices 1 2 3 4 5 6 
#
# 1 0.013391 -0.004060 -0.005526 0.000000 0.000000 0.000000
# 2 -0.004060 0.017246 -0.003838 0.000000 0.000000 0.000000
# 3 -0.005526 -0.003838 0.011015 0.000000 0.000000 0.000000
# 4 0.000000 0.000000 0.000000 -0.209174 0.000000 0.000000
# 5 0.000000 0.000000 0.000000 0.000000 0.143286 0.000000
# 6 0.000000 0.000000 0.000000 0.000000 0.000000 0.037539
#
#
# Mechanical properties :
#
#
# Convention : Reuss Voigt Hill
#
# Bulk Modulus (GPa) = 67.54979 76.38804 71.96891
# Shear Modulus (GPa) = 110.89874 17.40855 64.15365
#
# Velocity S-wave (km/s) = 8.38654 3.32278 6.37867
# Velocity P-wave (km/s) = 11.68846 7.94782 9.99470
#
# Compressibility (1/GPa) = 0.01480390
#
# Stress axis : x y z
#
# Youngs Moduli (GPa) = 74.67660 57.98427 90.78449
#
# Poissons Ratio (x) = 0.23539 0.50169
# Poissons Ratio (y) = 0.30315 0.34848
# Poissons Ratio (z) = 0.41267 0.22257
#
# Static dielectric constant tensor:
#      x y z
#    x 1.504900 0.000000 0.000000 
#    y 0.000000 1.534230 0.000000 
#    z 0.000000 0.000000 1.537390 
# 
# From -- ./inp_files/18005.got.cif
#   From: 2010.05.17/outbox.cif.g08.bks.cpg/sg39_10_cif.got.tgz:18005.got - 2010.06.03 18:22:40.
