data_PCOD9360751
_publ_section_title
;
Structure prediction by ZEFSAII (Michael W. Deem and Ramdas Pophale) SiO2 
 PCOD9360751
Probable space group: A B M 2
;
_chemical_formula_sum "Si O2"
_cell_formula_units_Z 60
_cell_length_a 20.185502
_cell_length_b 25.291658
_cell_length_c 5.165460
_cell_angle_alpha 90.000000
_cell_angle_beta 90.000000
_cell_angle_gamma 90.000000
_cell_volume 2637.095501
_symmetry_space_group_name_H-M "A B M 2"
_symmetry_group_IT_number 39
_symmetry_cell_setting 'orthorhombic'
loop_
_space_group_symop_operation_xyz
x,y,z
-x,-y,z
-x,1/2+y,z
x,1/2-y,z
x,1/2+y,1/2+z
-x,1/2-y,1/2+z
-x,y,1/2+z
x,-y,1/2+z
loop_
_atom_site_type_symbol
_atom_site_label
_atom_site_fract_x
_atom_site_fract_y
_atom_site_fract_z
Si Si1 0.271813 0.873738 0.696820
Si Si2 0.802060 0.692486 0.837351
Si Si3 0.462905 0.186213 0.923922
Si Si4 0.044674 0.133092 0.305546
Si Si5 0.737208 0.467900 0.348690
Si Si6 0.955479 0.750000 0.372556
Si Si7 0.839308 0.587856 0.578029
Si Si8 0.341119 0.190823 0.568668
O O1 0.227454 0.823390 0.614666
O O2 0.284413 0.909714 0.444820
O O3 0.335157 0.852314 0.845160
O O4 0.223709 0.906679 0.885813
O O5 0.834257 0.750000 0.829090
O O6 0.843557 0.642537 0.740991
O O7 0.733929 0.694474 0.673389
O O8 0.466885 0.250000 0.940161
O O9 0.484493 0.167316 0.206434
O O10 0.391470 0.176198 0.796432
O O11 0.097227 0.089001 0.394413
O O12 0.013329 0.129339 0.021483
O O13 0.076523 0.192471 0.325661
O O14 0.714922 0.504025 0.587597
O O15 0.815890 0.457305 0.279557
O O16 0.014620 0.750000 0.160265
O O17 0.360115 0.250000 0.473454
#
# Coordination Sequence:
#
# PCOD9360751 Si02
#       8
#     8   8   8   8   8   4   8   8
#     4  10  20  35  56  85 113 147 188 229 285 349
#     4   9  19  32  50  81 116 153 187 227 277 331
#     4   9  18  30  46  72 106 157 210 238 265 312
#     4  10  22  36  56  78 108 144 180 224 267 326
#     4  11  22  40  63  84 108 139 176 234 295 347
#     4   8  16  34  48  72 102 138 178 208 254 302
#     4  10  22  37  58  83 109 143 188 225 286 345
#     4   9  18  32  51  77 122 163 194 238 278 324
#
# _framework density 22.752303999999999
#
# number of rings (size 3 to 8) (size 9 to 14) (size 15 to 20)
#    0.000    2.400    1.333    0.400    6.533    0.533 
#    0.000    0.000    0.000    2.400    0.000    0.000 
#    0.000    3.200    0.000    0.000    0.000    0.000 
#
# Total GULP energy -167321.481114 kJ/mol
# GULP energy per Si atom -5577.382704 kJ/mol
# Density = 2.270052 g / cm^3
# Si number density = 22.752304 Si / 1000 Ang^3
#
#
#
# Elastic Constant Matrix: (Units=GPa)
#
#
# Indices 1 2 3 4 5 6 
#
# 1 59.5325 2.0231 18.7450 0.0000 0.0000 0.0000
# 2 2.0231 28.4599 23.8606 0.0000 0.0000 0.0000
# 3 18.7450 23.8606 111.7725 0.0000 0.0000 0.0000
# 4 0.0000 0.0000 0.0000 37.1708 0.0000 0.0000
# 5 0.0000 0.0000 0.0000 0.0000 30.6812 0.0000
# 6 0.0000 0.0000 0.0000 0.0000 0.0000 16.3822
#
#
#
# Elastic Compliance Matrix: (Units=1/GPa)
#
#
# Indices 1 2 3 4 5 6 
#
# 1 0.017787 0.001506 -0.003304 0.000000 0.000000 0.000000
# 2 0.001506 0.042924 -0.009416 0.000000 0.000000 0.000000
# 3 -0.003304 -0.009416 0.011511 0.000000 0.000000 0.000000
# 4 0.000000 0.000000 0.000000 0.026903 0.000000 0.000000
# 5 0.000000 0.000000 0.000000 0.000000 0.032593 0.000000
# 6 0.000000 0.000000 0.000000 0.000000 0.000000 0.061042
#
#
# Mechanical properties :
#
#
# Convention : Reuss Voigt Hill
#
# Bulk Modulus (GPa) = 20.08291 32.11360 26.09826
# Shear Modulus (GPa) = 21.57159 27.18925 24.38042
#
# Velocity S-wave (km/s) = 3.08247 3.46064 3.27702
# Velocity P-wave (km/s) = 4.63840 5.48754 5.08074
#
# Compressibility (1/GPa) = 0.04979358
#
# Stress axis : x y z
#
# Youngs Moduli (GPa) = 56.22136 23.29683 86.87367
#
# Poissons Ratio (x) = -0.03509 0.28707
# Poissons Ratio (y) = -0.08467 0.81799
# Poissons Ratio (z) = 0.18578 0.21936
#
# Static dielectric constant tensor:
#      x y z
#    x 1.877580 0.000000 0.000000 
#    y 0.000000 1.916240 0.000000 
#    z 0.000000 0.000000 1.955200 
# 
# From -- ./inp_files/1169.got.cif
#   From: 2010.05.17/outbox.cif.g08.bks.cpg/sg39_1_cif.got.tgz:1169.got - 2010.06.03 18:22:40.
