data_PCOD9360809
_publ_section_title
;
Structure prediction by ZEFSAII (Michael W. Deem and Ramdas Pophale) SiO2 
 PCOD9360809
Probable space group: A B M 2
;
_chemical_formula_sum "Si O2"
_cell_formula_units_Z 64
_cell_length_a 9.971563
_cell_length_b 15.777785
_cell_length_c 19.989281
_cell_angle_alpha 90.000000
_cell_angle_beta 90.000000
_cell_angle_gamma 90.000000
_cell_volume 3144.897131
_symmetry_space_group_name_H-M "A B M 2"
_symmetry_group_IT_number 39
_symmetry_cell_setting 'orthorhombic'
loop_
_space_group_symop_operation_xyz
x,y,z
-x,-y,z
-x,1/2+y,z
x,1/2-y,z
x,1/2+y,1/2+z
-x,1/2-y,1/2+z
-x,y,1/2+z
x,-y,1/2+z
loop_
_atom_site_type_symbol
_atom_site_label
_atom_site_fract_x
_atom_site_fract_y
_atom_site_fract_z
Si Si1 0.713966 0.150040 0.394410
Si Si2 0.988499 0.101960 0.056513
Si Si3 0.847015 0.149478 0.191420
Si Si4 0.297679 0.150019 0.042961
Si Si5 0.408928 0.083750 0.758887
Si Si6 0.885914 0.148111 0.770600
Si Si7 0.356474 0.347713 0.183083
Si Si8 0.020810 0.899689 0.907404
O O1 0.682398 0.250000 0.388916
O O2 0.677122 0.114968 0.468439
O O3 0.642811 0.102927 0.333386
O O4 0.875871 0.141267 0.391152
O O5 0.139992 0.137769 0.059608
O O6 0.897562 0.136697 0.115903
O O7 0.000000 0.000000 0.062136
O O8 0.937161 0.125465 0.982242
O O9 0.818444 0.250000 0.203183
O O10 0.721016 0.092780 0.211859
O O11 0.972505 0.123590 0.238086
O O12 0.325764 0.250000 0.035471
O O13 0.373142 0.114998 0.108485
O O14 0.513047 0.150779 0.728358
O O15 0.500000 0.000000 0.755693
O O16 0.881228 0.250000 0.769829
O O17 0.766135 0.113634 0.725010
O O18 0.879812 0.120776 0.847315
O O19 0.318293 0.250000 0.170819
O O20 0.000000 0.000000 0.908693
#
# Coordination Sequence:
#
# PCOD9360809 Si02
#       8
#     8   8   8   8   8   8   8   8
#     4  10  20  40  66  88 120 167 213 254 309 389
#     4  10  21  35  59  94 129 156 201 261 322 368
#     4  11  22  40  64  91 124 167 214 259 311 382
#     4   9  18  36  65  90 115 160 210 249 307 376
#     4  12  27  40  59  91 124 169 211 253 316 371
#     4  10  20  35  62  91 118 156 205 257 313 370
#     4  10  21  39  60  88 124 158 204 260 305 368
#     4  10  21  35  59  95 129 158 199 258 322 372
#
# _framework density 20.350427
#
# number of rings (size 3 to 8) (size 9 to 14) (size 15 to 20)
#    0.000    1.750    2.500    1.875    3.500    2.000 
#    0.000    1.875    0.000    1.500    0.000    0.000 
#    0.000    0.000    0.000    0.000    0.000    0.000 
#
# Total GULP energy -178564.078755 kJ/mol
# GULP energy per Si atom -5580.127461 kJ/mol
# Density = 2.030411 g / cm^3
# Si number density = 20.350427 Si / 1000 Ang^3
#
#
#
# Elastic Constant Matrix: (Units=GPa)
#
#
# Indices 1 2 3 4 5 6 
#
# 1 70.1656 14.1906 52.6504 0.0000 0.0000 0.0000
# 2 14.1906 39.8971 10.2032 0.0000 0.0000 0.0000
# 3 52.6504 10.2032 180.1957 0.0000 0.0000 0.0000
# 4 0.0000 0.0000 0.0000 21.0750 0.0000 0.0000
# 5 0.0000 0.0000 0.0000 0.0000 30.9455 0.0000
# 6 0.0000 0.0000 0.0000 0.0000 0.0000 25.4436
#
#
#
# Elastic Compliance Matrix: (Units=1/GPa)
#
#
# Indices 1 2 3 4 5 6 
#
# 1 0.019385 -0.005526 -0.005351 0.000000 0.000000 0.000000
# 2 -0.005526 0.027008 0.000085 0.000000 0.000000 0.000000
# 3 -0.005351 0.000085 0.007108 0.000000 0.000000 0.000000
# 4 0.000000 0.000000 0.000000 0.047450 0.000000 0.000000
# 5 0.000000 0.000000 0.000000 0.000000 0.032315 0.000000
# 6 0.000000 0.000000 0.000000 0.000000 0.000000 0.039303
#
#
# Mechanical properties :
#
#
# Convention : Reuss Voigt Hill
#
# Bulk Modulus (GPa) = 31.33091 49.37187 40.35139
# Shear Modulus (GPa) = 24.41506 29.70711 27.06108
#
# Velocity S-wave (km/s) = 3.46747 3.82485 3.65054
# Velocity P-wave (km/s) = 5.60895 6.61963 6.13513
#
# Compressibility (1/GPa) = 0.03191737
#
# Stress axis : x y z
#
# Youngs Moduli (GPa) = 51.58628 37.02575 140.68293
#
# Poissons Ratio (x) = 0.20462 0.75280
# Poissons Ratio (y) = 0.28509 -0.01202
# Poissons Ratio (z) = 0.27604 -0.00316
#
# Static dielectric constant tensor:
#      x y z
#    x 1.697040 0.000000 0.000000 
#    y 0.000000 1.761500 0.000000 
#    z 0.000000 0.000000 1.778270 
# 
# From -- ./inp_files/14205.got.cif
#   From: 2010.05.17/outbox.cif.g08.bks.cpg/sg39_8_cif.got.tgz:14205.got - 2010.06.03 18:22:40.
