data_PCOD9360548
_publ_section_title
;
Structure prediction by ZEFSAII (Michael W. Deem and Ramdas Pophale) SiO2 
 PCOD9360548
Probable space group: A B M 2
;
_chemical_formula_sum "Si O2"
_cell_formula_units_Z 52
_cell_length_a 14.577634
_cell_length_b 9.128538
_cell_length_c 19.392480
_cell_angle_alpha 90.000000
_cell_angle_beta 90.000000
_cell_angle_gamma 90.000000
_cell_volume 2580.605522
_symmetry_space_group_name_H-M "A B M 2"
_symmetry_group_IT_number 39
_symmetry_cell_setting 'orthorhombic'
loop_
_space_group_symop_operation_xyz
x,y,z
-x,-y,z
-x,1/2+y,z
x,1/2-y,z
x,1/2+y,1/2+z
-x,1/2-y,1/2+z
-x,y,1/2+z
x,-y,1/2+z
loop_
_atom_site_type_symbol
_atom_site_label
_atom_site_fract_x
_atom_site_fract_y
_atom_site_fract_z
Si Si1 0.867828 0.008711 0.190570
Si Si2 0.977332 0.250000 0.723328
Si Si3 0.270268 0.073681 0.472889
Si Si4 0.402991 0.422112 0.867134
Si Si5 0.098464 0.575640 0.532136
Si Si6 0.594878 0.075751 0.579796
Si Si7 0.343288 0.915094 0.209047
O O1 0.766575 0.065365 0.207282
O O2 0.946129 0.128148 0.199580
O O3 0.900628 0.876935 0.238249
O O4 0.870680 0.948777 0.111747
O O5 0.269109 0.250000 0.474054
O O6 0.323806 0.008476 0.407582
O O7 0.169557 0.005516 0.482199
O O8 0.326466 0.006507 0.537207
O O9 0.500000 0.500000 0.881136
O O10 0.405280 0.250000 0.887958
O O11 0.380976 0.427798 0.786053
O O12 0.094550 0.750000 0.519933
O O13 0.000000 0.500000 0.525038
O O14 0.595506 0.250000 0.568487
O O15 0.500000 0.000000 0.558449
O O16 0.612775 0.035457 0.659299
O O17 0.365309 0.750000 0.183068
#
# Coordination Sequence:
#
# PCOD9360548 Si02
#       7
#     8   4   8   8   8   8   8
#     4  11  19  35  57  95 130 172 210 265 312 384
#     4  10  20  32  58  88 134 172 216 254 318 374
#     4  12  26  43  68  95 129 172 220 271 325 391
#     4  11  25  48  70  93 127 173 221 270 332 400
#     4  12  22  37  63  97 135 175 217 266 325 385
#     4  12  25  41  64  96 130 163 209 272 333 390
#     4  11  24  40  66  96 134 169 213 270 329 390
#
# _framework density 20.150309
#
# number of rings (size 3 to 8) (size 9 to 14) (size 15 to 20)
#    0.000    0.615    4.615    4.615    2.154    2.462 
#    0.000    0.000    3.385    0.000    0.000    0.000 
#    0.000    0.000    0.000    0.000    0.000    0.000 
#
# Total GULP energy -144814.821896 kJ/mol
# GULP energy per Si atom -5569.800842 kJ/mol
# Density = 2.010445 g / cm^3
# Si number density = 20.150309 Si / 1000 Ang^3
#
#
#
# Elastic Constant Matrix: (Units=GPa)
#
#
# Indices 1 2 3 4 5 6 
#
# 1 106.1417 36.2606 12.9763 0.0000 0.0000 0.0000
# 2 36.2606 213.1090 28.6860 0.0000 0.0000 0.0000
# 3 12.9763 28.6860 49.2777 0.0000 0.0000 0.0000
# 4 0.0000 0.0000 0.0000 25.9714 0.0000 0.0000
# 5 0.0000 0.0000 0.0000 0.0000 41.3043 0.0000
# 6 0.0000 0.0000 0.0000 0.0000 0.0000 28.9131
#
#
#
# Elastic Compliance Matrix: (Units=1/GPa)
#
#
# Indices 1 2 3 4 5 6 
#
# 1 0.010149 -0.001483 -0.001809 0.000000 0.000000 0.000000
# 2 -0.001483 0.005308 -0.002699 0.000000 0.000000 0.000000
# 3 -0.001809 -0.002699 0.022341 0.000000 0.000000 0.000000
# 4 0.000000 0.000000 0.000000 0.038504 0.000000 0.000000
# 5 0.000000 0.000000 0.000000 0.000000 0.024211 0.000000
# 6 0.000000 0.000000 0.000000 0.000000 0.000000 0.034586
#
#
# Mechanical properties :
#
#
# Convention : Reuss Voigt Hill
#
# Bulk Modulus (GPa) = 38.73776 58.26381 48.50078
# Shear Modulus (GPa) = 32.11550 38.61145 35.36348
#
# Velocity S-wave (km/s) = 3.99657 4.38216 4.19380
# Velocity P-wave (km/s) = 6.36890 7.38795 6.89727
#
# Compressibility (1/GPa) = 0.02581461
#
# Stress axis : x y z
#
# Youngs Moduli (GPa) = 98.52893 188.38788 44.76085
#
# Poissons Ratio (x) = 0.27945 0.08098
# Poissons Ratio (y) = 0.14616 0.12083
# Poissons Ratio (z) = 0.17825 0.50854
#
# Static dielectric constant tensor:
#      x y z
#    x 1.707350 0.000000 0.000000 
#    y 0.000000 1.686100 0.000000 
#    z 0.000000 0.000000 1.740240 
# 
# From -- ./inp_files/14691.got.cif
#   From: 2010.05.17/outbox.cif.g08.bks.cpg/sg39_8_cif.got.tgz:14691.got - 2010.06.03 18:22:40.
