data_PCOD9360791
_publ_section_title
;
Structure prediction by ZEFSAII (Michael W. Deem and Ramdas Pophale) SiO2 
 PCOD9360791
Probable space group: A B M 2
;
_chemical_formula_sum "Si O2"
_cell_formula_units_Z 52
_cell_length_a 11.006011
_cell_length_b 16.813837
_cell_length_c 14.541492
_cell_angle_alpha 90.000000
_cell_angle_beta 90.000000
_cell_angle_gamma 90.000000
_cell_volume 2690.950718
_symmetry_space_group_name_H-M "A B M 2"
_symmetry_group_IT_number 39
_symmetry_cell_setting 'orthorhombic'
loop_
_space_group_symop_operation_xyz
x,y,z
-x,-y,z
-x,1/2+y,z
x,1/2-y,z
x,1/2+y,1/2+z
-x,1/2-y,1/2+z
-x,y,1/2+z
x,-y,1/2+z
loop_
_atom_site_type_symbol
_atom_site_label
_atom_site_fract_x
_atom_site_fract_y
_atom_site_fract_z
Si Si1 0.633799 0.840044 0.897720
Si Si2 0.950774 0.159217 0.736588
Si Si3 0.777077 0.842401 0.710595
Si Si4 0.049070 0.409638 0.433407
Si Si5 0.500000 0.500000 0.435835
Si Si6 0.823619 0.625093 0.052062
Si Si7 0.268610 0.051002 0.553115
O O1 0.579947 0.750000 0.890902
O O2 0.730980 0.847483 0.814919
O O3 0.548386 0.918223 0.888086
O O4 0.707386 0.845299 0.994245
O O5 0.970006 0.250000 0.765825
O O6 0.921112 0.112716 0.828983
O O7 0.857977 0.158022 0.651950
O O8 0.083080 0.130178 0.703037
O O9 0.768265 0.750000 0.682282
O O10 0.702692 0.899317 0.643774
O O11 0.171446 0.401317 0.491862
O O12 0.000000 0.500000 0.432770
O O13 0.939703 0.363357 0.484564
O O14 0.612095 0.530006 0.496746
O O15 0.798528 0.532252 0.071829
#
# Coordination Sequence:
#
# PCOD9360791 Si02
#       7
#     8   8   8   8   4   8   8
#     4  10  21  41  64  88 122 159 203 255 300 359
#     4  11  22  33  54  90 124 154 186 229 298 372
#     4  10  21  35  59  90 119 155 194 240 305 365
#     4  10  21  34  56  84 117 153 190 241 294 351
#     4  10  24  42  62  86 112 166 218 246 304 348
#     4  10  20  35  59  88 118 154 195 238 304 360
#     4  10  22  39  58  85 116 155 203 252 289 349
#
# _framework density 19.324024999999999
#
# number of rings (size 3 to 8) (size 9 to 14) (size 15 to 20)
#    0.000    1.846    3.077    0.462    2.154    2.462 
#    0.000    1.538    0.000    3.692    0.000    0.000 
#    0.000    0.000    0.000    0.000    0.000    0.000 
#
# Total GULP energy -144913.572154 kJ/mol
# GULP energy per Si atom -5573.598929 kJ/mol
# Density = 1.928004 g / cm^3
# Si number density = 19.324025 Si / 1000 Ang^3
#
#
#
# Elastic Constant Matrix: (Units=GPa)
#
#
# Indices 1 2 3 4 5 6 
#
# 1 53.2189 17.0214 3.1562 0.0000 0.0000 0.0000
# 2 17.0214 69.9840 26.5927 0.0000 0.0000 0.0000
# 3 3.1562 26.5927 86.2802 0.0000 0.0000 0.0000
# 4 0.0000 0.0000 0.0000 61.2175 0.0000 0.0000
# 5 0.0000 0.0000 0.0000 0.0000 11.4282 0.0000
# 6 0.0000 0.0000 0.0000 0.0000 0.0000 20.3948
#
#
#
# Elastic Compliance Matrix: (Units=1/GPa)
#
#
# Indices 1 2 3 4 5 6 
#
# 1 0.020435 -0.005308 0.000888 0.000000 0.000000 0.000000
# 2 -0.005308 0.017563 -0.005219 0.000000 0.000000 0.000000
# 3 0.000888 -0.005219 0.013166 0.000000 0.000000 0.000000
# 4 0.000000 0.000000 0.000000 0.016335 0.000000 0.000000
# 5 0.000000 0.000000 0.000000 0.000000 0.087503 0.000000
# 6 0.000000 0.000000 0.000000 0.000000 0.000000 0.049032
#
#
# Mechanical properties :
#
#
# Convention : Reuss Voigt Hill
#
# Bulk Modulus (GPa) = 31.36001 33.66927 32.51464
# Shear Modulus (GPa) = 21.37289 29.45561 25.41425
#
# Velocity S-wave (km/s) = 3.32931 3.90846 3.63045
# Velocity P-wave (km/s) = 5.57161 6.15057 5.86823
#
# Compressibility (1/GPa) = 0.03188774
#
# Stress axis : x y z
#
# Youngs Moduli (GPa) = 48.93501 56.93769 75.95202
#
# Poissons Ratio (x) = 0.30221 -0.06748
# Poissons Ratio (y) = 0.25974 0.39639
# Poissons Ratio (z) = -0.04347 0.29716
#
# Static dielectric constant tensor:
#      x y z
#    x 1.678900 0.000000 0.000000 
#    y 0.000000 1.699130 0.000000 
#    z 0.000000 0.000000 1.669140 
# 
# From -- ./inp_files/9372.got.cif
#   From: 2010.05.17/outbox.cif.g08.bks.cpg/sg39_5_cif.got.tgz:9372.got - 2010.06.03 18:22:40.
