data_PCOD9360120
_publ_section_title
;
Structure prediction by ZEFSAII (Michael W. Deem and Ramdas Pophale) SiO2 
 PCOD9360120
Probable space group: A B M 2
;
_chemical_formula_sum "Si O2"
_cell_formula_units_Z 48
_cell_length_a 16.876572
_cell_length_b 8.693075
_cell_length_c 18.983196
_cell_angle_alpha 90.000000
_cell_angle_beta 90.000000
_cell_angle_gamma 90.000000
_cell_volume 2785.011513
_symmetry_space_group_name_H-M "A B M 2"
_symmetry_group_IT_number 39
_symmetry_cell_setting 'orthorhombic'
loop_
_space_group_symop_operation_xyz
x,y,z
-x,-y,z
-x,1/2+y,z
x,1/2-y,z
x,1/2+y,1/2+z
-x,1/2-y,1/2+z
-x,y,1/2+z
x,-y,1/2+z
loop_
_atom_site_type_symbol
_atom_site_label
_atom_site_fract_x
_atom_site_fract_y
_atom_site_fract_z
Si Si1 0.265129 0.563114 0.116770
Si Si2 0.834133 0.073828 0.991825
Si Si3 0.238377 0.434399 0.779029
Si Si4 0.084681 0.935945 0.855916
Si Si5 0.414522 0.067178 0.033366
Si Si6 0.669100 0.426414 0.903573
O O1 0.267587 0.750000 0.110660
O O2 0.253388 0.523092 0.198004
O O3 0.346148 0.498379 0.084337
O O4 0.192709 0.506369 0.066636
O O5 0.859197 0.250000 0.004792
O O6 0.895801 0.005957 0.935917
O O7 0.751816 0.076255 0.947587
O O8 0.233928 0.250000 0.784526
O O9 0.156212 0.505561 0.807165
O O10 0.307826 0.495009 0.830273
O O11 0.085449 0.750000 0.856390
O O12 0.000000 0.000000 0.833502
O O13 0.415176 0.250000 0.037038
O O14 0.500000 0.000000 0.051920
O O15 0.391398 0.013949 0.954209
O O16 0.644187 0.250000 0.893470
#
# Coordination Sequence:
#
# PCOD9360120 Si02
#       6
#     8   8   8   8   8   8
#     4   9  18  34  54  76 105 138 170 208 257 311
#     4   7  13  28  49  69  91 125 163 200 245 296
#     4  10  19  32  53  79 106 137 173 211 256 312
#     4  10  19  32  51  73 100 134 174 220 267 311
#     4  11  21  34  54  78 104 134 172 215 259 307
#     4   9  17  32  52  73 100 132 168 208 250 299
#
# _framework density 17.235118
#
# number of rings (size 3 to 8) (size 9 to 14) (size 15 to 20)
#    0.000    2.667    0.000    5.000    0.000    1.333 
#    0.000    2.500    0.000    6.000    0.000    0.000 
#    0.000    0.000    0.000    0.000    0.000    0.000 
#
# Total GULP energy -133682.293691 kJ/mol
# GULP energy per Si atom -5570.095570 kJ/mol
# Density = 1.719589 g / cm^3
# Si number density = 17.235118 Si / 1000 Ang^3
#
#
#
# Elastic Constant Matrix: (Units=GPa)
#
#
# Indices 1 2 3 4 5 6 
#
# 1 79.6888 28.6936 47.2803 0.0000 0.0000 0.0000
# 2 28.6936 66.8033 46.2429 0.0000 0.0000 0.0000
# 3 47.2803 46.2429 151.6001 0.0000 0.0000 0.0000
# 4 0.0000 0.0000 0.0000 23.8111 0.0000 0.0000
# 5 0.0000 0.0000 0.0000 0.0000 15.9711 0.0000
# 6 0.0000 0.0000 0.0000 0.0000 0.0000 20.6127
#
#
#
# Elastic Compliance Matrix: (Units=1/GPa)
#
#
# Indices 1 2 3 4 5 6 
#
# 1 0.016372 -0.004434 -0.003754 0.000000 0.000000 0.000000
# 2 -0.004434 0.020177 -0.004772 0.000000 0.000000 0.000000
# 3 -0.003754 -0.004772 0.009223 0.000000 0.000000 0.000000
# 4 0.000000 0.000000 0.000000 0.041997 0.000000 0.000000
# 5 0.000000 0.000000 0.000000 0.000000 0.062613 0.000000
# 6 0.000000 0.000000 0.000000 0.000000 0.000000 0.048514
#
#
# Mechanical properties :
#
#
# Convention : Reuss Voigt Hill
#
# Bulk Modulus (GPa) = 50.36998 60.28066 55.32532
# Shear Modulus (GPa) = 21.60456 23.80400 22.70428
#
# Velocity S-wave (km/s) = 3.54435 3.72039 3.63344
# Velocity P-wave (km/s) = 6.78517 7.31481 7.05496
#
# Compressibility (1/GPa) = 0.01985310
#
# Stress axis : x y z
#
# Youngs Moduli (GPa) = 61.07822 49.56150 108.43028
#
# Poissons Ratio (x) = 0.21976 0.40701
# Poissons Ratio (y) = 0.27082 0.51740
# Poissons Ratio (z) = 0.22927 0.23650
#
# Static dielectric constant tensor:
#      x y z
#    x 1.576420 0.000000 0.000000 
#    y 0.000000 1.584170 0.000000 
#    z 0.000000 0.000000 1.604170 
# 
# From -- ./inp_files/12653.got.cif
#   From: 2010.05.17/outbox.cif.g08.bks.cpg/sg39_7_cif.got.tgz:12653.got - 2010.06.03 18:22:40.
