data_PCOD9360183
_publ_section_title
;
Structure prediction by ZEFSAII (Michael W. Deem and Ramdas Pophale) SiO2 
 PCOD9360183
Probable space group: A B M 2
;
_chemical_formula_sum "Si O2"
_cell_formula_units_Z 48
_cell_length_a 15.939497
_cell_length_b 8.738672
_cell_length_c 18.832212
_cell_angle_alpha 90.000000
_cell_angle_beta 90.000000
_cell_angle_gamma 90.000000
_cell_volume 2623.139490
_symmetry_space_group_name_H-M "A B M 2"
_symmetry_group_IT_number 39
_symmetry_cell_setting 'orthorhombic'
loop_
_space_group_symop_operation_xyz
x,y,z
-x,-y,z
-x,1/2+y,z
x,1/2-y,z
x,1/2+y,1/2+z
-x,1/2-y,1/2+z
-x,y,1/2+z
x,-y,1/2+z
loop_
_atom_site_type_symbol
_atom_site_label
_atom_site_fract_x
_atom_site_fract_y
_atom_site_fract_z
Si Si1 0.750000 0.428689 0.438670
Si Si2 0.154508 0.924432 0.058014
Si Si3 0.411995 0.934343 0.205693
Si Si4 0.250000 0.068325 0.284421
Si Si5 0.654508 0.075568 0.058014
Si Si6 0.911995 0.565657 0.705693
O O1 0.750000 0.250000 0.422946
O O2 0.829912 0.474558 0.488218
O O3 0.750000 0.525726 0.367434
O O4 0.670089 0.474558 0.488218
O O5 0.130918 0.750000 0.038796
O O6 0.250000 0.916929 0.088510
O O7 0.099311 0.982250 0.122808
O O8 0.411345 0.750000 0.207469
O O9 0.400689 0.982250 0.122808
O O10 0.500000 0.000000 0.232488
O O11 0.333171 0.997687 0.249019
O O12 0.250000 0.250000 0.274187
O O13 0.166829 0.997687 0.249019
O O14 0.630918 0.250000 0.038796
O O15 0.911345 0.750000 0.707470
O O16 0.000000 0.500000 0.732489
#
# Coordination Sequence:
#
# PCOD9360183 Si02
#       6
#     8   8   8   8   8   8
#     4  10  19  32  57  85 111 147 191 238 291 344
#     4   8  16  34  56  79 109 145 184 228 279 336
#     4  11  22  38  60  88 119 152 192 238 287 342
#     4  12  23  38  59  83 117 157 195 238 289 344
#     4   8  16  34  56  79 109 145 184 228 279 336
#     4  11  22  38  60  88 119 152 192 238 287 342
#
# _framework density 18.298683
#
# number of rings (size 3 to 8) (size 9 to 14) (size 15 to 20)
#    1.000    1.000    1.667    3.500    0.000    4.000 
#    0.000    1.667    0.000    4.000    0.000    0.000 
#    0.000    0.000    0.000    0.000    0.000    0.000 
#
# Total GULP energy -133640.610843 kJ/mol
# GULP energy per Si atom -5568.358785 kJ/mol
# Density = 1.825703 g / cm^3
# Si number density = 18.298683 Si / 1000 Ang^3
#
#
#
# Elastic Constant Matrix: (Units=GPa)
#
#
# Indices 1 2 3 4 5 6 
#
# 1 115.1425 36.3242 44.7407 0.0000 0.0000 0.0000
# 2 36.3242 76.1534 32.8805 0.0000 0.0000 0.0000
# 3 44.7407 32.8805 86.8827 0.0000 0.0000 0.0000
# 4 0.0000 0.0000 0.0000 29.0319 0.0000 0.0000
# 5 0.0000 0.0000 0.0000 0.0000 5.5008 0.0000
# 6 0.0000 0.0000 0.0000 0.0000 0.0000 19.8451
#
#
#
# Elastic Compliance Matrix: (Units=1/GPa)
#
#
# Indices 1 2 3 4 5 6 
#
# 1 0.011601 -0.003531 -0.004638 0.000000 0.000000 0.000000
# 2 -0.003531 0.016771 -0.004529 0.000000 0.000000 0.000000
# 3 -0.004638 -0.004529 0.015612 0.000000 0.000000 0.000000
# 4 0.000000 0.000000 0.000000 0.034445 0.000000 0.000000
# 5 0.000000 0.000000 0.000000 0.000000 0.181792 0.000000
# 6 0.000000 0.000000 0.000000 0.000000 0.000000 0.050390
#
#
# Mechanical properties :
#
#
# Convention : Reuss Voigt Hill
#
# Bulk Modulus (GPa) = 53.79511 56.22996 55.01253
# Shear Modulus (GPa) = 14.61128 21.82443 18.21785
#
# Velocity S-wave (km/s) = 2.82882 3.45726 3.15871
# Velocity P-wave (km/s) = 6.33497 6.83612 6.59031
#
# Compressibility (1/GPa) = 0.01858905
#
# Stress axis : x y z
#
# Youngs Moduli (GPa) = 86.20034 59.62683 64.05433
#
# Poissons Ratio (x) = 0.21055 0.29706
# Poissons Ratio (y) = 0.30438 0.29007
# Poissons Ratio (z) = 0.39976 0.27002
#
# Static dielectric constant tensor:
#      x y z
#    x 1.643470 0.000000 0.000000 
#    y 0.000000 1.615520 0.000000 
#    z 0.000000 0.000000 1.633750 
# 
# From -- ./inp_files/12847.got.cif
#   From: 2010.05.17/outbox.cif.g08.bks.cpg/sg39_7_cif.got.tgz:12847.got - 2010.06.03 18:22:40.
