data_PCOD9360013
_publ_section_title
;
Structure prediction by ZEFSAII (Michael W. Deem and Ramdas Pophale) SiO2 
 PCOD9360013
Probable space group: A B M 2
;
_chemical_formula_sum "Si O2"
_cell_formula_units_Z 48
_cell_length_a 9.492814
_cell_length_b 15.643781
_cell_length_c 15.010126
_cell_angle_alpha 90.000000
_cell_angle_beta 90.000000
_cell_angle_gamma 90.000000
_cell_volume 2229.056296
_symmetry_space_group_name_H-M "A B M 2"
_symmetry_group_IT_number 39
_symmetry_cell_setting 'orthorhombic'
loop_
_space_group_symop_operation_xyz
x,y,z
-x,-y,z
-x,1/2+y,z
x,1/2-y,z
x,1/2+y,1/2+z
-x,1/2-y,1/2+z
-x,y,1/2+z
x,-y,1/2+z
loop_
_atom_site_type_symbol
_atom_site_label
_atom_site_fract_x
_atom_site_fract_y
_atom_site_fract_z
Si Si1 0.975972 0.250000 0.524660
Si Si2 0.756168 0.250000 0.125256
Si Si3 0.472603 0.750000 0.521622
Si Si4 0.603830 0.580030 0.920659
Si Si5 0.240129 0.250000 0.173485
Si Si6 0.867452 0.411764 0.726994
Si Si7 0.817658 0.895898 0.766873
Si Si8 0.885687 0.567502 0.014851
O O1 0.914415 0.250000 0.626519
O O2 0.922022 0.162991 0.481661
O O3 0.141036 0.250000 0.540138
O O4 0.784081 0.334457 0.184086
O O5 0.600788 0.250000 0.088952
O O6 0.470308 0.837814 0.465591
O O7 0.337173 0.750000 0.586997
O O8 0.500000 0.500000 0.900509
O O9 0.698486 0.619140 0.840673
O O10 0.726927 0.546149 0.987634
O O11 0.244665 0.164528 0.230298
O O12 0.807438 0.501885 0.756254
O O13 0.899216 0.426862 0.621754
O O14 0.011962 0.386777 0.777377
O O15 0.000000 0.500000 0.981189
#
# Coordination Sequence:
#
# PCOD9360013 Si02
#       8
#     4   4   4   8   4   8   8   8
#     4  10  18  38  67 105 121 166 231 288 333 381
#     4  12  23  40  74 101 133 183 238 278 331 415
#     4  12  27  44  68 101 138 189 229 276 343 421
#     4  12  29  46  64 100 153 186 218 281 369 418
#     4  10  18  40  67 101 126 158 234 284 327 393
#     4  10  19  39  72 102 122 168 235 286 335 399
#     4  11  23  42  65 102 137 175 223 287 348 399
#     4  11  20  40  72  98 131 171 235 292 330 410
#
# _framework density 21.533776
#
# number of rings (size 3 to 8) (size 9 to 14) (size 15 to 20)
#    0.000    1.000    8.333    0.500    7.000    1.333 
#    0.000    0.833    0.000    0.000    0.000    0.000 
#    0.000    0.000    0.000    0.000    0.000    0.000 
#
# Total GULP energy -133858.305276 kJ/mol
# GULP energy per Si atom -5577.429386 kJ/mol
# Density = 2.148476 g / cm^3
# Si number density = 21.533776 Si / 1000 Ang^3
#
#
#
# Elastic Constant Matrix: (Units=GPa)
#
#
# Indices 1 2 3 4 5 6 
#
# 1 53.5211 35.5014 27.6446 0.0000 0.0000 0.0000
# 2 35.5014 88.4919 2.4339 0.0000 0.0000 0.0000
# 3 27.6446 2.4339 43.2373 0.0000 0.0000 0.0000
# 4 0.0000 0.0000 0.0000 16.7420 0.0000 0.0000
# 5 0.0000 0.0000 0.0000 0.0000 25.0675 0.0000
# 6 0.0000 0.0000 0.0000 0.0000 0.0000 25.0146
#
#
#
# Elastic Compliance Matrix: (Units=1/GPa)
#
#
# Indices 1 2 3 4 5 6 
#
# 1 0.043851 -0.016847 -0.027089 0.000000 0.000000 0.000000
# 2 -0.016847 0.017791 0.009770 0.000000 0.000000 0.000000
# 3 -0.027089 0.009770 0.039898 0.000000 0.000000 0.000000
# 4 0.000000 0.000000 0.000000 0.059730 0.000000 0.000000
# 5 0.000000 0.000000 0.000000 0.000000 0.039892 0.000000
# 6 0.000000 0.000000 0.000000 0.000000 0.000000 0.039977
#
#
# Mechanical properties :
#
#
# Convention : Reuss Voigt Hill
#
# Bulk Modulus (GPa) = 30.11322 35.15666 32.63494
# Shear Modulus (GPa) = 15.59873 21.34286 18.47080
#
# Velocity S-wave (km/s) = 2.69436 3.15164 2.93193
# Velocity P-wave (km/s) = 4.86764 5.44110 5.16234
#
# Compressibility (1/GPa) = 0.03320801
#
# Stress axis : x y z
#
# Youngs Moduli (GPa) = 22.80449 56.20957 25.06401
#
# Poissons Ratio (x) = 0.94698 0.67895
# Poissons Ratio (y) = 0.38419 -0.24488
# Poissons Ratio (z) = 0.61774 -0.54918
#
# Static dielectric constant tensor:
#      x y z
#    x 1.768050 0.000000 0.000000 
#    y 0.000000 1.885840 0.000000 
#    z 0.000000 0.000000 1.817300 
# 
# From -- ./inp_files/8413.got.cif
#   From: 2010.05.17/outbox.cif.g08.bks.cpg/sg39_5_cif.got.tgz:8413.got - 2010.06.03 18:22:40.
