data_PCOD9360550
_publ_section_title
;
Structure prediction by ZEFSAII (Michael W. Deem and Ramdas Pophale) SiO2 
 PCOD9360550
Probable space group: A B M 2
;
_chemical_formula_sum "Si O2"
_cell_formula_units_Z 60
_cell_length_a 13.840310
_cell_length_b 29.239560
_cell_length_c 9.179022
_cell_angle_alpha 90.000000
_cell_angle_beta 90.000000
_cell_angle_gamma 90.000000
_cell_volume 3714.608614
_symmetry_space_group_name_H-M "A B M 2"
_symmetry_group_IT_number 39
_symmetry_cell_setting 'orthorhombic'
loop_
_space_group_symop_operation_xyz
x,y,z
-x,-y,z
-x,1/2+y,z
x,1/2-y,z
x,1/2+y,1/2+z
-x,1/2-y,1/2+z
-x,y,1/2+z
x,-y,1/2+z
loop_
_atom_site_type_symbol
_atom_site_label
_atom_site_fract_x
_atom_site_fract_y
_atom_site_fract_z
Si Si1 0.418904 0.695425 0.891120
Si Si2 0.000000 0.000000 0.141655
Si Si3 0.084536 0.364228 0.483148
Si Si4 0.384744 0.305339 0.734636
Si Si5 0.810726 0.640567 0.776818
Si Si6 0.785526 0.304066 0.771403
Si Si7 0.089851 0.302223 0.996886
Si Si8 0.069470 0.937174 0.395384
O O1 0.420791 0.750000 0.869753
O O2 0.520940 0.680253 0.826028
O O3 0.323096 0.679769 0.805389
O O4 0.406043 0.687691 0.062975
O O5 0.058506 0.966825 0.249437
O O6 0.932032 0.970214 0.034948
O O7 0.156990 0.373829 0.615181
O O8 0.140802 0.333789 0.366116
O O9 0.996894 0.334145 0.547390
O O10 0.029108 0.407202 0.413180
O O11 0.365585 0.250000 0.755781
O O12 0.294641 0.337203 0.776518
O O13 0.878972 0.681049 0.838043
O O14 0.841222 0.597797 0.879036
O O15 0.792983 0.250000 0.812172
O O16 0.819115 0.307454 0.604634
O O17 0.059003 0.250000 0.997490
#
# Coordination Sequence:
#
# PCOD9360550 Si02
#       8
#     8   4   8   8   8   8   8   8
#     4   9  19  33  49  68  96 142 194 232 265 298
#     4  10  20  38  58  74 108 138 170 196 264 328
#     4  11  20  33  49  73 106 139 175 216 255 309
#     4  10  20  34  51  71 102 144 186 232 270 305
#     4  11  21  33  50  76 105 135 175 221 264 311
#     4  10  20  33  48  69 104 149 190 222 259 303
#     4  10  21  30  44  69 103 146 182 213 251 306
#     4  10  21  36  55  81 105 140 162 212 254 327
#
# _framework density 16.152443000000002
#
# number of rings (size 3 to 8) (size 9 to 14) (size 15 to 20)
#    0.000    1.867    2.667    2.400    3.733    2.667 
#    0.000    0.000    0.000    0.000    0.000    0.000 
#    0.000   18.133    0.000    0.000    0.000    0.000 
#
# Total GULP energy -167175.848166 kJ/mol
# GULP energy per Si atom -5572.528272 kJ/mol
# Density = 1.611568 g / cm^3
# Si number density = 16.152443 Si / 1000 Ang^3
#
#
#
# Elastic Constant Matrix: (Units=GPa)
#
#
# Indices 1 2 3 4 5 6 
#
# 1 109.3195 38.6401 30.2973 0.0000 0.0000 0.0000
# 2 38.6401 72.0607 31.9621 0.0000 0.0000 0.0000
# 3 30.2973 31.9621 61.7796 0.0000 0.0000 0.0000
# 4 0.0000 0.0000 0.0000 21.5638 0.0000 0.0000
# 5 0.0000 0.0000 0.0000 0.0000 25.1946 0.0000
# 6 0.0000 0.0000 0.0000 0.0000 0.0000 16.2590
#
#
#
# Elastic Compliance Matrix: (Units=1/GPa)
#
#
# Indices 1 2 3 4 5 6 
#
# 1 0.011770 -0.004868 -0.003253 0.000000 0.000000 0.000000
# 2 -0.004868 0.020023 -0.007972 0.000000 0.000000 0.000000
# 3 -0.003253 -0.007972 0.021906 0.000000 0.000000 0.000000
# 4 0.000000 0.000000 0.000000 0.046374 0.000000 0.000000
# 5 0.000000 0.000000 0.000000 0.000000 0.039691 0.000000
# 6 0.000000 0.000000 0.000000 0.000000 0.000000 0.061504
#
#
# Mechanical properties :
#
#
# Convention : Reuss Voigt Hill
#
# Bulk Modulus (GPa) = 46.48415 49.43988 47.96202
# Shear Modulus (GPa) = 20.77903 22.08750 21.43326
#
# Velocity S-wave (km/s) = 3.59058 3.70190 3.64667
# Velocity P-wave (km/s) = 6.78458 6.99620 6.89121
#
# Compressibility (1/GPa) = 0.02151271
#
# Stress axis : x y z
#
# Youngs Moduli (GPa) = 84.96269 49.94147 45.64871
#
# Poissons Ratio (x) = 0.24312 0.14852
# Poissons Ratio (y) = 0.41361 0.36391
# Poissons Ratio (z) = 0.27643 0.39813
#
# Static dielectric constant tensor:
#      x y z
#    x 1.543000 0.000000 0.000000 
#    y 0.000000 1.546720 0.000000 
#    z 0.000000 0.000000 1.567710 
# 
# From -- ./inp_files/2870.got.cif
#   From: 2010.05.17/outbox.cif.g08.bks.cpg/sg39_2_cif.got.tgz:2870.got - 2010.06.03 18:22:40.
