data_PCOD9360011
_publ_section_title
;
Structure prediction by ZEFSAII (Michael W. Deem and Ramdas Pophale) SiO2 
 PCOD9360011
Probable space group: A B M 2
;
_chemical_formula_sum "Si O2"
_cell_formula_units_Z 48
_cell_length_a 8.041470
_cell_length_b 18.444859
_cell_length_c 15.667553
_cell_angle_alpha 90.000000
_cell_angle_beta 90.000000
_cell_angle_gamma 90.000000
_cell_volume 2323.870689
_symmetry_space_group_name_H-M "A B M 2"
_symmetry_group_IT_number 39
_symmetry_cell_setting 'orthorhombic'
loop_
_space_group_symop_operation_xyz
x,y,z
-x,-y,z
-x,1/2+y,z
x,1/2-y,z
x,1/2+y,1/2+z
-x,1/2-y,1/2+z
-x,y,1/2+z
x,-y,1/2+z
loop_
_atom_site_type_symbol
_atom_site_label
_atom_site_fract_x
_atom_site_fract_y
_atom_site_fract_z
Si Si1 0.683289 0.409964 0.737110
Si Si2 0.665682 0.456911 0.016420
Si Si3 0.892875 0.063163 0.583205
Si Si4 0.014182 0.833603 0.296955
Si Si5 0.682488 0.423652 0.221059
Si Si6 0.111722 0.166249 0.479951
O O1 0.738120 0.409305 0.637519
O O2 0.492746 0.388111 0.749369
O O3 0.693485 0.495310 0.760037
O O4 0.830813 0.363952 0.776607
O O5 0.500000 0.500000 0.992688
O O6 0.814452 0.515554 0.007396
O O7 0.662214 0.435698 0.118090
O O8 0.725148 0.384476 0.968858
O O9 0.010523 0.127953 0.556136
O O10 0.000000 0.000000 0.631584
O O11 0.026852 0.750000 0.270717
O O12 0.158974 0.878602 0.251318
O O13 0.012332 0.837513 0.399498
O O14 0.153781 0.250000 0.495225
#
# Coordination Sequence:
#
# PCOD9360011 Si02
#       6
#     8   8   8   8   8   8
#     4  10  19  37  62  91 115 149 202 259 308 356
#     4  10  18  38  64  92 117 149 203 265 310 352
#     4   9  17  33  61  87 115 151 202 263 305 360
#     4  11  24  40  56  83 129 168 200 245 302 372
#     4  10  20  38  65  91 116 151 199 260 310 358
#     4  10  23  40  56  84 126 170 203 243 309 374
#
# _framework density 20.655193000000001
#
# number of rings (size 3 to 8) (size 9 to 14) (size 15 to 20)
#    0.000    2.000    3.333    3.500    0.000    7.333 
#    6.000    0.833    0.000    0.000    0.000    0.000 
#    0.000    0.000    0.000    0.000    0.000    0.000 
#
# Total GULP energy -133729.537538 kJ/mol
# GULP energy per Si atom -5572.064064 kJ/mol
# Density = 2.060818 g / cm^3
# Si number density = 20.655193 Si / 1000 Ang^3
#
#
#
# Elastic Constant Matrix: (Units=GPa)
#
#
# Indices 1 2 3 4 5 6 
#
# 1 148.4086 57.9579 20.8993 0.0000 0.0000 0.0000
# 2 57.9579 126.0093 32.3943 0.0000 0.0000 0.0000
# 3 20.8993 32.3943 31.5416 0.0000 0.0000 0.0000
# 4 0.0000 0.0000 0.0000 25.3167 0.0000 0.0000
# 5 0.0000 0.0000 0.0000 0.0000 13.5763 0.0000
# 6 0.0000 0.0000 0.0000 0.0000 0.0000 15.8046
#
#
#
# Elastic Compliance Matrix: (Units=1/GPa)
#
#
# Indices 1 2 3 4 5 6 
#
# 1 0.008319 -0.003274 -0.002150 0.000000 0.000000 0.000000
# 2 -0.003274 0.012071 -0.010228 0.000000 0.000000 0.000000
# 3 -0.002150 -0.010228 0.043634 0.000000 0.000000 0.000000
# 4 0.000000 0.000000 0.000000 0.039500 0.000000 0.000000
# 5 0.000000 0.000000 0.000000 0.000000 0.073658 0.000000
# 6 0.000000 0.000000 0.000000 0.000000 0.000000 0.063273
#
#
# Mechanical properties :
#
#
# Convention : Reuss Voigt Hill
#
# Bulk Modulus (GPa) = 30.56251 58.71807 44.64029
# Shear Modulus (GPa) = 17.68877 23.92007 20.80442
#
# Velocity S-wave (km/s) = 2.92958 3.40673 3.17712
# Velocity P-wave (km/s) = 5.12561 6.63053 5.92603
#
# Compressibility (1/GPa) = 0.03271983
#
# Stress axis : x y z
#
# Youngs Moduli (GPa) = 120.20028 82.84196 22.91804
#
# Poissons Ratio (x) = 0.27120 0.04928
# Poissons Ratio (y) = 0.39351 0.23441
# Poissons Ratio (z) = 0.25845 0.84734
#
# Static dielectric constant tensor:
#      x y z
#    x 1.812490 0.000000 0.000000 
#    y 0.000000 1.725990 0.000000 
#    z 0.000000 0.000000 1.846580 
# 
# From -- ./inp_files/11624.got.cif
#   From: 2010.05.17/outbox.cif.g08.bks.cpg/sg39_6_cif.got.tgz:11624.got - 2010.06.03 18:22:40.
