data_PCOD9360695
_publ_section_title
;
Structure prediction by ZEFSAII (Michael W. Deem and Ramdas Pophale) SiO2 
 PCOD9360695
Probable space group: A B M 2
;
_chemical_formula_sum "Si O2"
_cell_formula_units_Z 60
_cell_length_a 5.192360
_cell_length_b 20.291377
_cell_length_c 29.619850
_cell_angle_alpha 90.000000
_cell_angle_beta 90.000000
_cell_angle_gamma 90.000000
_cell_volume 3120.751373
_symmetry_space_group_name_H-M "A B M 2"
_symmetry_group_IT_number 39
_symmetry_cell_setting 'orthorhombic'
loop_
_space_group_symop_operation_xyz
x,y,z
-x,-y,z
-x,1/2+y,z
x,1/2-y,z
x,1/2+y,1/2+z
-x,1/2-y,1/2+z
-x,y,1/2+z
x,-y,1/2+z
loop_
_atom_site_type_symbol
_atom_site_label
_atom_site_fract_x
_atom_site_fract_y
_atom_site_fract_z
Si Si1 0.095093 0.170316 0.461050
Si Si2 0.999399 0.080557 0.048144
Si Si3 0.500000 0.500000 0.258855
Si Si4 0.847044 0.438437 0.683000
Si Si5 0.596498 0.671582 0.902948
Si Si6 0.498135 0.078718 0.101221
Si Si7 0.031068 0.323650 0.244637
Si Si8 0.454904 0.363455 0.799864
O O1 0.080493 0.250000 0.471132
O O2 0.063182 0.123209 0.504086
O O3 0.366743 0.156160 0.437334
O O4 0.867914 0.153952 0.425589
O O5 0.782577 0.098744 0.085845
O O6 0.279504 0.101320 0.066285
O O7 0.000000 0.000000 0.040978
O O8 0.281048 0.474191 0.225548
O O9 0.590063 0.439644 0.288460
O O10 0.622500 0.410123 0.650730
O O11 0.999340 0.377505 0.704688
O O12 0.000000 0.500000 0.659973
O O13 0.598437 0.750000 0.897107
O O14 0.543251 0.644378 0.853334
O O15 0.500000 0.000000 0.097764
O O16 0.063146 0.250000 0.226315
O O17 0.281647 0.341017 0.275153
O O18 0.783182 0.326395 0.276768
#
# Coordination Sequence:
#
# PCOD9360695 Si02
#       8
#     8   8   4   8   8   8   8   8
#     4  10  21  39  60  84 114 151 192 235 291 352
#     4  10  21  38  57  86 112 143 189 237 289 346
#     4  10  22  36  58  88 118 160 198 248 300 336
#     4  11  20  37  59  85 118 154 201 240 289 352
#     4  10  20  36  60  84 111 154 197 234 283 354
#     4  10  20  34  60  85 111 147 191 235 282 345
#     4  11  23  37  58  84 120 161 196 248 298 344
#     4  11  22  39  58  86 121 155 206 247 290 352
#
# _framework density 19.226137000000001
#
# number of rings (size 3 to 8) (size 9 to 14) (size 15 to 20)
#    0.000    1.600    2.000    4.000    0.000    1.067 
#    2.400    1.333    0.000    0.000    0.000    0.933 
#    0.000    0.000    0.000    0.000    0.000    0.000 
#
# Total GULP energy -167380.652184 kJ/mol
# GULP energy per Si atom -5579.355073 kJ/mol
# Density = 1.918238 g / cm^3
# Si number density = 19.226137 Si / 1000 Ang^3
#
#
#
# Elastic Constant Matrix: (Units=GPa)
#
#
# Indices 1 2 3 4 5 6 
#
# 1 66.6397 4.6579 2.3193 0.0000 0.0000 0.0000
# 2 4.6579 75.7411 26.6874 0.0000 0.0000 0.0000
# 3 2.3193 26.6874 78.9427 0.0000 0.0000 0.0000
# 4 0.0000 0.0000 0.0000 10.5770 0.0000 0.0000
# 5 0.0000 0.0000 0.0000 0.0000 24.2475 0.0000
# 6 0.0000 0.0000 0.0000 0.0000 0.0000 102.5846
#
#
#
# Elastic Compliance Matrix: (Units=1/GPa)
#
#
# Indices 1 2 3 4 5 6 
#
# 1 0.015072 -0.000875 -0.000147 0.000000 0.000000 0.000000
# 2 -0.000875 0.015039 -0.005058 0.000000 0.000000 0.000000
# 3 -0.000147 -0.005058 0.014382 0.000000 0.000000 0.000000
# 4 0.000000 0.000000 0.000000 0.094545 0.000000 0.000000
# 5 0.000000 0.000000 0.000000 0.000000 0.041241 0.000000
# 6 0.000000 0.000000 0.000000 0.000000 0.000000 0.009748
#
#
# Mechanical properties :
#
#
# Convention : Reuss Voigt Hill
#
# Bulk Modulus (GPa) = 30.92895 32.07252 31.50073
# Shear Modulus (GPa) = 23.47791 39.99240 31.73515
#
# Velocity S-wave (km/s) = 3.49828 4.56577 4.06720
# Velocity P-wave (km/s) = 5.69554 6.67180 6.20290
#
# Compressibility (1/GPa) = 0.03233217
#
# Stress axis : x y z
#
# Youngs Moduli (GPa) = 66.34668 66.49367 69.53240
#
# Poissons Ratio (x) = 0.05819 0.01022
# Poissons Ratio (y) = 0.05806 0.35172
# Poissons Ratio (z) = 0.00975 0.33635
#
# Static dielectric constant tensor:
#      x y z
#    x 1.719610 0.000000 0.000000 
#    y 0.000000 1.686780 0.000000 
#    z 0.000000 0.000000 1.670440 
# 
# From -- ./inp_files/17353.got.cif
#   From: 2010.05.17/outbox.cif.g08.bks.cpg/sg39_9_cif.got.tgz:17353.got - 2010.06.03 18:22:40.
