data_PCOD9360827
_publ_section_title
;
Structure prediction by ZEFSAII (Michael W. Deem and Ramdas Pophale) SiO2 
 PCOD9360827
Probable space group: A B M 2
;
_chemical_formula_sum "Si O2"
_cell_formula_units_Z 40
_cell_length_a 9.651515
_cell_length_b 18.163437
_cell_length_c 9.419859
_cell_angle_alpha 90.000000
_cell_angle_beta 90.000000
_cell_angle_gamma 90.000000
_cell_volume 1651.345412
_symmetry_space_group_name_H-M "A B M 2"
_symmetry_group_IT_number 39
_symmetry_cell_setting 'orthorhombic'
loop_
_space_group_symop_operation_xyz
x,y,z
-x,-y,z
-x,1/2+y,z
x,1/2-y,z
x,1/2+y,1/2+z
-x,1/2-y,1/2+z
-x,y,1/2+z
x,-y,1/2+z
loop_
_atom_site_type_symbol
_atom_site_label
_atom_site_fract_x
_atom_site_fract_y
_atom_site_fract_z
Si Si1 0.493176 0.661576 0.922960
Si Si2 0.689490 0.163291 0.190622
Si Si3 0.139969 0.953505 0.496935
Si Si4 0.745421 0.569339 0.284319
Si Si5 0.074655 0.162690 0.471502
O O1 0.466882 0.750000 0.893397
O O2 0.640554 0.643936 0.849766
O O3 0.392901 0.604588 0.843622
O O4 0.444858 0.653034 0.086327
O O5 0.717143 0.250000 0.197230
O O6 0.821831 0.135426 0.099537
O O7 0.251032 0.949890 0.621026
O O8 0.074902 0.873347 0.477135
O O9 0.202515 0.997155 0.365816
O O10 0.000000 0.000000 0.538835
O O11 0.857817 0.631729 0.326902
O O12 0.070800 0.250000 0.471441
#
# Coordination Sequence:
#
# PCOD9360827 Si02
#       5
#     8   8   8   8   8
#     4   9  17  33  58  85 113 146 186 234 290 350
#     4   8  15  30  54  83 113 143 177 226 288 345
#     4  10  20  36  57  78 110 154 193 237 293 349
#     4  10  20  36  57  79 112 155 193 234 290 348
#     4   9  18  33  57  87 114 143 188 244 298 354
#
# _framework density 24.222674999999999
#
# number of rings (size 3 to 8) (size 9 to 14) (size 15 to 20)
#    0.000    2.800    0.000    3.600    0.000    1.600 
#    0.000   10.000    0.000   31.200    0.000    0.000 
#    0.000    0.000    0.000    6.000    0.000    0.000 
#
# Total GULP energy -111614.576429 kJ/mol
# GULP energy per Si atom -5580.728821 kJ/mol
# Density = 2.416754 g / cm^3
# Si number density = 24.222675 Si / 1000 Ang^3
#
#
#
# Elastic Constant Matrix: (Units=GPa)
#
#
# Indices 1 2 3 4 5 6 
#
# 1 80.2289 31.4199 28.3964 0.0000 0.0000 0.0000
# 2 31.4199 111.9210 29.1534 0.0000 0.0000 0.0000
# 3 28.3964 29.1534 75.0549 0.0000 0.0000 0.0000
# 4 0.0000 0.0000 0.0000 18.4362 0.0000 0.0000
# 5 0.0000 0.0000 0.0000 0.0000 21.5754 0.0000
# 6 0.0000 0.0000 0.0000 0.0000 0.0000 30.2244
#
#
#
# Elastic Compliance Matrix: (Units=1/GPa)
#
#
# Indices 1 2 3 4 5 6 
#
# 1 0.015302 -0.003101 -0.004585 0.000000 0.000000 0.000000
# 2 -0.003101 0.010569 -0.002932 0.000000 0.000000 0.000000
# 3 -0.004585 -0.002932 0.016197 0.000000 0.000000 0.000000
# 4 0.000000 0.000000 0.000000 0.054241 0.000000 0.000000
# 5 0.000000 0.000000 0.000000 0.000000 0.046349 0.000000
# 6 0.000000 0.000000 0.000000 0.000000 0.000000 0.033086
#
#
# Mechanical properties :
#
#
# Convention : Reuss Voigt Hill
#
# Bulk Modulus (GPa) = 48.00335 49.46045 48.73190
# Shear Modulus (GPa) = 24.51895 25.92954 25.22424
#
# Velocity S-wave (km/s) = 3.18501 3.27535 3.23049
# Velocity P-wave (km/s) = 5.77809 5.89638 5.83753
#
# Compressibility (1/GPa) = 0.02083188
#
# Stress axis : x y z
#
# Youngs Moduli (GPa) = 65.35250 94.61376 61.73996
#
# Poissons Ratio (x) = 0.29344 0.28305
# Poissons Ratio (y) = 0.20269 0.18102
# Poissons Ratio (z) = 0.29961 0.27741
#
# Static dielectric constant tensor:
#      x y z
#    x 1.949330 0.000000 0.000000 
#    y 0.000000 1.911940 0.000000 
#    z 0.000000 0.000000 1.973620 
# 
# From -- ./inp_files/2519.got.cif
#   From: 2010.05.17/outbox.cif.g08.bks.cpg/sg39_2_cif.got.tgz:2519.got - 2010.06.03 18:22:40.
