data_PCOD9360956
_publ_section_title
;
Structure prediction by ZEFSAII (Michael W. Deem and Ramdas Pophale) SiO2 
 PCOD9360956
Probable space group: A B M 2
;
_chemical_formula_sum "Si O2"
_cell_formula_units_Z 48
_cell_length_a 5.024931
_cell_length_b 20.161923
_cell_length_c 19.620908
_cell_angle_alpha 90.000000
_cell_angle_beta 90.000000
_cell_angle_gamma 90.000000
_cell_volume 1987.838766
_symmetry_space_group_name_H-M "A B M 2"
_symmetry_group_IT_number 39
_symmetry_cell_setting 'orthorhombic'
loop_
_space_group_symop_operation_xyz
x,y,z
-x,-y,z
-x,1/2+y,z
x,1/2-y,z
x,1/2+y,1/2+z
-x,1/2-y,1/2+z
-x,y,1/2+z
x,-y,1/2+z
loop_
_atom_site_type_symbol
_atom_site_label
_atom_site_fract_x
_atom_site_fract_y
_atom_site_fract_z
Si Si1 0.316192 0.598670 0.038830
Si Si2 0.838945 0.436391 0.182971
Si Si3 0.401000 0.750000 0.039767
Si Si4 0.188833 0.899755 0.445584
Si Si5 0.101172 0.250000 0.962231
Si Si6 0.922643 0.175708 0.758363
Si Si7 0.420575 0.886465 0.308637
O O1 0.320882 0.676463 0.064615
O O2 0.256419 0.558264 0.106217
O O3 0.596129 0.584979 0.003587
O O4 0.095435 0.586448 0.979918
O O5 0.033008 0.372490 0.193878
O O6 0.000000 0.500000 0.204079
O O7 0.607578 0.426604 0.238268
O O8 0.719760 0.750000 0.031742
O O9 0.217162 0.750000 0.970770
O O10 0.190014 0.820038 0.433323
O O11 0.299779 0.925368 0.373290
O O12 0.840643 0.250000 0.741511
O O13 0.716300 0.141979 0.811052
O O14 0.213835 0.172793 0.791660
#
# Coordination Sequence:
#
# PCOD9360956 Si02
#       7
#     8   8   4   8   4   8   8
#     4  10  21  37  63  89 129 169 217 270 328 392
#     4  10  26  46  69  95 139 183 230 274 344 406
#     4   8  16  32  49  87 118 160 200 254 322 376
#     4  10  20  37  59  96 127 167 216 271 328 392
#     4   8  16  28  51  81 126 158 190 254 326 384
#     4  10  23  41  68 102 133 172 226 281 335 403
#     4  10  23  41  68  98 135 175 223 275 344 398
#
# _framework density 24.146826000000001
#
# number of rings (size 3 to 8) (size 9 to 14) (size 15 to 20)
#    1.000    1.333    0.000    1.500    5.833    0.667 
#    3.000    0.833    3.667    0.000    0.000    0.000 
#    0.000    0.000    0.000    0.000    0.000    0.000 
#
# Total GULP energy -133738.253983 kJ/mol
# GULP energy per Si atom -5572.427249 kJ/mol
# Density = 2.409187 g / cm^3
# Si number density = 24.146826 Si / 1000 Ang^3
#
#
#
# Elastic Constant Matrix: (Units=GPa)
#
#
# Indices 1 2 3 4 5 6 
#
# 1 75.3700 5.3652 -7.6303 0.0000 0.0000 0.0000
# 2 5.3652 38.8081 8.2138 0.0000 0.0000 0.0000
# 3 -7.6303 8.2138 76.0701 0.0000 0.0000 0.0000
# 4 0.0000 0.0000 0.0000 -187.0235 0.0000 0.0000
# 5 0.0000 0.0000 0.0000 0.0000 23.2561 0.0000
# 6 0.0000 0.0000 0.0000 0.0000 0.0000 18.8525
#
#
#
# Elastic Compliance Matrix: (Units=1/GPa)
#
#
# Indices 1 2 3 4 5 6 
#
# 1 0.013588 -0.002218 0.001602 0.000000 0.000000 0.000000
# 2 -0.002218 0.026732 -0.003109 0.000000 0.000000 0.000000
# 3 0.001602 -0.003109 0.013642 0.000000 0.000000 0.000000
# 4 0.000000 0.000000 0.000000 -0.005347 0.000000 0.000000
# 5 0.000000 0.000000 0.000000 0.000000 0.043000 0.000000
# 6 0.000000 0.000000 0.000000 0.000000 0.000000 0.053043
#
#
# Mechanical properties :
#
#
# Convention : Reuss Voigt Hill
#
# Bulk Modulus (GPa) = 21.49880 22.46060 21.97970
# Shear Modulus (GPa) = 29.83086 -16.69635 6.56726
#
# Velocity S-wave (km/s) = 3.51863 -2.63240 1.65095
# Velocity P-wave (km/s) = 5.04285 0.28724 3.57162
#
# Compressibility (1/GPa) = 0.04651423
#
# Stress axis : x y z
#
# Youngs Moduli (GPa) = 73.59449 37.40776 73.30194
#
# Poissons Ratio (x) = 0.08296 -0.11746
# Poissons Ratio (y) = 0.16321 0.22789
# Poissons Ratio (z) = -0.11793 0.11630
#
# Static dielectric constant tensor:
#      x y z
#    x 1.897040 0.000000 0.000000 
#    y 0.000000 2.008840 0.000000 
#    z 0.000000 0.000000 1.925450 
# 
# From -- ./inp_files/13520.got.cif
#   From: 2010.05.17/outbox.cif.g08.bks.cpg/sg39_7_cif.got.tgz:13520.got - 2010.06.03 18:22:40.
