data_PCOD9360242
_publ_section_title
;
Structure prediction by ZEFSAII (Michael W. Deem and Ramdas Pophale) SiO2 
 PCOD9360242
Probable space group: A B M 2
;
_chemical_formula_sum "Si O2"
_cell_formula_units_Z 64
_cell_length_a 24.669755
_cell_length_b 9.191946
_cell_length_c 15.531786
_cell_angle_alpha 90.000000
_cell_angle_beta 90.000000
_cell_angle_gamma 90.000000
_cell_volume 3522.035255
_symmetry_space_group_name_H-M "A B M 2"
_symmetry_group_IT_number 39
_symmetry_cell_setting 'orthorhombic'
loop_
_space_group_symop_operation_xyz
x,y,z
-x,-y,z
-x,1/2+y,z
x,1/2-y,z
x,1/2+y,1/2+z
-x,1/2-y,1/2+z
-x,y,1/2+z
x,-y,1/2+z
loop_
_atom_site_type_symbol
_atom_site_label
_atom_site_fract_x
_atom_site_fract_y
_atom_site_fract_z
Si Si1 0.054678 0.419176 0.865590
Si Si2 0.632343 0.574619 0.460367
Si Si3 0.054321 0.580962 0.574149
Si Si4 0.835080 0.076413 0.818438
Si Si5 0.441952 0.924767 0.319485
Si Si6 0.443185 0.076687 0.619947
Si Si7 0.174001 0.424339 0.124764
Si Si8 0.241703 0.575180 0.977216
O O1 0.052755 0.250000 0.842125
O O2 0.108249 0.495075 0.830292
O O3 0.000000 0.500000 0.837598
O O4 0.057185 0.428833 0.970073
O O5 0.628247 0.750000 0.447724
O O6 0.601826 0.492455 0.383647
O O7 0.601943 0.537950 0.549799
O O8 0.695527 0.535615 0.465927
O O9 0.049555 0.750000 0.598156
O O10 0.111801 0.525503 0.609214
O O11 0.000000 0.500000 0.602856
O O12 0.845045 0.250000 0.824603
O O13 0.811918 0.047249 0.723801
O O14 0.793595 0.034582 0.893509
O O15 0.445935 0.750000 0.329688
O O16 0.428555 0.957328 0.219133
O O17 0.500000 0.000000 0.337436
O O18 0.451449 0.250000 0.615369
O O19 0.500000 0.000000 0.599459
O O20 0.174780 0.250000 0.109637
O O21 0.213964 0.501031 0.058905
O O22 0.238982 0.750000 0.986686
#
# Coordination Sequence:
#
# PCOD9360242 Si02
#       8
#     8   8   8   8   8   8   8   8
#     4  10  19  33  55  81 109 141 176 219 274 333
#     4  10  21  37  56  80 112 148 187 230 272 322
#     4   9  18  32  52  77 104 135 170 214 267 324
#     4  10  21  37  57  80 109 144 182 227 279 332
#     4  10  20  35  56  84 114 146 181 221 271 323
#     4   9  19  35  55  80 113 146 178 220 268 320
#     4  10  21  38  57  79 108 142 182 228 275 327
#     4  10  22  39  57  79 109 146 187 231 277 321
#
# _framework density 18.171312
#
# number of rings (size 3 to 8) (size 9 to 14) (size 15 to 20)
#    0.000    2.250    1.250    1.125    0.000    5.500 
#    0.000    1.250    0.000    0.000    0.000    0.000 
#    0.000    0.000    0.000    0.000    0.000    0.000 
#
# Total GULP energy -178652.183392 kJ/mol
# GULP energy per Si atom -5582.880731 kJ/mol
# Density = 1.812995 g / cm^3
# Si number density = 18.171312 Si / 1000 Ang^3
#
#
#
# Elastic Constant Matrix: (Units=GPa)
#
#
# Indices 1 2 3 4 5 6 
#
# 1 166.0303 61.3733 100.6032 0.0000 0.0000 0.0000
# 2 61.3733 43.0244 59.4201 0.0000 0.0000 0.0000
# 3 100.6032 59.4201 112.8017 0.0000 0.0000 0.0000
# 4 0.0000 0.0000 0.0000 13.7385 0.0000 0.0000
# 5 0.0000 0.0000 0.0000 0.0000 -8.6854 0.0000
# 6 0.0000 0.0000 0.0000 0.0000 0.0000 30.9557
#
#
#
# Elastic Compliance Matrix: (Units=1/GPa)
#
#
# Indices 1 2 3 4 5 6 
#
# 1 0.014221 -0.010164 -0.007329 0.000000 0.000000 0.000000
# 2 -0.010164 0.092560 -0.039693 0.000000 0.000000 0.000000
# 3 -0.007329 -0.039693 0.036311 0.000000 0.000000 0.000000
# 4 0.000000 0.000000 0.000000 0.072788 0.000000 0.000000
# 5 0.000000 0.000000 0.000000 0.000000 -0.115136 0.000000
# 6 0.000000 0.000000 0.000000 0.000000 0.000000 0.032304
#
#
# Mechanical properties :
#
#
# Convention : Reuss Voigt Hill
#
# Bulk Modulus (GPa) = 34.81907 84.96108 59.89007
# Shear Modulus (GPa) = 19.45580 13.89907 16.67743
#
# Velocity S-wave (km/s) = 3.27569 2.76867 3.03279
# Velocity P-wave (km/s) = 5.78878 7.55498 6.73007
#
# Compressibility (1/GPa) = 0.02871990
#
# Stress axis : x y z
#
# Youngs Moduli (GPa) = 70.31811 10.80384 27.54012
#
# Poissons Ratio (x) = 0.10981 0.20185
# Poissons Ratio (y) = 0.71469 1.09314
# Poissons Ratio (z) = 0.51538 0.42883
#
# Static dielectric constant tensor:
#      x y z
#    x 1.587580 0.000000 0.000000 
#    y 0.000000 1.610190 0.000000 
#    z 0.000000 0.000000 1.631820 
# 
# From -- ./inp_files/10559.got.cif
#   From: 2010.05.17/outbox.cif.g08.bks.cpg/sg39_6_cif.got.tgz:10559.got - 2010.06.03 18:22:40.
