data_PCOD9360025
_publ_section_title
;
Structure prediction by ZEFSAII (Michael W. Deem and Ramdas Pophale) SiO2 
 PCOD9360025
Probable space group: A B M 2
;
_chemical_formula_sum "Si O2"
_cell_formula_units_Z 40
_cell_length_a 14.685609
_cell_length_b 13.873595
_cell_length_c 7.945234
_cell_angle_alpha 90.000000
_cell_angle_beta 90.000000
_cell_angle_gamma 90.000000
_cell_volume 1618.779388
_symmetry_space_group_name_H-M "A B M 2"
_symmetry_group_IT_number 39
_symmetry_cell_setting 'orthorhombic'
loop_
_space_group_symop_operation_xyz
x,y,z
-x,-y,z
-x,1/2+y,z
x,1/2-y,z
x,1/2+y,1/2+z
-x,1/2-y,1/2+z
-x,y,1/2+z
x,-y,1/2+z
loop_
_atom_site_type_symbol
_atom_site_label
_atom_site_fract_x
_atom_site_fract_y
_atom_site_fract_z
Si Si1 0.293179 0.861032 0.712030
Si Si2 0.064743 0.081407 0.756663
Si Si3 0.620017 0.133204 0.385926
Si Si4 0.418308 0.132730 0.512162
Si Si5 0.115416 0.604223 0.911670
O O1 0.324056 0.750000 0.698324
O O2 0.305504 0.899155 0.523145
O O3 0.192610 0.859617 0.788278
O O4 0.357648 0.903712 0.857171
O O5 0.123263 0.127613 0.609194
O O6 0.985834 0.137902 0.853977
O O7 0.118828 0.011961 0.881758
O O8 0.000000 0.000000 0.665293
O O9 0.626615 0.250000 0.368586
O O10 0.523368 0.110533 0.474468
O O11 0.616726 0.098441 0.193581
O O12 0.413013 0.250000 0.513964
#
# Coordination Sequence:
#
# PCOD9360025 Si02
#       5
#     8   8   8   8   8
#     4  10  19  29  45  76 109 127 154 197 241 294
#     4   8  14  32  54  67  85 114 164 210 235 276
#     4   9  15  26  43  64  98 139 168 187 221 279
#     4   9  15  26  43  64  97 140 168 186 222 280
#     4   9  16  32  53  74  89 118 163 211 240 282
#
# _framework density 24.709976999999999
#
# number of rings (size 3 to 8) (size 9 to 14) (size 15 to 20)
#    1.200    1.600    4.000    0.000    0.000    0.000 
#    7.200    1.000    0.000    0.000    0.000    4.200 
#    0.000    0.000    0.000    0.000    0.000    0.000 
#
# Total GULP energy -111457.762662 kJ/mol
# GULP energy per Si atom -5572.888133 kJ/mol
# Density = 2.465374 g / cm^3
# Si number density = 24.709977 Si / 1000 Ang^3
#
#
#
# Elastic Constant Matrix: (Units=GPa)
#
#
# Indices 1 2 3 4 5 6 
#
# 1 55.9650 5.9126 20.5164 0.0000 0.0000 0.0000
# 2 5.9126 67.7254 18.5852 0.0000 0.0000 0.0000
# 3 20.5164 18.5852 114.1374 0.0000 0.0000 0.0000
# 4 0.0000 0.0000 0.0000 18.9577 0.0000 0.0000
# 5 0.0000 0.0000 0.0000 0.0000 39.3201 0.0000
# 6 0.0000 0.0000 0.0000 0.0000 0.0000 18.7398
#
#
#
# Elastic Compliance Matrix: (Units=1/GPa)
#
#
# Indices 1 2 3 4 5 6 
#
# 1 0.019166 -0.000762 -0.003321 0.000000 0.000000 0.000000
# 2 -0.000762 0.015486 -0.002385 0.000000 0.000000 0.000000
# 3 -0.003321 -0.002385 0.009747 0.000000 0.000000 0.000000
# 4 0.000000 0.000000 0.000000 0.052749 0.000000 0.000000
# 5 0.000000 0.000000 0.000000 0.000000 0.025432 0.000000
# 6 0.000000 0.000000 0.000000 0.000000 0.000000 0.053362
#
#
# Mechanical properties :
#
#
# Convention : Reuss Voigt Hill
#
# Bulk Modulus (GPa) = 31.78244 36.42848 34.10546
# Shear Modulus (GPa) = 25.07942 28.25774 26.66858
#
# Velocity S-wave (km/s) = 3.18929 3.38535 3.28878
# Velocity P-wave (km/s) = 5.14317 5.48226 5.31542
#
# Compressibility (1/GPa) = 0.03146391
#
# Stress axis : x y z
#
# Youngs Moduli (GPa) = 52.17494 64.57261 102.59926
#
# Poissons Ratio (x) = 0.04920 0.34074
# Poissons Ratio (y) = 0.03975 0.24467
# Poissons Ratio (z) = 0.17328 0.15399
#
# Static dielectric constant tensor:
#      x y z
#    x 1.951390 0.000000 0.000000 
#    y 0.000000 2.040650 0.000000 
#    z 0.000000 0.000000 1.941950 
# 
# From -- ./inp_files/3071.got.cif
#   From: 2010.05.17/outbox.cif.g08.bks.cpg/sg39_2_cif.got.tgz:3071.got - 2010.06.03 18:22:40.
