data_PCOD9360934
_publ_section_title
;
Structure prediction by ZEFSAII (Michael W. Deem and Ramdas Pophale) SiO2 
 PCOD9360934
Probable space group: A B M 2
;
_chemical_formula_sum "Si O2"
_cell_formula_units_Z 64
_cell_length_a 10.517823
_cell_length_b 17.805859
_cell_length_c 18.194392
_cell_angle_alpha 90.000000
_cell_angle_beta 90.000000
_cell_angle_gamma 90.000000
_cell_volume 3407.425235
_symmetry_space_group_name_H-M "A B M 2"
_symmetry_group_IT_number 39
_symmetry_cell_setting 'orthorhombic'
loop_
_space_group_symop_operation_xyz
x,y,z
-x,-y,z
-x,1/2+y,z
x,1/2-y,z
x,1/2+y,1/2+z
-x,1/2-y,1/2+z
-x,y,1/2+z
x,-y,1/2+z
loop_
_atom_site_type_symbol
_atom_site_label
_atom_site_fract_x
_atom_site_fract_y
_atom_site_fract_z
Si Si1 0.155371 0.581144 0.310610
Si Si2 0.136151 0.998381 0.079642
Si Si3 0.306286 0.056377 0.952161
Si Si4 0.412280 0.610895 0.933667
Si Si5 0.621974 0.663784 0.724458
Si Si6 0.111435 0.075831 0.240604
Si Si7 0.359613 0.663596 0.771752
Si Si8 0.747595 0.333984 0.070316
O O1 0.199635 0.587723 0.395478
O O2 0.269658 0.617936 0.265555
O O3 0.146694 0.492958 0.293927
O O4 0.021448 0.607865 0.273661
O O5 0.170047 0.909613 0.084288
O O6 0.114470 0.039619 0.158430
O O7 0.000000 0.000000 0.039741
O O8 0.241982 0.041204 0.031380
O O9 0.436430 0.104890 0.950287
O O10 0.355666 0.973671 0.927513
O O11 0.383060 0.652100 0.857902
O O12 0.334489 0.651311 0.997854
O O13 0.624352 0.750000 0.753242
O O14 0.484507 0.627323 0.735719
O O15 0.654102 0.666956 0.639396
O O16 0.226218 0.132419 0.246398
O O17 0.362100 0.750000 0.751282
O O18 0.809139 0.250000 0.067209
#
# Coordination Sequence:
#
# PCOD9360934 Si02
#       8
#     8   8   8   8   8   8   8   8
#     4  11  20  40  60  88 119 157 203 253 301 355
#     4  11  22  40  61  90 123 161 206 253 302 369
#     4  10  22  35  60  88 117 156 203 250 305 356
#     4  10  20  37  57  89 117 154 202 255 304 356
#     4  10  21  37  60  86 115 158 202 244 302 364
#     4  11  23  37  61  90 122 156 203 255 301 357
#     4  11  23  38  59  87 122 160 199 251 311 367
#     4  10  21  38  60  86 121 160 199 250 310 366
#
# _framework density 18.782509000000001
#
# number of rings (size 3 to 8) (size 9 to 14) (size 15 to 20)
#    0.000    1.500    5.000    0.375    3.500    1.000 
#    0.000    0.625    0.000    3.000    0.000    0.000 
#    0.000    0.000    0.000    0.000    0.000    0.000 
#
# Total GULP energy -178214.031094 kJ/mol
# GULP energy per Si atom -5569.188472 kJ/mol
# Density = 1.873976 g / cm^3
# Si number density = 18.782509 Si / 1000 Ang^3
#
#
#
# Elastic Constant Matrix: (Units=GPa)
#
#
# Indices 1 2 3 4 5 6 
#
# 1 152.7746 45.9539 34.3604 0.0000 0.0000 0.0000
# 2 45.9539 37.6941 12.5120 0.0000 0.0000 0.0000
# 3 34.3604 12.5120 68.3461 0.0000 0.0000 0.0000
# 4 0.0000 0.0000 0.0000 8.2822 0.0000 0.0000
# 5 0.0000 0.0000 0.0000 0.0000 21.7513 0.0000
# 6 0.0000 0.0000 0.0000 0.0000 0.0000 25.6417
#
#
#
# Elastic Compliance Matrix: (Units=1/GPa)
#
#
# Indices 1 2 3 4 5 6 
#
# 1 0.010981 -0.012303 -0.003269 0.000000 0.000000 0.000000
# 2 -0.012303 0.042029 -0.001509 0.000000 0.000000 0.000000
# 3 -0.003269 -0.001509 0.016551 0.000000 0.000000 0.000000
# 4 0.000000 0.000000 0.000000 0.120741 0.000000 0.000000
# 5 0.000000 0.000000 0.000000 0.000000 0.045974 0.000000
# 6 0.000000 0.000000 0.000000 0.000000 0.000000 0.038999
#
#
# Mechanical properties :
#
#
# Convention : Reuss Voigt Hill
#
# Bulk Modulus (GPa) = 28.24829 49.38527 38.81678
# Shear Modulus (GPa) = 15.56491 22.20094 18.88292
#
# Velocity S-wave (km/s) = 2.88182 3.44175 3.17416
# Velocity P-wave (km/s) = 5.11327 6.49188 5.84337
#
# Compressibility (1/GPa) = 0.03540038
#
# Stress axis : x y z
#
# Youngs Moduli (GPa) = 91.06418 23.79328 60.41965
#
# Poissons Ratio (x) = 0.29272 0.19748
# Poissons Ratio (y) = 1.12033 0.09118
# Poissons Ratio (z) = 0.29764 0.03591
#
# Static dielectric constant tensor:
#      x y z
#    x 1.713140 0.000000 0.000000 
#    y 0.000000 1.669500 0.000000 
#    z 0.000000 0.000000 1.666400 
# 
# From -- ./inp_files/11934.got.cif
#   From: 2010.05.17/outbox.cif.g08.bks.cpg/sg39_6_cif.got.tgz:11934.got - 2010.06.03 18:22:40.
