data_PCOD9360939
_publ_section_title
;
Structure prediction by ZEFSAII (Michael W. Deem and Ramdas Pophale) SiO2 
 PCOD9360939
Probable space group: A B M 2
;
_chemical_formula_sum "Si O2"
_cell_formula_units_Z 64
_cell_length_a 25.625165
_cell_length_b 7.916951
_cell_length_c 14.657643
_cell_angle_alpha 90.000000
_cell_angle_beta 90.000000
_cell_angle_gamma 90.000000
_cell_volume 2973.642583
_symmetry_space_group_name_H-M "A B M 2"
_symmetry_group_IT_number 39
_symmetry_cell_setting 'orthorhombic'
loop_
_space_group_symop_operation_xyz
x,y,z
-x,-y,z
-x,1/2+y,z
x,1/2-y,z
x,1/2+y,1/2+z
-x,1/2-y,1/2+z
-x,y,1/2+z
x,-y,1/2+z
loop_
_atom_site_type_symbol
_atom_site_label
_atom_site_fract_x
_atom_site_fract_y
_atom_site_fract_z
Si Si1 0.559440 0.046716 0.344120
Si Si2 0.871216 0.956678 0.637545
Si Si3 0.143364 0.051217 0.429100
Si Si4 0.256851 0.946782 0.452811
Si Si5 0.632045 0.044857 0.499889
Si Si6 0.943019 0.555064 0.788004
Si Si7 0.758017 0.455770 0.164123
Si Si8 0.647889 0.450117 0.208836
O O1 0.561763 0.250000 0.342216
O O2 0.581328 0.993498 0.443039
O O3 0.601212 0.979958 0.270219
O O4 0.500000 0.000000 0.326990
O O5 0.871971 0.750000 0.635367
O O6 0.867314 0.011345 0.532650
O O7 0.919999 0.023813 0.694713
O O8 0.817007 0.003666 0.688311
O O9 0.133000 0.250000 0.426511
O O10 0.204896 0.024658 0.409761
O O11 0.102587 0.967128 0.361506
O O12 0.255853 0.750000 0.428113
O O13 0.316324 0.008669 0.442254
O O14 0.249618 0.973548 0.561873
O O15 0.634281 0.250000 0.506141
O O16 0.634835 0.975524 0.602004
O O17 0.949190 0.750000 0.767701
O O18 0.000000 0.500000 0.818735
O O19 0.756180 0.250000 0.158976
O O20 0.707596 0.513565 0.220995
O O21 0.650279 0.250000 0.227784
#
# Coordination Sequence:
#
# PCOD9360939 Si02
#       8
#     8   8   8   8   8   8   8   8
#     4  10  22  38  53  74 103 140 183 225 265 314
#     4   8  17  34  57  80 105 137 173 212 261 314
#     4  10  20  37  58  82 111 143 176 216 264 317
#     4   9  16  29  52  82 110 137 170 213 263 319
#     4   9  19  35  55  78 107 139 174 216 266 318
#     4  11  23  39  56  78 106 141 184 226 264 309
#     4   8  14  29  53  79 105 135 170 212 261 320
#     4   9  18  33  55  79 104 134 171 214 266 319
#
# _framework density 21.522425999999999
#
# number of rings (size 3 to 8) (size 9 to 14) (size 15 to 20)
#    0.000    2.750    0.000    1.875    0.000    3.500 
#    0.000   13.750    0.000    4.500    0.000    0.000 
#    0.000    0.000    0.000    0.000    0.000    0.000 
#
# Total GULP energy -178432.100286 kJ/mol
# GULP energy per Si atom -5576.003134 kJ/mol
# Density = 2.147344 g / cm^3
# Si number density = 21.522426 Si / 1000 Ang^3
#
#
#
# Elastic Constant Matrix: (Units=GPa)
#
#
# Indices 1 2 3 4 5 6 
#
# 1 118.1165 0.3754 16.6600 0.0000 0.0000 0.0000
# 2 0.3754 12.6737 -8.1517 0.0000 0.0000 0.0000
# 3 16.6600 -8.1517 39.4086 0.0000 0.0000 0.0000
# 4 0.0000 0.0000 0.0000 10.3750 0.0000 0.0000
# 5 0.0000 0.0000 0.0000 0.0000 25.6563 0.0000
# 6 0.0000 0.0000 0.0000 0.0000 0.0000 23.5486
#
#
#
# Elastic Compliance Matrix: (Units=1/GPa)
#
#
# Indices 1 2 3 4 5 6 
#
# 1 0.009112 -0.003169 -0.004508 0.000000 0.000000 0.000000
# 2 -0.003169 0.092114 0.020394 0.000000 0.000000 0.000000
# 3 -0.004508 0.020394 0.031499 0.000000 0.000000 0.000000
# 4 0.000000 0.000000 0.000000 0.096386 0.000000 0.000000
# 5 0.000000 0.000000 0.000000 0.000000 0.038977 0.000000
# 6 0.000000 0.000000 0.000000 0.000000 0.000000 0.042465
#
#
# Mechanical properties :
#
#
# Convention : Reuss Voigt Hill
#
# Bulk Modulus (GPa) = 6.32273 20.88515 13.60394
# Shear Modulus (GPa) = 14.79991 22.67033 18.73512
#
# Velocity S-wave (km/s) = 2.62515 3.24903 2.95361
# Velocity P-wave (km/s) = 3.48320 4.87852 4.23867
#
# Compressibility (1/GPa) = 0.15815948
#
# Stress axis : x y z
#
# Youngs Moduli (GPa) = 109.74431 10.85606 31.74677
#
# Poissons Ratio (x) = 0.03441 0.14311
# Poissons Ratio (y) = 0.34781 -0.64744
# Poissons Ratio (z) = 0.49470 -0.22140
#
# Static dielectric constant tensor:
#      x y z
#    x 1.823210 0.000000 0.000000 
#    y 0.000000 1.794170 0.000000 
#    z 0.000000 0.000000 1.796960 
# 
# From -- ./inp_files/10616.got.cif
#   From: 2010.05.17/outbox.cif.g08.bks.cpg/sg39_6_cif.got.tgz:10616.got - 2010.06.03 18:22:40.
