data_PCOD9360298
_publ_section_title
;
Structure prediction by ZEFSAII (Michael W. Deem and Ramdas Pophale) SiO2 
 PCOD9360298
Probable space group: A B M 2
;
_chemical_formula_sum "Si O2"
_cell_formula_units_Z 56
_cell_length_a 14.741796
_cell_length_b 8.776172
_cell_length_c 26.031351
_cell_angle_alpha 90.000000
_cell_angle_beta 90.000000
_cell_angle_gamma 90.000000
_cell_volume 3367.846053
_symmetry_space_group_name_H-M "A B M 2"
_symmetry_group_IT_number 39
_symmetry_cell_setting 'orthorhombic'
loop_
_space_group_symop_operation_xyz
x,y,z
-x,-y,z
-x,1/2+y,z
x,1/2-y,z
x,1/2+y,1/2+z
-x,1/2-y,1/2+z
-x,y,1/2+z
x,-y,1/2+z
loop_
_atom_site_type_symbol
_atom_site_label
_atom_site_fract_x
_atom_site_fract_y
_atom_site_fract_z
Si Si1 0.403344 0.432649 0.537920
Si Si2 0.100863 0.932694 0.978382
Si Si3 0.788312 0.433714 0.874466
Si Si4 0.595902 0.567006 0.417396
Si Si5 0.098927 0.067301 0.170992
Si Si6 0.900325 0.068145 0.281816
Si Si7 0.782284 0.567682 0.071908
O O1 0.500000 0.500000 0.554547
O O2 0.404257 0.250000 0.541256
O O3 0.391383 0.475224 0.477504
O O4 0.318170 0.499695 0.567977
O O5 0.097149 0.750000 0.983205
O O6 0.152087 0.969027 0.925081
O O7 0.000000 0.000000 0.978291
O O8 0.158296 0.999296 0.025548
O O9 0.790437 0.250000 0.867744
O O10 0.684822 0.480819 0.886170
O O11 0.831560 0.513076 0.825344
O O12 0.500000 0.500000 0.399822
O O13 0.591066 0.750000 0.415541
O O14 0.091671 0.250000 0.176075
O O15 0.168563 0.031286 0.125573
O O16 0.125312 0.996233 0.225763
O O17 0.000000 0.000000 0.157770
O O18 0.906226 0.250000 0.280188
O O19 0.000000 0.000000 0.293671
O O20 0.778856 0.750000 0.066541
#
# Coordination Sequence:
#
# PCOD9360298 Si02
#       7
#     8   8   8   8   8   8   8
#     4  10  19  34  54  79 109 143 180 220 266 318
#     4  11  22  35  50  74 109 145 178 214 265 321
#     4  10  20  36  54  76 108 142 177 217 265 316
#     4   9  18  33  52  77 106 140 176 215 260 311
#     4  10  21  37  56  78 105 140 181 223 267 314
#     4  11  22  36  56  80 104 138 181 223 268 314
#     4  11  22  35  54  80 108 142 180 220 269 320
#
# _framework density 16.627839000000002
#
# number of rings (size 3 to 8) (size 9 to 14) (size 15 to 20)
#    0.000    1.714    1.429    4.714    0.000    6.857 
#    0.000    0.000    0.000    0.857    0.000    4.000 
#    0.000    0.000    0.000    0.000    0.000    0.000 
#
# Total GULP energy -156394.786820 kJ/mol
# GULP energy per Si atom -5585.528101 kJ/mol
# Density = 1.658999 g / cm^3
# Si number density = 16.627839 Si / 1000 Ang^3
#
#
#
# Elastic Constant Matrix: (Units=GPa)
#
#
# Indices 1 2 3 4 5 6 
#
# 1 172.9859 68.2529 101.6178 0.0000 0.0000 0.0000
# 2 68.2529 71.4935 62.1416 0.0000 0.0000 0.0000
# 3 101.6178 62.1416 112.1371 0.0000 0.0000 0.0000
# 4 0.0000 0.0000 0.0000 26.3132 0.0000 0.0000
# 5 0.0000 0.0000 0.0000 0.0000 16.8874 0.0000
# 6 0.0000 0.0000 0.0000 0.0000 0.0000 32.7556
#
#
#
# Elastic Compliance Matrix: (Units=1/GPa)
#
#
# Indices 1 2 3 4 5 6 
#
# 1 0.012978 -0.004182 -0.009443 0.000000 0.000000 0.000000
# 2 -0.004182 0.028333 -0.011911 0.000000 0.000000 0.000000
# 3 -0.009443 -0.011911 0.024076 0.000000 0.000000 0.000000
# 4 0.000000 0.000000 0.000000 0.038004 0.000000 0.000000
# 5 0.000000 0.000000 0.000000 0.000000 0.059216 0.000000
# 6 0.000000 0.000000 0.000000 0.000000 0.000000 0.030529
#
#
# Mechanical properties :
#
#
# Convention : Reuss Voigt Hill
#
# Bulk Modulus (GPa) = 69.86203 91.18233 80.52218
# Shear Modulus (GPa) = 20.08202 23.49820 21.79011
#
# Velocity S-wave (km/s) = 3.47902 3.76331 3.62395
# Velocity P-wave (km/s) = 7.63180 8.59299 8.12662
#
# Compressibility (1/GPa) = 0.01431393
#
# Stress axis : x y z
#
# Youngs Moduli (GPa) = 77.05309 35.29483 41.53556
#
# Poissons Ratio (x) = 0.14760 0.39223
# Poissons Ratio (y) = 0.32222 0.49474
# Poissons Ratio (z) = 0.72763 0.42041
#
# Static dielectric constant tensor:
#      x y z
#    x 1.546610 0.000000 0.000000 
#    y 0.000000 1.557030 0.000000 
#    z 0.000000 0.000000 1.539160 
# 
# From -- ./inp_files/14794.got.cif
#   From: 2010.05.17/outbox.cif.g08.bks.cpg/sg39_8_cif.got.tgz:14794.got - 2010.06.03 18:22:40.
