data_PCOD9360906
_publ_section_title
;
Structure prediction by ZEFSAII (Michael W. Deem and Ramdas Pophale) SiO2 
 PCOD9360906
Probable space group: A B M 2
;
_chemical_formula_sum "Si O2"
_cell_formula_units_Z 48
_cell_length_a 13.104784
_cell_length_b 17.656846
_cell_length_c 8.800669
_cell_angle_alpha 90.000000
_cell_angle_beta 90.000000
_cell_angle_gamma 90.000000
_cell_volume 2036.379345
_symmetry_space_group_name_H-M "A B M 2"
_symmetry_group_IT_number 39
_symmetry_cell_setting 'orthorhombic'
loop_
_space_group_symop_operation_xyz
x,y,z
-x,-y,z
-x,1/2+y,z
x,1/2-y,z
x,1/2+y,1/2+z
-x,1/2-y,1/2+z
-x,y,1/2+z
x,-y,1/2+z
loop_
_atom_site_type_symbol
_atom_site_label
_atom_site_fract_x
_atom_site_fract_y
_atom_site_fract_z
Si Si1 0.336299 0.023385 0.450300
Si Si2 0.620425 0.397226 0.227642
Si Si3 0.038386 0.159223 0.034559
Si Si4 0.149969 0.839730 0.214935
Si Si5 0.482984 0.250000 0.867421
Si Si6 0.350723 0.250000 0.158904
Si Si7 0.770047 0.404015 0.673803
O O1 0.395696 0.967207 0.339452
O O2 0.271889 0.968846 0.561863
O O3 0.404412 0.076869 0.557010
O O4 0.263697 0.072390 0.341640
O O5 0.742163 0.380580 0.225933
O O6 0.562940 0.324541 0.288207
O O7 0.047834 0.250000 0.065794
O O8 0.111845 0.112181 0.145461
O O9 0.921590 0.139831 0.072274
O O10 0.082065 0.146600 0.865978
O O11 0.171880 0.750000 0.208996
O O12 0.602443 0.250000 0.828199
O O13 0.443083 0.250000 0.038628
O O14 0.285515 0.174907 0.132552
#
# Coordination Sequence:
#
# PCOD9360906 Si02
#       7
#     8   8   8   8   4   4   8
#     4  10  24  40  70  94 130 180 210 252 334 388
#     4  11  22  46  67  93 134 172 214 265 319 382
#     4  10  20  36  61  93 126 170 217 266 315 366
#     4  10  20  36  61  93 126 170 217 266 315 366
#     4  12  26  46  73 100 126 163 218 273 319 377
#     4  12  26  46  73 100 126 163 218 273 319 377
#     4  11  22  46  67  93 134 172 214 265 319 382
#
# _framework density 23.571248000000001
#
# number of rings (size 3 to 8) (size 9 to 14) (size 15 to 20)
#    0.000    1.333    5.000    0.000    4.667    0.000 
#    0.000   10.000    0.000    0.000    0.000    0.000 
#    0.000    0.000    0.000    0.000    0.000    0.000 
#
# Total GULP energy -134414.111949 kJ/mol
# GULP energy per Si atom -5600.587998 kJ/mol
# Density = 2.351760 g / cm^3
# Si number density = 23.571248 Si / 1000 Ang^3
#
#
#
# Elastic Constant Matrix: (Units=GPa)
#
#
# Indices 1 2 3 4 5 6 
#
# 1 81.0010 18.7789 9.7371 0.0000 0.0000 0.0000
# 2 18.7789 81.5695 35.8687 0.0000 0.0000 0.0000
# 3 9.7371 35.8687 97.7958 0.0000 0.0000 0.0000
# 4 0.0000 0.0000 0.0000 33.2542 0.0000 0.0000
# 5 0.0000 0.0000 0.0000 0.0000 28.2826 0.0000
# 6 0.0000 0.0000 0.0000 0.0000 0.0000 6.0603
#
#
#
# Elastic Compliance Matrix: (Units=1/GPa)
#
#
# Indices 1 2 3 4 5 6 
#
# 1 0.013046 -0.002900 -0.000235 0.000000 0.000000 0.000000
# 2 -0.002900 0.015262 -0.005309 0.000000 0.000000 0.000000
# 3 -0.000235 -0.005309 0.012196 0.000000 0.000000 0.000000
# 4 0.000000 0.000000 0.000000 0.030071 0.000000 0.000000
# 5 0.000000 0.000000 0.000000 0.000000 0.035357 0.000000
# 6 0.000000 0.000000 0.000000 0.000000 0.000000 0.165010
#
#
# Mechanical properties :
#
#
# Convention : Reuss Voigt Hill
#
# Bulk Modulus (GPa) = 42.34513 43.23729 42.79121
# Shear Modulus (GPa) = 16.90892 26.58486 21.74689
#
# Velocity S-wave (km/s) = 2.68125 3.36199 3.04073
# Velocity P-wave (km/s) = 5.25254 5.78392 5.52462
#
# Compressibility (1/GPa) = 0.02361546
#
# Stress axis : x y z
#
# Youngs Moduli (GPa) = 76.65105 65.52413 81.99473
#
# Poissons Ratio (x) = 0.19002 0.01929
# Poissons Ratio (y) = 0.22229 0.43529
# Poissons Ratio (z) = 0.01804 0.34785
#
# Static dielectric constant tensor:
#      x y z
#    x 1.840300 0.000000 0.000000 
#    y 0.000000 1.866740 0.000000 
#    z 0.000000 0.000000 1.912930 
# 
# From -- ./inp_files/3265.got.cif
#   From: 2010.05.17/outbox.cif.g08.bks.cpg/sg39_2_cif.got.tgz:3265.got - 2010.06.03 18:22:40.
