data_PCOD9360415
_publ_section_title
;
Structure prediction by ZEFSAII (Michael W. Deem and Ramdas Pophale) SiO2 
 PCOD9360415
Probable space group: A B M 2
;
_chemical_formula_sum "Si O2"
_cell_formula_units_Z 44
_cell_length_a 7.412221
_cell_length_b 9.041446
_cell_length_c 29.988025
_cell_angle_alpha 90.000000
_cell_angle_beta 90.000000
_cell_angle_gamma 90.000000
_cell_volume 2009.713346
_symmetry_space_group_name_H-M "A B M 2"
_symmetry_group_IT_number 39
_symmetry_cell_setting 'orthorhombic'
loop_
_space_group_symop_operation_xyz
x,y,z
-x,-y,z
-x,1/2+y,z
x,1/2-y,z
x,1/2+y,1/2+z
-x,1/2-y,1/2+z
-x,y,1/2+z
x,-y,1/2+z
loop_
_atom_site_type_symbol
_atom_site_label
_atom_site_fract_x
_atom_site_fract_y
_atom_site_fract_z
Si Si1 0.197993 0.927870 0.158440
Si Si2 0.832728 0.919714 0.385874
Si Si3 0.193044 0.420678 0.755827
Si Si4 0.685205 0.573197 0.969939
Si Si5 0.500000 0.000000 0.825729
Si Si6 0.198654 0.070989 0.561950
O O1 0.183298 0.750000 0.157081
O O2 0.270689 0.970801 0.207187
O O3 0.283897 0.966646 0.110415
O O4 0.000000 0.000000 0.158081
O O5 0.877828 0.750000 0.395300
O O6 0.644146 0.920500 0.358535
O O7 0.812886 0.014151 0.431032
O O8 0.000000 0.000000 0.361186
O O9 0.142877 0.250000 0.751975
O O10 0.352009 0.429772 0.792189
O O11 0.000000 0.500000 0.763482
O O12 0.500000 0.500000 0.955346
O O13 0.682263 0.750000 0.971779
O O14 0.719060 0.504843 0.018573
O O15 0.194268 0.250000 0.556330
O O16 0.000000 0.000000 0.563536
#
# Coordination Sequence:
#
# PCOD9360415 Si02
#       6
#     8   8   8   8   4   8
#     4   8  16  33  59  89 127 169 215 265 317 380
#     4  12  27  47  71  98 132 174 222 276 336 400
#     4  10  22  42  67  98 134 175 223 275 332 392
#     4  12  25  43  66  94 131 171 215 268 327 393
#     4  12  26  42  70  98 134 170 226 274 340 394
#     4  10  19  35  61  93 130 172 218 265 318 383
#
# _framework density 21.893671000000001
#
# number of rings (size 3 to 8) (size 9 to 14) (size 15 to 20)
#    0.000    1.455    0.909    4.364    0.000    5.818 
#    1.636    0.000    0.000    0.000    0.000    0.000 
#    0.000    0.000    0.000    0.000    0.000    0.000 
#
# Total GULP energy -122535.492911 kJ/mol
# GULP energy per Si atom -5569.795132 kJ/mol
# Density = 2.184384 g / cm^3
# Si number density = 21.893671 Si / 1000 Ang^3
#
#
#
# Elastic Constant Matrix: (Units=GPa)
#
#
# Indices 1 2 3 4 5 6 
#
# 1 125.5597 40.9926 41.4113 0.0000 0.0000 0.0000
# 2 40.9926 128.7402 63.0387 0.0000 0.0000 0.0000
# 3 41.4113 63.0387 176.4527 0.0000 0.0000 0.0000
# 4 0.0000 0.0000 0.0000 21.4648 0.0000 0.0000
# 5 0.0000 0.0000 0.0000 0.0000 21.4435 0.0000
# 6 0.0000 0.0000 0.0000 0.0000 0.0000 20.5499
#
#
#
# Elastic Compliance Matrix: (Units=1/GPa)
#
#
# Indices 1 2 3 4 5 6 
#
# 1 0.009142 -0.002255 -0.001340 0.000000 0.000000 0.000000
# 2 -0.002255 0.009971 -0.003033 0.000000 0.000000 0.000000
# 3 -0.001340 -0.003033 0.007065 0.000000 0.000000 0.000000
# 4 0.000000 0.000000 0.000000 0.046588 0.000000 0.000000
# 5 0.000000 0.000000 0.000000 0.000000 0.046634 0.000000
# 6 0.000000 0.000000 0.000000 0.000000 0.000000 0.048662
#
#
# Mechanical properties :
#
#
# Convention : Reuss Voigt Hill
#
# Bulk Modulus (GPa) = 77.38319 80.18197 78.78258
# Shear Modulus (GPa) = 26.93591 31.71230 29.32411
#
# Velocity S-wave (km/s) = 3.51138 3.81000 3.66373
# Velocity P-wave (km/s) = 7.20149 7.48717 7.34572
#
# Compressibility (1/GPa) = 0.01292270
#
# Stress axis : x y z
#
# Youngs Moduli (GPa) = 109.37940 100.29437 141.53799
#
# Poissons Ratio (x) = 0.22616 0.18967
# Poissons Ratio (y) = 0.24664 0.42927
# Poissons Ratio (z) = 0.14657 0.30418
#
# Static dielectric constant tensor:
#      x y z
#    x 1.761930 0.000000 0.000000 
#    y 0.000000 1.750760 0.000000 
#    z 0.000000 0.000000 1.908190 
# 
# From -- ./inp_files/17479.got.cif
#   From: 2010.05.17/outbox.cif.g08.bks.cpg/sg39_9_cif.got.tgz:17479.got - 2010.06.03 18:22:40.
