data_PCOD9360446
_publ_section_title
;
Structure prediction by ZEFSAII (Michael W. Deem and Ramdas Pophale) SiO2 
 PCOD9360446
Probable space group: A B M 2
;
_chemical_formula_sum "Si O2"
_cell_formula_units_Z 60
_cell_length_a 19.183313
_cell_length_b 19.100323
_cell_length_c 9.206959
_cell_angle_alpha 90.000000
_cell_angle_beta 90.000000
_cell_angle_gamma 90.000000
_cell_volume 3373.498595
_symmetry_space_group_name_H-M "A B M 2"
_symmetry_group_IT_number 39
_symmetry_cell_setting 'orthorhombic'
loop_
_space_group_symop_operation_xyz
x,y,z
-x,-y,z
-x,1/2+y,z
x,1/2-y,z
x,1/2+y,1/2+z
-x,1/2-y,1/2+z
-x,y,1/2+z
x,-y,1/2+z
loop_
_atom_site_type_symbol
_atom_site_label
_atom_site_fract_x
_atom_site_fract_y
_atom_site_fract_z
Si Si1 0.209390 0.583480 0.332350
Si Si2 0.733845 0.456926 0.643501
Si Si3 0.930078 0.834419 0.397595
Si Si4 0.777692 0.831772 0.328781
Si Si5 0.402508 0.450497 0.585246
Si Si6 0.700247 0.329570 0.128978
Si Si7 0.500000 0.000000 0.831112
Si Si8 0.926751 0.664708 0.737838
O O1 0.227070 0.561315 0.494885
O O2 0.222984 0.515688 0.231587
O O3 0.265814 0.639119 0.273189
O O4 0.135546 0.621110 0.310191
O O5 0.731527 0.386462 0.739346
O O6 0.658180 0.490807 0.608250
O O7 0.927605 0.750000 0.395787
O O8 0.858146 0.856240 0.321004
O O9 0.930319 0.853840 0.567145
O O10 0.000334 0.853929 0.314582
O O11 0.771277 0.750000 0.282682
O O12 0.756547 0.834060 0.498410
O O13 0.363139 0.377553 0.581863
O O14 0.454685 0.453014 0.721704
O O15 0.445567 0.463242 0.439078
O O16 0.680177 0.250000 0.148062
O O17 0.915825 0.750000 0.750171
#
# Coordination Sequence:
#
# PCOD9360446 Si02
#       8
#     8   8   8   8   8   8   4   8
#     4  11  22  36  58  81 113 153 196 247 287 340
#     4  11  23  38  59  85 115 149 190 241 291 336
#     4   9  19  34  55  81 111 148 191 238 286 341
#     4  10  20  36  59  84 114 150 192 242 292 341
#     4  10  20  37  59  87 112 149 187 227 274 338
#     4  10  19  36  60  86 117 151 187 233 286 334
#     4  10  20  36  62  84 112 146 190 224 268 340
#     4  10  20  36  58  82 110 151 198 241 289 346
#
# _framework density 17.785689999999999
#
# number of rings (size 3 to 8) (size 9 to 14) (size 15 to 20)
#    0.000    1.867    1.333    4.400    1.867    1.067 
#    0.000    1.333    0.000    3.200    0.000    0.000 
#    0.000    0.000    0.000    0.000    0.000    0.000 
#
# Total GULP energy -167383.888941 kJ/mol
# GULP energy per Si atom -5579.462965 kJ/mol
# Density = 1.774521 g / cm^3
# Si number density = 17.785690 Si / 1000 Ang^3
#
#
#
# Elastic Constant Matrix: (Units=GPa)
#
#
# Indices 1 2 3 4 5 6 
#
# 1 69.9740 38.2089 12.4494 0.0000 0.0000 0.0000
# 2 38.2089 87.2896 30.0220 0.0000 0.0000 0.0000
# 3 12.4494 30.0220 76.4373 0.0000 0.0000 0.0000
# 4 0.0000 0.0000 0.0000 13.8844 0.0000 0.0000
# 5 0.0000 0.0000 0.0000 0.0000 28.2883 0.0000
# 6 0.0000 0.0000 0.0000 0.0000 0.0000 17.8835
#
#
#
# Elastic Compliance Matrix: (Units=1/GPa)
#
#
# Indices 1 2 3 4 5 6 
#
# 1 0.018782 -0.008289 0.000197 0.000000 0.000000 0.000000
# 2 -0.008289 0.016904 -0.005289 0.000000 0.000000 0.000000
# 3 0.000197 -0.005289 0.015128 0.000000 0.000000 0.000000
# 4 0.000000 0.000000 0.000000 0.072023 0.000000 0.000000
# 5 0.000000 0.000000 0.000000 0.000000 0.035350 0.000000
# 6 0.000000 0.000000 0.000000 0.000000 0.000000 0.055917
#
#
# Mechanical properties :
#
#
# Convention : Reuss Voigt Hill
#
# Bulk Modulus (GPa) = 41.57899 43.89573 42.73736
# Shear Modulus (GPa) = 20.08959 22.21261 21.15110
#
# Velocity S-wave (km/s) = 3.36450 3.53782 3.45225
# Velocity P-wave (km/s) = 6.20659 6.43600 6.32234
#
# Compressibility (1/GPa) = 0.02405061
#
# Stress axis : x y z
#
# Youngs Moduli (GPa) = 53.24171 59.15904 66.10269
#
# Poissons Ratio (x) = 0.49038 -0.01300
# Poissons Ratio (y) = 0.44133 0.34962
# Poissons Ratio (z) = -0.01047 0.31290
#
# Static dielectric constant tensor:
#      x y z
#    x 1.616690 0.000000 0.000000 
#    y 0.000000 1.597350 0.000000 
#    z 0.000000 0.000000 1.601950 
# 
# From -- ./inp_files/3807.got.cif
#   From: 2010.05.17/outbox.cif.g08.bks.cpg/sg39_2_cif.got.tgz:3807.got - 2010.06.03 18:22:40.
