data_PCOD9360305
_publ_section_title
;
Structure prediction by ZEFSAII (Michael W. Deem and Ramdas Pophale) SiO2 
 PCOD9360305
Probable space group: A B M 2
;
_chemical_formula_sum "Si O2"
_cell_formula_units_Z 48
_cell_length_a 15.329025
_cell_length_b 14.661618
_cell_length_c 8.862240
_cell_angle_alpha 90.000000
_cell_angle_beta 90.000000
_cell_angle_gamma 90.000000
_cell_volume 1991.773453
_symmetry_space_group_name_H-M "A B M 2"
_symmetry_group_IT_number 39
_symmetry_cell_setting 'orthorhombic'
loop_
_space_group_symop_operation_xyz
x,y,z
-x,-y,z
-x,1/2+y,z
x,1/2-y,z
x,1/2+y,1/2+z
-x,1/2-y,1/2+z
-x,y,1/2+z
x,-y,1/2+z
loop_
_atom_site_type_symbol
_atom_site_label
_atom_site_fract_x
_atom_site_fract_y
_atom_site_fract_z
Si Si1 0.228166 0.362191 0.592680
Si Si2 0.717179 0.860264 0.924246
Si Si3 0.384225 0.351069 0.396601
Si Si4 0.055729 0.638542 0.928506
Si Si5 0.114804 0.861800 0.598078
Si Si6 0.538043 0.901941 0.081168
O O1 0.232183 0.250000 0.591558
O O2 0.257910 0.393017 0.757342
O O3 0.297652 0.394441 0.467186
O O4 0.130185 0.387432 0.548408
O O5 0.721695 0.750000 0.920326
O O6 0.790287 0.891905 0.043268
O O7 0.620819 0.884217 0.976322
O O8 0.358835 0.250000 0.341713
O O9 0.430168 0.394609 0.252616
O O10 0.455161 0.343055 0.530150
O O11 0.053871 0.750000 0.925093
O O12 0.086122 0.607958 0.763844
O O13 0.959932 0.609637 0.980051
O O14 0.115776 0.750000 0.600637
O O15 0.500000 0.000000 0.052574
#
# Coordination Sequence:
#
# PCOD9360305 Si02
#       6
#     8   8   8   8   8   8
#     4   9  18  31  52  80 112 149 196 248 301 355
#     4  10  19  34  55  81 112 155 204 250 299 362
#     4  11  22  39  61  84 111 152 199 246 296 358
#     4   9  15  25  41  72 114 153 192 244 302 354
#     4   9  16  25  44  73 112 156 198 244 299 355
#     4  12  25  40  58  84 117 151 193 248 307 360
#
# _framework density 24.099125000000001
#
# number of rings (size 3 to 8) (size 9 to 14) (size 15 to 20)
#    0.000    2.000    0.000    5.000    0.000    8.000 
#    0.000    0.833    0.000    0.000    0.000    1.167 
#    0.000    8.000    0.000    0.833    0.000    0.500 
#
# Total GULP energy -134347.757855 kJ/mol
# GULP energy per Si atom -5597.823244 kJ/mol
# Density = 2.404427 g / cm^3
# Si number density = 24.099125 Si / 1000 Ang^3
#
#
#
# Elastic Constant Matrix: (Units=GPa)
#
#
# Indices 1 2 3 4 5 6 
#
# 1 107.6155 -3.0304 -0.0468 0.0000 0.0000 0.0000
# 2 -3.0304 36.7447 0.7355 0.0000 0.0000 0.0000
# 3 -0.0468 0.7355 79.9943 0.0000 0.0000 0.0000
# 4 0.0000 0.0000 0.0000 19.7543 0.0000 0.0000
# 5 0.0000 0.0000 0.0000 0.0000 42.0756 0.0000
# 6 0.0000 0.0000 0.0000 0.0000 0.0000 -7.7539
#
#
#
# Elastic Compliance Matrix: (Units=1/GPa)
#
#
# Indices 1 2 3 4 5 6 
#
# 1 0.009314 0.000768 -0.000002 0.000000 0.000000 0.000000
# 2 0.000768 0.027283 -0.000250 0.000000 0.000000 0.000000
# 3 -0.000002 -0.000250 0.012503 0.000000 0.000000 0.000000
# 4 0.000000 0.000000 0.000000 0.050622 0.000000 0.000000
# 5 0.000000 0.000000 0.000000 0.000000 0.023767 0.000000
# 6 0.000000 0.000000 0.000000 0.000000 0.000000 -0.128968
#
#
# Mechanical properties :
#
#
# Convention : Reuss Voigt Hill
#
# Bulk Modulus (GPa) = 19.94706 24.40787 22.17747
# Shear Modulus (GPa) = 490.20270 25.92828 258.06549
#
# Velocity S-wave (km/s) = 14.27770 3.28365 10.35941
# Velocity P-wave (km/s) = 16.73614 4.95243 12.34150
#
# Compressibility (1/GPa) = 0.05013270
#
# Stress axis : x y z
#
# Youngs Moduli (GPa) = 107.36552 36.65264 79.97954
#
# Poissons Ratio (x) = -0.02816 0.00013
# Poissons Ratio (y) = -0.08248 0.02003
# Poissons Ratio (z) = 0.00017 0.00918
#
# Static dielectric constant tensor:
#      x y z
#    x 1.862520 0.000000 0.000000 
#    y 0.000000 1.944540 0.000000 
#    z 0.000000 0.000000 1.873980 
# 
# From -- ./inp_files/3241.got.cif
#   From: 2010.05.17/outbox.cif.g08.bks.cpg/sg39_2_cif.got.tgz:3241.got - 2010.06.03 18:22:40.
