data_PCOD9360318
_publ_section_title
;
Structure prediction by ZEFSAII (Michael W. Deem and Ramdas Pophale) SiO2 
 PCOD9360318
Probable space group: A B M 2
;
_chemical_formula_sum "Si O2"
_cell_formula_units_Z 64
_cell_length_a 8.966464
_cell_length_b 14.862502
_cell_length_c 21.312616
_cell_angle_alpha 90.000000
_cell_angle_beta 90.000000
_cell_angle_gamma 90.000000
_cell_volume 2840.206358
_symmetry_space_group_name_H-M "A B M 2"
_symmetry_group_IT_number 39
_symmetry_cell_setting 'orthorhombic'
loop_
_space_group_symop_operation_xyz
x,y,z
-x,-y,z
-x,1/2+y,z
x,1/2-y,z
x,1/2+y,1/2+z
-x,1/2-y,1/2+z
-x,y,1/2+z
x,-y,1/2+z
loop_
_atom_site_type_symbol
_atom_site_label
_atom_site_fract_x
_atom_site_fract_y
_atom_site_fract_z
Si Si1 0.612041 0.085294 0.753640
Si Si2 0.328584 0.140414 0.003933
Si Si3 0.843434 0.640101 0.879676
Si Si4 0.843436 0.359900 0.127603
Si Si5 0.304399 0.150302 0.753640
Si Si6 0.328580 0.640416 0.003343
Si Si7 0.188943 0.640900 0.637729
Si Si8 0.811066 0.640901 0.369548
O O1 0.481101 0.158487 0.753633
O O2 0.715338 0.097587 0.693131
O O3 0.715313 0.097588 0.814156
O O4 0.500000 0.000000 0.753638
O O5 0.329812 0.250000 0.000904
O O6 0.233922 0.108538 0.943932
O O7 0.500002 0.110579 0.003628
O O8 0.255235 0.117166 0.070016
O O9 0.838699 0.750000 0.882923
O O10 0.752478 0.609048 0.818542
O O11 0.015265 0.615065 0.870376
O O12 0.838698 0.250000 0.124359
O O13 0.752509 0.390955 0.188743
O O14 0.015273 0.384933 0.136886
O O15 0.766053 0.391462 0.063352
O O16 0.235134 0.250000 0.753642
O O17 0.329818 0.750000 0.006377
O O18 0.255186 0.617173 0.937268
O O19 0.197120 0.750000 0.645367
O O20 0.802890 0.750000 0.361908
#
# Coordination Sequence:
#
# PCOD9360318 Si02
#       8
#     8   8   8   8   8   8   8   8
#     4  12  25  38  52  76 108 148 195 242 284 334
#     4   9  16  27  49  84 118 142 172 222 279 332
#     4   9  17  30  53  87 116 140 179 230 282 340
#     4   9  17  30  53  87 116 140 179 230 282 340
#     4  10  19  34  57  80 105 138 177 224 278 338
#     4   9  16  27  49  84 118 142 172 222 279 332
#     4  10  19  34  56  80 110 146 185 232 289 349
#     4  10  19  34  56  80 110 146 185 232 289 349
#
# _framework density 22.533574999999999
#
# number of rings (size 3 to 8) (size 9 to 14) (size 15 to 20)
#    0.000    2.250    0.000    4.125    0.000    9.000 
#    0.000    2.500    0.000    6.750    0.000    7.000 
#    0.000    0.000    0.000    0.000    0.000    1.000 
#
# Total GULP energy -178839.256121 kJ/mol
# GULP energy per Si atom -5588.726754 kJ/mol
# Density = 2.248229 g / cm^3
# Si number density = 22.533575 Si / 1000 Ang^3
#
#
#
# Elastic Constant Matrix: (Units=GPa)
#
#
# Indices 1 2 3 4 5 6 
#
# 1 227.0929 23.8156 153.2983 0.0000 0.0000 0.0000
# 2 23.8156 88.6943 28.7541 0.0000 0.0000 0.0000
# 3 153.2983 28.7541 268.3112 0.0000 0.0000 0.0000
# 4 0.0000 0.0000 0.0000 -6.9076 0.0000 0.0000
# 5 0.0000 0.0000 0.0000 0.0000 56.4990 0.0000
# 6 0.0000 0.0000 0.0000 0.0000 0.0000 11.2680
#
#
#
# Elastic Compliance Matrix: (Units=1/GPa)
#
#
# Indices 1 2 3 4 5 6 
#
# 1 0.007201 -0.000621 -0.004048 0.000000 0.000000 0.000000
# 2 -0.000621 0.011734 -0.000903 0.000000 0.000000 0.000000
# 3 -0.004048 -0.000903 0.006136 0.000000 0.000000 0.000000
# 4 0.000000 0.000000 0.000000 -0.144767 0.000000 0.000000
# 5 0.000000 0.000000 0.000000 0.000000 0.017699 0.000000
# 6 0.000000 0.000000 0.000000 0.000000 0.000000 0.088747
#
#
# Mechanical properties :
#
#
# Convention : Reuss Voigt Hill
#
# Bulk Modulus (GPa) = 71.79563 110.64826 91.22195
# Shear Modulus (GPa) = 1971.24714 37.38724 1004.31719
#
# Velocity S-wave (km/s) = 29.60918 4.07772 21.13447
# Velocity P-wave (km/s) = 34.65356 8.44871 25.22151
#
# Compressibility (1/GPa) = 0.01392842
#
# Stress axis : x y z
#
# Youngs Moduli (GPa) = 138.86931 85.22168 162.96319
#
# Poissons Ratio (x) = 0.05295 0.65962
# Poissons Ratio (y) = 0.08628 0.14708
# Poissons Ratio (z) = 0.56210 0.07691
#
# Static dielectric constant tensor:
#      x y z
#    x 1.770860 0.000000 0.000000 
#    y 0.000000 2.057610 0.000000 
#    z 0.000000 0.000000 1.776960 
# 
# From -- ./inp_files/14173.got.cif
#   From: 2010.05.17/outbox.cif.g08.bks.cpg/sg39_8_cif.got.tgz:14173.got - 2010.06.03 18:22:40.
