data_PCOD9360454
_publ_section_title
;
Structure prediction by ZEFSAII (Michael W. Deem and Ramdas Pophale) SiO2 
 PCOD9360454
Probable space group: A B M 2
;
_chemical_formula_sum "Si O2"
_cell_formula_units_Z 48
_cell_length_a 14.484557
_cell_length_b 16.297799
_cell_length_c 8.537190
_cell_angle_alpha 90.000000
_cell_angle_beta 90.000000
_cell_angle_gamma 90.000000
_cell_volume 2015.343697
_symmetry_space_group_name_H-M "A B M 2"
_symmetry_group_IT_number 39
_symmetry_cell_setting 'orthorhombic'
loop_
_space_group_symop_operation_xyz
x,y,z
-x,-y,z
-x,1/2+y,z
x,1/2-y,z
x,1/2+y,1/2+z
-x,1/2-y,1/2+z
-x,y,1/2+z
x,-y,1/2+z
loop_
_atom_site_type_symbol
_atom_site_label
_atom_site_fract_x
_atom_site_fract_y
_atom_site_fract_z
Si Si1 0.538042 0.349838 0.188260
Si Si2 0.028688 0.344715 0.349984
Si Si3 0.362937 0.650578 0.506827
Si Si4 0.299309 0.844628 0.972649
Si Si5 0.867678 0.903815 0.647852
Si Si6 0.804669 0.589264 0.178023
O O1 0.538415 0.250000 0.193312
O O2 0.586643 0.376989 0.347676
O O3 0.434048 0.373650 0.146224
O O4 0.604704 0.373191 0.044605
O O5 0.027907 0.250000 0.396984
O O6 0.067694 0.396401 0.494276
O O7 0.104291 0.356683 0.211197
O O8 0.929919 0.373484 0.290230
O O9 0.356224 0.750000 0.505377
O O10 0.261964 0.614696 0.536542
O O11 0.308081 0.750000 0.920157
O O12 0.257841 0.896537 0.832218
O O13 0.222436 0.849907 0.109731
O O14 0.836240 0.996413 0.667175
#
# Coordination Sequence:
#
# PCOD9360454 Si02
#       6
#     8   8   8   8   8   8
#     4   9  19  34  62  96 131 174 231 287 330 385
#     4  11  24  46  70  94 126 175 225 271 324 400
#     4  10  19  36  61  96 134 179 230 280 335 400
#     4  10  21  42  66  94 131 179 227 272 324 395
#     4  11  25  42  65  98 132 168 214 274 340 398
#     4  11  23  38  62  94 134 175 215 274 341 400
#
# _framework density 23.817276
#
# number of rings (size 3 to 8) (size 9 to 14) (size 15 to 20)
#    0.000    1.667    0.000    5.500    0.000   12.000 
#    0.000    4.167    0.000    6.000    0.000    0.000 
#    0.000    0.000    0.000    0.000    0.000    0.000 
#
# Total GULP energy -134418.605130 kJ/mol
# GULP energy per Si atom -5600.775214 kJ/mol
# Density = 2.376307 g / cm^3
# Si number density = 23.817276 Si / 1000 Ang^3
#
#
#
# Elastic Constant Matrix: (Units=GPa)
#
#
# Indices 1 2 3 4 5 6 
#
# 1 127.4518 39.7215 30.1721 0.0000 0.0000 0.0000
# 2 39.7215 94.8754 45.8012 0.0000 0.0000 0.0000
# 3 30.1721 45.8012 70.0728 0.0000 0.0000 0.0000
# 4 0.0000 0.0000 0.0000 24.2038 0.0000 0.0000
# 5 0.0000 0.0000 0.0000 0.0000 54.5501 0.0000
# 6 0.0000 0.0000 0.0000 0.0000 0.0000 -61.6592
#
#
#
# Elastic Compliance Matrix: (Units=1/GPa)
#
#
# Indices 1 2 3 4 5 6 
#
# 1 0.009234 -0.002844 -0.002117 0.000000 0.000000 0.000000
# 2 -0.002844 0.016275 -0.009413 0.000000 0.000000 0.000000
# 3 -0.002117 -0.009413 0.021335 0.000000 0.000000 0.000000
# 4 0.000000 0.000000 0.000000 0.041316 0.000000 0.000000
# 5 0.000000 0.000000 0.000000 0.000000 0.018332 0.000000
# 6 0.000000 0.000000 0.000000 0.000000 0.000000 -0.016218
#
#
# Mechanical properties :
#
#
# Convention : Reuss Voigt Hill
#
# Bulk Modulus (GPa) = 55.26214 58.19884 56.73049
# Shear Modulus (GPa) = 39.98295 15.19928 27.59111
#
# Velocity S-wave (km/s) = 4.10168 2.52893 3.40729
# Velocity P-wave (km/s) = 6.75904 5.74595 6.27298
#
# Compressibility (1/GPa) = 0.01809557
#
# Stress axis : x y z
#
# Youngs Moduli (GPa) = 108.30039 61.44385 46.87099
#
# Poissons Ratio (x) = 0.17474 0.09923
# Poissons Ratio (y) = 0.30799 0.44121
# Poissons Ratio (z) = 0.22927 0.57839
#
# Static dielectric constant tensor:
#      x y z
#    x 1.888910 0.000000 0.000000 
#    y 0.000000 1.837030 0.000000 
#    z 0.000000 0.000000 1.989000 
# 
# From -- ./inp_files/3245.got.cif
#   From: 2010.05.17/outbox.cif.g08.bks.cpg/sg39_2_cif.got.tgz:3245.got - 2010.06.03 18:22:40.
