data_PCOD9360193
_publ_section_title
;
Structure prediction by ZEFSAII (Michael W. Deem and Ramdas Pophale) SiO2 
 PCOD9360193
Probable space group: A B M 2
;
_chemical_formula_sum "Si O2"
_cell_formula_units_Z 44
_cell_length_a 16.121009
_cell_length_b 19.391805
_cell_length_c 5.526568
_cell_angle_alpha 90.000000
_cell_angle_beta 90.000000
_cell_angle_gamma 90.000000
_cell_volume 1727.690614
_symmetry_space_group_name_H-M "A B M 2"
_symmetry_group_IT_number 39
_symmetry_cell_setting 'orthorhombic'
loop_
_space_group_symop_operation_xyz
x,y,z
-x,-y,z
-x,1/2+y,z
x,1/2-y,z
x,1/2+y,1/2+z
-x,1/2-y,1/2+z
-x,y,1/2+z
x,-y,1/2+z
loop_
_atom_site_type_symbol
_atom_site_label
_atom_site_fract_x
_atom_site_fract_y
_atom_site_fract_z
Si Si1 0.466029 0.170413 0.920180
Si Si2 0.956862 0.750000 0.492354
Si Si3 0.050072 0.907452 0.923606
Si Si4 0.274204 0.861360 0.426446
Si Si5 0.357125 0.492475 0.426672
Si Si6 0.780724 0.119451 0.926440
O O1 0.495344 0.250000 0.917792
O O2 0.498504 0.139825 0.668422
O O3 0.366772 0.168235 0.926382
O O4 0.923854 0.673890 0.433661
O O5 0.971396 0.750000 0.781754
O O6 0.143249 0.935659 0.926370
O O7 0.001583 0.920997 0.671155
O O8 0.289669 0.944544 0.426088
O O9 0.224889 0.842413 0.668781
O O10 0.225612 0.842071 0.183241
O O11 0.403459 0.500151 0.676618
O O12 0.306871 0.421699 0.426200
#
# Coordination Sequence:
#
# PCOD9360193 Si02
#       6
#     8   4   8   8   8   8
#     4  10  21  38  59  83 114 145 173 214 267 322
#     4   8  16  30  46  64  94 134 168 210 266 314
#     4  10  19  33  51  73 105 144 185 225 275 322
#     4  10  19  35  56  79 106 143 178 217 268 325
#     4   8  16  30  52  71  99 136 177 211 266 310
#     4  10  19  33  55  80 105 145 181 231 269 315
#
# _framework density 25.467524999999998
#
# number of rings (size 3 to 8) (size 9 to 14) (size 15 to 20)
#    0.000    2.545    0.000    2.182    0.000    0.000 
#    3.273    0.000    0.000   58.909    0.000    0.000 
#    0.000    0.000    0.000    0.000    0.000    0.000 
#
# Total GULP energy -122644.557871 kJ/mol
# GULP energy per Si atom -5574.752631 kJ/mol
# Density = 2.540956 g / cm^3
# Si number density = 25.467525 Si / 1000 Ang^3
#
#
#
# Elastic Constant Matrix: (Units=GPa)
#
#
# Indices 1 2 3 4 5 6 
#
# 1 133.4635 -20.1989 96.1115 0.0000 0.0000 0.0000
# 2 -20.1989 71.4430 -17.1066 0.0000 0.0000 0.0000
# 3 96.1115 -17.1066 349.3420 0.0000 0.0000 0.0000
# 4 0.0000 0.0000 0.0000 -26.1259 0.0000 0.0000
# 5 0.0000 0.0000 0.0000 0.0000 65.8349 0.0000
# 6 0.0000 0.0000 0.0000 0.0000 0.0000 10.7768
#
#
#
# Elastic Compliance Matrix: (Units=1/GPa)
#
#
# Indices 1 2 3 4 5 6 
#
# 1 0.009650 0.002118 -0.002551 0.000000 0.000000 0.000000
# 2 0.002118 0.014628 0.000134 0.000000 0.000000 0.000000
# 3 -0.002551 0.000134 0.003571 0.000000 0.000000 0.000000
# 4 0.000000 0.000000 0.000000 -0.038276 0.000000 0.000000
# 5 0.000000 0.000000 0.000000 0.000000 0.015190 0.000000
# 6 0.000000 0.000000 0.000000 0.000000 0.000000 0.092792
#
#
# Mechanical properties :
#
#
# Convention : Reuss Voigt Hill
#
# Bulk Modulus (GPa) = 36.69834 74.65116 55.67475
# Shear Modulus (GPa) = 46.62547 43.12667 44.87607
#
# Velocity S-wave (km/s) = 4.28341 4.11956 4.20228
# Velocity P-wave (km/s) = 6.23735 7.21135 6.74196
#
# Compressibility (1/GPa) = 0.02724919
#
# Stress axis : x y z
#
# Youngs Moduli (GPa) = 103.62171 68.36257 280.03300
#
# Poissons Ratio (x) = -0.14476 0.71447
# Poissons Ratio (y) = -0.21942 -0.03744
# Poissons Ratio (z) = 0.26438 -0.00914
#
# Static dielectric constant tensor:
#      x y z
#    x 2.116590 0.000000 0.000000 
#    y 0.000000 2.236970 0.000000 
#    z 0.000000 0.000000 2.211560 
# 
# From -- ./inp_files/573.got.cif
#   From: 2010.05.17/outbox.cif.g08.bks.cpg/sg39_1_cif.got.tgz:573.got - 2010.06.03 18:22:40.
