data_PCOD9360228
_publ_section_title
;
Structure prediction by ZEFSAII (Michael W. Deem and Ramdas Pophale) SiO2 
 PCOD9360228
Probable space group: A B M 2
;
_chemical_formula_sum "Si O2"
_cell_formula_units_Z 48
_cell_length_a 9.217699
_cell_length_b 8.662010
_cell_length_c 32.092182
_cell_angle_alpha 90.000000
_cell_angle_beta 90.000000
_cell_angle_gamma 90.000000
_cell_volume 2562.361791
_symmetry_space_group_name_H-M "A B M 2"
_symmetry_group_IT_number 39
_symmetry_cell_setting 'orthorhombic'
loop_
_space_group_symop_operation_xyz
x,y,z
-x,-y,z
-x,1/2+y,z
x,1/2-y,z
x,1/2+y,1/2+z
-x,1/2-y,1/2+z
-x,y,1/2+z
x,-y,1/2+z
loop_
_atom_site_type_symbol
_atom_site_label
_atom_site_fract_x
_atom_site_fract_y
_atom_site_fract_z
Si Si1 0.336319 0.935169 0.882800
Si Si2 0.663770 0.934542 0.968581
Si Si3 0.335805 0.435607 0.061161
Si Si4 0.837850 0.065468 0.139301
Si Si5 0.662410 0.064129 0.718011
Si Si6 0.838321 0.936062 0.300778
O O1 0.344274 0.750000 0.883720
O O2 0.242650 0.985454 0.843081
O O3 0.500000 0.000000 0.878868
O O4 0.270885 0.993911 0.926675
O O5 0.659387 0.750000 0.964355
O O6 0.500000 0.000000 0.969455
O O7 0.723080 0.972252 0.014549
O O8 0.500000 0.500000 0.064467
O O9 0.340543 0.250000 0.065389
O O10 0.238965 0.508061 0.097130
O O11 0.840541 0.250000 0.140461
O O12 0.746735 0.001658 0.178261
O O13 0.000000 0.000000 0.141495
O O14 0.659333 0.250000 0.715669
O O15 0.746292 0.017693 0.760196
O O16 0.500000 0.000000 0.718736
O O17 0.844440 0.750000 0.301118
O O18 0.000000 0.000000 0.298588
#
# Coordination Sequence:
#
# PCOD9360228 Si02
#       6
#     8   8   8   8   8   8
#     4  10  19  33  54  82 112 145 187 232 278 328
#     4   9  17  30  52  81 111 145 185 230 278 326
#     4  10  20  36  58  85 115 149 191 235 281 333
#     4  12  25  41  60  84 115 150 187 230 282 337
#     4  11  23  41  63  88 115 146 187 231 278 331
#     4  10  23  39  57  82 113 149 187 228 277 333
#
# _framework density 18.732716
#
# number of rings (size 3 to 8) (size 9 to 14) (size 15 to 20)
#    0.000    1.667    0.000    6.000    0.000    6.000 
#    0.000    0.833    0.000    2.000    0.000    0.000 
#    0.000    0.000    0.000    0.000    0.000    0.000 
#
# Total GULP energy -134067.521399 kJ/mol
# GULP energy per Si atom -5586.146725 kJ/mol
# Density = 1.869008 g / cm^3
# Si number density = 18.732716 Si / 1000 Ang^3
#
#
#
# Elastic Constant Matrix: (Units=GPa)
#
#
# Indices 1 2 3 4 5 6 
#
# 1 132.4087 47.1739 104.5368 0.0000 0.0000 0.0000
# 2 47.1739 91.3178 74.8645 0.0000 0.0000 0.0000
# 3 104.5368 74.8645 227.4951 0.0000 0.0000 0.0000
# 4 0.0000 0.0000 0.0000 27.4944 0.0000 0.0000
# 5 0.0000 0.0000 0.0000 0.0000 -56.1805 0.0000
# 6 0.0000 0.0000 0.0000 0.0000 0.0000 32.4406
#
#
#
# Elastic Compliance Matrix: (Units=1/GPa)
#
#
# Indices 1 2 3 4 5 6 
#
# 1 0.012206 -0.002338 -0.004839 0.000000 0.000000 0.000000
# 2 -0.002338 0.015445 -0.004008 0.000000 0.000000 0.000000
# 3 -0.004839 -0.004008 0.007938 0.000000 0.000000 0.000000
# 4 0.000000 0.000000 0.000000 0.036371 0.000000 0.000000
# 5 0.000000 0.000000 0.000000 0.000000 -0.017800 0.000000
# 6 0.000000 0.000000 0.000000 0.000000 0.000000 0.030826
#
#
# Mechanical properties :
#
#
# Convention : Reuss Voigt Hill
#
# Bulk Modulus (GPa) = 75.65534 100.48581 88.07058
# Shear Modulus (GPa) = 44.73740 15.72733 30.23237
#
# Velocity S-wave (km/s) = 4.89222 2.90067 4.02167
# Velocity P-wave (km/s) = 8.50801 8.06082 8.28743
#
# Compressibility (1/GPa) = 0.01321784
#
# Stress axis : x y z
#
# Youngs Moduli (GPa) = 81.92613 64.74762 125.96839
#
# Poissons Ratio (x) = 0.15138 0.60962
# Poissons Ratio (y) = 0.19155 0.50490
# Poissons Ratio (z) = 0.39648 0.25952
#
# Static dielectric constant tensor:
#      x y z
#    x 1.613250 0.000000 0.000000 
#    y 0.000000 1.650540 0.000000 
#    z 0.000000 0.000000 1.673270 
# 
# From -- ./inp_files/17597.got.cif
#   From: 2010.05.17/outbox.cif.g08.bks.cpg/sg39_9_cif.got.tgz:17597.got - 2010.06.03 18:22:40.
