data_PCOD9360466
_publ_section_title
;
Structure prediction by ZEFSAII (Michael W. Deem and Ramdas Pophale) SiO2 
 PCOD9360466
Probable space group: A B M 2
;
_chemical_formula_sum "Si O2"
_cell_formula_units_Z 64
_cell_length_a 11.821700
_cell_length_b 16.992569
_cell_length_c 14.757030
_cell_angle_alpha 90.000000
_cell_angle_beta 90.000000
_cell_angle_gamma 90.000000
_cell_volume 2964.407725
_symmetry_space_group_name_H-M "A B M 2"
_symmetry_group_IT_number 39
_symmetry_cell_setting 'orthorhombic'
loop_
_space_group_symop_operation_xyz
x,y,z
-x,-y,z
-x,1/2+y,z
x,1/2-y,z
x,1/2+y,1/2+z
-x,1/2-y,1/2+z
-x,y,1/2+z
x,-y,1/2+z
loop_
_atom_site_type_symbol
_atom_site_label
_atom_site_fract_x
_atom_site_fract_y
_atom_site_fract_z
Si Si1 0.314228 0.545457 0.847390
Si Si2 0.807743 0.424969 0.020347
Si Si3 0.301307 0.664326 0.180456
Si Si4 0.540777 0.087396 0.687163
Si Si5 0.003089 0.155624 0.402365
Si Si6 0.235206 0.894108 0.571057
Si Si7 0.250637 0.622414 0.382202
Si Si8 0.091443 0.427914 0.231203
O O1 0.414660 0.582568 0.790413
O O2 0.329649 0.454719 0.874848
O O3 0.206224 0.538658 0.778704
O O4 0.280446 0.591752 0.938063
O O5 0.772878 0.392026 0.117647
O O6 0.797413 0.518502 0.034203
O O7 0.922680 0.388043 0.979733
O O8 0.281951 0.750000 0.141779
O O9 0.432735 0.641675 0.174906
O O10 0.269123 0.663239 0.286220
O O11 0.650096 0.106811 0.628378
O O12 0.500000 0.000000 0.661972
O O13 0.992438 0.250000 0.417833
O O14 0.055953 0.137115 0.304468
O O15 0.884288 0.111216 0.390344
O O16 0.264609 0.842665 0.482719
O O17 0.130901 0.882951 0.640119
O O18 0.000000 0.500000 0.219234
#
# Coordination Sequence:
#
# PCOD9360466 Si02
#       8
#     8   8   8   8   8   8   8   8
#     4   9  19  37  63  96 122 158 217 277 312 371
#     4  10  22  40  65  98 130 167 221 267 321 394
#     4  12  25  43  65  94 136 178 219 268 332 405
#     4  11  20  42  66  95 124 163 221 274 324 376
#     4  11  24  40  61  95 137 176 208 259 333 402
#     4  10  23  38  66 100 121 160 224 283 320 376
#     4  11  22  40  60  93 131 167 213 271 327 385
#     4  10  19  36  64  92 124 164 218 266 319 381
#
# _framework density 21.589473000000002
#
# number of rings (size 3 to 8) (size 9 to 14) (size 15 to 20)
#    0.000    1.500    3.750    1.500    1.750    1.000 
#    0.000   11.250    0.000    0.000    0.000    0.000 
#    0.000    0.000    0.000    0.000    0.000    0.000 
#
# Total GULP energy -178267.927263 kJ/mol
# GULP energy per Si atom -5570.872727 kJ/mol
# Density = 2.154033 g / cm^3
# Si number density = 21.589473 Si / 1000 Ang^3
#
#
#
# Elastic Constant Matrix: (Units=GPa)
#
#
# Indices 1 2 3 4 5 6 
#
# 1 80.6318 2.3669 43.6356 0.0000 0.0000 0.0000
# 2 2.3669 55.4914 17.7353 0.0000 0.0000 0.0000
# 3 43.6356 17.7353 139.5936 0.0000 0.0000 0.0000
# 4 0.0000 0.0000 0.0000 -7.7327 0.0000 0.0000
# 5 0.0000 0.0000 0.0000 0.0000 7.7447 0.0000
# 6 0.0000 0.0000 0.0000 0.0000 0.0000 -0.8503
#
#
#
# Elastic Compliance Matrix: (Units=1/GPa)
#
#
# Indices 1 2 3 4 5 6 
#
# 1 0.014970 0.000893 -0.004793 0.000000 0.000000 0.000000
# 2 0.000893 0.018837 -0.002672 0.000000 0.000000 0.000000
# 3 -0.004793 -0.002672 0.009001 0.000000 0.000000 0.000000
# 4 0.000000 0.000000 0.000000 -0.129320 0.000000 0.000000
# 5 0.000000 0.000000 0.000000 0.000000 0.129120 0.000000
# 6 0.000000 0.000000 0.000000 0.000000 0.000000 -1.176040
#
#
# Mechanical properties :
#
#
# Convention : Reuss Voigt Hill
#
# Bulk Modulus (GPa) = 33.71107 44.79915 39.25511
# Shear Modulus (GPa) = -4.50288 13.96428 4.73070
#
# Velocity S-wave (km/s) = -1.44576 2.54600 1.48188
# Velocity P-wave (km/s) = 3.58630 5.42571 4.59891
#
# Compressibility (1/GPa) = 0.02966384
#
# Stress axis : x y z
#
# Youngs Moduli (GPa) = 66.80220 53.08746 111.09414
#
# Poissons Ratio (x) = -0.04742 0.53246
# Poissons Ratio (y) = -0.05968 0.29689
# Poissons Ratio (z) = 0.32017 0.14187
#
# Static dielectric constant tensor:
#      x y z
#    x 1.824830 0.000000 0.000000 
#    y 0.000000 1.776760 0.000000 
#    z 0.000000 0.000000 1.879080 
# 
# From -- ./inp_files/9480.got.cif
#   From: 2010.05.17/outbox.cif.g08.bks.cpg/sg39_5_cif.got.tgz:9480.got - 2010.06.03 18:22:40.
