data_PCOD9360722
_publ_section_title
;
Structure prediction by ZEFSAII (Michael W. Deem and Ramdas Pophale) SiO2 
 PCOD9360722
Probable space group: A B M 2
;
_chemical_formula_sum "Si O2"
_cell_formula_units_Z 60
_cell_length_a 11.798757
_cell_length_b 9.668830
_cell_length_c 25.696308
_cell_angle_alpha 90.000000
_cell_angle_beta 90.000000
_cell_angle_gamma 90.000000
_cell_volume 2931.439330
_symmetry_space_group_name_H-M "A B M 2"
_symmetry_group_IT_number 39
_symmetry_cell_setting 'orthorhombic'
loop_
_space_group_symop_operation_xyz
x,y,z
-x,-y,z
-x,1/2+y,z
x,1/2-y,z
x,1/2+y,1/2+z
-x,1/2-y,1/2+z
-x,y,1/2+z
x,-y,1/2+z
loop_
_atom_site_type_symbol
_atom_site_label
_atom_site_fract_x
_atom_site_fract_y
_atom_site_fract_z
Si Si1 0.000000 0.000000 0.023500
Si Si2 0.613369 0.088238 0.487152
Si Si3 0.759413 0.913415 0.569251
Si Si4 0.847578 0.600185 0.930460
Si Si5 0.599582 0.589964 0.280041
Si Si6 0.838428 0.089737 0.836049
Si Si7 0.082662 0.597648 0.241654
Si Si8 0.679277 0.095628 0.186107
O O1 0.105261 0.940794 0.058224
O O2 0.925955 0.909139 0.982049
O O3 0.585584 0.250000 0.499072
O O4 0.713819 0.092390 0.444403
O O5 0.500000 0.000000 0.474841
O O6 0.680657 0.008764 0.533058
O O7 0.742278 0.750000 0.558148
O O8 0.711436 0.941099 0.627125
O O9 0.868627 0.750000 0.905246
O O10 0.866854 0.473878 0.891772
O O11 0.500000 0.500000 0.304272
O O12 0.569752 0.750000 0.273316
O O13 0.707140 0.584036 0.318239
O O14 0.622875 0.518240 0.223667
O O15 0.871485 0.250000 0.834146
O O16 0.891840 0.988205 0.793496
O O17 0.035117 0.750000 0.249687
O O18 0.199682 0.610792 0.212995
O O19 0.000000 0.500000 0.209157
O O20 0.624420 0.250000 0.186795
#
# Coordination Sequence:
#
# PCOD9360722 Si02
#       8
#     4   8   8   8   8   8   8   8
#     4  10  22  38  62  88 120 156 204 252 304 354
#     4  10  22  40  61  86 116 152 196 248 304 358
#     4  10  21  39  62  88 119 157 202 249 300 357
#     4  10  22  39  59  86 118 154 197 245 300 357
#     4  10  21  38  60  86 117 153 193 239 291 350
#     4  10  22  38  57  83 113 149 193 235 285 342
#     4  10  20  35  55  80 113 148 185 227 275 329
#     4   9  20  37  57  84 115 150 191 235 284 340
#
# _framework density 20.467762
#
# number of rings (size 3 to 8) (size 9 to 14) (size 15 to 20)
#    0.000    2.133    0.000    2.000    1.867    7.467 
#    0.000    2.667    0.000    0.000    0.000    0.000 
#    0.000    0.000    0.000    0.000    0.000    0.000 
#
# Total GULP energy -167037.037459 kJ/mol
# GULP energy per Si atom -5567.901249 kJ/mol
# Density = 2.042118 g / cm^3
# Si number density = 20.467762 Si / 1000 Ang^3
#
#
#
# Elastic Constant Matrix: (Units=GPa)
#
#
# Indices 1 2 3 4 5 6 
#
# 1 95.7417 23.6721 -14.2837 0.0000 0.0000 0.0000
# 2 23.6721 136.2606 6.1261 0.0000 0.0000 0.0000
# 3 -14.2837 6.1261 38.0900 0.0000 0.0000 0.0000
# 4 0.0000 0.0000 0.0000 24.2620 0.0000 0.0000
# 5 0.0000 0.0000 0.0000 0.0000 97.8285 0.0000
# 6 0.0000 0.0000 0.0000 0.0000 0.0000 23.2189
#
#
#
# Elastic Compliance Matrix: (Units=1/GPa)
#
#
# Indices 1 2 3 4 5 6 
#
# 1 0.011710 -0.002248 0.004753 0.000000 0.000000 0.000000
# 2 -0.002248 0.007824 -0.002101 0.000000 0.000000 0.000000
# 3 0.004753 -0.002101 0.028374 0.000000 0.000000 0.000000
# 4 0.000000 0.000000 0.000000 0.041217 0.000000 0.000000
# 5 0.000000 0.000000 0.000000 0.000000 0.010222 0.000000
# 6 0.000000 0.000000 0.000000 0.000000 0.000000 0.043068
#
#
# Mechanical properties :
#
#
# Convention : Reuss Voigt Hill
#
# Bulk Modulus (GPa) = 20.52795 33.45792 26.99293
# Shear Modulus (GPa) = 31.67651 46.03373 38.85512
#
# Velocity S-wave (km/s) = 3.93826 4.74760 4.36174
# Velocity P-wave (km/s) = 5.54356 6.81433 6.21152
#
# Compressibility (1/GPa) = 0.04871408
#
# Stress axis : x y z
#
# Youngs Moduli (GPa) = 85.39986 127.81385 35.24374
#
# Poissons Ratio (x) = 0.28732 -0.16750
# Poissons Ratio (y) = 0.19197 0.07406
# Poissons Ratio (z) = -0.40587 0.26858
#
# Static dielectric constant tensor:
#      x y z
#    x 1.810560 0.000000 0.000000 
#    y 0.000000 1.814050 0.000000 
#    z 0.000000 0.000000 1.732510 
# 
# From -- ./inp_files/17033.got.cif
#   From: 2010.05.17/outbox.cif.g08.bks.cpg/sg39_9_cif.got.tgz:17033.got - 2010.06.03 18:22:40.
