data_PCOD9360295
_publ_section_title
;
Structure prediction by ZEFSAII (Michael W. Deem and Ramdas Pophale) SiO2 
 PCOD9360295
Probable space group: A B M 2
;
_chemical_formula_sum "Si O2"
_cell_formula_units_Z 48
_cell_length_a 19.678363
_cell_length_b 8.397626
_cell_length_c 15.562984
_cell_angle_alpha 90.000000
_cell_angle_beta 90.000000
_cell_angle_gamma 90.000000
_cell_volume 2571.806960
_symmetry_space_group_name_H-M "A B M 2"
_symmetry_group_IT_number 39
_symmetry_cell_setting 'orthorhombic'
loop_
_space_group_symop_operation_xyz
x,y,z
-x,-y,z
-x,1/2+y,z
x,1/2-y,z
x,1/2+y,1/2+z
-x,1/2-y,1/2+z
-x,y,1/2+z
x,-y,1/2+z
loop_
_atom_site_type_symbol
_atom_site_label
_atom_site_fract_x
_atom_site_fract_y
_atom_site_fract_z
Si Si1 0.075601 0.059127 0.792040
Si Si2 0.424687 0.557778 0.292144
Si Si3 0.924378 0.440855 0.983954
Si Si4 0.172321 0.444614 0.637937
Si Si5 0.327962 0.942492 0.139030
Si Si6 0.424460 0.940912 0.489036
O O1 0.074354 0.250000 0.792898
O O2 0.130439 0.004947 0.722108
O O3 0.091114 0.999972 0.887990
O O4 0.000000 0.000000 0.769132
O O5 0.500000 0.500000 0.267837
O O6 0.425029 0.750000 0.291724
O O7 0.369279 0.502391 0.223328
O O8 0.411340 0.505966 0.390455
O O9 0.925668 0.250000 0.983274
O O10 0.000000 0.500000 0.006848
O O11 0.869482 0.495410 0.053768
O O12 0.172854 0.250000 0.637930
O O13 0.250160 0.498673 0.638165
O O14 0.327013 0.750000 0.140988
O O15 0.369354 0.995156 0.055337
O O16 0.424150 0.750000 0.491017
O O17 0.500000 0.000000 0.512765
#
# Coordination Sequence:
#
# PCOD9360295 Si02
#       6
#     8   8   8   8   8   8
#     4  10  19  34  55  78 102 134 173 215 257 304
#     4   9  19  34  54  75 100 131 167 207 250 297
#     4  10  19  34  54  77 102 133 172 215 257 304
#     4   9  20  35  52  74 105 140 171 204 256 312
#     4  10  20  36  54  75 104 139 171 208 255 306
#     4  10  20  35  54  79 104 133 171 213 255 301
#
# _framework density 18.663919
#
# number of rings (size 3 to 8) (size 9 to 14) (size 15 to 20)
#    0.000    2.333    0.000    3.500    0.000    4.000 
#    0.000    7.500    0.000    0.000    0.000    0.000 
#    0.000    0.000    0.000    0.000    0.000    0.000 
#
# Total GULP energy -133985.437292 kJ/mol
# GULP energy per Si atom -5582.726554 kJ/mol
# Density = 1.862144 g / cm^3
# Si number density = 18.663919 Si / 1000 Ang^3
#
#
#
# Elastic Constant Matrix: (Units=GPa)
#
#
# Indices 1 2 3 4 5 6 
#
# 1 200.9194 24.2102 143.5080 0.0000 0.0000 0.0000
# 2 24.2102 26.0160 20.9614 0.0000 0.0000 0.0000
# 3 143.5080 20.9614 140.0260 0.0000 0.0000 0.0000
# 4 0.0000 0.0000 0.0000 -10.2577 0.0000 0.0000
# 5 0.0000 0.0000 0.0000 0.0000 6.1393 0.0000
# 6 0.0000 0.0000 0.0000 0.0000 0.0000 22.7046
#
#
#
# Elastic Compliance Matrix: (Units=1/GPa)
#
#
# Indices 1 2 3 4 5 6 
#
# 1 0.018685 -0.002228 -0.018817 0.000000 0.000000 0.000000
# 2 -0.002228 0.043975 -0.004300 0.000000 0.000000 0.000000
# 3 -0.018817 -0.004300 0.027070 0.000000 0.000000 0.000000
# 4 0.000000 0.000000 0.000000 -0.097488 0.000000 0.000000
# 5 0.000000 0.000000 0.000000 0.000000 0.162884 0.000000
# 6 0.000000 0.000000 0.000000 0.000000 0.000000 0.044044
#
#
# Mechanical properties :
#
#
# Convention : Reuss Voigt Hill
#
# Bulk Modulus (GPa) = 25.61329 82.70228 54.15778
# Shear Modulus (GPa) = 19.02059 15.60271 17.31165
#
# Velocity S-wave (km/s) = 3.19581 2.89447 3.04887
# Velocity P-wave (km/s) = 5.23172 7.45507 6.44007
#
# Compressibility (1/GPa) = 0.03904223
#
# Stress axis : x y z
#
# Youngs Moduli (GPa) = 53.51774 22.73995 36.94167
#
# Poissons Ratio (x) = 0.05066 0.69512
# Poissons Ratio (y) = 0.11922 0.15885
# Poissons Ratio (z) = 1.00702 0.09778
#
# Static dielectric constant tensor:
#      x y z
#    x 1.616120 0.000000 0.000000 
#    y 0.000000 1.642730 0.000000 
#    z 0.000000 0.000000 1.643280 
# 
# From -- ./inp_files/10045.got.cif
#   From: 2010.05.17/outbox.cif.g08.bks.cpg/sg39_6_cif.got.tgz:10045.got - 2010.06.03 18:22:40.
