data_PCOD9360149
_publ_section_title
;
Structure prediction by ZEFSAII (Michael W. Deem and Ramdas Pophale) SiO2 
 PCOD9360149
Probable space group: A B M 2
;
_chemical_formula_sum "Si O2"
_cell_formula_units_Z 64
_cell_length_a 17.528906
_cell_length_b 9.728307
_cell_length_c 22.760302
_cell_angle_alpha 90.000000
_cell_angle_beta 90.000000
_cell_angle_gamma 90.000000
_cell_volume 3881.236436
_symmetry_space_group_name_H-M "A B M 2"
_symmetry_group_IT_number 39
_symmetry_cell_setting 'orthorhombic'
loop_
_space_group_symop_operation_xyz
x,y,z
-x,-y,z
-x,1/2+y,z
x,1/2-y,z
x,1/2+y,1/2+z
-x,1/2-y,1/2+z
-x,y,1/2+z
x,-y,1/2+z
loop_
_atom_site_type_symbol
_atom_site_label
_atom_site_fract_x
_atom_site_fract_y
_atom_site_fract_z
Si Si1 0.325277 0.996430 0.807150
Si Si2 0.718057 0.586619 0.487697
Si Si3 0.078281 0.584453 0.298121
Si Si4 0.279310 0.913595 0.125764
Si Si5 0.798306 0.903191 0.896409
Si Si6 0.425857 0.406844 0.412996
Si Si7 0.194937 0.409317 0.221189
Si Si8 0.426085 0.593643 0.201161
O O1 0.379197 0.914861 0.851847
O O2 0.266079 0.911627 0.767108
O O3 0.270494 0.086636 0.848805
O O4 0.378803 0.076374 0.761641
O O5 0.724665 0.750000 0.478050
O O6 0.725680 0.559832 0.556588
O O7 0.779347 0.510012 0.447327
O O8 0.634639 0.546826 0.462643
O O9 0.069898 0.750000 0.286808
O O10 0.125551 0.571037 0.358968
O O11 0.129985 0.505577 0.249855
O O12 0.000000 0.500000 0.301659
O O13 0.263171 0.750000 0.136759
O O14 0.364857 0.937974 0.150116
O O15 0.224953 0.012829 0.163229
O O16 0.800469 0.750000 0.920992
O O17 0.500000 0.500000 0.410199
O O18 0.447997 0.250000 0.424567
O O19 0.172235 0.250000 0.212134
O O20 0.500000 0.500000 0.200833
O O21 0.450949 0.750000 0.194851
#
# Coordination Sequence:
#
# PCOD9360149 Si02
#       8
#     8   8   8   8   8   8   8   8
#     4   9  18  31  48  67  95 128 162 200 250 306
#     4   9  19  35  52  68  92 129 170 209 251 296
#     4  10  20  34  54  82 114 141 160 187 232 286
#     4   9  19  36  52  67  93 131 170 209 254 301
#     4   9  18  32  52  77 101 126 161 202 242 285
#     4  10  20  31  44  65  92 124 162 206 255 304
#     4  10  19  32  53  79 102 128 165 207 245 289
#     4  10  20  31  45  65  92 125 163 208 258 307
#
# _framework density 16.489591000000001
#
# number of rings (size 3 to 8) (size 9 to 14) (size 15 to 20)
#    0.000    2.500    0.000    1.875    0.000   13.500 
#    0.000    0.000    0.000    0.750    0.000    1.750 
#    0.000    0.000    0.000    0.000    0.000    0.000 
#
# Total GULP energy -178320.510881 kJ/mol
# GULP energy per Si atom -5572.515965 kJ/mol
# Density = 1.645206 g / cm^3
# Si number density = 16.489591 Si / 1000 Ang^3
#
#
#
# Elastic Constant Matrix: (Units=GPa)
#
#
# Indices 1 2 3 4 5 6 
#
# 1 106.7596 72.4951 46.1974 0.0000 0.0000 0.0000
# 2 72.4951 98.7325 53.9982 0.0000 0.0000 0.0000
# 3 46.1974 53.9982 108.1205 0.0000 0.0000 0.0000
# 4 0.0000 0.0000 0.0000 18.5266 0.0000 0.0000
# 5 0.0000 0.0000 0.0000 0.0000 7.5922 0.0000
# 6 0.0000 0.0000 0.0000 0.0000 0.0000 10.5790
#
#
#
# Elastic Compliance Matrix: (Units=1/GPa)
#
#
# Indices 1 2 3 4 5 6 
#
# 1 0.018874 -0.012998 -0.001573 0.000000 0.000000 0.000000
# 2 -0.012998 0.022886 -0.005876 0.000000 0.000000 0.000000
# 3 -0.001573 -0.005876 0.012856 0.000000 0.000000 0.000000
# 4 0.000000 0.000000 0.000000 0.053976 0.000000 0.000000
# 5 0.000000 0.000000 0.000000 0.000000 0.131714 0.000000
# 6 0.000000 0.000000 0.000000 0.000000 0.000000 0.094526
#
#
# Mechanical properties :
#
#
# Convention : Reuss Voigt Hill
#
# Bulk Modulus (GPa) = 72.87795 73.22158 73.04976
# Shear Modulus (GPa) = 13.14751 16.73436 14.94093
#
# Velocity S-wave (km/s) = 2.82675 3.18912 3.01339
# Velocity P-wave (km/s) = 7.41258 7.61983 7.51692
#
# Compressibility (1/GPa) = 0.01372157
#
# Stress axis : x y z
#
# Youngs Moduli (GPa) = 52.98372 43.69484 77.78687
#
# Poissons Ratio (x) = 0.56795 0.12234
# Poissons Ratio (y) = 0.68868 0.45708
# Poissons Ratio (z) = 0.08333 0.25676
#
# Static dielectric constant tensor:
#      x y z
#    x 1.542500 0.000000 0.000000 
#    y 0.000000 1.557370 0.000000 
#    z 0.000000 0.000000 1.546520 
# 
# From -- ./inp_files/16365.got.cif
#   From: 2010.05.17/outbox.cif.g08.bks.cpg/sg39_9_cif.got.tgz:16365.got - 2010.06.03 18:22:40.
