data_PCOD9360664
_publ_section_title
;
Structure prediction by ZEFSAII (Michael W. Deem and Ramdas Pophale) SiO2 
 PCOD9360664
Probable space group: A B M 2
;
_chemical_formula_sum "Si O2"
_cell_formula_units_Z 56
_cell_length_a 24.261297
_cell_length_b 8.594209
_cell_length_c 14.670246
_cell_angle_alpha 90.000000
_cell_angle_beta 90.000000
_cell_angle_gamma 90.000000
_cell_volume 3058.843951
_symmetry_space_group_name_H-M "A B M 2"
_symmetry_group_IT_number 39
_symmetry_cell_setting 'orthorhombic'
loop_
_space_group_symop_operation_xyz
x,y,z
-x,-y,z
-x,1/2+y,z
x,1/2-y,z
x,1/2+y,1/2+z
-x,1/2-y,1/2+z
-x,y,1/2+z
x,-y,1/2+z
loop_
_atom_site_type_symbol
_atom_site_label
_atom_site_fract_x
_atom_site_fract_y
_atom_site_fract_z
Si Si1 0.940181 0.435620 0.940700
Si Si2 0.355229 0.937538 0.223098
Si Si3 0.262232 0.436370 0.577487
Si Si4 0.561358 0.064165 0.578590
Si Si5 0.941822 0.064823 0.237757
Si Si6 0.139735 0.065565 0.090211
Si Si7 0.346379 0.061668 0.933297
O O1 0.939058 0.250000 0.951010
O O2 0.933952 0.483913 0.835451
O O3 0.000000 0.500000 0.970112
O O4 0.892425 0.513273 0.999580
O O5 0.359370 0.750000 0.222043
O O6 0.301662 0.980265 0.162811
O O7 0.350734 0.987633 0.328105
O O8 0.407426 0.004521 0.168893
O O9 0.256227 0.250000 0.576802
O O10 0.202995 0.514596 0.585303
O O11 0.294649 0.490657 0.487102
O O12 0.559601 0.250000 0.580769
O O13 0.599781 0.017133 0.492659
O O14 0.500000 0.000000 0.571522
O O15 0.945998 0.250000 0.249285
O O16 0.892327 0.020351 0.171591
O O17 0.000000 0.000000 0.200295
O O18 0.135244 0.250000 0.102318
O O19 0.341743 0.250000 0.935548
#
# Coordination Sequence:
#
# PCOD9360664 Si02
#       7
#     8   8   8   8   8   8   8
#     4  11  22  39  60  85 114 146 185 230 283 343
#     4   9  19  37  59  80 108 144 183 224 273 325
#     4  10  21  37  56  81 110 142 183 233 280 331
#     4  10  20  34  54  81 114 145 181 224 269 320
#     4  11  22  39  60  85 115 148 186 230 282 341
#     4  12  24  39  58  82 113 151 191 235 283 334
#     4   9  19  37  58  80 108 146 184 224 274 330
#
# _framework density 18.307570999999999
#
# number of rings (size 3 to 8) (size 9 to 14) (size 15 to 20)
#    0.000    1.714    0.000    6.000    0.000    3.429 
#    0.000    5.714    0.000    0.000    0.000    0.000 
#    0.000    0.000    0.000    0.000    0.000    0.000 
#
# Total GULP energy -156456.312362 kJ/mol
# GULP energy per Si atom -5587.725442 kJ/mol
# Density = 1.826590 g / cm^3
# Si number density = 18.307571 Si / 1000 Ang^3
#
#
#
# Elastic Constant Matrix: (Units=GPa)
#
#
# Indices 1 2 3 4 5 6 
#
# 1 131.3304 16.4891 44.6782 0.0000 0.0000 0.0000
# 2 16.4891 45.4186 3.8665 0.0000 0.0000 0.0000
# 3 44.6782 3.8665 113.7680 0.0000 0.0000 0.0000
# 4 0.0000 0.0000 0.0000 26.8335 0.0000 0.0000
# 5 0.0000 0.0000 0.0000 0.0000 13.8345 0.0000
# 6 0.0000 0.0000 0.0000 0.0000 0.0000 32.8431
#
#
#
# Elastic Compliance Matrix: (Units=1/GPa)
#
#
# Indices 1 2 3 4 5 6 
#
# 1 0.009188 -0.003037 -0.003505 0.000000 0.000000 0.000000
# 2 -0.003037 0.023085 0.000408 0.000000 0.000000 0.000000
# 3 -0.003505 0.000408 0.010152 0.000000 0.000000 0.000000
# 4 0.000000 0.000000 0.000000 0.037267 0.000000 0.000000
# 5 0.000000 0.000000 0.000000 0.000000 0.072283 0.000000
# 6 0.000000 0.000000 0.000000 0.000000 0.000000 0.030448
#
#
# Mechanical properties :
#
#
# Convention : Reuss Voigt Hill
#
# Bulk Modulus (GPa) = 33.15918 46.73162 39.94540
# Shear Modulus (GPa) = 24.42067 29.73442 27.07754
#
# Velocity S-wave (km/s) = 3.65624 4.03446 3.85000
# Velocity P-wave (km/s) = 5.99797 6.87632 6.45211
#
# Compressibility (1/GPa) = 0.03015756
#
# Stress axis : x y z
#
# Youngs Moduli (GPa) = 108.83578 43.31747 98.49852
#
# Poissons Ratio (x) = 0.13157 0.34525
# Poissons Ratio (y) = 0.33057 -0.04021
# Poissons Ratio (z) = 0.38148 -0.01768
#
# Static dielectric constant tensor:
#      x y z
#    x 1.597330 0.000000 0.000000 
#    y 0.000000 1.612490 0.000000 
#    z 0.000000 0.000000 1.624560 
# 
# From -- ./inp_files/10346.got.cif
#   From: 2010.05.17/outbox.cif.g08.bks.cpg/sg39_6_cif.got.tgz:10346.got - 2010.06.03 18:22:40.
