data_PCOD9360205
_publ_section_title
;
Structure prediction by ZEFSAII (Michael W. Deem and Ramdas Pophale) SiO2 
 PCOD9360205
Probable space group: A B M 2
;
_chemical_formula_sum "Si O2"
_cell_formula_units_Z 48
_cell_length_a 9.495589
_cell_length_b 8.649702
_cell_length_c 32.805115
_cell_angle_alpha 90.000000
_cell_angle_beta 90.000000
_cell_angle_gamma 90.000000
_cell_volume 2694.415813
_symmetry_space_group_name_H-M "A B M 2"
_symmetry_group_IT_number 39
_symmetry_cell_setting 'orthorhombic'
loop_
_space_group_symop_operation_xyz
x,y,z
-x,-y,z
-x,1/2+y,z
x,1/2-y,z
x,1/2+y,1/2+z
-x,1/2-y,1/2+z
-x,y,1/2+z
x,-y,1/2+z
loop_
_atom_site_type_symbol
_atom_site_label
_atom_site_fract_x
_atom_site_fract_y
_atom_site_fract_z
Si Si1 0.158886 0.565738 0.355690
Si Si2 0.159388 0.935315 0.771492
Si Si3 0.340576 0.563644 0.929723
Si Si4 0.658851 0.564221 0.607939
Si Si5 0.158429 0.064823 0.181573
Si Si6 0.341291 0.564056 0.018987
O O1 0.153009 0.750000 0.355476
O O2 0.222318 0.507170 0.312515
O O3 0.248670 0.504835 0.393481
O O4 0.000000 0.500000 0.358754
O O5 0.156270 0.750000 0.775523
O O6 0.218393 0.975495 0.726746
O O7 0.000000 0.000000 0.770403
O O8 0.500000 0.500000 0.927016
O O9 0.343112 0.750000 0.926985
O O10 0.281394 0.518323 0.974807
O O11 0.500000 0.500000 0.610643
O O12 0.654811 0.750000 0.609824
O O13 0.749654 0.500511 0.644975
O O14 0.719199 0.517337 0.563079
O O15 0.152627 0.250000 0.179200
O O16 0.000000 0.000000 0.178798
O O17 0.500000 0.500000 0.019050
O O18 0.346655 0.750000 0.018979
#
# Coordination Sequence:
#
# PCOD9360205 Si02
#       6
#     8   8   8   8   8   8
#     4  11  21  34  53  77 103 133 169 208 252 299
#     4   9  17  31  51  73  98 130 168 206 247 299
#     4  10  19  34  54  77 104 133 168 208 251 299
#     4  10  19  33  53  77 104 134 169 208 251 298
#     4  10  20  34  53  77 103 133 169 208 251 299
#     4   8  16  30  50  73  98 131 168 204 244 296
#
# _framework density 17.814623000000001
#
# number of rings (size 3 to 8) (size 9 to 14) (size 15 to 20)
#    0.000    2.333    0.000    4.500    0.000    3.333 
#    0.000    1.667    0.000    4.000    0.000    0.000 
#    0.000    0.000    0.000    0.000    0.000    0.000 
#
# Total GULP energy -133713.178933 kJ/mol
# GULP energy per Si atom -5571.382456 kJ/mol
# Density = 1.777408 g / cm^3
# Si number density = 17.814623 Si / 1000 Ang^3
#
#
#
# Elastic Constant Matrix: (Units=GPa)
#
#
# Indices 1 2 3 4 5 6 
#
# 1 40.3602 23.9284 64.1806 0.0000 0.0000 0.0000
# 2 23.9284 85.1419 72.3692 0.0000 0.0000 0.0000
# 3 64.1806 72.3692 242.5010 0.0000 0.0000 0.0000
# 4 0.0000 0.0000 0.0000 25.6336 0.0000 0.0000
# 5 0.0000 0.0000 0.0000 0.0000 33.9440 0.0000
# 6 0.0000 0.0000 0.0000 0.0000 0.0000 25.9200
#
#
#
# Elastic Compliance Matrix: (Units=1/GPa)
#
#
# Indices 1 2 3 4 5 6 
#
# 1 0.043449 -0.003265 -0.010525 0.000000 0.000000 0.000000
# 2 -0.003265 0.015982 -0.003905 0.000000 0.000000 0.000000
# 3 -0.010525 -0.003905 0.008075 0.000000 0.000000 0.000000
# 4 0.000000 0.000000 0.000000 0.039011 0.000000 0.000000
# 5 0.000000 0.000000 0.000000 0.000000 0.029460 0.000000
# 6 0.000000 0.000000 0.000000 0.000000 0.000000 0.038580
#
#
# Mechanical properties :
#
#
# Convention : Reuss Voigt Hill
#
# Bulk Modulus (GPa) = 31.13758 76.55106 53.84432
# Shear Modulus (GPa) = 22.65989 30.93453 26.79721
#
# Velocity S-wave (km/s) = 3.57036 4.17162 3.88264
# Velocity P-wave (km/s) = 5.87479 8.14048 7.09861
#
# Compressibility (1/GPa) = 0.03211553
#
# Stress axis : x y z
#
# Youngs Moduli (GPa) = 23.01527 62.56935 123.84277
#
# Poissons Ratio (x) = 0.20429 1.30345
# Poissons Ratio (y) = 0.07514 0.48366
# Poissons Ratio (z) = 0.24224 0.24436
#
# Static dielectric constant tensor:
#      x y z
#    x 1.564320 0.000000 0.000000 
#    y 0.000000 1.602320 0.000000 
#    z 0.000000 0.000000 1.678980 
# 
# From -- ./inp_files/16908.got.cif
#   From: 2010.05.17/outbox.cif.g08.bks.cpg/sg39_9_cif.got.tgz:16908.got - 2010.06.03 18:22:40.
