data_PCOD9360486
_publ_section_title
;
Structure prediction by ZEFSAII (Michael W. Deem and Ramdas Pophale) SiO2 
 PCOD9360486
Probable space group: A B M 2
;
_chemical_formula_sum "Si O2"
_cell_formula_units_Z 64
_cell_length_a 11.036537
_cell_length_b 18.581935
_cell_length_c 15.925162
_cell_angle_alpha 90.000000
_cell_angle_beta 90.000000
_cell_angle_gamma 90.000000
_cell_volume 3265.935618
_symmetry_space_group_name_H-M "A B M 2"
_symmetry_group_IT_number 39
_symmetry_cell_setting 'orthorhombic'
loop_
_space_group_symop_operation_xyz
x,y,z
-x,-y,z
-x,1/2+y,z
x,1/2-y,z
x,1/2+y,1/2+z
-x,1/2-y,1/2+z
-x,y,1/2+z
x,-y,1/2+z
loop_
_atom_site_type_symbol
_atom_site_label
_atom_site_fract_x
_atom_site_fract_y
_atom_site_fract_z
Si Si1 0.648809 0.667574 0.850360
Si Si2 0.019655 0.666141 0.635584
Si Si3 0.058903 0.078930 0.471477
Si Si4 0.926991 0.662940 0.821897
Si Si5 0.425290 0.114528 0.027831
Si Si6 0.564004 0.934801 0.292234
Si Si7 0.338621 0.539872 0.975793
Si Si8 0.297139 0.830653 0.685067
O O1 0.641753 0.750000 0.822668
O O2 0.786242 0.642129 0.835177
O O3 0.544048 0.621497 0.807248
O O4 0.619800 0.660479 0.948870
O O5 0.987311 0.750000 0.620349
O O6 0.164442 0.662054 0.645884
O O7 0.978868 0.618653 0.557415
O O8 0.965424 0.645241 0.726508
O O9 0.203219 0.068338 0.473202
O O10 0.009404 0.124085 0.391681
O O11 0.000000 0.000000 0.467933
O O12 0.937284 0.750000 0.832091
O O13 0.393548 0.155672 0.111863
O O14 0.566176 0.094329 0.018504
O O15 0.354903 0.037815 0.019535
O O16 0.613511 0.966431 0.379992
O O17 0.674000 0.892775 0.250770
O O18 0.500000 0.000000 0.242752
O O19 0.307283 0.750000 0.720843
#
# Coordination Sequence:
#
# PCOD9360486 Si02
#       8
#     8   8   8   8   8   8   8   8
#     4  10  19  37  63  88 117 158 210 250 297 371
#     4  10  23  44  62  88 129 167 211 262 313 377
#     4  12  24  38  63  95 124 161 212 259 312 375
#     4  10  22  41  64  88 123 170 208 253 315 373
#     4  10  20  39  60  85 120 158 199 249 312 361
#     4  11  22  39  62  89 124 161 201 256 318 369
#     4  10  21  40  59  87 122 157 203 251 307 372
#     4  11  23  39  62  90 122 161 206 252 310 374
#
# _framework density 19.596221
#
# number of rings (size 3 to 8) (size 9 to 14) (size 15 to 20)
#    0.000    1.500    2.500    4.125    1.750    3.500 
#    2.250    8.125    0.000    0.000    0.000    0.000 
#    0.000    0.000    0.000    0.000    0.000    0.000 
#
# Total GULP energy -178745.698874 kJ/mol
# GULP energy per Si atom -5585.803090 kJ/mol
# Density = 1.955162 g / cm^3
# Si number density = 19.596221 Si / 1000 Ang^3
#
#
#
# Elastic Constant Matrix: (Units=GPa)
#
#
# Indices 1 2 3 4 5 6 
#
# 1 69.7091 15.3084 0.1711 0.0000 0.0000 0.0000
# 2 15.3084 67.2074 22.6809 0.0000 0.0000 0.0000
# 3 0.1711 22.6809 63.3424 0.0000 0.0000 0.0000
# 4 0.0000 0.0000 0.0000 23.5726 0.0000 0.0000
# 5 0.0000 0.0000 0.0000 0.0000 19.8356 0.0000
# 6 0.0000 0.0000 0.0000 0.0000 0.0000 26.4062
#
#
#
# Elastic Compliance Matrix: (Units=1/GPa)
#
#
# Indices 1 2 3 4 5 6 
#
# 1 0.015204 -0.003923 0.001364 0.000000 0.000000 0.000000
# 2 -0.003923 0.017937 -0.006412 0.000000 0.000000 0.000000
# 3 0.001364 -0.006412 0.018079 0.000000 0.000000 0.000000
# 4 0.000000 0.000000 0.000000 0.042422 0.000000 0.000000
# 5 0.000000 0.000000 0.000000 0.000000 0.050414 0.000000
# 6 0.000000 0.000000 0.000000 0.000000 0.000000 0.037870
#
#
# Mechanical properties :
#
#
# Convention : Reuss Voigt Hill
#
# Bulk Modulus (GPa) = 30.05101 30.73109 30.39105
# Shear Modulus (GPa) = 23.70096 24.76942 24.23519
#
# Velocity S-wave (km/s) = 3.48151 3.55912 3.52053
# Velocity P-wave (km/s) = 5.61512 5.71016 5.66284
#
# Compressibility (1/GPa) = 0.03327675
#
# Stress axis : x y z
#
# Youngs Moduli (GPa) = 65.77408 55.75107 55.31131
#
# Poissons Ratio (x) = 0.21873 -0.07543
# Poissons Ratio (y) = 0.25805 0.35466
# Poissons Ratio (z) = -0.08970 0.35748
#
# Static dielectric constant tensor:
#      x y z
#    x 1.670170 0.000000 0.000000 
#    y 0.000000 1.685230 0.000000 
#    z 0.000000 0.000000 1.689140 
# 
# From -- ./inp_files/9419.got.cif
#   From: 2010.05.17/outbox.cif.g08.bks.cpg/sg39_5_cif.got.tgz:9419.got - 2010.06.03 18:22:40.
