data_PCOD9360589
_publ_section_title
;
Structure prediction by ZEFSAII (Michael W. Deem and Ramdas Pophale) SiO2 
 PCOD9360589
Probable space group: A B M 2
;
_chemical_formula_sum "Si O2"
_cell_formula_units_Z 56
_cell_length_a 20.492010
_cell_length_b 9.489505
_cell_length_c 15.260044
_cell_angle_alpha 90.000000
_cell_angle_beta 90.000000
_cell_angle_gamma 90.000000
_cell_volume 2967.453375
_symmetry_space_group_name_H-M "A B M 2"
_symmetry_group_IT_number 39
_symmetry_cell_setting 'orthorhombic'
loop_
_space_group_symop_operation_xyz
x,y,z
-x,-y,z
-x,1/2+y,z
x,1/2-y,z
x,1/2+y,1/2+z
-x,1/2-y,1/2+z
-x,y,1/2+z
x,-y,1/2+z
loop_
_atom_site_type_symbol
_atom_site_label
_atom_site_fract_x
_atom_site_fract_y
_atom_site_fract_z
Si Si1 0.058654 0.406081 0.844050
Si Si2 0.796097 0.081176 0.600753
Si Si3 0.432058 0.581908 0.934565
Si Si4 0.653538 0.915159 0.796876
Si Si5 0.669627 0.583966 0.589354
Si Si6 0.200880 0.916921 0.279897
Si Si7 0.940513 0.908099 0.053090
O O1 0.051672 0.250000 0.806505
O O2 0.133469 0.449522 0.828525
O O3 0.000000 0.500000 0.808701
O O4 0.050268 0.398558 0.948619
O O5 0.790992 0.250000 0.593481
O O6 0.867197 0.036493 0.565817
O O7 0.732347 0.007148 0.561168
O O8 0.796233 0.023406 0.699379
O O9 0.500000 0.500000 0.941398
O O10 0.441295 0.750000 0.923471
O O11 0.391999 0.515836 0.853359
O O12 0.389493 0.559358 0.022763
O O13 0.635575 0.750000 0.808397
O O14 0.652404 0.945392 0.691787
O O15 0.729274 0.931552 0.826777
O O16 0.686771 0.750000 0.585908
O O17 0.198711 0.750000 0.253089
O O18 0.942918 0.750000 0.090197
O O19 0.000000 0.000000 0.088723
#
# Coordination Sequence:
#
# PCOD9360589 Si02
#       7
#     8   8   8   8   8   8   8
#     4   9  18  33  50  71 101 140 183 227 276 329
#     4  10  20  33  54  81 107 138 184 233 276 329
#     4  11  24  41  62  91 121 151 190 230 276 337
#     4   9  19  38  62  86 116 154 191 233 284 336
#     4   9  21  41  61  85 119 155 190 231 283 339
#     4   9  19  35  55  76 106 145 182 224 280 337
#     4   9  19  33  49  72 102 139 183 228 276 329
#
# _framework density 18.871400000000001
#
# number of rings (size 3 to 8) (size 9 to 14) (size 15 to 20)
#    0.000    2.571    0.000    1.714    2.000    6.286 
#    0.000    4.286    0.000    0.000    0.000    0.000 
#    0.000    0.000    0.000    0.000    0.000    0.000 
#
# Total GULP energy -156014.281005 kJ/mol
# GULP energy per Si atom -5571.938607 kJ/mol
# Density = 1.882845 g / cm^3
# Si number density = 18.871400 Si / 1000 Ang^3
#
#
#
# Elastic Constant Matrix: (Units=GPa)
#
#
# Indices 1 2 3 4 5 6 
#
# 1 183.8680 99.3179 49.8767 0.0000 0.0000 0.0000
# 2 99.3179 80.7322 39.4887 0.0000 0.0000 0.0000
# 3 49.8767 39.4887 52.8448 0.0000 0.0000 0.0000
# 4 0.0000 0.0000 0.0000 12.4565 0.0000 0.0000
# 5 0.0000 0.0000 0.0000 0.0000 40.5823 0.0000
# 6 0.0000 0.0000 0.0000 0.0000 0.0000 37.9131
#
#
#
# Elastic Compliance Matrix: (Units=1/GPa)
#
#
# Indices 1 2 3 4 5 6 
#
# 1 0.016224 -0.019653 -0.000628 0.000000 0.000000 0.000000
# 2 -0.019653 0.043327 -0.013828 0.000000 0.000000 0.000000
# 3 -0.000628 -0.013828 0.029849 0.000000 0.000000 0.000000
# 4 0.000000 0.000000 0.000000 0.080280 0.000000 0.000000
# 5 0.000000 0.000000 0.000000 0.000000 0.024641 0.000000
# 6 0.000000 0.000000 0.000000 0.000000 0.000000 0.026376
#
#
# Mechanical properties :
#
#
# Convention : Reuss Voigt Hill
#
# Bulk Modulus (GPa) = 47.20493 77.20129 62.20311
# Shear Modulus (GPa) = 16.89336 26.77449 21.83392
#
# Velocity S-wave (km/s) = 2.99521 3.77076 3.40514
# Velocity P-wave (km/s) = 6.08523 7.74314 6.96370
#
# Compressibility (1/GPa) = 0.02118423
#
# Stress axis : x y z
#
# Youngs Moduli (GPa) = 61.63550 23.08028 33.50239
#
# Poissons Ratio (x) = 0.45359 0.02103
# Poissons Ratio (y) = 1.21129 0.46326
# Poissons Ratio (z) = 0.03869 0.31915
#
# Static dielectric constant tensor:
#      x y z
#    x 1.673110 0.000000 0.000000 
#    y 0.000000 1.658470 0.000000 
#    z 0.000000 0.000000 1.663410 
# 
# From -- ./inp_files/10343.got.cif
#   From: 2010.05.17/outbox.cif.g08.bks.cpg/sg39_6_cif.got.tgz:10343.got - 2010.06.03 18:22:40.
