data_PCOD9360980
_publ_section_title
;
Structure prediction by ZEFSAII (Michael W. Deem and Ramdas Pophale) SiO2 
 PCOD9360980
Probable space group: A B M 2
;
_chemical_formula_sum "Si O2"
_cell_formula_units_Z 60
_cell_length_a 8.046366
_cell_length_b 28.688990
_cell_length_c 11.707751
_cell_angle_alpha 90.000000
_cell_angle_beta 90.000000
_cell_angle_gamma 90.000000
_cell_volume 2702.641988
_symmetry_space_group_name_H-M "A B M 2"
_symmetry_group_IT_number 39
_symmetry_cell_setting 'orthorhombic'
loop_
_space_group_symop_operation_xyz
x,y,z
-x,-y,z
-x,1/2+y,z
x,1/2-y,z
x,1/2+y,1/2+z
-x,1/2-y,1/2+z
-x,y,1/2+z
x,-y,1/2+z
loop_
_atom_site_type_symbol
_atom_site_label
_atom_site_fract_x
_atom_site_fract_y
_atom_site_fract_z
Si Si1 0.050463 0.575733 0.334960
Si Si2 0.858441 0.194567 0.546128
Si Si3 0.354493 0.693682 0.767339
Si Si4 0.170251 0.643861 0.981419
Si Si5 0.546079 0.420847 0.981461
Si Si6 0.500000 0.000000 0.644389
Si Si7 0.232249 0.013552 0.319374
Si Si8 0.686007 0.145127 0.333377
O O1 0.150212 0.530756 0.381326
O O2 0.169578 0.613612 0.276281
O O3 0.953116 0.604385 0.431284
O O4 0.904454 0.548972 0.267442
O O5 0.861293 0.250000 0.547362
O O6 0.744030 0.179268 0.652650
O O7 0.777771 0.177694 0.426802
O O8 0.047427 0.176121 0.553356
O O9 0.358116 0.750000 0.775066
O O10 0.252940 0.672509 0.875375
O O11 0.542912 0.673746 0.768207
O O12 0.325583 0.616439 0.033905
O O13 0.651018 0.455829 0.900493
O O14 0.417292 0.392676 0.906163
O O15 0.464555 0.453921 0.073368
O O16 0.341560 0.009109 0.721672
#
# Coordination Sequence:
#
# PCOD9360980 Si02
#       8
#     8   8   8   8   8   4   8   8
#     4   9  19  37  58  81 113 153 192 238 293 342
#     4  10  21  38  61  89 120 155 196 245 305 369
#     4  10  21  38  62  90 120 157 198 245 307 369
#     4   9  20  39  62  86 119 153 194 249 299 359
#     4  10  22  38  57  85 113 151 198 239 294 354
#     4  12  22  34  58  84 116 156 192 240 296 346
#     4  10  21  38  56  80 117 154 194 244 289 346
#     4  10  20  37  61  86 119 156 197 249 295 355
#
# _framework density 22.200500000000002
#
# number of rings (size 3 to 8) (size 9 to 14) (size 15 to 20)
#    0.000    2.133    0.000    2.800    0.000    5.333 
#    0.000   16.000    0.000   14.400    0.000    0.000 
#    0.000    0.000    0.000    0.000    0.000    0.000 
#
# Total GULP energy -167451.805536 kJ/mol
# GULP energy per Si atom -5581.726851 kJ/mol
# Density = 2.214997 g / cm^3
# Si number density = 22.200500 Si / 1000 Ang^3
#
#
#
# Elastic Constant Matrix: (Units=GPa)
#
#
# Indices 1 2 3 4 5 6 
#
# 1 84.7479 27.9055 7.0485 0.0000 0.0000 0.0000
# 2 27.9055 94.8652 15.3798 0.0000 0.0000 0.0000
# 3 7.0485 15.3798 29.3684 0.0000 0.0000 0.0000
# 4 0.0000 0.0000 0.0000 17.4466 0.0000 0.0000
# 5 0.0000 0.0000 0.0000 0.0000 18.3050 0.0000
# 6 0.0000 0.0000 0.0000 0.0000 0.0000 56.8378
#
#
#
# Elastic Compliance Matrix: (Units=1/GPa)
#
#
# Indices 1 2 3 4 5 6 
#
# 1 0.013106 -0.003656 -0.001231 0.000000 0.000000 0.000000
# 2 -0.003656 0.012539 -0.005689 0.000000 0.000000 0.000000
# 3 -0.001231 -0.005689 0.037325 0.000000 0.000000 0.000000
# 4 0.000000 0.000000 0.000000 0.057318 0.000000 0.000000
# 5 0.000000 0.000000 0.000000 0.000000 0.054630 0.000000
# 6 0.000000 0.000000 0.000000 0.000000 0.000000 0.017594
#
#
# Mechanical properties :
#
#
# Convention : Reuss Voigt Hill
#
# Bulk Modulus (GPa) = 23.91302 34.40545 29.15923
# Shear Modulus (GPa) = 21.96815 29.09439 25.53127
#
# Velocity S-wave (km/s) = 3.14910 3.62405 3.39489
# Velocity P-wave (km/s) = 4.90073 5.74830 5.34135
#
# Compressibility (1/GPa) = 0.04181823
#
# Stress axis : x y z
#
# Youngs Moduli (GPa) = 76.30208 79.75158 26.79170
#
# Poissons Ratio (x) = 0.29154 0.03298
# Poissons Ratio (y) = 0.27893 0.15242
# Poissons Ratio (z) = 0.09393 0.45371
#
# Static dielectric constant tensor:
#      x y z
#    x 1.867580 0.000000 0.000000 
#    y 0.000000 1.792290 0.000000 
#    z 0.000000 0.000000 1.820130 
# 
# From -- ./inp_files/5366.got.cif
#   From: 2010.05.17/outbox.cif.g08.bks.cpg/sg39_3_cif.got.tgz:5366.got - 2010.06.03 18:22:40.
