data_PCOD9360651
_publ_section_title
;
Structure prediction by ZEFSAII (Michael W. Deem and Ramdas Pophale) SiO2 
 PCOD9360651
Probable space group: A B M 2
;
_chemical_formula_sum "Si O2"
_cell_formula_units_Z 48
_cell_length_a 16.760788
_cell_length_b 8.658561
_cell_length_c 18.826613
_cell_angle_alpha 90.000000
_cell_angle_beta 90.000000
_cell_angle_gamma 90.000000
_cell_volume 2732.199133
_symmetry_space_group_name_H-M "A B M 2"
_symmetry_group_IT_number 39
_symmetry_cell_setting 'orthorhombic'
loop_
_space_group_symop_operation_xyz
x,y,z
-x,-y,z
-x,1/2+y,z
x,1/2-y,z
x,1/2+y,1/2+z
-x,1/2-y,1/2+z
-x,y,1/2+z
x,-y,1/2+z
loop_
_atom_site_type_symbol
_atom_site_label
_atom_site_fract_x
_atom_site_fract_y
_atom_site_fract_z
Si Si1 0.175845 0.565422 0.503230
Si Si2 0.414287 0.435674 0.448861
Si Si3 0.236301 0.932780 0.708954
Si Si4 0.261922 0.434222 0.864349
Si Si5 0.915968 0.434218 0.125423
Si Si6 0.327444 0.433090 0.586427
O O1 0.183440 0.750000 0.514375
O O2 0.189584 0.535353 0.420053
O O3 0.100598 0.503934 0.546722
O O4 0.248985 0.477929 0.541225
O O5 0.500000 0.500000 0.427238
O O6 0.411623 0.250000 0.443727
O O7 0.342863 0.505354 0.401678
O O8 0.397299 0.477903 0.531825
O O9 0.226691 0.750000 0.704238
O O10 0.248043 0.986449 0.789261
O O11 0.157660 0.011139 0.674672
O O12 0.312199 0.982991 0.660758
O O13 0.267888 0.250000 0.855238
O O14 0.917113 0.250000 0.122380
O O15 0.000000 0.500000 0.151805
O O16 0.330159 0.250000 0.598454
#
# Coordination Sequence:
#
# PCOD9360651 Si02
#       6
#     8   8   8   8   8   8
#     4   9  17  31  52  76 100 130 169 209 251 303
#     4  10  20  34  54  79 106 137 174 218 265 312
#     4  11  21  34  54  79 107 139 177 216 261 316
#     4  10  20  35  55  78 107 141 177 216 260 313
#     4  11  21  35  55  78 106 137 173 217 263 310
#     4   9  17  31  51  74 100 132 171 210 252 304
#
# _framework density 17.568265
#
# number of rings (size 3 to 8) (size 9 to 14) (size 15 to 20)
#    0.000    2.000    0.000    7.000    0.000    4.000 
#    0.000    1.667    0.000    6.000    0.000    0.000 
#    0.000    0.000    0.000    0.000    0.000    0.000 
#
# Total GULP energy -133795.158784 kJ/mol
# GULP energy per Si atom -5574.798283 kJ/mol
# Density = 1.752828 g / cm^3
# Si number density = 17.568265 Si / 1000 Ang^3
#
#
#
# Elastic Constant Matrix: (Units=GPa)
#
#
# Indices 1 2 3 4 5 6 
#
# 1 72.0435 20.6170 29.2877 0.0000 0.0000 0.0000
# 2 20.6170 55.7479 27.6800 0.0000 0.0000 0.0000
# 3 29.2877 27.6800 118.7585 0.0000 0.0000 0.0000
# 4 0.0000 0.0000 0.0000 28.8958 0.0000 0.0000
# 5 0.0000 0.0000 0.0000 0.0000 16.3976 0.0000
# 6 0.0000 0.0000 0.0000 0.0000 0.0000 23.3723
#
#
#
# Elastic Compliance Matrix: (Units=1/GPa)
#
#
# Indices 1 2 3 4 5 6 
#
# 1 0.016403 -0.004589 -0.002976 0.000000 0.000000 0.000000
# 2 -0.004589 0.021569 -0.003896 0.000000 0.000000 0.000000
# 3 -0.002976 -0.003896 0.010062 0.000000 0.000000 0.000000
# 4 0.000000 0.000000 0.000000 0.034607 0.000000 0.000000
# 5 0.000000 0.000000 0.000000 0.000000 0.060985 0.000000
# 6 0.000000 0.000000 0.000000 0.000000 0.000000 0.042786
#
#
# Mechanical properties :
#
#
# Convention : Reuss Voigt Hill
#
# Bulk Modulus (GPa) = 39.81775 44.63547 42.22661
# Shear Modulus (GPa) = 22.96693 24.99750 23.98221
#
# Velocity S-wave (km/s) = 3.61958 3.77620 3.69872
# Velocity P-wave (km/s) = 6.33895 6.66895 6.50604
#
# Compressibility (1/GPa) = 0.02511443
#
# Stress axis : x y z
#
# Youngs Moduli (GPa) = 60.96273 46.36234 99.38075
#
# Poissons Ratio (x) = 0.21275 0.29574
# Poissons Ratio (y) = 0.27975 0.38715
# Poissons Ratio (z) = 0.18141 0.18061
#
# Static dielectric constant tensor:
#      x y z
#    x 1.619810 0.000000 0.000000 
#    y 0.000000 1.582770 0.000000 
#    z 0.000000 0.000000 1.619200 
# 
# From -- ./inp_files/14898.got.cif
#   From: 2010.05.17/outbox.cif.g08.bks.cpg/sg39_8_cif.got.tgz:14898.got - 2010.06.03 18:22:40.
