data_PCOD9360970
_publ_section_title
;
Structure prediction by ZEFSAII (Michael W. Deem and Ramdas Pophale) SiO2 
 PCOD9360970
Probable space group: A B M 2
;
_chemical_formula_sum "Si O2"
_cell_formula_units_Z 64
_cell_length_a 18.490805
_cell_length_b 14.011571
_cell_length_c 11.303816
_cell_angle_alpha 90.000000
_cell_angle_beta 90.000000
_cell_angle_gamma 90.000000
_cell_volume 2928.651736
_symmetry_space_group_name_H-M "A B M 2"
_symmetry_group_IT_number 39
_symmetry_cell_setting 'orthorhombic'
loop_
_space_group_symop_operation_xyz
x,y,z
-x,-y,z
-x,1/2+y,z
x,1/2-y,z
x,1/2+y,1/2+z
-x,1/2-y,1/2+z
-x,y,1/2+z
x,-y,1/2+z
loop_
_atom_site_type_symbol
_atom_site_label
_atom_site_fract_x
_atom_site_fract_y
_atom_site_fract_z
Si Si1 0.453941 0.906082 0.779210
Si Si2 0.301481 0.643124 0.818196
Si Si3 0.542994 0.645730 0.554437
Si Si4 0.078999 0.031602 0.179401
Si Si5 0.812376 0.359719 0.248674
Si Si6 0.690199 0.068098 0.079900
Si Si7 0.854795 0.361370 0.868939
Si Si8 0.810906 0.447541 0.498838
O O1 0.367320 0.921343 0.776742
O O2 0.479944 0.861454 0.653541
O O3 0.500000 0.000000 0.788679
O O4 0.470004 0.860150 0.911584
O O5 0.323354 0.750000 0.785895
O O6 0.299532 0.630383 0.959918
O O7 0.217883 0.629015 0.787170
O O8 0.576382 0.750000 0.574926
O O9 0.603923 0.568188 0.588452
O O10 0.127027 0.937834 0.211748
O O11 0.078028 0.101304 0.292894
O O12 0.000000 0.000000 0.142167
O O13 0.124889 0.087284 0.081329
O O14 0.832330 0.250000 0.225317
O O15 0.801589 0.381475 0.386455
O O16 0.737056 0.384092 0.182972
O O17 0.732469 0.969459 0.054360
O O18 0.859091 0.250000 0.905838
O O19 0.840230 0.445534 0.962519
#
# Coordination Sequence:
#
# PCOD9360970 Si02
#       8
#     8   8   8   8   8   8   8   8
#     4  11  23  37  56  86 121 157 200 253 312 368
#     4   9  17  35  60  83 109 149 196 244 294 353
#     4  11  22  39  60  84 118 162 205 250 305 373
#     4  10  22  38  54  80 119 154 183 227 291 358
#     4  10  20  37  60  88 114 145 193 246 292 344
#     4   9  18  34  58  83 110 147 192 238 290 349
#     4   9  19  37  62  84 104 141 197 243 282 339
#     4   9  20  35  56  84 115 149 187 239 292 346
#
# _framework density 21.853058999999998
#
# number of rings (size 3 to 8) (size 9 to 14) (size 15 to 20)
#    0.000    2.250    0.000    3.375    0.000   11.500 
#    0.000    2.500    0.000    1.500    0.000    0.000 
#    0.000    0.000    0.000    0.000    0.000    0.000 
#
# Total GULP energy -178193.425147 kJ/mol
# GULP energy per Si atom -5568.544536 kJ/mol
# Density = 2.180332 g / cm^3
# Si number density = 21.853059 Si / 1000 Ang^3
#
#
#
# Elastic Constant Matrix: (Units=GPa)
#
#
# Indices 1 2 3 4 5 6 
#
# 1 79.7730 -16.9927 29.5662 0.0000 0.0000 0.0000
# 2 -16.9927 46.2389 -1.1799 0.0000 0.0000 0.0000
# 3 29.5662 -1.1799 93.1008 0.0000 0.0000 0.0000
# 4 0.0000 0.0000 0.0000 1.7335 0.0000 0.0000
# 5 0.0000 0.0000 0.0000 0.0000 25.4964 0.0000
# 6 0.0000 0.0000 0.0000 0.0000 0.0000 13.7324
#
#
#
# Elastic Compliance Matrix: (Units=1/GPa)
#
#
# Indices 1 2 3 4 5 6 
#
# 1 0.015526 0.005582 -0.004860 0.000000 0.000000 0.000000
# 2 0.005582 0.023640 -0.001473 0.000000 0.000000 0.000000
# 3 -0.004860 -0.001473 0.012266 0.000000 0.000000 0.000000
# 4 0.000000 0.000000 0.000000 0.576884 0.000000 0.000000
# 5 0.000000 0.000000 0.000000 0.000000 0.039221 0.000000
# 6 0.000000 0.000000 0.000000 0.000000 0.000000 0.072821
#
#
# Mechanical properties :
#
#
# Convention : Reuss Voigt Hill
#
# Bulk Modulus (GPa) = 20.02815 26.87776 23.45296
# Shear Modulus (GPa) = 6.59193 22.04039 14.31616
#
# Velocity S-wave (km/s) = 1.73869 3.17925 2.56229
# Velocity P-wave (km/s) = 3.63532 5.07965 4.41692
#
# Compressibility (1/GPa) = 0.04992972
#
# Stress axis : x y z
#
# Youngs Moduli (GPa) = 64.40927 42.30031 81.52809
#
# Poissons Ratio (x) = -0.23611 0.39621
# Poissons Ratio (y) = -0.35951 0.12009
# Poissons Ratio (z) = 0.31302 0.06231
#
# Static dielectric constant tensor:
#      x y z
#    x 1.821770 0.000000 0.000000 
#    y 0.000000 1.823110 0.000000 
#    z 0.000000 0.000000 1.882440 
# 
# From -- ./inp_files/6899.got.cif
#   From: 2010.05.17/outbox.cif.g08.bks.cpg/sg39_4_cif.got.tgz:6899.got - 2010.06.03 18:22:40.
