data_PCOD9360682
_publ_section_title
;
Structure prediction by ZEFSAII (Michael W. Deem and Ramdas Pophale) SiO2 
 PCOD9360682
Probable space group: A B M 2
;
_chemical_formula_sum "Si O2"
_cell_formula_units_Z 64
_cell_length_a 6.890094
_cell_length_b 16.119157
_cell_length_c 24.460034
_cell_angle_alpha 90.000000
_cell_angle_beta 90.000000
_cell_angle_gamma 90.000000
_cell_volume 2716.592696
_symmetry_space_group_name_H-M "A B M 2"
_symmetry_group_IT_number 39
_symmetry_cell_setting 'orthorhombic'
loop_
_space_group_symop_operation_xyz
x,y,z
-x,-y,z
-x,1/2+y,z
x,1/2-y,z
x,1/2+y,1/2+z
-x,1/2-y,1/2+z
-x,y,1/2+z
x,-y,1/2+z
loop_
_atom_site_type_symbol
_atom_site_label
_atom_site_fract_x
_atom_site_fract_y
_atom_site_fract_z
Si Si1 0.387084 0.414241 0.491910
Si Si2 0.257610 0.157079 0.595595
Si Si3 0.771008 0.523687 0.226503
Si Si4 0.287151 0.153167 0.128710
Si Si5 0.224061 0.156623 0.715086
Si Si6 0.865966 0.838483 0.298702
Si Si7 0.209289 0.156113 0.006119
Si Si8 0.050192 0.910115 0.910148
O O1 0.500000 0.500000 0.495983
O O2 0.248396 0.403581 0.544534
O O3 0.559979 0.348070 0.494881
O O4 0.259868 0.408232 0.438270
O O5 0.218443 0.250000 0.575653
O O6 0.482374 0.152893 0.615081
O O7 0.147703 0.145255 0.652620
O O8 0.737790 0.582782 0.174228
O O9 0.671663 0.432255 0.226275
O O10 0.000000 0.500000 0.225959
O O11 0.742988 0.582177 0.279409
O O12 0.240398 0.250000 0.143784
O O13 0.187196 0.132857 0.070120
O O14 0.318599 0.250000 0.715728
O O15 0.049303 0.162750 0.757825
O O16 0.761730 0.750000 0.293087
O O17 0.946841 0.848529 0.359566
O O18 0.140940 0.250000 0.000265
O O19 0.100579 0.105278 0.959421
O O20 0.000000 0.000000 0.886783
#
# Coordination Sequence:
#
# PCOD9360682 Si02
#       8
#     8   8   8   8   8   8   8   8
#     4  11  23  41  65  99 136 177 221 281 336 407
#     4   9  20  37  59  88 128 170 211 264 333 407
#     4  10  20  34  56  83 115 156 202 260 324 387
#     4   9  19  36  58  86 127 166 207 267 328 396
#     4   9  19  35  56  85 118 156 202 260 323 386
#     4  10  22  41  62  87 122 164 222 283 330 395
#     4  10  23  42  63  97 136 173 221 282 344 410
#     4  12  24  41  67  93 130 177 229 280 346 411
#
# _framework density 23.558924000000001
#
# number of rings (size 3 to 8) (size 9 to 14) (size 15 to 20)
#    0.000    2.000    1.250    3.000    3.500    5.000 
#    0.000    6.250    0.000    3.000    0.000    0.000 
#    0.000    0.000    0.000    0.000    0.000    0.000 
#
# Total GULP energy -178739.522290 kJ/mol
# GULP energy per Si atom -5585.610072 kJ/mol
# Density = 2.350530 g / cm^3
# Si number density = 23.558924 Si / 1000 Ang^3
#
#
#
# Elastic Constant Matrix: (Units=GPa)
#
#
# Indices 1 2 3 4 5 6 
#
# 1 60.8979 14.1043 30.2923 0.0000 0.0000 0.0000
# 2 14.1043 157.9352 45.3023 0.0000 0.0000 0.0000
# 3 30.2923 45.3023 128.3638 0.0000 0.0000 0.0000
# 4 0.0000 0.0000 0.0000 26.2167 0.0000 0.0000
# 5 0.0000 0.0000 0.0000 0.0000 25.7892 0.0000
# 6 0.0000 0.0000 0.0000 0.0000 0.0000 16.0868
#
#
#
# Elastic Compliance Matrix: (Units=1/GPa)
#
#
# Indices 1 2 3 4 5 6 
#
# 1 0.018633 -0.000448 -0.004239 0.000000 0.000000 0.000000
# 2 -0.000448 0.007056 -0.002384 0.000000 0.000000 0.000000
# 3 -0.004239 -0.002384 0.009632 0.000000 0.000000 0.000000
# 4 0.000000 0.000000 0.000000 0.038144 0.000000 0.000000
# 5 0.000000 0.000000 0.000000 0.000000 0.038776 0.000000
# 6 0.000000 0.000000 0.000000 0.000000 0.000000 0.062163
#
#
# Mechanical properties :
#
#
# Convention : Reuss Voigt Hill
#
# Bulk Modulus (GPa) = 47.21849 58.51052 52.86451
# Shear Modulus (GPa) = 25.56157 30.78507 28.17332
#
# Velocity S-wave (km/s) = 3.29752 3.61879 3.46188
# Velocity P-wave (km/s) = 5.88085 6.50773 6.20222
#
# Compressibility (1/GPa) = 0.02117814
#
# Stress axis : x y z
#
# Youngs Moduli (GPa) = 53.66722 141.73034 103.81823
#
# Poissons Ratio (x) = 0.06351 0.44010
# Poissons Ratio (y) = 0.02405 0.24754
# Poissons Ratio (z) = 0.22750 0.33793
#
# Static dielectric constant tensor:
#      x y z
#    x 1.978980 0.000000 0.000000 
#    y 0.000000 1.971970 0.000000 
#    z 0.000000 0.000000 1.867530 
# 
# From -- ./inp_files/15679.got.cif
#   From: 2010.05.17/outbox.cif.g08.bks.cpg/sg39_8_cif.got.tgz:15679.got - 2010.06.03 18:22:40.
