data_PCOD9360051
_publ_section_title
;
Structure prediction by ZEFSAII (Michael W. Deem and Ramdas Pophale) SiO2 
 PCOD9360051
Probable space group: A B M 2
;
_chemical_formula_sum "Si O2"
_cell_formula_units_Z 64
_cell_length_a 19.940730
_cell_length_b 9.006063
_cell_length_c 20.331464
_cell_angle_alpha 90.000000
_cell_angle_beta 90.000000
_cell_angle_gamma 90.000000
_cell_volume 3651.276194
_symmetry_space_group_name_H-M "A B M 2"
_symmetry_group_IT_number 39
_symmetry_cell_setting 'orthorhombic'
loop_
_space_group_symop_operation_xyz
x,y,z
-x,-y,z
-x,1/2+y,z
x,1/2-y,z
x,1/2+y,1/2+z
-x,1/2-y,1/2+z
-x,y,1/2+z
x,-y,1/2+z
loop_
_atom_site_type_symbol
_atom_site_label
_atom_site_fract_x
_atom_site_fract_y
_atom_site_fract_z
Si Si1 0.426615 0.573084 0.883360
Si Si2 0.572285 0.924520 0.621391
Si Si3 0.786143 0.069909 0.205828
Si Si4 0.793802 0.073258 0.562242
Si Si5 0.652445 0.072782 0.502628
Si Si6 0.068241 0.078463 0.556635
Si Si7 0.932612 0.920421 0.716933
Si Si8 0.355552 0.923624 0.262340
O O1 0.500000 0.500000 0.889564
O O2 0.432363 0.750000 0.888030
O O3 0.393748 0.523673 0.814589
O O4 0.379136 0.508659 0.940350
O O5 0.566413 0.750000 0.604194
O O6 0.609003 0.934611 0.691495
O O7 0.500000 0.000000 0.625760
O O8 0.614708 0.009691 0.566522
O O9 0.788294 0.250000 0.197696
O O10 0.858447 0.020955 0.234261
O O11 0.722146 0.035154 0.250503
O O12 0.778423 0.999178 0.133532
O O13 0.800761 0.250000 0.570861
O O14 0.731284 0.044378 0.514405
O O15 0.863757 0.005247 0.537626
O O16 0.642423 0.250000 0.497306
O O17 0.070028 0.250000 0.536820
O O18 0.067100 0.074998 0.636865
O O19 0.000000 0.000000 0.534049
O O20 0.936353 0.750000 0.737608
O O21 0.000000 0.000000 0.739931
O O22 0.358844 0.750000 0.283214
#
# Coordination Sequence:
#
# PCOD9360051 Si02
#       8
#     8   8   8   8   8   8   8   8
#     4  12  26  43  62  81 107 141 181 227 277 333
#     4  11  22  36  57  82 109 139 175 219 272 329
#     4   9  17  31  50  74 106 143 179 219 267 318
#     4  10  19  30  49  77 108 141 178 223 270 320
#     4  11  23  39  58  81 110 143 182 226 273 327
#     4   9  16  26  42  66 102 143 181 220 264 318
#     4   8  14  23  38  63  98 138 175 210 252 302
#     4  10  21  38  59  82 109 142 180 224 275 329
#
# _framework density 17.528117999999999
#
# number of rings (size 3 to 8) (size 9 to 14) (size 15 to 20)
#    0.000    2.000    1.250    4.125    0.000    7.000 
#    0.000    0.000    0.000    0.000    0.000    0.875 
#    0.000    2.000    0.000    0.000    0.000    0.000 
#
# Total GULP energy -178560.431935 kJ/mol
# GULP energy per Si atom -5580.013498 kJ/mol
# Density = 1.748822 g / cm^3
# Si number density = 17.528118 Si / 1000 Ang^3
#
#
#
# Elastic Constant Matrix: (Units=GPa)
#
#
# Indices 1 2 3 4 5 6 
#
# 1 137.4907 59.9524 14.9956 0.0000 0.0000 0.0000
# 2 59.9524 92.0264 27.1436 0.0000 0.0000 0.0000
# 3 14.9956 27.1436 35.8493 0.0000 0.0000 0.0000
# 4 0.0000 0.0000 0.0000 23.9698 0.0000 0.0000
# 5 0.0000 0.0000 0.0000 0.0000 0.8704 0.0000
# 6 0.0000 0.0000 0.0000 0.0000 0.0000 32.1274
#
#
#
# Elastic Compliance Matrix: (Units=1/GPa)
#
#
# Indices 1 2 3 4 5 6 
#
# 1 0.010186 -0.006926 0.000983 0.000000 0.000000 0.000000
# 2 -0.006926 0.018700 -0.011262 0.000000 0.000000 0.000000
# 3 0.000983 -0.011262 0.036010 0.000000 0.000000 0.000000
# 4 0.000000 0.000000 0.000000 0.041719 0.000000 0.000000
# 5 0.000000 0.000000 0.000000 0.000000 1.148842 0.000000
# 6 0.000000 0.000000 0.000000 0.000000 0.000000 0.031126
#
#
# Mechanical properties :
#
#
# Convention : Reuss Voigt Hill
#
# Bulk Modulus (GPa) = 32.80053 52.17219 42.48636
# Shear Modulus (GPa) = 3.75614 22.27850 13.01732
#
# Velocity S-wave (km/s) = 1.46546 3.56900 2.72812
# Velocity P-wave (km/s) = 4.64942 6.84201 5.84937
#
# Compressibility (1/GPa) = 0.03048731
#
# Stress axis : x y z
#
# Youngs Moduli (GPa) = 98.17405 53.47535 27.76984
#
# Poissons Ratio (x) = 0.37036 -0.02730
# Poissons Ratio (y) = 0.67994 0.31274
# Poissons Ratio (z) = -0.09653 0.60224
#
# Static dielectric constant tensor:
#      x y z
#    x 1.622780 0.000000 0.000000 
#    y 0.000000 1.591430 0.000000 
#    z 0.000000 0.000000 1.571820 
# 
# From -- ./inp_files/13241.got.cif
#   From: 2010.05.17/outbox.cif.g08.bks.cpg/sg39_7_cif.got.tgz:13241.got - 2010.06.03 18:22:40.
