data_PCOD9360584
_publ_section_title
;
Structure prediction by ZEFSAII (Michael W. Deem and Ramdas Pophale) SiO2 
 PCOD9360584
Probable space group: A B M 2
;
_chemical_formula_sum "Si O2"
_cell_formula_units_Z 64
_cell_length_a 14.859535
_cell_length_b 8.975365
_cell_length_c 24.809602
_cell_angle_alpha 90.000000
_cell_angle_beta 90.000000
_cell_angle_gamma 90.000000
_cell_volume 3308.850425
_symmetry_space_group_name_H-M "A B M 2"
_symmetry_group_IT_number 39
_symmetry_cell_setting 'orthorhombic'
loop_
_space_group_symop_operation_xyz
x,y,z
-x,-y,z
-x,1/2+y,z
x,1/2-y,z
x,1/2+y,1/2+z
-x,1/2-y,1/2+z
-x,y,1/2+z
x,-y,1/2+z
loop_
_atom_site_type_symbol
_atom_site_label
_atom_site_fract_x
_atom_site_fract_y
_atom_site_fract_z
Si Si1 0.408988 0.572907 0.506780
Si Si2 0.905820 0.071158 0.460632
Si Si3 0.661745 0.418613 0.620451
Si Si4 0.273806 0.072266 0.427063
Si Si5 0.868123 0.920788 0.085029
Si Si6 0.707762 0.427009 0.227371
Si Si7 0.401107 0.928084 0.824939
Si Si8 0.908961 0.572878 0.695939
O O1 0.500000 0.500000 0.485200
O O2 0.406247 0.750000 0.497117
O O3 0.402776 0.547785 0.570815
O O4 0.325987 0.493681 0.478272
O O5 0.906807 0.250000 0.456899
O O6 0.891085 0.032562 0.524292
O O7 0.823260 0.004752 0.426848
O O8 0.000000 0.000000 0.443693
O O9 0.644803 0.250000 0.640499
O O10 0.760831 0.418438 0.593575
O O11 0.663918 0.530636 0.669931
O O12 0.263764 0.250000 0.431273
O O13 0.337638 0.038116 0.376253
O O14 0.900688 0.750000 0.092977
O O15 0.902722 0.023827 0.133214
O O16 0.705216 0.250000 0.235817
O O17 0.652267 0.509330 0.273429
O O18 0.813479 0.474059 0.222682
O O19 0.411093 0.750000 0.821132
O O20 0.500000 0.000000 0.829613
O O21 0.914966 0.750000 0.699653
O O22 0.000000 0.500000 0.718611
#
# Coordination Sequence:
#
# PCOD9360584 Si02
#       8
#     8   8   8   8   8   8   8   8
#     4  11  22  37  58  88 122 160 200 243 303 367
#     4  11  22  37  58  88 124 164 206 249 300 359
#     4   9  18  35  56  82 121 163 199 242 298 356
#     4  11  24  42  64  90 120 157 202 253 307 362
#     4   9  17  32  53  80 116 161 204 243 289 344
#     4  10  22  39  61  90 121 156 201 250 303 356
#     4  11  25  45  69  93 116 151 199 251 308 365
#     4  10  20  33  53  85 121 161 203 244 292 349
#
# _framework density 19.342063
#
# number of rings (size 3 to 8) (size 9 to 14) (size 15 to 20)
#    0.000    1.750    1.250    3.000    0.000    8.000 
#    0.000    1.875    0.000    1.500    0.000    0.000 
#    0.000    0.000    0.000    0.000    0.000    0.000 
#
# Total GULP energy -178718.002407 kJ/mol
# GULP energy per Si atom -5584.937575 kJ/mol
# Density = 1.929804 g / cm^3
# Si number density = 19.342063 Si / 1000 Ang^3
#
#
#
# Elastic Constant Matrix: (Units=GPa)
#
#
# Indices 1 2 3 4 5 6 
#
# 1 151.2994 69.8085 48.6567 0.0000 0.0000 0.0000
# 2 69.8085 69.5401 52.5033 0.0000 0.0000 0.0000
# 3 48.6567 52.5033 64.1133 0.0000 0.0000 0.0000
# 4 0.0000 0.0000 0.0000 21.0302 0.0000 0.0000
# 5 0.0000 0.0000 0.0000 0.0000 12.4386 0.0000
# 6 0.0000 0.0000 0.0000 0.0000 0.0000 33.9764
#
#
#
# Elastic Compliance Matrix: (Units=1/GPa)
#
#
# Indices 1 2 3 4 5 6 
#
# 1 0.012414 -0.014013 0.002054 0.000000 0.000000 0.000000
# 2 -0.014013 0.053491 -0.033169 0.000000 0.000000 0.000000
# 3 0.002054 -0.033169 0.041201 0.000000 0.000000 0.000000
# 4 0.000000 0.000000 0.000000 0.047551 0.000000 0.000000
# 5 0.000000 0.000000 0.000000 0.000000 0.080395 0.000000
# 6 0.000000 0.000000 0.000000 0.000000 0.000000 0.029432
#
#
# Mechanical properties :
#
#
# Convention : Reuss Voigt Hill
#
# Bulk Modulus (GPa) = 59.34912 69.65443 64.50177
# Shear Modulus (GPa) = 13.87508 21.08797 17.48153
#
# Velocity S-wave (km/s) = 2.68125 3.30550 3.00960
# Velocity P-wave (km/s) = 6.35107 7.11748 6.74517
#
# Compressibility (1/GPa) = 0.01684945
#
# Stress axis : x y z
#
# Youngs Moduli (GPa) = 80.55145 18.69483 24.27098
#
# Poissons Ratio (x) = 0.26197 -0.04985
# Poissons Ratio (y) = 1.12878 0.80506
# Poissons Ratio (z) = -0.16546 0.62010
#
# Static dielectric constant tensor:
#      x y z
#    x 1.926440 0.000000 0.000000 
#    y 0.000000 1.650970 0.000000 
#    z 0.000000 0.000000 1.662430 
# 
# From -- ./inp_files/16171.got.cif
#   From: 2010.05.17/outbox.cif.g08.bks.cpg/sg39_9_cif.got.tgz:16171.got - 2010.06.03 18:22:40.
