data_PCOD9360304
_publ_section_title
;
Structure prediction by ZEFSAII (Michael W. Deem and Ramdas Pophale) SiO2 
 PCOD9360304
Probable space group: A B M 2
;
_chemical_formula_sum "Si O2"
_cell_formula_units_Z 64
_cell_length_a 15.037360
_cell_length_b 7.991308
_cell_length_c 25.845170
_cell_angle_alpha 90.000000
_cell_angle_beta 90.000000
_cell_angle_gamma 90.000000
_cell_volume 3105.766918
_symmetry_space_group_name_H-M "A B M 2"
_symmetry_group_IT_number 39
_symmetry_cell_setting 'orthorhombic'
loop_
_space_group_symop_operation_xyz
x,y,z
-x,-y,z
-x,1/2+y,z
x,1/2-y,z
x,1/2+y,1/2+z
-x,1/2-y,1/2+z
-x,y,1/2+z
x,-y,1/2+z
loop_
_atom_site_type_symbol
_atom_site_label
_atom_site_fract_x
_atom_site_fract_y
_atom_site_fract_z
Si Si1 0.652309 0.441467 0.368170
Si Si2 0.838392 0.057530 0.834956
Si Si3 0.407003 0.048748 0.763594
Si Si4 0.277116 0.954538 0.175277
Si Si5 0.098087 0.050054 0.722528
Si Si6 0.396348 0.949045 0.079750
Si Si7 0.095304 0.950323 0.443293
Si Si8 0.290081 0.952407 0.477299
O O1 0.621642 0.250000 0.374882
O O2 0.752348 0.443153 0.345059
O O3 0.598055 0.523225 0.321597
O O4 0.661556 0.517227 0.425005
O O5 0.809028 0.250000 0.835124
O O6 0.883365 0.018852 0.780287
O O7 0.898318 0.027170 0.885581
O O8 0.401590 0.250000 0.766942
O O9 0.327061 0.992069 0.727650
O O10 0.500000 0.000000 0.738675
O O11 0.277988 0.750000 0.173354
O O12 0.175276 0.007152 0.183067
O O13 0.335664 0.015818 0.127138
O O14 0.103497 0.250000 0.726555
O O15 0.000000 0.000000 0.705764
O O16 0.396394 0.750000 0.084068
O O17 0.500000 0.000000 0.080752
O O18 0.345181 0.996187 0.027203
O O19 0.098465 0.750000 0.438646
O O20 0.185882 0.004389 0.473176
O O21 0.000000 0.000000 0.466573
O O22 0.289671 0.750000 0.474775
#
# Coordination Sequence:
#
# PCOD9360304 Si02
#       8
#     8   8   8   8   8   8   8   8
#     4   9  18  35  56  78 114 157 189 230 289 340
#     4  11  20  31  51  82 117 155 198 236 279 334
#     4  10  19  34  55  81 111 147 183 228 286 344
#     4   9  20  39  61  81 111 150 190 235 290 343
#     4  11  21  37  57  81 115 153 194 236 285 342
#     4  11  23  41  65  89 111 147 194 243 294 347
#     4  10  20  35  56  83 118 158 198 237 285 338
#     4   9  20  38  59  85 115 151 193 239 290 342
#
# _framework density 20.606826999999999
#
# number of rings (size 3 to 8) (size 9 to 14) (size 15 to 20)
#    0.000    2.000    1.250    3.750    0.000    3.500 
#    0.000    5.000    0.000    3.000    0.000    0.000 
#    0.000    0.000    0.000    0.000    0.000    0.000 
#
# Total GULP energy -178524.058154 kJ/mol
# GULP energy per Si atom -5578.876817 kJ/mol
# Density = 2.055993 g / cm^3
# Si number density = 20.606827 Si / 1000 Ang^3
#
#
#
# Elastic Constant Matrix: (Units=GPa)
#
#
# Indices 1 2 3 4 5 6 
#
# 1 155.3606 3.7150 82.2668 0.0000 0.0000 0.0000
# 2 3.7150 44.1632 11.5110 0.0000 0.0000 0.0000
# 3 82.2668 11.5110 132.0202 0.0000 0.0000 0.0000
# 4 0.0000 0.0000 0.0000 0.1431 0.0000 0.0000
# 5 0.0000 0.0000 0.0000 0.0000 20.4555 0.0000
# 6 0.0000 0.0000 0.0000 0.0000 0.0000 25.7746
#
#
#
# Elastic Compliance Matrix: (Units=1/GPa)
#
#
# Indices 1 2 3 4 5 6 
#
# 1 0.009632 0.000772 -0.006069 0.000000 0.000000 0.000000
# 2 0.000772 0.023232 -0.002506 0.000000 0.000000 0.000000
# 3 -0.006069 -0.002506 0.011575 0.000000 0.000000 0.000000
# 4 0.000000 0.000000 0.000000 6.988955 0.000000 0.000000
# 5 0.000000 0.000000 0.000000 0.000000 0.048887 0.000000
# 6 0.000000 0.000000 0.000000 0.000000 0.000000 0.038798
#
#
# Mechanical properties :
#
#
# Convention : Reuss Voigt Hill
#
# Bulk Modulus (GPa) = 34.68536 58.50331 46.59433
# Shear Modulus (GPa) = 0.69966 24.87804 12.78885
#
# Velocity S-wave (km/s) = 0.58332 3.47835 2.49391
# Velocity P-wave (km/s) = 4.16200 6.67711 5.56354
#
# Compressibility (1/GPa) = 0.02883061
#
# Stress axis : x y z
#
# Youngs Moduli (GPa) = 103.81995 43.04473 86.39149
#
# Poissons Ratio (x) = -0.03322 0.52434
# Poissons Ratio (y) = -0.08012 0.21654
# Poissons Ratio (z) = 0.63012 0.10789
#
# Static dielectric constant tensor:
#      x y z
#    x 1.788930 0.000000 0.000000 
#    y 0.000000 1.788320 0.000000 
#    z 0.000000 0.000000 1.747930 
# 
# From -- ./inp_files/16234.got.cif
#   From: 2010.05.17/outbox.cif.g08.bks.cpg/sg39_9_cif.got.tgz:16234.got - 2010.06.03 18:22:40.
