data_PCOD9360023
_publ_section_title
;
Structure prediction by ZEFSAII (Michael W. Deem and Ramdas Pophale) SiO2 
 PCOD9360023
Probable space group: A B M 2
;
_chemical_formula_sum "Si O2"
_cell_formula_units_Z 48
_cell_length_a 13.664625
_cell_length_b 8.728450
_cell_length_c 23.498680
_cell_angle_alpha 90.000000
_cell_angle_beta 90.000000
_cell_angle_gamma 90.000000
_cell_volume 2802.710970
_symmetry_space_group_name_H-M "A B M 2"
_symmetry_group_IT_number 39
_symmetry_cell_setting 'orthorhombic'
loop_
_space_group_symop_operation_xyz
x,y,z
-x,-y,z
-x,1/2+y,z
x,1/2-y,z
x,1/2+y,1/2+z
-x,1/2-y,1/2+z
-x,y,1/2+z
x,-y,1/2+z
loop_
_atom_site_type_symbol
_atom_site_label
_atom_site_fract_x
_atom_site_fract_y
_atom_site_fract_z
Si Si1 0.391908 0.434374 0.626760
Si Si2 0.254097 0.423234 0.528244
Si Si3 0.105022 0.934899 0.815530
Si Si4 0.903559 0.421798 0.128114
Si Si5 0.236191 0.430295 0.213592
Si Si6 0.895024 0.567268 0.942383
O O1 0.500000 0.500000 0.633133
O O2 0.391712 0.250000 0.625642
O O3 0.345057 0.485821 0.565730
O O4 0.323948 0.486723 0.679856
O O5 0.276237 0.250000 0.507584
O O6 0.173262 0.410876 0.577658
O O7 0.198786 0.518262 0.479816
O O8 0.098850 0.750000 0.816556
O O9 0.197529 0.978333 0.775838
O O10 0.117276 0.999915 0.878962
O O11 0.000000 0.000000 0.794315
O O12 0.920058 0.250000 0.150633
O O13 0.858097 0.531794 0.175226
O O14 0.000000 0.500000 0.105685
O O15 0.257397 0.250000 0.214310
O O16 0.903513 0.750000 0.940849
O O17 0.000000 0.500000 0.963578
#
# Coordination Sequence:
#
# PCOD9360023 Si02
#       6
#     8   8   8   8   8   8
#     4  10  21  37  58  80 103 131 164 209 261 311
#     4   9  19  34  50  71  99 131 166 205 250 299
#     4  10  20  33  50  73 104 141 176 210 247 293
#     4  10  19  29  44  68  99 133 165 202 249 299
#     4  10  20  33  51  74 100 132 169 209 253 301
#     4  11  21  32  50  74 103 140 176 211 248 293
#
# _framework density 17.126275
#
# number of rings (size 3 to 8) (size 9 to 14) (size 15 to 20)
#    0.000    2.000    0.000    6.500    0.000    9.333 
#    0.000    0.000    0.000    1.000    0.000    4.667 
#    0.000    0.000    0.000    0.000    0.000    0.000 
#
# Total GULP energy -133716.864900 kJ/mol
# GULP energy per Si atom -5571.536038 kJ/mol
# Density = 1.708729 g / cm^3
# Si number density = 17.126275 Si / 1000 Ang^3
#
#
#
# Elastic Constant Matrix: (Units=GPa)
#
#
# Indices 1 2 3 4 5 6 
#
# 1 94.0688 40.3466 50.2757 0.0000 0.0000 0.0000
# 2 40.3466 61.9671 29.4921 0.0000 0.0000 0.0000
# 3 50.2757 29.4921 82.4813 0.0000 0.0000 0.0000
# 4 0.0000 0.0000 0.0000 23.7790 0.0000 0.0000
# 5 0.0000 0.0000 0.0000 0.0000 23.0299 0.0000
# 6 0.0000 0.0000 0.0000 0.0000 0.0000 24.6224
#
#
#
# Elastic Compliance Matrix: (Units=1/GPa)
#
#
# Indices 1 2 3 4 5 6 
#
# 1 0.018625 -0.008102 -0.008455 0.000000 0.000000 0.000000
# 2 -0.008102 0.022972 -0.003275 0.000000 0.000000 0.000000
# 3 -0.008455 -0.003275 0.018449 0.000000 0.000000 0.000000
# 4 0.000000 0.000000 0.000000 0.042054 0.000000 0.000000
# 5 0.000000 0.000000 0.000000 0.000000 0.043422 0.000000
# 6 0.000000 0.000000 0.000000 0.000000 0.000000 0.040613
#
#
# Mechanical properties :
#
#
# Convention : Reuss Voigt Hill
#
# Bulk Modulus (GPa) = 49.06851 53.19399 51.13125
# Shear Modulus (GPa) = 21.49674 22.17978 21.83826
#
# Velocity S-wave (km/s) = 3.54671 3.60262 3.57477
# Velocity P-wave (km/s) = 6.74429 6.95934 6.85266
#
# Compressibility (1/GPa) = 0.02037967
#
# Stress axis : x y z
#
# Youngs Moduli (GPa) = 53.69216 43.53182 54.20356
#
# Poissons Ratio (x) = 0.35271 0.45832
# Poissons Ratio (y) = 0.43503 0.17752
# Poissons Ratio (z) = 0.45399 0.14257
#
# Static dielectric constant tensor:
#      x y z
#    x 1.619980 0.000000 0.000000 
#    y 0.000000 1.597760 0.000000 
#    z 0.000000 0.000000 1.601030 
# 
# From -- ./inp_files/14589.got.cif
#   From: 2010.05.17/outbox.cif.g08.bks.cpg/sg39_8_cif.got.tgz:14589.got - 2010.06.03 18:22:40.
