data_PCOD9360871
_publ_section_title
;
Structure prediction by ZEFSAII (Michael W. Deem and Ramdas Pophale) SiO2 
 PCOD9360871
Probable space group: A B M 2
;
_chemical_formula_sum "Si O2"
_cell_formula_units_Z 64
_cell_length_a 25.368223
_cell_length_b 8.914024
_cell_length_c 15.076176
_cell_angle_alpha 90.000000
_cell_angle_beta 90.000000
_cell_angle_gamma 90.000000
_cell_volume 3409.220133
_symmetry_space_group_name_H-M "A B M 2"
_symmetry_group_IT_number 39
_symmetry_cell_setting 'orthorhombic'
loop_
_space_group_symop_operation_xyz
x,y,z
-x,-y,z
-x,1/2+y,z
x,1/2-y,z
x,1/2+y,1/2+z
-x,1/2-y,1/2+z
-x,y,1/2+z
x,-y,1/2+z
loop_
_atom_site_type_symbol
_atom_site_label
_atom_site_fract_x
_atom_site_fract_y
_atom_site_fract_z
Si Si1 0.444428 0.430172 0.005750
Si Si2 0.053380 0.577850 0.709220
Si Si3 0.362081 0.429371 0.852287
Si Si4 0.830221 0.432280 0.496801
Si Si5 0.053540 0.077844 0.992475
Si Si6 0.752744 0.070124 0.855170
Si Si7 0.555592 0.569827 0.698898
Si Si8 0.168150 0.432656 0.202245
O O1 0.500000 0.500000 0.974704
O O2 0.449726 0.250000 0.012008
O O3 0.434065 0.499969 0.102327
O O4 0.397781 0.465534 0.937817
O O5 0.051352 0.750000 0.737909
O O6 0.053539 0.575660 0.600862
O O7 0.110454 0.511794 0.733907
O O8 0.000000 0.500000 0.739393
O O9 0.352926 0.250000 0.852493
O O10 0.306681 0.512251 0.852697
O O11 0.397748 0.465718 0.766804
O O12 0.829561 0.250000 0.492200
O O13 0.888964 0.484450 0.467187
O O14 0.785025 0.500921 0.436812
O O15 0.823283 0.475485 0.600004
O O16 0.051443 0.250000 0.964331
O O17 0.000000 0.000000 0.962477
O O18 0.753579 0.250000 0.860418
O O19 0.785142 0.022846 0.767204
O O20 0.500000 0.500000 0.729925
O O21 0.550283 0.750000 0.692746
O O22 0.164874 0.250000 0.202732
#
# Coordination Sequence:
#
# PCOD9360871 Si02
#       8
#     8   8   8   8   8   8   8   8
#     4  10  20  36  59  86 115 146 178 214 261 314
#     4   8  13  25  46  71  97 125 162 206 255 313
#     4  10  23  40  56  77 110 149 182 218 265 314
#     4   9  18  36  57  74 101 141 177 213 267 327
#     4   8  14  25  46  73  98 128 165 208 259 316
#     4  11  23  37  55  79 104 136 183 231 266 306
#     4  10  20  36  59  87 117 146 178 218 263 311
#     4   8  17  35  55  73 100 139 174 210 264 323
#
# _framework density 18.772621999999998
#
# number of rings (size 3 to 8) (size 9 to 14) (size 15 to 20)
#    0.000    2.750    0.000    3.750    0.000    3.500 
#    0.000    8.750    0.000    3.000    0.000    0.000 
#    0.000    0.000    0.000    0.000    0.000    0.000 
#
# Total GULP energy -178510.741527 kJ/mol
# GULP energy per Si atom -5578.460673 kJ/mol
# Density = 1.872989 g / cm^3
# Si number density = 18.772622 Si / 1000 Ang^3
#
#
#
# Elastic Constant Matrix: (Units=GPa)
#
#
# Indices 1 2 3 4 5 6 
#
# 1 211.3997 71.5675 91.2375 0.0000 0.0000 0.0000
# 2 71.5675 47.9139 36.1229 0.0000 0.0000 0.0000
# 3 91.2375 36.1229 89.2765 0.0000 0.0000 0.0000
# 4 0.0000 0.0000 0.0000 168.0349 0.0000 0.0000
# 5 0.0000 0.0000 0.0000 0.0000 -54.9822 0.0000
# 6 0.0000 0.0000 0.0000 0.0000 0.0000 35.6851
#
#
#
# Elastic Compliance Matrix: (Units=1/GPa)
#
#
# Indices 1 2 3 4 5 6 
#
# 1 0.012180 -0.012676 -0.007319 0.000000 0.000000 0.000000
# 2 -0.012676 0.043223 -0.004535 0.000000 0.000000 0.000000
# 3 -0.007319 -0.004535 0.020516 0.000000 0.000000 0.000000
# 4 0.000000 0.000000 0.000000 0.005951 0.000000 0.000000
# 5 0.000000 0.000000 0.000000 0.000000 -0.018188 0.000000
# 6 0.000000 0.000000 0.000000 0.000000 0.000000 0.028023
#
#
# Mechanical properties :
#
#
# Convention : Reuss Voigt Hill
#
# Bulk Modulus (GPa) = 37.22993 82.93843 60.08418
# Shear Modulus (GPa) = 33.39618 39.72506 36.56062
#
# Velocity S-wave (km/s) = 4.22238 4.60512 4.41789
# Velocity P-wave (km/s) = 6.60654 8.51778 7.62230
#
# Compressibility (1/GPa) = 0.02686011
#
# Stress axis : x y z
#
# Youngs Moduli (GPa) = 82.09855 23.13607 48.74235
#
# Poissons Ratio (x) = 0.29326 0.35676
# Poissons Ratio (y) = 1.04064 0.22103
# Poissons Ratio (z) = 0.60090 0.10491
#
# Static dielectric constant tensor:
#      x y z
#    x 1.639890 0.000000 0.000000 
#    y 0.000000 1.454890 0.000000 
#    z 0.000000 0.000000 1.665660 
# 
# From -- ./inp_files/10647.got.cif
#   From: 2010.05.17/outbox.cif.g08.bks.cpg/sg39_6_cif.got.tgz:10647.got - 2010.06.03 18:22:40.
