data_PCOD9360533
_publ_section_title
;
Structure prediction by ZEFSAII (Michael W. Deem and Ramdas Pophale) SiO2 
 PCOD9360533
Probable space group: A B M 2
;
_chemical_formula_sum "Si O2"
_cell_formula_units_Z 56
_cell_length_a 15.609443
_cell_length_b 8.918609
_cell_length_c 25.962183
_cell_angle_alpha 90.000000
_cell_angle_beta 90.000000
_cell_angle_gamma 90.000000
_cell_volume 3614.312814
_symmetry_space_group_name_H-M "A B M 2"
_symmetry_group_IT_number 39
_symmetry_cell_setting 'orthorhombic'
loop_
_space_group_symop_operation_xyz
x,y,z
-x,-y,z
-x,1/2+y,z
x,1/2-y,z
x,1/2+y,1/2+z
-x,1/2-y,1/2+z
-x,y,1/2+z
x,-y,1/2+z
loop_
_atom_site_type_symbol
_atom_site_label
_atom_site_fract_x
_atom_site_fract_y
_atom_site_fract_z
Si Si1 0.405443 0.570845 0.322440
Si Si2 0.594936 0.570249 0.541344
Si Si3 0.733048 0.929107 0.734606
Si Si4 0.594910 0.570961 0.426443
Si Si5 0.274586 0.068461 0.121878
Si Si6 0.086090 0.078597 0.116122
Si Si7 0.088094 0.923141 0.741449
O O1 0.500000 0.500000 0.314625
O O2 0.414527 0.750000 0.327655
O O3 0.342299 0.538692 0.275103
O O4 0.366687 0.503316 0.375370
O O5 0.500000 0.500000 0.544415
O O6 0.589557 0.750000 0.547818
O O7 0.630941 0.540599 0.483477
O O8 0.654083 0.496523 0.584358
O O9 0.738707 0.750000 0.727156
O O10 0.714761 0.007573 0.679877
O O11 0.824700 0.989993 0.754532
O O12 0.500000 0.500000 0.428139
O O13 0.589786 0.750000 0.419781
O O14 0.275644 0.250000 0.122908
O O15 0.179921 0.017055 0.102839
O O16 0.082765 0.250000 0.099371
O O17 0.084852 0.075805 0.178737
O O18 0.000000 0.000000 0.097711
O O19 0.092446 0.750000 0.757646
O O20 0.000000 0.000000 0.759424
#
# Coordination Sequence:
#
# PCOD9360533 Si02
#       7
#     8   8   8   8   8   8   8
#     4  10  20  32  48  68  91 121 155 191 231 271
#     4  10  20  33  49  69  92 121 154 190 231 273
#     4  10  20  32  45  66  96 127 158 191 228 275
#     4   9  17  30  49  69  88 112 148 192 234 272
#     4  10  20  32  46  67  95 126 157 189 227 274
#     4   8  15  26  41  62  86 114 148 183 221 261
#     4   9  16  27  44  65  89 119 153 190 230 272
#
# _framework density 15.493955
#
# number of rings (size 3 to 8) (size 9 to 14) (size 15 to 20)
#    0.000    2.571    0.000    4.286    0.000    8.571 
#    0.000    1.429    0.000    0.000    0.000    1.000 
#    0.000    4.571    0.000    0.000    0.000    0.000 
#
# Total GULP energy -155919.456616 kJ/mol
# GULP energy per Si atom -5568.552022 kJ/mol
# Density = 1.545869 g / cm^3
# Si number density = 15.493955 Si / 1000 Ang^3
#
#
#
# Elastic Constant Matrix: (Units=GPa)
#
#
# Indices 1 2 3 4 5 6 
#
# 1 108.1107 54.1002 62.5935 0.0000 0.0000 0.0000
# 2 54.1002 83.7654 50.2097 0.0000 0.0000 0.0000
# 3 62.5935 50.2097 86.8068 0.0000 0.0000 0.0000
# 4 0.0000 0.0000 0.0000 10.9363 0.0000 0.0000
# 5 0.0000 0.0000 0.0000 0.0000 -1.5456 0.0000
# 6 0.0000 0.0000 0.0000 0.0000 0.0000 27.3854
#
#
#
# Elastic Compliance Matrix: (Units=1/GPa)
#
#
# Indices 1 2 3 4 5 6 
#
# 1 0.017506 -0.005725 -0.009312 0.000000 0.000000 0.000000
# 2 -0.005725 0.020146 -0.007525 0.000000 0.000000 0.000000
# 3 -0.009312 -0.007525 0.022586 0.000000 0.000000 0.000000
# 4 0.000000 0.000000 0.000000 0.091439 0.000000 0.000000
# 5 0.000000 0.000000 0.000000 0.000000 -0.646990 0.000000
# 6 0.000000 0.000000 0.000000 0.000000 0.000000 0.036516
#
#
# Mechanical properties :
#
#
# Convention : Reuss Voigt Hill
#
# Bulk Modulus (GPa) = 66.15444 68.05440 67.10442
# Shear Modulus (GPa) = -12.23578 14.80717 1.28570
#
# Velocity S-wave (km/s) = -2.81323 3.09475 0.91193
# Velocity P-wave (km/s) = 5.67779 7.53582 6.67180
#
# Compressibility (1/GPa) = 0.01511614
#
# Stress axis : x y z
#
# Youngs Moduli (GPa) = 57.12435 49.63844 44.27449
#
# Poissons Ratio (x) = 0.28416 0.41227
# Poissons Ratio (y) = 0.32702 0.33315
# Poissons Ratio (z) = 0.53192 0.37351
#
# Static dielectric constant tensor:
#      x y z
#    x 1.517180 0.000000 0.000000 
#    y 0.000000 1.523230 0.000000 
#    z 0.000000 0.000000 1.514540 
# 
# From -- ./inp_files/14939.got.cif
#   From: 2010.05.17/outbox.cif.g08.bks.cpg/sg39_8_cif.got.tgz:14939.got - 2010.06.03 18:22:40.
