data_PCOD9360794
_publ_section_title
;
Structure prediction by ZEFSAII (Michael W. Deem and Ramdas Pophale) SiO2 
 PCOD9360794
Probable space group: A B M 2
;
_chemical_formula_sum "Si O2"
_cell_formula_units_Z 64
_cell_length_a 12.716001
_cell_length_b 15.771430
_cell_length_c 14.717837
_cell_angle_alpha 90.000000
_cell_angle_beta 90.000000
_cell_angle_gamma 90.000000
_cell_volume 2951.655141
_symmetry_space_group_name_H-M "A B M 2"
_symmetry_group_IT_number 39
_symmetry_cell_setting 'orthorhombic'
loop_
_space_group_symop_operation_xyz
x,y,z
-x,-y,z
-x,1/2+y,z
x,1/2-y,z
x,1/2+y,1/2+z
-x,1/2-y,1/2+z
-x,y,1/2+z
x,-y,1/2+z
loop_
_atom_site_type_symbol
_atom_site_label
_atom_site_fract_x
_atom_site_fract_y
_atom_site_fract_z
Si Si1 0.338660 0.348225 0.906930
Si Si2 0.415091 0.853753 0.210282
Si Si3 0.379231 0.854103 0.604118
Si Si4 0.959141 0.904436 0.683094
Si Si5 0.825114 0.153189 0.707012
Si Si6 0.763781 0.351413 0.070322
Si Si7 0.099400 0.609942 0.391130
Si Si8 0.132154 0.411557 0.405431
O O1 0.371313 0.250000 0.904476
O O2 0.376906 0.384605 0.809725
O O3 0.211144 0.349324 0.915732
O O4 0.386869 0.385017 0.000013
O O5 0.413620 0.750000 0.213087
O O6 0.529253 0.879800 0.173558
O O7 0.333792 0.879270 0.131303
O O8 0.380040 0.750000 0.600331
O O9 0.267266 0.881051 0.644632
O O10 0.866960 0.892786 0.613093
O O11 0.914693 0.880030 0.782220
O O12 0.061914 0.850544 0.659157
O O13 0.000000 0.000000 0.687152
O O14 0.799840 0.250000 0.730802
O O15 0.840730 0.103546 0.800400
O O16 0.770676 0.250000 0.077053
O O17 0.772685 0.377980 0.966069
O O18 0.115069 0.511474 0.416435
O O19 0.981574 0.633097 0.425609
#
# Coordination Sequence:
#
# PCOD9360794 Si02
#       8
#     8   8   8   8   8   8   8   8
#     4  10  20  35  60  88 115 152 198 254 298 354
#     4   9  19  37  58  85 119 153 195 250 307 353
#     4   9  20  36  58  89 116 150 200 247 304 355
#     4  11  21  37  58  83 121 160 196 240 304 361
#     4  10  20  36  57  84 118 152 195 251 293 344
#     4  11  23  36  59  91 119 158 204 249 298 355
#     4  10  20  39  56  81 118 161 202 236 299 369
#     4  10  22  37  55  85 121 160 196 241 301 359
#
# _framework density 21.682749000000001
#
# number of rings (size 3 to 8) (size 9 to 14) (size 15 to 20)
#    0.000    2.000    3.750    0.750    3.500    3.500 
#    0.000    3.750    0.000    8.250    0.000    0.000 
#    0.000    0.000    0.000    0.000    0.000    0.000 
#
# Total GULP energy -178575.209493 kJ/mol
# GULP energy per Si atom -5580.475297 kJ/mol
# Density = 2.163340 g / cm^3
# Si number density = 21.682749 Si / 1000 Ang^3
#
#
#
# Elastic Constant Matrix: (Units=GPa)
#
#
# Indices 1 2 3 4 5 6 
#
# 1 91.1586 -3.5885 43.2191 0.0000 0.0000 0.0000
# 2 -3.5885 15.7211 5.8424 0.0000 0.0000 0.0000
# 3 43.2191 5.8424 73.3591 0.0000 0.0000 0.0000
# 4 0.0000 0.0000 0.0000 14.1639 0.0000 0.0000
# 5 0.0000 0.0000 0.0000 0.0000 30.2404 0.0000
# 6 0.0000 0.0000 0.0000 0.0000 0.0000 -31.6158
#
#
#
# Elastic Compliance Matrix: (Units=1/GPa)
#
#
# Indices 1 2 3 4 5 6 
#
# 1 0.016011 0.007379 -0.010021 0.000000 0.000000 0.000000
# 2 0.007379 0.068949 -0.009838 0.000000 0.000000 0.000000
# 3 -0.010021 -0.009838 0.020319 0.000000 0.000000 0.000000
# 4 0.000000 0.000000 0.000000 0.070602 0.000000 0.000000
# 5 0.000000 0.000000 0.000000 0.000000 0.033068 0.000000
# 6 0.000000 0.000000 0.000000 0.000000 0.000000 -0.031630
#
#
# Mechanical properties :
#
#
# Convention : Reuss Voigt Hill
#
# Bulk Modulus (GPa) = 12.45039 30.13165 21.29102
# Shear Modulus (GPa) = 21.82899 11.54208 16.68553
#
# Velocity S-wave (km/s) = 3.17637 2.30970 2.77705
# Velocity P-wave (km/s) = 4.38257 4.58691 4.48590
#
# Compressibility (1/GPa) = 0.08031875
#
# Stress axis : x y z
#
# Youngs Moduli (GPa) = 62.45632 14.50341 49.21585
#
# Poissons Ratio (x) = -0.10702 0.49317
# Poissons Ratio (y) = -0.46085 0.48420
# Poissons Ratio (z) = 0.62585 0.14269
#
# Static dielectric constant tensor:
#      x y z
#    x 1.784710 0.000000 0.000000 
#    y 0.000000 1.797190 0.000000 
#    z 0.000000 0.000000 1.806800 
# 
# From -- ./inp_files/9473.got.cif
#   From: 2010.05.17/outbox.cif.g08.bks.cpg/sg39_5_cif.got.tgz:9473.got - 2010.06.03 18:22:40.
