data_PCOD9360597
_publ_section_title
;
Structure prediction by ZEFSAII (Michael W. Deem and Ramdas Pophale) SiO2 
 PCOD9360597
Probable space group: A B M 2
;
_chemical_formula_sum "Si O2"
_cell_formula_units_Z 36
_cell_length_a 10.329504
_cell_length_b 20.467938
_cell_length_c 8.960042
_cell_angle_alpha 90.000000
_cell_angle_beta 90.000000
_cell_angle_gamma 90.000000
_cell_volume 1894.364761
_symmetry_space_group_name_H-M "A B M 2"
_symmetry_group_IT_number 39
_symmetry_cell_setting 'orthorhombic'
loop_
_space_group_symop_operation_xyz
x,y,z
-x,-y,z
-x,1/2+y,z
x,1/2-y,z
x,1/2+y,1/2+z
-x,1/2-y,1/2+z
-x,y,1/2+z
x,-y,1/2+z
loop_
_atom_site_type_symbol
_atom_site_label
_atom_site_fract_x
_atom_site_fract_y
_atom_site_fract_z
Si Si1 0.181767 0.397021 0.856910
Si Si2 0.911856 0.107039 0.017685
Si Si3 0.500000 0.000000 0.640883
Si Si4 0.681106 0.030733 0.891095
Si Si5 0.817833 0.750000 0.887436
Si Si6 0.051629 0.250000 0.574409
O O1 0.122642 0.407989 0.690325
O O2 0.283475 0.453835 0.887702
O O3 0.239644 0.323194 0.871200
O O4 0.060264 0.404770 0.970276
O O5 0.891278 0.184586 0.004852
O O6 0.814141 0.068896 0.910741
O O7 0.405311 0.958054 0.745756
O O8 0.591302 0.957431 0.534325
O O9 0.920024 0.750000 0.749611
O O10 0.899694 0.750000 0.039252
#
# Coordination Sequence:
#
# PCOD9360597 Si02
#       6
#     8   8   4   8   4   4
#     4  10  20  33  56  84 111 137 169 217 268 319
#     4  10  20  33  56  84 111 137 169 217 268 319
#     4  10  24  38  54  72 104 146 180 226 260 310
#     4  11  21  38  56  76 103 139 186 220 264 307
#     4   8  16  32  50  77 111 140 164 201 266 324
#     4   8  16  32  50  77 111 140 164 201 266 324
#
# _framework density 19.003731999999999
#
# number of rings (size 3 to 8) (size 9 to 14) (size 15 to 20)
#    0.000    2.222    2.222    0.667    3.111    1.778 
#    0.000    0.000    0.000    8.000    0.000    0.000 
#    0.000    0.000    0.000    0.000    0.000    0.000 
#
# Total GULP energy -100266.331730 kJ/mol
# GULP energy per Si atom -5570.351763 kJ/mol
# Density = 1.896048 g / cm^3
# Si number density = 19.003732 Si / 1000 Ang^3
#
#
#
# Elastic Constant Matrix: (Units=GPa)
#
#
# Indices 1 2 3 4 5 6 
#
# 1 52.4741 31.1060 12.1986 0.0000 0.0000 0.0000
# 2 31.1060 69.2862 25.8866 0.0000 0.0000 0.0000
# 3 12.1986 25.8866 57.6942 0.0000 0.0000 0.0000
# 4 0.0000 0.0000 0.0000 16.2655 0.0000 0.0000
# 5 0.0000 0.0000 0.0000 0.0000 29.5877 0.0000
# 6 0.0000 0.0000 0.0000 0.0000 0.0000 1.4980
#
#
#
# Elastic Compliance Matrix: (Units=1/GPa)
#
#
# Indices 1 2 3 4 5 6 
#
# 1 0.025973 -0.011544 -0.000312 0.000000 0.000000 0.000000
# 2 -0.011544 0.022470 -0.007641 0.000000 0.000000 0.000000
# 3 -0.000312 -0.007641 0.020827 0.000000 0.000000 0.000000
# 4 0.000000 0.000000 0.000000 0.061480 0.000000 0.000000
# 5 0.000000 0.000000 0.000000 0.000000 0.033798 0.000000
# 6 0.000000 0.000000 0.000000 0.000000 0.000000 0.667545
#
#
# Mechanical properties :
#
#
# Convention : Reuss Voigt Hill
#
# Bulk Modulus (GPa) = 33.02953 35.31522 34.17238
# Shear Modulus (GPa) = 5.67421 16.82112 11.24767
#
# Velocity S-wave (km/s) = 1.72983 2.97837 2.43547
# Velocity P-wave (km/s) = 4.62688 5.51827 5.09212
#
# Compressibility (1/GPa) = 0.03027594
#
# Stress axis : x y z
#
# Youngs Moduli (GPa) = 38.50217 44.50289 48.01389
#
# Poissons Ratio (x) = 0.51373 0.01498
# Poissons Ratio (y) = 0.44446 0.36689
# Poissons Ratio (z) = 0.01201 0.34006
#
# Static dielectric constant tensor:
#      x y z
#    x 1.643780 0.000000 0.000000 
#    y 0.000000 1.690730 0.000000 
#    z 0.000000 0.000000 1.724760 
# 
# From -- ./inp_files/2047.got.cif
#   From: 2010.05.17/outbox.cif.g08.bks.cpg/sg39_2_cif.got.tgz:2047.got - 2010.06.03 18:22:40.
