data_PCOD9360634
_publ_section_title
;
Structure prediction by ZEFSAII (Michael W. Deem and Ramdas Pophale) SiO2 
 PCOD9360634
Probable space group: A B M 2
;
_chemical_formula_sum "Si O2"
_cell_formula_units_Z 56
_cell_length_a 24.522094
_cell_length_b 8.679871
_cell_length_c 14.682429
_cell_angle_alpha 90.000000
_cell_angle_beta 90.000000
_cell_angle_gamma 90.000000
_cell_volume 3125.134642
_symmetry_space_group_name_H-M "A B M 2"
_symmetry_group_IT_number 39
_symmetry_cell_setting 'orthorhombic'
loop_
_space_group_symop_operation_xyz
x,y,z
-x,-y,z
-x,1/2+y,z
x,1/2-y,z
x,1/2+y,1/2+z
-x,1/2-y,1/2+z
-x,y,1/2+z
x,-y,1/2+z
loop_
_atom_site_type_symbol
_atom_site_label
_atom_site_fract_x
_atom_site_fract_y
_atom_site_fract_z
Si Si1 0.942347 0.435104 0.930160
Si Si2 0.350687 0.064491 0.225203
Si Si3 0.269086 0.435681 0.577168
Si Si4 0.560477 0.065070 0.577194
Si Si5 0.058132 0.065641 0.219524
Si Si6 0.142946 0.935984 0.079482
Si Si7 0.350658 0.064519 0.929178
O O1 0.945330 0.250000 0.933208
O O2 0.936173 0.481962 0.825116
O O3 0.000000 0.500000 0.964173
O O4 0.891334 0.484971 0.990617
O O5 0.347711 0.250000 0.227119
O O6 0.404279 0.019414 0.166205
O O7 0.300458 0.999898 0.165724
O O8 0.351688 0.000271 0.327249
O O9 0.272333 0.250000 0.576644
O O10 0.205854 0.483304 0.577684
O O11 0.300327 0.500598 0.488674
O O12 0.557680 0.250000 0.577123
O O13 0.595834 0.019179 0.488357
O O14 0.500000 0.000000 0.577133
O O15 0.056598 0.250000 0.214031
O O16 0.108519 0.001720 0.163004
O O17 0.000000 0.000000 0.186663
O O18 0.141936 0.750000 0.083661
O O19 0.347941 0.250000 0.926952
#
# Coordination Sequence:
#
# PCOD9360634 Si02
#       7
#     8   8   8   8   8   8   8
#     4   9  19  35  52  73 102 134 168 209 257 313
#     4  10  21  38  58  81 110 147 187 227 272 322
#     4  10  21  37  56  80 110 144 181 228 278 326
#     4   9  20  36  55  82 115 146 181 225 269 319
#     4  10  20  34  53  76 104 138 174 215 265 318
#     4  10  21  36  54  78 106 135 173 218 267 321
#     4  10  21  38  58  82 111 146 186 226 271 325
#
# _framework density 17.919228
#
# number of rings (size 3 to 8) (size 9 to 14) (size 15 to 20)
#    0.000    2.286    0.000    3.000    0.000    8.571 
#    0.000    4.286    0.000    0.000    0.000    0.000 
#    0.000    0.000    0.000    0.000    0.000    0.000 
#
# Total GULP energy -156277.291926 kJ/mol
# GULP energy per Si atom -5581.331855 kJ/mol
# Density = 1.787844 g / cm^3
# Si number density = 17.919228 Si / 1000 Ang^3
#
#
#
# Elastic Constant Matrix: (Units=GPa)
#
#
# Indices 1 2 3 4 5 6 
#
# 1 206.4328 48.4924 105.9957 0.0000 0.0000 0.0000
# 2 48.4924 38.3543 44.4591 0.0000 0.0000 0.0000
# 3 105.9957 44.4591 170.5547 0.0000 0.0000 0.0000
# 4 0.0000 0.0000 0.0000 25.8193 0.0000 0.0000
# 5 0.0000 0.0000 0.0000 0.0000 15.4483 0.0000
# 6 0.0000 0.0000 0.0000 0.0000 0.0000 32.3481
#
#
#
# Elastic Compliance Matrix: (Units=1/GPa)
#
#
# Indices 1 2 3 4 5 6 
#
# 1 0.008045 -0.006271 -0.003365 0.000000 0.000000 0.000000
# 2 -0.006271 0.042250 -0.007116 0.000000 0.000000 0.000000
# 3 -0.003365 -0.007116 0.009810 0.000000 0.000000 0.000000
# 4 0.000000 0.000000 0.000000 0.038731 0.000000 0.000000
# 5 0.000000 0.000000 0.000000 0.000000 0.064732 0.000000
# 6 0.000000 0.000000 0.000000 0.000000 0.000000 0.030914
#
#
# Mechanical properties :
#
#
# Convention : Reuss Voigt Hill
#
# Bulk Modulus (GPa) = 37.59380 90.35957 63.97669
# Shear Modulus (GPa) = 21.11016 29.14946 25.12981
#
# Velocity S-wave (km/s) = 3.43603 4.03763 3.74892
# Velocity P-wave (km/s) = 6.06357 8.50130 7.38373
#
# Compressibility (1/GPa) = 0.02660013
#
# Stress axis : x y z
#
# Youngs Moduli (GPa) = 124.29799 23.66862 101.94026
#
# Poissons Ratio (x) = 0.14842 0.34305
# Poissons Ratio (y) = 0.77945 0.72544
# Poissons Ratio (z) = 0.41829 0.16843
#
# Static dielectric constant tensor:
#      x y z
#    x 1.591790 0.000000 0.000000 
#    y 0.000000 1.604470 0.000000 
#    z 0.000000 0.000000 1.606990 
# 
# From -- ./inp_files/10347.got.cif
#   From: 2010.05.17/outbox.cif.g08.bks.cpg/sg39_6_cif.got.tgz:10347.got - 2010.06.03 18:22:40.
