data_PCOD9360753
_publ_section_title
;
Structure prediction by ZEFSAII (Michael W. Deem and Ramdas Pophale) SiO2 
 PCOD9360753
Probable space group: A B M 2
;
_chemical_formula_sum "Si O2"
_cell_formula_units_Z 64
_cell_length_a 14.259415
_cell_length_b 9.629565
_cell_length_c 24.613757
_cell_angle_alpha 90.000000
_cell_angle_beta 90.000000
_cell_angle_gamma 90.000000
_cell_volume 3379.763305
_symmetry_space_group_name_H-M "A B M 2"
_symmetry_group_IT_number 39
_symmetry_cell_setting 'orthorhombic'
loop_
_space_group_symop_operation_xyz
x,y,z
-x,-y,z
-x,1/2+y,z
x,1/2-y,z
x,1/2+y,1/2+z
-x,1/2-y,1/2+z
-x,y,1/2+z
x,-y,1/2+z
loop_
_atom_site_type_symbol
_atom_site_label
_atom_site_fract_x
_atom_site_fract_y
_atom_site_fract_z
Si Si1 0.301282 0.590730 0.440060
Si Si2 0.405635 0.912759 0.031800
Si Si3 0.110212 0.030100 0.461442
Si Si4 0.404612 0.585776 0.721444
Si Si5 0.703501 0.585955 0.332406
Si Si6 0.910083 0.596884 0.338305
Si Si7 0.907812 0.092843 0.082933
Si Si8 0.718704 0.088402 0.140682
O O1 0.333755 0.750000 0.441114
O O2 0.350854 0.493210 0.484233
O O3 0.189372 0.586604 0.453046
O O4 0.317270 0.516465 0.382173
O O5 0.422795 0.750000 0.018184
O O6 0.344464 0.915855 0.086423
O O7 0.500000 0.000000 0.041009
O O8 0.113635 0.104478 0.403047
O O9 0.130536 0.093509 0.520531
O O10 0.000000 0.000000 0.465789
O O11 0.500000 0.500000 0.713437
O O12 0.417014 0.750000 0.709567
O O13 0.368439 0.571572 0.783212
O O14 0.326505 0.515660 0.683414
O O15 0.703723 0.750000 0.348947
O O16 0.810423 0.552922 0.313291
O O17 0.934340 0.750000 0.318630
O O18 0.000000 0.500000 0.331153
O O19 0.933906 0.250000 0.096326
O O20 0.823418 0.048813 0.122028
O O21 0.000000 0.000000 0.086436
O O22 0.718991 0.250000 0.159632
#
# Coordination Sequence:
#
# PCOD9360753 Si02
#       8
#     8   8   8   8   8   8   8   8
#     4  11  22  36  58  89 121 157 198 241 293 354
#     4  11  23  40  59  83 117 154 192 238 296 358
#     4   9  18  31  49  80 120 159 195 236 277 337
#     4  11  24  43  67  90 112 147 197 252 306 359
#     4   9  21  40  59  82 117 156 193 240 299 355
#     4   9  17  30  52  80 114 153 193 235 282 339
#     4  10  20  35  56  86 122 161 200 240 288 344
#     4  10  22  41  63  88 119 155 196 244 296 350
#
# _framework density 18.936236999999998
#
# number of rings (size 3 to 8) (size 9 to 14) (size 15 to 20)
#    0.000    2.000    1.250    1.875    0.000   11.500 
#    0.000    1.875    0.000    3.000    0.000    0.000 
#    0.000    0.000    0.000    0.000    0.000    0.000 
#
# Total GULP energy -178330.729486 kJ/mol
# GULP energy per Si atom -5572.835296 kJ/mol
# Density = 1.889314 g / cm^3
# Si number density = 18.936237 Si / 1000 Ang^3
#
#
#
# Elastic Constant Matrix: (Units=GPa)
#
#
# Indices 1 2 3 4 5 6 
#
# 1 89.7936 49.3438 25.8418 0.0000 0.0000 0.0000
# 2 49.3438 121.1906 43.6407 0.0000 0.0000 0.0000
# 3 25.8418 43.6407 55.5760 0.0000 0.0000 0.0000
# 4 0.0000 0.0000 0.0000 20.7127 0.0000 0.0000
# 5 0.0000 0.0000 0.0000 0.0000 -268.4305 0.0000
# 6 0.0000 0.0000 0.0000 0.0000 0.0000 23.5490
#
#
#
# Elastic Compliance Matrix: (Units=1/GPa)
#
#
# Indices 1 2 3 4 5 6 
#
# 1 0.014691 -0.004910 -0.002975 0.000000 0.000000 0.000000
# 2 -0.004910 0.013146 -0.008039 0.000000 0.000000 0.000000
# 3 -0.002975 -0.008039 0.025690 0.000000 0.000000 0.000000
# 4 0.000000 0.000000 0.000000 0.048279 0.000000 0.000000
# 5 0.000000 0.000000 0.000000 0.000000 -0.003725 0.000000
# 6 0.000000 0.000000 0.000000 0.000000 0.000000 0.042465
#
#
# Mechanical properties :
#
#
# Convention : Reuss Voigt Hill
#
# Bulk Modulus (GPa) = 46.13269 56.02365 51.07817
# Shear Modulus (GPa) = 27.83638 -34.98482 -3.57422
#
# Velocity S-wave (km/s) = 3.83822 -4.30293 -1.37535
# Velocity P-wave (km/s) = 6.63759 2.22772 4.95078
#
# Compressibility (1/GPa) = 0.02167660
#
# Stress axis : x y z
#
# Youngs Moduli (GPa) = 68.06777 76.07061 38.92594
#
# Poissons Ratio (x) = 0.37352 0.11582
# Poissons Ratio (y) = 0.33423 0.31294
# Poissons Ratio (z) = 0.20253 0.61156
#
# Static dielectric constant tensor:
#      x y z
#    x 2.842410 0.000000 0.000000 
#    y 0.000000 1.664140 0.000000 
#    z 0.000000 0.000000 1.657060 
# 
# From -- ./inp_files/16276.got.cif
#   From: 2010.05.17/outbox.cif.g08.bks.cpg/sg39_9_cif.got.tgz:16276.got - 2010.06.03 18:22:40.
