data_PCOD9360674
_publ_section_title
;
Structure prediction by ZEFSAII (Michael W. Deem and Ramdas Pophale) SiO2 
 PCOD9360674
Probable space group: A B M 2
;
_chemical_formula_sum "Si O2"
_cell_formula_units_Z 48
_cell_length_a 9.207724
_cell_length_b 8.647099
_cell_length_c 32.145541
_cell_angle_alpha 90.000000
_cell_angle_beta 90.000000
_cell_angle_gamma 90.000000
_cell_volume 2559.431221
_symmetry_space_group_name_H-M "A B M 2"
_symmetry_group_IT_number 39
_symmetry_cell_setting 'orthorhombic'
loop_
_space_group_symop_operation_xyz
x,y,z
-x,-y,z
-x,1/2+y,z
x,1/2-y,z
x,1/2+y,1/2+z
-x,1/2-y,1/2+z
-x,y,1/2+z
x,-y,1/2+z
loop_
_atom_site_type_symbol
_atom_site_label
_atom_site_fract_x
_atom_site_fract_y
_atom_site_fract_z
Si Si1 0.662491 0.436408 0.609100
Si Si2 0.836549 0.436317 0.690999
Si Si3 0.163584 0.934799 0.368235
Si Si4 0.662672 0.936047 0.951474
Si Si5 0.837244 0.435069 0.030291
Si Si6 0.835484 0.935353 0.282404
O O1 0.500000 0.500000 0.606553
O O2 0.661013 0.250000 0.607077
O O3 0.737257 0.485095 0.652561
O O4 0.755757 0.501688 0.570988
O O5 0.846062 0.250000 0.690349
O O6 0.776342 0.480228 0.736834
O O7 0.000000 0.500000 0.686430
O O8 0.153936 0.750000 0.365825
O O9 0.258395 0.977967 0.408203
O O10 0.229105 0.997051 0.324809
O O11 0.000000 0.000000 0.372907
O O12 0.661176 0.750000 0.955049
O O13 0.500000 0.000000 0.952141
O O14 0.751953 0.006035 0.989773
O O15 0.839808 0.250000 0.030998
O O16 0.000000 0.500000 0.029418
O O17 0.838095 0.750000 0.285445
O O18 0.000000 0.000000 0.281909
#
# Coordination Sequence:
#
# PCOD9360674 Si02
#       6
#     8   8   8   8   8   8
#     4  11  23  40  59  83 116 152 190 231 281 336
#     4   9  19  34  55  82 111 145 187 233 279 331
#     4  10  20  34  55  83 112 145 187 232 279 331
#     4  11  24  41  60  84 115 151 189 230 281 337
#     4  12  25  42  64  89 115 145 185 231 279 332
#     4   9  16  29  51  79 110 144 184 231 280 327
#
# _framework density 18.754166000000001
#
# number of rings (size 3 to 8) (size 9 to 14) (size 15 to 20)
#    0.000    1.667    0.000    6.000    0.000    7.333 
#    0.000    0.833    0.000    4.000    0.000    0.000 
#    0.000    0.000    0.000    0.000    0.000    0.000 
#
# Total GULP energy -134058.410324 kJ/mol
# GULP energy per Si atom -5585.767097 kJ/mol
# Density = 1.871148 g / cm^3
# Si number density = 18.754166 Si / 1000 Ang^3
#
#
#
# Elastic Constant Matrix: (Units=GPa)
#
#
# Indices 1 2 3 4 5 6 
#
# 1 131.6517 45.6858 104.2819 0.0000 0.0000 0.0000
# 2 45.6858 79.1554 72.8018 0.0000 0.0000 0.0000
# 3 104.2819 72.8018 231.1053 0.0000 0.0000 0.0000
# 4 0.0000 0.0000 0.0000 18.1422 0.0000 0.0000
# 5 0.0000 0.0000 0.0000 0.0000 -44.2723 0.0000
# 6 0.0000 0.0000 0.0000 0.0000 0.0000 28.9334
#
#
#
# Elastic Compliance Matrix: (Units=1/GPa)
#
#
# Indices 1 2 3 4 5 6 
#
# 1 0.012245 -0.002796 -0.004645 0.000000 0.000000 0.000000
# 2 -0.002796 0.018425 -0.004543 0.000000 0.000000 0.000000
# 3 -0.004645 -0.004543 0.007854 0.000000 0.000000 0.000000
# 4 0.000000 0.000000 0.000000 0.055120 0.000000 0.000000
# 5 0.000000 0.000000 0.000000 0.000000 -0.022587 0.000000
# 6 0.000000 0.000000 0.000000 0.000000 0.000000 0.034562
#
#
# Mechanical properties :
#
#
# Convention : Reuss Voigt Hill
#
# Bulk Modulus (GPa) = 68.69089 98.60570 83.64830
# Shear Modulus (GPa) = 37.19213 15.17019 26.18116
#
# Velocity S-wave (km/s) = 4.45808 2.84720 3.74039
# Velocity P-wave (km/s) = 7.95021 7.96874 7.95948
#
# Compressibility (1/GPa) = 0.01455797
#
# Stress axis : x y z
#
# Youngs Moduli (GPa) = 81.66619 54.27421 127.32553
#
# Poissons Ratio (x) = 0.15172 0.59139
# Poissons Ratio (y) = 0.22830 0.57841
# Poissons Ratio (z) = 0.37931 0.24655
#
# Static dielectric constant tensor:
#      x y z
#    x 1.582640 0.000000 0.000000 
#    y 0.000000 1.634060 0.000000 
#    z 0.000000 0.000000 1.677550 
# 
# From -- ./inp_files/17620.got.cif
#   From: 2010.05.17/outbox.cif.g08.bks.cpg/sg39_9_cif.got.tgz:17620.got - 2010.06.03 18:22:40.
