data_PCOD9360824
_publ_section_title
;
Structure prediction by ZEFSAII (Michael W. Deem and Ramdas Pophale) SiO2 
 PCOD9360824
Probable space group: A B M 2
;
_chemical_formula_sum "Si O2"
_cell_formula_units_Z 48
_cell_length_a 9.488115
_cell_length_b 8.632145
_cell_length_c 31.662607
_cell_angle_alpha 90.000000
_cell_angle_beta 90.000000
_cell_angle_gamma 90.000000
_cell_volume 2593.255676
_symmetry_space_group_name_H-M "A B M 2"
_symmetry_group_IT_number 39
_symmetry_cell_setting 'orthorhombic'
loop_
_space_group_symop_operation_xyz
x,y,z
-x,-y,z
-x,1/2+y,z
x,1/2-y,z
x,1/2+y,1/2+z
-x,1/2-y,1/2+z
-x,y,1/2+z
x,-y,1/2+z
loop_
_atom_site_type_symbol
_atom_site_label
_atom_site_fract_x
_atom_site_fract_y
_atom_site_fract_z
Si Si1 0.340864 0.435344 0.502700
Si Si2 0.841802 0.436188 0.237904
Si Si3 0.342564 0.436679 0.912516
Si Si4 0.841634 0.063722 0.579750
Si Si5 0.342309 0.435611 0.161891
Si Si6 0.156140 0.063559 0.833272
O O1 0.500000 0.500000 0.508897
O O2 0.346615 0.250000 0.502660
O O3 0.289561 0.496154 0.457060
O O4 0.239847 0.496110 0.539414
O O5 0.845778 0.250000 0.235386
O O6 0.735067 0.501102 0.203443
O O7 0.799023 0.482381 0.285791
O O8 0.000000 0.500000 0.230549
O O9 0.500000 0.500000 0.907697
O O10 0.344005 0.250000 0.914977
O O11 0.253918 0.486972 0.871793
O O12 0.845467 0.250000 0.576934
O O13 0.752279 0.020166 0.621386
O O14 0.000000 0.000000 0.582412
O O15 0.500000 0.500000 0.157985
O O16 0.348189 0.250000 0.163785
O O17 0.152142 0.250000 0.833877
O O18 0.000000 0.000000 0.839677
#
# Coordination Sequence:
#
# PCOD9360824 Si02
#       6
#     8   8   8   8   8   8
#     4  11  22  38  60  85 114 149 189 233 283 335
#     4  10  20  37  59  84 115 150 190 234 282 334
#     4  10  20  36  56  81 113 148 189 233 280 333
#     4  11  24  41  61  86 115 148 187 230 279 334
#     4  11  24  40  60  86 115 149 188 231 280 334
#     4   9  20  36  56  82 112 148 188 231 278 332
#
# _framework density 18.509553
#
# number of rings (size 3 to 8) (size 9 to 14) (size 15 to 20)
#    0.000    1.667    0.000    5.500    0.000    8.667 
#    0.000    3.333    0.000    0.000    0.000    0.000 
#    0.000    0.000    0.000    0.000    0.000    0.000 
#
# Total GULP energy -134108.158686 kJ/mol
# GULP energy per Si atom -5587.839945 kJ/mol
# Density = 1.846742 g / cm^3
# Si number density = 18.509553 Si / 1000 Ang^3
#
#
#
# Elastic Constant Matrix: (Units=GPa)
#
#
# Indices 1 2 3 4 5 6 
#
# 1 129.1583 50.1984 124.5072 0.0000 0.0000 0.0000
# 2 50.1984 75.1889 66.5537 0.0000 0.0000 0.0000
# 3 124.5072 66.5537 206.8002 0.0000 0.0000 0.0000
# 4 0.0000 0.0000 0.0000 24.6978 0.0000 0.0000
# 5 0.0000 0.0000 0.0000 0.0000 42.0070 0.0000
# 6 0.0000 0.0000 0.0000 0.0000 0.0000 35.4156
#
#
#
# Elastic Compliance Matrix: (Units=1/GPa)
#
#
# Indices 1 2 3 4 5 6 
#
# 1 0.019125 -0.003603 -0.010355 0.000000 0.000000 0.000000
# 2 -0.003603 0.019276 -0.004035 0.000000 0.000000 0.000000
# 3 -0.010355 -0.004035 0.012368 0.000000 0.000000 0.000000
# 4 0.000000 0.000000 0.000000 0.040489 0.000000 0.000000
# 5 0.000000 0.000000 0.000000 0.000000 0.023806 0.000000
# 6 0.000000 0.000000 0.000000 0.000000 0.000000 0.028236
#
#
# Mechanical properties :
#
#
# Convention : Reuss Voigt Hill
#
# Bulk Modulus (GPa) = 67.63556 99.29622 83.46589
# Shear Modulus (GPa) = 27.14255 31.74995 29.44625
#
# Velocity S-wave (km/s) = 3.83352 4.14614 3.99290
# Velocity P-wave (km/s) = 7.49765 8.75689 8.15162
#
# Compressibility (1/GPa) = 0.01478512
#
# Stress axis : x y z
#
# Youngs Moduli (GPa) = 52.28895 51.87722 80.85177
#
# Poissons Ratio (x) = 0.18689 0.83720
# Poissons Ratio (y) = 0.18837 0.32621
# Poissons Ratio (z) = 0.54144 0.20931
#
# Static dielectric constant tensor:
#      x y z
#    x 1.597190 0.000000 0.000000 
#    y 0.000000 1.624500 0.000000 
#    z 0.000000 0.000000 1.643890 
# 
# From -- ./inp_files/17592.got.cif
#   From: 2010.05.17/outbox.cif.g08.bks.cpg/sg39_9_cif.got.tgz:17592.got - 2010.06.03 18:22:40.
