data_PCOD9360277
_publ_section_title
;
Structure prediction by ZEFSAII (Michael W. Deem and Ramdas Pophale) SiO2 
 PCOD9360277
Probable space group: A B M 2
;
_chemical_formula_sum "Si O2"
_cell_formula_units_Z 56
_cell_length_a 12.464359
_cell_length_b 14.417984
_cell_length_c 14.905306
_cell_angle_alpha 90.000000
_cell_angle_beta 90.000000
_cell_angle_gamma 90.000000
_cell_volume 2678.646383
_symmetry_space_group_name_H-M "A B M 2"
_symmetry_group_IT_number 39
_symmetry_cell_setting 'orthorhombic'
loop_
_space_group_symop_operation_xyz
x,y,z
-x,-y,z
-x,1/2+y,z
x,1/2-y,z
x,1/2+y,1/2+z
-x,1/2-y,1/2+z
-x,y,1/2+z
x,-y,1/2+z
loop_
_atom_site_type_symbol
_atom_site_label
_atom_site_fract_x
_atom_site_fract_y
_atom_site_fract_z
Si Si1 0.790440 0.853426 0.701450
Si Si2 0.957038 0.358891 0.980645
Si Si3 0.625291 0.002859 0.123344
Si Si4 0.970451 0.361798 0.670473
Si Si5 0.258318 0.863297 0.750369
Si Si6 0.265216 0.541552 0.944721
Si Si7 0.834977 0.148772 0.404502
O O1 0.785762 0.750000 0.659374
O O2 0.786607 0.842254 0.806874
O O3 0.908977 0.896574 0.687943
O O4 0.694965 0.918011 0.671764
O O5 0.934111 0.250000 0.983502
O O6 0.843130 0.407402 0.979142
O O7 0.037793 0.375055 0.898174
O O8 0.034872 0.383147 0.064301
O O9 0.675423 0.908524 0.167413
O O10 0.500000 0.000000 0.143339
O O11 0.642536 0.035042 0.019516
O O12 0.977463 0.250000 0.681437
O O13 0.866192 0.387659 0.726854
O O14 0.268382 0.750000 0.755861
O O15 0.287015 0.912368 0.846498
O O16 0.229056 0.435289 0.943483
O O17 0.827856 0.250000 0.449892
#
# Coordination Sequence:
#
# PCOD9360277 Si02
#       7
#     8   8   8   8   8   8   8
#     4  10  20  41  67  95 130 174 223 278 341 415
#     4  10  19  33  59 101 146 179 219 274 345 431
#     4  12  28  47  70  97 135 184 247 300 349 415
#     4   9  18  35  64 100 142 178 213 271 350 430
#     4  11  25  46  72 105 143 181 230 296 367 430
#     4  12  23  41  68  99 134 186 233 291 346 424
#     4  10  21  37  60  95 134 173 217 272 341 419
#
# _framework density 20.906082000000001
#
# number of rings (size 3 to 8) (size 9 to 14) (size 15 to 20)
#    0.000    1.429    2.857    2.571    0.000    6.286 
#    0.000    0.000    0.000    0.000    0.000    0.000 
#    0.000    0.000    0.000    0.000    0.000    0.000 
#
# Total GULP energy -155998.638156 kJ/mol
# GULP energy per Si atom -5571.379934 kJ/mol
# Density = 2.085850 g / cm^3
# Si number density = 20.906082 Si / 1000 Ang^3
#
#
#
# Elastic Constant Matrix: (Units=GPa)
#
#
# Indices 1 2 3 4 5 6 
#
# 1 122.5830 40.1497 33.3905 0.0000 0.0000 0.0000
# 2 40.1497 96.1133 26.4561 0.0000 0.0000 0.0000
# 3 33.3905 26.4561 70.8034 0.0000 0.0000 0.0000
# 4 0.0000 0.0000 0.0000 23.1931 0.0000 0.0000
# 5 0.0000 0.0000 0.0000 0.0000 16.9999 0.0000
# 6 0.0000 0.0000 0.0000 0.0000 0.0000 17.9193
#
#
#
# Elastic Compliance Matrix: (Units=1/GPa)
#
#
# Indices 1 2 3 4 5 6 
#
# 1 0.010209 -0.003276 -0.003590 0.000000 0.000000 0.000000
# 2 -0.003276 0.012649 -0.003181 0.000000 0.000000 0.000000
# 3 -0.003590 -0.003181 0.017005 0.000000 0.000000 0.000000
# 4 0.000000 0.000000 0.000000 0.043116 0.000000 0.000000
# 5 0.000000 0.000000 0.000000 0.000000 0.058824 0.000000
# 6 0.000000 0.000000 0.000000 0.000000 0.000000 0.055806
#
#
# Mechanical properties :
#
#
# Convention : Reuss Voigt Hill
#
# Bulk Modulus (GPa) = 50.58809 54.38806 52.48808
# Shear Modulus (GPa) = 22.29227 24.25603 23.27415
#
# Velocity S-wave (km/s) = 3.26898 3.40992 3.34019
# Velocity P-wave (km/s) = 6.20472 6.44789 6.32748
#
# Compressibility (1/GPa) = 0.01976750
#
# Stress axis : x y z
#
# Youngs Moduli (GPa) = 97.95511 79.05981 58.80493
#
# Poissons Ratio (x) = 0.25902 0.21112
# Poissons Ratio (y) = 0.32093 0.18707
# Poissons Ratio (z) = 0.35168 0.25150
#
# Static dielectric constant tensor:
#      x y z
#    x 1.714740 0.000000 0.000000 
#    y 0.000000 1.883090 0.000000 
#    z 0.000000 0.000000 1.898810 
# 
# From -- ./inp_files/9309.got.cif
#   From: 2010.05.17/outbox.cif.g08.bks.cpg/sg39_5_cif.got.tgz:9309.got - 2010.06.03 18:22:40.
