data_PCOD9360381
_publ_section_title
;
Structure prediction by ZEFSAII (Michael W. Deem and Ramdas Pophale) SiO2 
 PCOD9360381
Probable space group: A B M 2
;
_chemical_formula_sum "Si O2"
_cell_formula_units_Z 64
_cell_length_a 11.436733
_cell_length_b 17.654342
_cell_length_c 16.358836
_cell_angle_alpha 90.000000
_cell_angle_beta 90.000000
_cell_angle_gamma 90.000000
_cell_volume 3302.979789
_symmetry_space_group_name_H-M "A B M 2"
_symmetry_group_IT_number 39
_symmetry_cell_setting 'orthorhombic'
loop_
_space_group_symop_operation_xyz
x,y,z
-x,-y,z
-x,1/2+y,z
x,1/2-y,z
x,1/2+y,1/2+z
-x,1/2-y,1/2+z
-x,y,1/2+z
x,-y,1/2+z
loop_
_atom_site_type_symbol
_atom_site_label
_atom_site_fract_x
_atom_site_fract_y
_atom_site_fract_z
Si Si1 0.374170 0.662327 0.120850
Si Si2 0.257694 0.518385 0.182012
Si Si3 0.133314 0.470728 0.348927
Si Si4 0.869554 0.968152 0.017228
Si Si5 0.618980 0.869000 0.174113
Si Si6 0.279381 0.164808 0.343279
Si Si7 0.522485 0.409846 0.953051
Si Si8 0.284423 0.835656 0.494780
O O1 0.340233 0.750000 0.107525
O O2 0.283024 0.605502 0.162319
O O3 0.487179 0.658539 0.178798
O O4 0.418540 0.622313 0.036818
O O5 0.197798 0.504694 0.269544
O O6 0.182894 0.488896 0.104805
O O7 0.367824 0.460471 0.178617
O O8 0.186618 0.494054 0.436696
O O9 0.158233 0.381115 0.350017
O O10 0.000000 0.500000 0.345721
O O11 0.837148 0.881392 0.998042
O O12 0.000000 0.000000 0.018531
O O13 0.692723 0.835710 0.247572
O O14 0.668894 0.840907 0.087915
O O15 0.275890 0.250000 0.376148
O O16 0.386475 0.118060 0.384312
O O17 0.500000 0.500000 0.956531
O O18 0.392958 0.372971 0.945621
O O19 0.268948 0.750000 0.468651
#
# Coordination Sequence:
#
# PCOD9360381 Si02
#       8
#     8   8   8   8   8   8   8   8
#     4  11  20  33  52  80 114 147 182 230 284 345
#     4  10  20  36  58  80 106 147 190 234 287 342
#     4  10  22  40  59  80 110 149 195 239 289 355
#     4  10  21  39  59  78 107 148 193 234 281 345
#     4   9  19  34  53  76 110 147 182 222 284 360
#     4  11  21  35  56  85 113 145 189 242 292 348
#     4  11  21  34  55  83 117 154 187 228 292 362
#     4  10  19  35  56  82 111 145 186 235 285 341
#
# _framework density 19.376443999999999
#
# number of rings (size 3 to 8) (size 9 to 14) (size 15 to 20)
#    0.000    1.750    0.000    7.500    0.000    3.000 
#    0.000    5.625    0.000    0.000    0.000    0.000 
#    0.000    0.000    0.000    0.000    0.000    0.000 
#
# Total GULP energy -178289.588555 kJ/mol
# GULP energy per Si atom -5571.549642 kJ/mol
# Density = 1.933234 g / cm^3
# Si number density = 19.376444 Si / 1000 Ang^3
#
#
#
# Elastic Constant Matrix: (Units=GPa)
#
#
# Indices 1 2 3 4 5 6 
#
# 1 70.0617 45.7952 -0.2709 0.0000 0.0000 0.0000
# 2 45.7952 165.9321 -2.0711 0.0000 0.0000 0.0000
# 3 -0.2709 -2.0711 55.3927 0.0000 0.0000 0.0000
# 4 0.0000 0.0000 0.0000 8.9300 0.0000 0.0000
# 5 0.0000 0.0000 0.0000 0.0000 0.6976 0.0000
# 6 0.0000 0.0000 0.0000 0.0000 0.0000 23.4349
#
#
#
# Elastic Compliance Matrix: (Units=1/GPa)
#
#
# Indices 1 2 3 4 5 6 
#
# 1 0.017415 -0.004808 -0.000095 0.000000 0.000000 0.000000
# 2 -0.004808 0.007357 0.000252 0.000000 0.000000 0.000000
# 3 -0.000095 0.000252 0.018062 0.000000 0.000000 0.000000
# 4 0.000000 0.000000 0.000000 0.111982 0.000000 0.000000
# 5 0.000000 0.000000 0.000000 0.000000 1.433501 0.000000
# 6 0.000000 0.000000 0.000000 0.000000 0.000000 0.042671
#
#
# Mechanical properties :
#
#
# Convention : Reuss Voigt Hill
#
# Bulk Modulus (GPa) = 29.82193 42.03254 35.92724
# Shear Modulus (GPa) = 3.02761 23.14138 13.08449
#
# Velocity S-wave (km/s) = 1.25136 3.45962 2.60143
# Velocity P-wave (km/s) = 4.18475 6.13990 5.25407
#
# Compressibility (1/GPa) = 0.03353237
#
# Stress axis : x y z
#
# Youngs Moduli (GPa) = 57.42118 135.93377 55.36530
#
# Poissons Ratio (x) = 0.65351 0.00524
# Poissons Ratio (y) = 0.27606 -0.01393
# Poissons Ratio (z) = 0.00543 -0.03419
#
# Static dielectric constant tensor:
#      x y z
#    x 1.693910 0.000000 0.000000 
#    y 0.000000 1.734550 0.000000 
#    z 0.000000 0.000000 1.705700 
# 
# From -- ./inp_files/12364.got.cif
#   From: 2010.05.17/outbox.cif.g08.bks.cpg/sg39_7_cif.got.tgz:12364.got - 2010.06.03 18:22:40.
