data_PCOD9360646
_publ_section_title
;
Structure prediction by ZEFSAII (Michael W. Deem and Ramdas Pophale) SiO2 
 PCOD9360646
Probable space group: A B M 2
;
_chemical_formula_sum "Si O2"
_cell_formula_units_Z 64
_cell_length_a 19.905658
_cell_length_b 9.028519
_cell_length_c 20.768562
_cell_angle_alpha 90.000000
_cell_angle_beta 90.000000
_cell_angle_gamma 90.000000
_cell_volume 3732.497125
_symmetry_space_group_name_H-M "A B M 2"
_symmetry_group_IT_number 39
_symmetry_cell_setting 'orthorhombic'
loop_
_space_group_symop_operation_xyz
x,y,z
-x,-y,z
-x,1/2+y,z
x,1/2-y,z
x,1/2+y,1/2+z
-x,1/2-y,1/2+z
-x,y,1/2+z
x,-y,1/2+z
loop_
_atom_site_type_symbol
_atom_site_label
_atom_site_fract_x
_atom_site_fract_y
_atom_site_fract_z
Si Si1 0.426544 0.573113 0.883360
Si Si2 0.571829 0.927364 0.628470
Si Si3 0.785715 0.070211 0.200280
Si Si4 0.792257 0.073104 0.559085
Si Si5 0.664570 0.927295 0.507886
Si Si6 0.068264 0.078729 0.556176
Si Si7 0.932773 0.919253 0.712990
Si Si8 0.355297 0.927833 0.261570
O O1 0.500000 0.500000 0.888173
O O2 0.434540 0.750000 0.878165
O O3 0.387215 0.510360 0.821743
O O4 0.381329 0.541220 0.946141
O O5 0.564853 0.750000 0.626645
O O6 0.622120 0.968749 0.571288
O O7 0.603123 0.967214 0.697325
O O8 0.500000 0.000000 0.619262
O O9 0.787625 0.250000 0.190566
O O10 0.858091 0.022814 0.228768
O O11 0.722284 0.036776 0.245220
O O12 0.777927 0.995783 0.130207
O O13 0.793459 0.250000 0.562916
O O14 0.734091 0.014687 0.512193
O O15 0.864752 0.009958 0.538459
O O16 0.677699 0.750000 0.510124
O O17 0.071647 0.250000 0.536072
O O18 0.066306 0.078264 0.634653
O O19 0.000000 0.000000 0.533950
O O20 0.936501 0.750000 0.734315
O O21 0.000000 0.000000 0.735474
O O22 0.360166 0.750000 0.270929
#
# Coordination Sequence:
#
# PCOD9360646 Si02
#       8
#     8   8   8   8   8   8   8   8
#     4  11  24  40  59  79 105 138 174 219 268 322
#     4  10  20  34  54  76  99 130 168 209 261 317
#     4   9  17  32  50  70 102 143 177 212 262 314
#     4  11  20  29  48  78 107 137 175 222 267 314
#     4  10  21  39  56  73 102 141 177 213 265 321
#     4   9  16  27  43  66 102 143 179 216 259 313
#     4   8  14  23  39  63  95 134 171 205 247 298
#     4  10  20  36  57  77 103 138 175 218 265 319
#
# _framework density 17.146698000000001
#
# number of rings (size 3 to 8) (size 9 to 14) (size 15 to 20)
#    0.000    2.250    1.250    3.375    0.000    6.500 
#    0.000    0.000    0.000    0.000    0.000    0.875 
#    0.000    4.000    0.000    0.000    0.000    0.000 
#
# Total GULP energy -178478.450208 kJ/mol
# GULP energy per Si atom -5577.451569 kJ/mol
# Density = 1.710767 g / cm^3
# Si number density = 17.146698 Si / 1000 Ang^3
#
#
#
# Elastic Constant Matrix: (Units=GPa)
#
#
# Indices 1 2 3 4 5 6 
#
# 1 180.6023 75.2591 51.5618 0.0000 0.0000 0.0000
# 2 75.2591 69.9228 42.9371 0.0000 0.0000 0.0000
# 3 51.5618 42.9371 74.4719 0.0000 0.0000 0.0000
# 4 0.0000 0.0000 0.0000 16.5758 0.0000 0.0000
# 5 0.0000 0.0000 0.0000 0.0000 15.2643 0.0000
# 6 0.0000 0.0000 0.0000 0.0000 0.0000 33.7129
#
#
#
# Elastic Compliance Matrix: (Units=1/GPa)
#
#
# Indices 1 2 3 4 5 6 
#
# 1 0.010100 -0.010182 -0.001123 0.000000 0.000000 0.000000
# 2 -0.010182 0.032404 -0.011633 0.000000 0.000000 0.000000
# 3 -0.001123 -0.011633 0.020912 0.000000 0.000000 0.000000
# 4 0.000000 0.000000 0.000000 0.060329 0.000000 0.000000
# 5 0.000000 0.000000 0.000000 0.000000 0.065512 0.000000
# 6 0.000000 0.000000 0.000000 0.000000 0.000000 0.029662
#
#
# Mechanical properties :
#
#
# Convention : Reuss Voigt Hill
#
# Bulk Modulus (GPa) = 57.00841 73.83480 65.42161
# Shear Modulus (GPa) = 18.47455 23.45985 20.96720
#
# Velocity S-wave (km/s) = 3.28600 3.70291 3.50067
# Velocity P-wave (km/s) = 6.90773 7.83812 7.38759
#
# Compressibility (1/GPa) = 0.01754127
#
# Stress axis : x y z
#
# Youngs Moduli (GPa) = 99.00505 30.86060 47.81858
#
# Poissons Ratio (x) = 0.31422 0.05369
# Poissons Ratio (y) = 1.00805 0.55627
# Poissons Ratio (z) = 0.11117 0.35900
#
# Static dielectric constant tensor:
#      x y z
#    x 1.599980 0.000000 0.000000 
#    y 0.000000 1.577790 0.000000 
#    z 0.000000 0.000000 1.558610 
# 
# From -- ./inp_files/13240.got.cif
#   From: 2010.05.17/outbox.cif.g08.bks.cpg/sg39_7_cif.got.tgz:13240.got - 2010.06.03 18:22:40.
