data_PCOD9360130
_publ_section_title
;
Structure prediction by ZEFSAII (Michael W. Deem and Ramdas Pophale) SiO2 
 PCOD9360130
Probable space group: A B M 2
;
_chemical_formula_sum "Si O2"
_cell_formula_units_Z 64
_cell_length_a 37.314465
_cell_length_b 14.404423
_cell_length_c 5.171900
_cell_angle_alpha 90.000000
_cell_angle_beta 90.000000
_cell_angle_gamma 90.000000
_cell_volume 2779.861794
_symmetry_space_group_name_H-M "A B M 2"
_symmetry_group_IT_number 39
_symmetry_cell_setting 'orthorhombic'
loop_
_space_group_symop_operation_xyz
x,y,z
-x,-y,z
-x,1/2+y,z
x,1/2-y,z
x,1/2+y,1/2+z
-x,1/2-y,1/2+z
-x,y,1/2+z
x,-y,1/2+z
loop_
_atom_site_type_symbol
_atom_site_label
_atom_site_fract_x
_atom_site_fract_y
_atom_site_fract_z
Si Si1 0.020635 0.863367 0.595820
Si Si2 0.633194 0.639064 0.609733
Si Si3 0.214991 0.439664 0.636606
Si Si4 0.098596 0.363705 0.285042
Si Si5 0.138975 0.860978 0.286016
Si Si6 0.407071 0.637303 0.609556
Si Si7 0.485350 0.103499 0.314940
Si Si8 0.290759 0.060257 0.758997
O O1 0.021502 0.750000 0.593390
O O2 0.059581 0.894424 0.690518
O O3 0.008707 0.891357 0.309714
O O4 0.630610 0.750000 0.607468
O O5 0.622181 0.607748 0.323612
O O6 0.673031 0.613411 0.694570
O O7 0.605137 0.605403 0.826930
O O8 0.214983 0.474813 0.341961
O O9 0.178823 0.386289 0.700963
O O10 0.252888 0.390149 0.697647
O O11 0.097673 0.250000 0.290420
O O12 0.110884 0.393919 0.568498
O O13 0.127755 0.393146 0.071019
O O14 0.136269 0.750000 0.291740
O O15 0.408683 0.750000 0.606779
O O16 0.445566 0.603918 0.704979
O O17 0.489274 0.147458 0.596784
O O18 0.500000 0.000000 0.363526
O O19 0.290727 0.974683 0.553827
#
# Coordination Sequence:
#
# PCOD9360130 Si02
#       8
#     8   8   8   8   8   8   8   8
#     4   9  15  23  37  59  92 135 171 204 265 331
#     4  10  21  39  60  86 116 146 183 225 269 323
#     4  10  21  37  57  77 112 143 177 221 263 318
#     4   9  17  28  43  68 104 135 171 225 268 317
#     4  10  19  32  51  76 104 139 178 216 269 319
#     4  10  21  38  59  82 111 147 183 222 271 320
#     4  10  21  38  53  78 112 141 182 227 267 313
#     4  10  21  39  57  86 113 144 180 220 269 317
#
# _framework density 23.022729999999999
#
# number of rings (size 3 to 8) (size 9 to 14) (size 15 to 20)
#    0.000    2.250    0.000    3.000    0.000    4.000 
#   13.500    0.000    0.000    9.000    0.000    0.000 
#    0.000   35.000    0.000    0.000    0.000    0.000 
#
# Total GULP energy -178898.482676 kJ/mol
# GULP energy per Si atom -5590.577584 kJ/mol
# Density = 2.297033 g / cm^3
# Si number density = 23.022730 Si / 1000 Ang^3
#
#
#
# Elastic Constant Matrix: (Units=GPa)
#
#
# Indices 1 2 3 4 5 6 
#
# 1 79.6429 -7.1700 -17.8760 0.0000 0.0000 0.0000
# 2 -7.1700 59.1955 -8.0287 0.0000 0.0000 0.0000
# 3 -17.8760 -8.0287 89.4159 0.0000 0.0000 0.0000
# 4 0.0000 0.0000 0.0000 8.1594 0.0000 0.0000
# 5 0.0000 0.0000 0.0000 0.0000 41.8916 0.0000
# 6 0.0000 0.0000 0.0000 0.0000 0.0000 30.6428
#
#
#
# Elastic Compliance Matrix: (Units=1/GPa)
#
#
# Indices 1 2 3 4 5 6 
#
# 1 0.013378 0.002008 0.002855 0.000000 0.000000 0.000000
# 2 0.002008 0.017403 0.001964 0.000000 0.000000 0.000000
# 3 0.002855 0.001964 0.011931 0.000000 0.000000 0.000000
# 4 0.000000 0.000000 0.000000 0.122559 0.000000 0.000000
# 5 0.000000 0.000000 0.000000 0.000000 0.023871 0.000000
# 6 0.000000 0.000000 0.000000 0.000000 0.000000 0.032634
#
#
# Mechanical properties :
#
#
# Convention : Reuss Voigt Hill
#
# Bulk Modulus (GPa) = 17.74204 18.01164 17.87684
# Shear Modulus (GPa) = 22.03514 33.56067 27.79790
#
# Velocity S-wave (km/s) = 3.09707 3.82215 3.47855
# Velocity P-wave (km/s) = 4.52903 5.22674 4.89035
#
# Compressibility (1/GPa) = 0.05636331
#
# Stress axis : x y z
#
# Youngs Moduli (GPa) = 74.75223 57.46229 83.81701
#
# Poissons Ratio (x) = -0.11536 -0.23927
# Poissons Ratio (y) = -0.15007 -0.16461
# Poissons Ratio (z) = -0.21339 -0.11285
#
# Static dielectric constant tensor:
#      x y z
#    x 1.843550 0.000000 0.000000 
#    y 0.000000 1.559090 0.000000 
#    z 0.000000 0.000000 1.865760 
# 
# From -- ./inp_files/1538.got.cif
#   From: 2010.05.17/outbox.cif.g08.bks.cpg/sg39_1_cif.got.tgz:1538.got - 2010.06.03 18:22:40.
