data_PCOD9360068
_publ_section_title
;
Structure prediction by ZEFSAII (Michael W. Deem and Ramdas Pophale) SiO2 
 PCOD9360068
Probable space group: A B M 2
;
_chemical_formula_sum "Si O2"
_cell_formula_units_Z 64
_cell_length_a 5.698835
_cell_length_b 30.605190
_cell_length_c 12.976835
_cell_angle_alpha 90.000000
_cell_angle_beta 90.000000
_cell_angle_gamma 90.000000
_cell_volume 2263.340765
_symmetry_space_group_name_H-M "A B M 2"
_symmetry_group_IT_number 39
_symmetry_cell_setting 'orthorhombic'
loop_
_space_group_symop_operation_xyz
x,y,z
-x,-y,z
-x,1/2+y,z
x,1/2-y,z
x,1/2+y,1/2+z
-x,1/2-y,1/2+z
-x,y,1/2+z
x,-y,1/2+z
loop_
_atom_site_type_symbol
_atom_site_label
_atom_site_fract_x
_atom_site_fract_y
_atom_site_fract_z
Si Si1 0.905660 0.200342 0.931500
Si Si2 0.092065 0.547562 0.432407
Si Si3 0.126608 0.562003 0.676169
Si Si4 0.408050 0.921028 0.958697
Si Si5 0.870862 0.333516 0.701065
Si Si6 0.628111 0.828154 0.718977
Si Si7 0.374920 0.565575 0.200277
Si Si8 0.592424 0.822816 0.958800
O O1 0.964117 0.250000 0.903551
O O2 0.134753 0.182160 0.991264
O O3 0.871993 0.172726 0.826087
O O4 0.650427 0.201166 0.984595
O O5 0.121888 0.548864 0.557307
O O6 0.365381 0.557247 0.401667
O O7 0.000000 0.500000 0.408125
O O8 0.858670 0.578037 0.413671
O O9 0.128302 0.614996 0.676558
O O10 0.369566 0.546857 0.725652
O O11 0.883182 0.548695 0.729143
O O12 0.376374 0.939034 0.074446
O O13 0.508453 0.872490 0.971963
O O14 0.617764 0.314810 0.667941
O O15 0.123627 0.314323 0.673631
O O16 0.625003 0.881670 0.721350
O O17 0.621528 0.812754 0.836463
#
# Coordination Sequence:
#
# PCOD9360068 Si02
#       8
#     8   8   8   8   8   8   8   8
#     4  10  19  31  48  73 101 130 166 214 257 293
#     4  10  19  31  48  73 101 130 166 214 257 293
#     4   8  14  25  42  65  92 120 154 196 236 287
#     4  10  19  31  48  73  97 126 167 208 246 297
#     4   8  14  25  42  65  92 120 154 196 236 287
#     4   8  14  25  42  65  88 114 149 192 229 273
#     4   8  14  25  42  65  88 114 149 192 229 273
#     4  10  19  31  48  73  97 126 167 208 246 297
#
# _framework density 28.276783999999999
#
# number of rings (size 3 to 8) (size 9 to 14) (size 15 to 20)
#    0.000    3.000    0.000    1.500    0.000    0.000 
#    0.000    0.000    0.000    0.000    0.000  168.000 
#    0.000    0.000    0.000    0.000    0.000    0.000 
#
# Total GULP energy -178903.521941 kJ/mol
# GULP energy per Si atom -5590.735061 kJ/mol
# Density = 2.821242 g / cm^3
# Si number density = 28.276784 Si / 1000 Ang^3
#
#
#
# Elastic Constant Matrix: (Units=GPa)
#
#
# Indices 1 2 3 4 5 6 
#
# 1 335.3845 55.3831 59.5632 0.0000 0.0000 0.0000
# 2 55.3831 83.0035 3.3802 0.0000 0.0000 0.0000
# 3 59.5632 3.3802 62.9069 0.0000 0.0000 0.0000
# 4 0.0000 0.0000 0.0000 166.5386 0.0000 0.0000
# 5 0.0000 0.0000 0.0000 0.0000 76.0669 0.0000
# 6 0.0000 0.0000 0.0000 0.0000 0.0000 17.3805
#
#
#
# Elastic Compliance Matrix: (Units=1/GPa)
#
#
# Indices 1 2 3 4 5 6 
#
# 1 0.004063 -0.002560 -0.003710 0.000000 0.000000 0.000000
# 2 -0.002560 0.013687 0.001689 0.000000 0.000000 0.000000
# 3 -0.003710 0.001689 0.019318 0.000000 0.000000 0.000000
# 4 0.000000 0.000000 0.000000 0.006005 0.000000 0.000000
# 5 0.000000 0.000000 0.000000 0.000000 0.013146 0.000000
# 6 0.000000 0.000000 0.000000 0.000000 0.000000 0.057536
#
#
# Mechanical properties :
#
#
# Convention : Reuss Voigt Hill
#
# Bulk Modulus (GPa) = 35.83438 79.77198 57.80318
# Shear Modulus (GPa) = 37.81580 76.19509 57.00544
#
# Velocity S-wave (km/s) = 3.66094 5.19660 4.49484
# Velocity P-wave (km/s) = 5.52903 8.01739 6.88654
#
# Compressibility (1/GPa) = 0.02790616
#
# Stress axis : x y z
#
# Youngs Moduli (GPa) = 246.10937 73.06155 51.76446
#
# Poissons Ratio (x) = 0.18704 0.19203
# Poissons Ratio (y) = 0.63006 -0.08741
# Poissons Ratio (z) = 0.91299 -0.12337
#
# Static dielectric constant tensor:
#      x y z
#    x 2.271380 0.000000 0.000000 
#    y 0.000000 2.068100 0.000000 
#    z 0.000000 0.000000 2.384630 
# 
# From -- ./inp_files/11223.got.cif
#   From: 2010.05.17/outbox.cif.g08.bks.cpg/sg39_6_cif.got.tgz:11223.got - 2010.06.03 18:22:40.
