data_PCOD9360505
_publ_section_title
;
Structure prediction by ZEFSAII (Michael W. Deem and Ramdas Pophale) SiO2 
 PCOD9360505
Probable space group: A B M 2
;
_chemical_formula_sum "Si O2"
_cell_formula_units_Z 40
_cell_length_a 7.215494
_cell_length_b 23.667377
_cell_length_c 8.654530
_cell_angle_alpha 90.000000
_cell_angle_beta 90.000000
_cell_angle_gamma 90.000000
_cell_volume 1477.949811
_symmetry_space_group_name_H-M "A B M 2"
_symmetry_group_IT_number 39
_symmetry_cell_setting 'orthorhombic'
loop_
_space_group_symop_operation_xyz
x,y,z
-x,-y,z
-x,1/2+y,z
x,1/2-y,z
x,1/2+y,1/2+z
-x,1/2-y,1/2+z
-x,y,1/2+z
x,-y,1/2+z
loop_
_atom_site_type_symbol
_atom_site_label
_atom_site_fract_x
_atom_site_fract_y
_atom_site_fract_z
Si Si1 0.563930 0.189275 0.725330
Si Si2 0.315994 0.862250 0.010128
Si Si3 0.093944 0.814841 0.507766
Si Si4 0.769881 0.042418 0.779207
Si Si5 0.182725 0.930965 0.412292
O O1 0.477633 0.250000 0.690304
O O2 0.446355 0.138255 0.656552
O O3 0.772205 0.186867 0.656479
O O4 0.588568 0.185272 0.905869
O O5 0.107295 0.841696 0.042233
O O6 0.333798 0.916396 0.899835
O O7 0.079898 0.750000 0.449682
O O8 0.190165 0.863012 0.403129
O O9 0.785135 0.054352 0.595015
O O10 0.976025 0.055492 0.848249
O O11 0.711081 0.977718 0.810768
#
# Coordination Sequence:
#
# PCOD9360505 Si02
#       5
#     8   8   8   8   8
#     4  11  23  43  68  98 143 184 228 288 348 408
#     4  11  24  44  68 102 140 186 234 284 348 415
#     4  10  22  41  69 101 136 179 232 281 341 417
#     4  10  20  38  67  96 136 178 232 284 339 416
#     4  10  19  38  65 100 131 179 224 282 345 399
#
# _framework density 27.064516000000001
#
# number of rings (size 3 to 8) (size 9 to 14) (size 15 to 20)
#    0.000    1.600    2.000    4.200    0.000    1.600 
#    7.200    3.000    0.000    0.000    0.000    1.400 
#    0.000    0.000    0.000    0.000    0.000    0.000 
#
# Total GULP energy -111729.379698 kJ/mol
# GULP energy per Si atom -5586.468985 kJ/mol
# Density = 2.700292 g / cm^3
# Si number density = 27.064516 Si / 1000 Ang^3
#
#
#
# Elastic Constant Matrix: (Units=GPa)
#
#
# Indices 1 2 3 4 5 6 
#
# 1 104.7770 10.9411 37.1235 0.0000 0.0000 0.0000
# 2 10.9411 159.6410 16.2751 0.0000 0.0000 0.0000
# 3 37.1235 16.2751 127.1487 0.0000 0.0000 0.0000
# 4 0.0000 0.0000 0.0000 28.6942 0.0000 0.0000
# 5 0.0000 0.0000 0.0000 0.0000 31.6098 0.0000
# 6 0.0000 0.0000 0.0000 0.0000 0.0000 34.1880
#
#
#
# Elastic Compliance Matrix: (Units=1/GPa)
#
#
# Indices 1 2 3 4 5 6 
#
# 1 0.010673 -0.000419 -0.003062 0.000000 0.000000 0.000000
# 2 -0.000419 0.006363 -0.000692 0.000000 0.000000 0.000000
# 3 -0.003062 -0.000692 0.008848 0.000000 0.000000 0.000000
# 4 0.000000 0.000000 0.000000 0.034850 0.000000 0.000000
# 5 0.000000 0.000000 0.000000 0.000000 0.031636 0.000000
# 6 0.000000 0.000000 0.000000 0.000000 0.000000 0.029250
#
#
# Mechanical properties :
#
#
# Convention : Reuss Voigt Hill
#
# Bulk Modulus (GPa) = 57.02519 57.80511 57.41515
# Shear Modulus (GPa) = 36.81532 40.71352 38.76442
#
# Velocity S-wave (km/s) = 3.69220 3.88276 3.78868
# Velocity P-wave (km/s) = 6.26836 6.44249 6.35602
#
# Compressibility (1/GPa) = 0.01753611
#
# Stress axis : x y z
#
# Youngs Moduli (GPa) = 93.69499 157.14994 113.02563
#
# Poissons Ratio (x) = 0.06589 0.34614
# Poissons Ratio (y) = 0.03928 0.07822
# Poissons Ratio (z) = 0.28694 0.10876
#
# Static dielectric constant tensor:
#      x y z
#    x 2.309060 0.000000 0.000000 
#    y 0.000000 2.210470 0.000000 
#    z 0.000000 0.000000 2.027170 
# 
# From -- ./inp_files/2099.got.cif
#   From: 2010.05.17/outbox.cif.g08.bks.cpg/sg39_2_cif.got.tgz:2099.got - 2010.06.03 18:22:40.
