data_PCOD9360225
_publ_section_title
;
Structure prediction by ZEFSAII (Michael W. Deem and Ramdas Pophale) SiO2 
 PCOD9360225
Probable space group: A B M 2
;
_chemical_formula_sum "Si O2"
_cell_formula_units_Z 64
_cell_length_a 17.955936
_cell_length_b 9.105877
_cell_length_c 22.882983
_cell_angle_alpha 90.000000
_cell_angle_beta 90.000000
_cell_angle_gamma 90.000000
_cell_volume 3741.471715
_symmetry_space_group_name_H-M "A B M 2"
_symmetry_group_IT_number 39
_symmetry_cell_setting 'orthorhombic'
loop_
_space_group_symop_operation_xyz
x,y,z
-x,-y,z
-x,1/2+y,z
x,1/2-y,z
x,1/2+y,1/2+z
-x,1/2-y,1/2+z
-x,y,1/2+z
x,-y,1/2+z
loop_
_atom_site_type_symbol
_atom_site_label
_atom_site_fract_x
_atom_site_fract_y
_atom_site_fract_z
Si Si1 0.918932 0.571047 0.027480
Si Si2 0.805807 0.084840 0.622429
Si Si3 0.802652 0.582355 0.444341
Si Si4 0.578044 0.918460 0.640897
Si Si5 0.293923 0.571774 0.347920
Si Si6 0.699141 0.928914 0.221073
Si Si7 0.680023 0.499080 0.035365
Si Si8 0.575678 0.414694 0.433009
O O1 0.920500 0.750000 0.025775
O O2 0.874852 0.520895 0.086501
O O3 0.000000 0.500000 0.025980
O O4 0.869197 0.507399 0.974657
O O5 0.827705 0.250000 0.637692
O O6 0.768952 0.019814 0.680437
O O7 0.737483 0.088158 0.575986
O O8 0.823622 0.750000 0.430388
O O9 0.770717 0.495194 0.388770
O O10 0.735449 0.586923 0.492095
O O11 0.566307 0.750000 0.659342
O O12 0.626855 0.918436 0.581420
O O13 0.500000 0.000000 0.630954
O O14 0.626197 0.007688 0.688603
O O15 0.289344 0.750000 0.345880
O O16 0.293528 0.498466 0.284687
O O17 0.370726 0.530110 0.381299
O O18 0.697046 0.750000 0.222171
O O19 0.625806 0.583446 0.991346
O O20 0.500000 0.500000 0.441954
O O21 0.554869 0.250000 0.417935
#
# Coordination Sequence:
#
# PCOD9360225 Si02
#       8
#     8   8   8   8   8   8   8   8
#     4  10  19  33  54  83 116 144 165 195 241 296
#     4   8  16  31  52  76 103 132 164 202 249 301
#     4  10  19  33  54  80 105 134 172 212 252 301
#     4  11  22  34  48  70  99 132 168 212 263 314
#     4  10  21  37  53  72  99 134 174 217 261 307
#     4  10  20  36  56  75  95 128 173 219 261 304
#     4   9  18  31  50  73 100 129 166 211 259 309
#     4  10  21  33  48  69  97 131 168 212 264 314
#
# _framework density 17.105568000000002
#
# number of rings (size 3 to 8) (size 9 to 14) (size 15 to 20)
#    0.000    2.250    0.000    3.000    0.000    9.000 
#    0.000    3.125    0.000    0.750    0.000    3.500 
#    0.000    0.000    0.000    0.000    0.000    0.000 
#
# Total GULP energy -178231.014581 kJ/mol
# GULP energy per Si atom -5569.719206 kJ/mol
# Density = 1.706664 g / cm^3
# Si number density = 17.105568 Si / 1000 Ang^3
#
#
#
# Elastic Constant Matrix: (Units=GPa)
#
#
# Indices 1 2 3 4 5 6 
#
# 1 126.9697 43.0723 50.6932 0.0000 0.0000 0.0000
# 2 43.0723 88.4570 33.2862 0.0000 0.0000 0.0000
# 3 50.6932 33.2862 122.3291 0.0000 0.0000 0.0000
# 4 0.0000 0.0000 0.0000 11.0630 0.0000 0.0000
# 5 0.0000 0.0000 0.0000 0.0000 14.0051 0.0000
# 6 0.0000 0.0000 0.0000 0.0000 0.0000 15.9227
#
#
#
# Elastic Compliance Matrix: (Units=1/GPa)
#
#
# Indices 1 2 3 4 5 6 
#
# 1 0.010508 -0.003875 -0.003300 0.000000 0.000000 0.000000
# 2 -0.003875 0.014023 -0.002210 0.000000 0.000000 0.000000
# 3 -0.003300 -0.002210 0.010144 0.000000 0.000000 0.000000
# 4 0.000000 0.000000 0.000000 0.090391 0.000000 0.000000
# 5 0.000000 0.000000 0.000000 0.000000 0.071403 0.000000
# 6 0.000000 0.000000 0.000000 0.000000 0.000000 0.062804
#
#
# Mechanical properties :
#
#
# Convention : Reuss Voigt Hill
#
# Bulk Modulus (GPa) = 62.87387 65.76211 64.31799
# Shear Modulus (GPa) = 17.64639 22.24510 19.94574
#
# Velocity S-wave (km/s) = 3.21536 3.61010 3.41843
# Velocity P-wave (km/s) = 7.11484 7.47699 7.29816
#
# Compressibility (1/GPa) = 0.01590486
#
# Stress axis : x y z
#
# Youngs Moduli (GPa) = 95.16611 71.30974 98.58411
#
# Poissons Ratio (x) = 0.27631 0.32534
# Poissons Ratio (y) = 0.36875 0.21788
# Poissons Ratio (z) = 0.31406 0.15760
#
# Static dielectric constant tensor:
#      x y z
#    x 1.571980 0.000000 0.000000 
#    y 0.000000 1.595450 0.000000 
#    z 0.000000 0.000000 1.577220 
# 
# From -- ./inp_files/16358.got.cif
#   From: 2010.05.17/outbox.cif.g08.bks.cpg/sg39_9_cif.got.tgz:16358.got - 2010.06.03 18:22:40.
