data_PCOD9360755
_publ_section_title
;
Structure prediction by ZEFSAII (Michael W. Deem and Ramdas Pophale) SiO2 
 PCOD9360755
Probable space group: A B M 2
;
_chemical_formula_sum "Si O2"
_cell_formula_units_Z 52
_cell_length_a 10.669007
_cell_length_b 26.588368
_cell_length_c 9.255704
_cell_angle_alpha 90.000000
_cell_angle_beta 90.000000
_cell_angle_gamma 90.000000
_cell_volume 2625.579292
_symmetry_space_group_name_H-M "A B M 2"
_symmetry_group_IT_number 39
_symmetry_cell_setting 'orthorhombic'
loop_
_space_group_symop_operation_xyz
x,y,z
-x,-y,z
-x,1/2+y,z
x,1/2-y,z
x,1/2+y,1/2+z
-x,1/2-y,1/2+z
-x,y,1/2+z
x,-y,1/2+z
loop_
_atom_site_type_symbol
_atom_site_label
_atom_site_fract_x
_atom_site_fract_y
_atom_site_fract_z
Si Si1 0.250058 0.463126 0.811250
Si Si2 0.000000 0.000000 0.446808
Si Si3 0.541281 0.308515 0.336771
Si Si4 0.401495 0.099259 0.014607
Si Si5 0.834780 0.407899 0.034750
Si Si6 0.691410 0.308663 0.036595
Si Si7 0.373234 0.564125 0.823206
O O1 0.115655 0.485372 0.846614
O O2 0.288668 0.434307 0.955893
O O3 0.240606 0.427878 0.673653
O O4 0.351602 0.506314 0.782197
O O5 0.046304 0.052595 0.526716
O O6 0.566695 0.250000 0.367493
O O7 0.612533 0.346361 0.443382
O O8 0.396035 0.315767 0.392294
O O9 0.595655 0.317127 0.174068
O O10 0.523785 0.073871 0.944279
O O11 0.409593 0.095744 0.184264
O O12 0.809739 0.347180 0.044596
O O13 0.758389 0.419559 0.889791
O O14 0.729301 0.250000 0.041546
#
# Coordination Sequence:
#
# PCOD9360755 Si02
#       7
#     8   4   8   8   8   8   8
#     4  11  23  39  57  81 113 156 199 246 300 358
#     4  10  24  40  62  84 108 156 208 254 308 364
#     4  10  20  35  56  88 125 161 195 232 289 357
#     4  12  21  36  55  86 122 159 190 242 298 361
#     4  11  21  41  62  84 118 156 202 252 302 363
#     4  10  20  36  61  91 125 164 200 242 296 361
#     4  11  23  34  54  85 120 157 196 236 299 367
#
# _framework density 19.805153000000001
#
# number of rings (size 3 to 8) (size 9 to 14) (size 15 to 20)
#    0.000    1.231    3.077    4.615    0.000    2.462 
#    0.000    0.000    0.000    1.846    0.000    0.000 
#    0.000    0.000    0.000    0.000    0.000    0.000 
#
# Total GULP energy -144762.364419 kJ/mol
# GULP energy per Si atom -5567.783247 kJ/mol
# Density = 1.976008 g / cm^3
# Si number density = 19.805153 Si / 1000 Ang^3
#
#
#
# Elastic Constant Matrix: (Units=GPa)
#
#
# Indices 1 2 3 4 5 6 
#
# 1 74.5614 47.1347 20.9001 0.0000 0.0000 0.0000
# 2 47.1347 131.7303 25.8682 0.0000 0.0000 0.0000
# 3 20.9001 25.8682 91.3084 0.0000 0.0000 0.0000
# 4 0.0000 0.0000 0.0000 29.0170 0.0000 0.0000
# 5 0.0000 0.0000 0.0000 0.0000 20.8350 0.0000
# 6 0.0000 0.0000 0.0000 0.0000 0.0000 32.0666
#
#
#
# Elastic Compliance Matrix: (Units=1/GPa)
#
#
# Indices 1 2 3 4 5 6 
#
# 1 0.017818 -0.005903 -0.002406 0.000000 0.000000 0.000000
# 2 -0.005903 0.009994 -0.001480 0.000000 0.000000 0.000000
# 3 -0.002406 -0.001480 0.011922 0.000000 0.000000 0.000000
# 4 0.000000 0.000000 0.000000 0.034463 0.000000 0.000000
# 5 0.000000 0.000000 0.000000 0.000000 0.047996 0.000000
# 6 0.000000 0.000000 0.000000 0.000000 0.000000 0.031185
#
#
# Mechanical properties :
#
#
# Convention : Reuss Voigt Hill
#
# Bulk Modulus (GPa) = 49.61452 53.93401 51.77426
# Shear Modulus (GPa) = 27.82806 29.96353 28.89579
#
# Velocity S-wave (km/s) = 3.75252 3.89384 3.82383
# Velocity P-wave (km/s) = 6.62427 6.89256 6.75975
#
# Compressibility (1/GPa) = 0.02015539
#
# Stress axis : x y z
#
# Youngs Moduli (GPa) = 56.12360 100.05923 83.87863
#
# Poissons Ratio (x) = 0.59064 0.20182
# Poissons Ratio (y) = 0.33129 0.12416
# Poissons Ratio (z) = 0.13504 0.14811
#
# Static dielectric constant tensor:
#      x y z
#    x 1.711130 0.000000 0.000000 
#    y 0.000000 1.794820 0.000000 
#    z 0.000000 0.000000 1.707740 
# 
# From -- ./inp_files/2804.got.cif
#   From: 2010.05.17/outbox.cif.g08.bks.cpg/sg39_2_cif.got.tgz:2804.got - 2010.06.03 18:22:40.
