data_PCOD9360001
_publ_section_title
;
Structure prediction by ZEFSAII (Michael W. Deem and Ramdas Pophale) SiO2 
 PCOD9360001
Probable space group: A B M 2
;
_chemical_formula_sum "Si O2"
_cell_formula_units_Z 60
_cell_length_a 7.443323
_cell_length_b 20.694862
_cell_length_c 17.402994
_cell_angle_alpha 90.000000
_cell_angle_beta 90.000000
_cell_angle_gamma 90.000000
_cell_volume 2680.731828
_symmetry_space_group_name_H-M "A B M 2"
_symmetry_group_IT_number 39
_symmetry_cell_setting 'orthorhombic'
loop_
_space_group_symop_operation_xyz
x,y,z
-x,-y,z
-x,1/2+y,z
x,1/2-y,z
x,1/2+y,1/2+z
-x,1/2-y,1/2+z
-x,y,1/2+z
x,-y,1/2+z
loop_
_atom_site_type_symbol
_atom_site_label
_atom_site_fract_x
_atom_site_fract_y
_atom_site_fract_z
Si Si1 0.761718 0.675168 0.739620
Si Si2 0.179568 0.676013 0.699923
Si Si3 0.739488 0.369054 0.859758
Si Si4 0.270036 0.323684 0.035723
Si Si5 0.813362 0.472378 0.966742
Si Si6 0.672591 0.101094 0.392766
Si Si7 0.678973 0.856769 0.568529
Si Si8 0.157373 0.750000 0.966439
O O1 0.700208 0.750000 0.756377
O O2 0.734675 0.625580 0.809494
O O3 0.678356 0.648540 0.660434
O O4 0.972852 0.678881 0.722817
O O5 0.251130 0.750000 0.695851
O O6 0.272458 0.638076 0.768666
O O7 0.199689 0.647138 0.615005
O O8 0.856787 0.427170 0.893227
O O9 0.538980 0.382459 0.890370
O O10 0.816614 0.305438 0.898993
O O11 0.206945 0.250000 0.029040
O O12 0.485797 0.328724 0.042500
O O13 0.224462 0.356010 0.955925
O O14 0.700032 0.530022 0.927885
O O15 0.000000 0.500000 0.998466
O O16 0.718750 0.427019 0.031112
O O17 0.823522 0.807274 0.532892
#
# Coordination Sequence:
#
# PCOD9360001 Si02
#       8
#     8   8   8   8   8   8   8   4
#     4  11  24  42  67 105 141 177 225 286 353 406
#     4  10  23  40  62 104 143 170 212 276 356 412
#     4  11  21  41  71  95 135 178 231 289 330 411
#     4  11  21  40  68 102 133 171 226 293 344 400
#     4  11  26  44  65  95 136 185 224 274 343 417
#     4  12  24  42  68  99 133 176 237 278 337 412
#     4  11  21  42  69  97 136 175 228 283 336 410
#     4  10  18  36  68 104 126 166 232 280 354 378
#
# _framework density 22.381948000000001
#
# number of rings (size 3 to 8) (size 9 to 14) (size 15 to 20)
#    0.000    1.067    4.667    2.400    2.800    1.067 
#    2.400    0.667    0.000    0.000    0.000    0.000 
#    0.000    0.000    0.000    0.000    0.000    0.000 
#
# Total GULP energy -167163.268759 kJ/mol
# GULP energy per Si atom -5572.108959 kJ/mol
# Density = 2.233101 g / cm^3
# Si number density = 22.381948 Si / 1000 Ang^3
#
#
#
# Elastic Constant Matrix: (Units=GPa)
#
#
# Indices 1 2 3 4 5 6 
#
# 1 37.4669 -3.6214 -5.9847 0.0000 0.0000 0.0000
# 2 -3.6214 94.8954 44.1866 0.0000 0.0000 0.0000
# 3 -5.9847 44.1866 168.9670 0.0000 0.0000 0.0000
# 4 0.0000 0.0000 0.0000 28.4819 0.0000 0.0000
# 5 0.0000 0.0000 0.0000 0.0000 28.2468 0.0000
# 6 0.0000 0.0000 0.0000 0.0000 0.0000 34.9921
#
#
#
# Elastic Compliance Matrix: (Units=1/GPa)
#
#
# Indices 1 2 3 4 5 6 
#
# 1 0.026879 0.000663 0.000779 0.000000 0.000000 0.000000
# 2 0.000663 0.012015 -0.003119 0.000000 0.000000 0.000000
# 3 0.000779 -0.003119 0.006761 0.000000 0.000000 0.000000
# 4 0.000000 0.000000 0.000000 0.035110 0.000000 0.000000
# 5 0.000000 0.000000 0.000000 0.000000 0.035402 0.000000
# 6 0.000000 0.000000 0.000000 0.000000 0.000000 0.028578
#
#
# Mechanical properties :
#
#
# Convention : Reuss Voigt Hill
#
# Bulk Modulus (GPa) = 23.63965 41.16557 32.40261
# Shear Modulus (GPa) = 30.82616 36.12743 33.47679
#
# Velocity S-wave (km/s) = 3.71520 4.02199 3.87163
# Velocity P-wave (km/s) = 5.38409 6.32461 5.87321
#
# Compressibility (1/GPa) = 0.04230181
#
# Stress axis : x y z
#
# Youngs Moduli (GPa) = 37.20423 83.22661 147.89722
#
# Poissons Ratio (x) = -0.05520 -0.11515
# Poissons Ratio (y) = -0.02467 0.46124
# Poissons Ratio (z) = -0.02897 0.25956
#
# Static dielectric constant tensor:
#      x y z
#    x 1.961570 0.000000 0.000000 
#    y 0.000000 1.859940 0.000000 
#    z 0.000000 0.000000 1.843480 
# 
# From -- ./inp_files/11803.got.cif
#   From: 2010.05.17/outbox.cif.g08.bks.cpg/sg39_6_cif.got.tgz:11803.got - 2010.06.03 18:22:40.
