data_PCOD9360623
_publ_section_title
;
Structure prediction by ZEFSAII (Michael W. Deem and Ramdas Pophale) SiO2 
 PCOD9360623
Probable space group: A B M 2
;
_chemical_formula_sum "Si O2"
_cell_formula_units_Z 48
_cell_length_a 9.661871
_cell_length_b 8.663599
_cell_length_c 32.576206
_cell_angle_alpha 90.000000
_cell_angle_beta 90.000000
_cell_angle_gamma 90.000000
_cell_volume 2726.842661
_symmetry_space_group_name_H-M "A B M 2"
_symmetry_group_IT_number 39
_symmetry_cell_setting 'orthorhombic'
loop_
_space_group_symop_operation_xyz
x,y,z
-x,-y,z
-x,1/2+y,z
x,1/2-y,z
x,1/2+y,1/2+z
-x,1/2-y,1/2+z
-x,y,1/2+z
x,-y,1/2+z
loop_
_atom_site_type_symbol
_atom_site_label
_atom_site_fract_x
_atom_site_fract_y
_atom_site_fract_z
Si Si1 0.343765 0.064420 0.379740
Si Si2 0.343567 0.934175 0.970740
Si Si3 0.343123 0.065305 0.053896
Si Si4 0.845286 0.436024 0.719972
Si Si5 0.655157 0.436005 0.644080
Si Si6 0.844973 0.434490 0.307543
O O1 0.347398 0.250000 0.376040
O O2 0.286664 0.026357 0.425583
O O3 0.500000 0.000000 0.376878
O O4 0.251008 0.992512 0.344264
O O5 0.349868 0.750000 0.974273
O O6 0.500000 0.000000 0.969946
O O7 0.276242 0.000524 0.012198
O O8 0.347933 0.250000 0.050930
O O9 0.286319 0.020925 0.098849
O O10 0.500000 0.000000 0.054622
O O11 0.849290 0.250000 0.721929
O O12 0.749914 0.485248 0.681953
O O13 0.794096 0.501138 0.763597
O O14 0.000000 0.500000 0.714231
O O15 0.500000 0.500000 0.648028
O O16 0.647161 0.250000 0.644814
O O17 0.849716 0.250000 0.306252
O O18 0.000000 0.500000 0.313105
#
# Coordination Sequence:
#
# PCOD9360623 Si02
#       6
#     8   8   8   8   8   8
#     4  10  20  34  52  77 106 134 168 209 252 297
#     4   9  16  26  43  68  98 130 163 199 240 288
#     4   9  15  25  42  66  96 128 161 197 240 288
#     4  10  20  36  54  73  98 129 167 206 246 297
#     4   9  19  32  49  74 102 130 163 204 246 290
#     4  11  22  37  56  76  99 131 169 207 252 304
#
# _framework density 17.602775999999999
#
# number of rings (size 3 to 8) (size 9 to 14) (size 15 to 20)
#    0.000    2.333    0.000    5.500    0.000    4.667 
#    0.000    1.667    0.000    1.000    0.000    4.667 
#    0.000    0.000    0.000    0.000    0.000    0.000 
#
# Total GULP energy -133754.217737 kJ/mol
# GULP energy per Si atom -5573.092406 kJ/mol
# Density = 1.756271 g / cm^3
# Si number density = 17.602776 Si / 1000 Ang^3
#
#
#
# Elastic Constant Matrix: (Units=GPa)
#
#
# Indices 1 2 3 4 5 6 
#
# 1 34.2887 21.1769 67.3258 0.0000 0.0000 0.0000
# 2 21.1769 81.7115 67.1781 0.0000 0.0000 0.0000
# 3 67.3258 67.1781 228.9031 0.0000 0.0000 0.0000
# 4 0.0000 0.0000 0.0000 -40.2905 0.0000 0.0000
# 5 0.0000 0.0000 0.0000 0.0000 -16.1806 0.0000
# 6 0.0000 0.0000 0.0000 0.0000 0.0000 22.0385
#
#
#
# Elastic Compliance Matrix: (Units=1/GPa)
#
#
# Indices 1 2 3 4 5 6 
#
# 1 0.069184 -0.001583 -0.019884 0.000000 0.000000 0.000000
# 2 -0.001583 0.016166 -0.004279 0.000000 0.000000 0.000000
# 3 -0.019884 -0.004279 0.011473 0.000000 0.000000 0.000000
# 4 0.000000 0.000000 0.000000 -0.024820 0.000000 0.000000
# 5 0.000000 0.000000 0.000000 0.000000 -0.061802 0.000000
# 6 0.000000 0.000000 0.000000 0.000000 0.000000 0.045375
#
#
# Mechanical properties :
#
#
# Convention : Reuss Voigt Hill
#
# Bulk Modulus (GPa) = 22.05962 72.91832 47.48897
# Shear Modulus (GPa) = 40.92352 5.72830 23.32591
#
# Velocity S-wave (km/s) = 4.82688 1.80590 3.64418
# Velocity P-wave (km/s) = 6.60486 6.77219 6.68905
#
# Compressibility (1/GPa) = 0.04533171
#
# Stress axis : x y z
#
# Youngs Moduli (GPa) = 14.45412 61.85729 87.16215
#
# Poissons Ratio (x) = 0.09790 1.73316
# Poissons Ratio (y) = 0.02288 0.37296
# Poissons Ratio (z) = 0.28741 0.26468
#
# Static dielectric constant tensor:
#      x y z
#    x 1.554290 0.000000 0.000000 
#    y 0.000000 1.597070 0.000000 
#    z 0.000000 0.000000 1.664780 
# 
# From -- ./inp_files/16907.got.cif
#   From: 2010.05.17/outbox.cif.g08.bks.cpg/sg39_9_cif.got.tgz:16907.got - 2010.06.03 18:22:40.
