data_PCOD9360890
_publ_section_title
;
Structure prediction by ZEFSAII (Michael W. Deem and Ramdas Pophale) SiO2 
 PCOD9360890
Probable space group: A B M 2
;
_chemical_formula_sum "Si O2"
_cell_formula_units_Z 48
_cell_length_a 15.538227
_cell_length_b 29.380327
_cell_length_c 4.897513
_cell_angle_alpha 90.000000
_cell_angle_beta 90.000000
_cell_angle_gamma 90.000000
_cell_volume 2235.803772
_symmetry_space_group_name_H-M "A B M 2"
_symmetry_group_IT_number 39
_symmetry_cell_setting 'orthorhombic'
loop_
_space_group_symop_operation_xyz
x,y,z
-x,-y,z
-x,1/2+y,z
x,1/2-y,z
x,1/2+y,1/2+z
-x,1/2-y,1/2+z
-x,y,1/2+z
x,-y,1/2+z
loop_
_atom_site_type_symbol
_atom_site_label
_atom_site_fract_x
_atom_site_fract_y
_atom_site_fract_z
Si Si1 0.936449 0.750000 0.300431
Si Si2 0.555338 0.750000 0.390643
Si Si3 0.267172 0.377819 0.730007
Si Si4 0.228984 0.526943 0.511253
Si Si5 0.439766 0.650183 0.976629
Si Si6 0.944777 0.570460 0.123739
Si Si7 0.166463 0.843227 0.702820
O O1 0.878176 0.705045 0.256094
O O2 0.982764 0.750000 0.592995
O O3 0.533270 0.750000 0.070473
O O4 0.594934 0.797569 0.476825
O O5 0.259329 0.426322 0.878828
O O6 0.360456 0.377120 0.592473
O O7 0.202627 0.365844 0.481288
O O8 0.242454 0.342790 0.975346
O O9 0.255508 0.514500 0.816526
O O10 0.126602 0.534599 0.533281
O O11 0.521135 0.643594 0.177633
O O12 0.903638 0.620697 0.087917
O O13 0.972365 0.565694 0.435203
#
# Coordination Sequence:
#
# PCOD9360890 Si02
#       7
#     4   4   8   8   8   8   8
#     4  12  24  40  62  88 124 168 216 252 280 334
#     4   8  16  30  50  80 112 140 176 224 276 328
#     4  11  23  41  62  86 121 158 199 247 304 367
#     4  11  23  39  59  84 114 151 192 241 305 364
#     4  10  20  36  60  88 118 154 194 239 294 353
#     4  11  21  36  57  81 113 147 189 243 292 343
#     4  11  23  39  58  87 120 163 204 243 297 348
#
# _framework density 21.468788
#
# number of rings (size 3 to 8) (size 9 to 14) (size 15 to 20)
#    0.000    1.333    0.000    8.000    0.000    3.333 
#    0.000    1.667    0.000    3.000    0.000    0.000 
#    0.000    0.000    0.000    0.000    0.000    0.000 
#
# Total GULP energy -134009.228348 kJ/mol
# GULP energy per Si atom -5583.717848 kJ/mol
# Density = 2.141992 g / cm^3
# Si number density = 21.468788 Si / 1000 Ang^3
#
#
#
# Elastic Constant Matrix: (Units=GPa)
#
#
# Indices 1 2 3 4 5 6 
#
# 1 38.8440 16.6395 -6.5671 0.0000 0.0000 0.0000
# 2 16.6395 81.8564 6.0199 0.0000 0.0000 0.0000
# 3 -6.5671 6.0199 80.0564 0.0000 0.0000 0.0000
# 4 0.0000 0.0000 0.0000 25.2045 0.0000 0.0000
# 5 0.0000 0.0000 0.0000 0.0000 25.8198 0.0000
# 6 0.0000 0.0000 0.0000 0.0000 0.0000 21.0547
#
#
#
# Elastic Compliance Matrix: (Units=1/GPa)
#
#
# Indices 1 2 3 4 5 6 
#
# 1 0.028819 -0.006066 0.002820 0.000000 0.000000 0.000000
# 2 -0.006066 0.013561 -0.001517 0.000000 0.000000 0.000000
# 3 0.002820 -0.001517 0.012837 0.000000 0.000000 0.000000
# 4 0.000000 0.000000 0.000000 0.039676 0.000000 0.000000
# 5 0.000000 0.000000 0.000000 0.000000 0.038730 0.000000
# 6 0.000000 0.000000 0.000000 0.000000 0.000000 0.047495
#
#
# Mechanical properties :
#
#
# Convention : Reuss Voigt Hill
#
# Bulk Modulus (GPa) = 21.88601 25.88237 23.88419
# Shear Modulus (GPa) = 24.28672 26.72674 25.50673
#
# Velocity S-wave (km/s) = 3.36707 3.53216 3.45060
# Velocity P-wave (km/s) = 5.03315 5.35881 5.19853
#
# Compressibility (1/GPa) = 0.04569129
#
# Stress axis : x y z
#
# Youngs Moduli (GPa) = 34.69917 73.74032 77.90205
#
# Poissons Ratio (x) = 0.44728 -0.21970
# Poissons Ratio (y) = 0.21047 0.11820
# Poissons Ratio (z) = -0.09786 0.11189
#
# Static dielectric constant tensor:
#      x y z
#    x 1.775440 0.000000 0.000000 
#    y 0.000000 1.802490 0.000000 
#    z 0.000000 0.000000 1.774730 
# 
# From -- ./inp_files/605.got.cif
#   From: 2010.05.17/outbox.cif.g08.bks.cpg/sg39_1_cif.got.tgz:605.got - 2010.06.03 18:22:40.
