data_PCOD9360803
_publ_section_title
;
Structure prediction by ZEFSAII (Michael W. Deem and Ramdas Pophale) SiO2 
 PCOD9360803
Probable space group: A B M 2
;
_chemical_formula_sum "Si O2"
_cell_formula_units_Z 64
_cell_length_a 8.840803
_cell_length_b 15.405433
_cell_length_c 21.592547
_cell_angle_alpha 90.000000
_cell_angle_beta 90.000000
_cell_angle_gamma 90.000000
_cell_volume 2940.827131
_symmetry_space_group_name_H-M "A B M 2"
_symmetry_group_IT_number 39
_symmetry_cell_setting 'orthorhombic'
loop_
_space_group_symop_operation_xyz
x,y,z
-x,-y,z
-x,1/2+y,z
x,1/2-y,z
x,1/2+y,1/2+z
-x,1/2-y,1/2+z
-x,y,1/2+z
x,-y,1/2+z
loop_
_atom_site_type_symbol
_atom_site_label
_atom_site_fract_x
_atom_site_fract_y
_atom_site_fract_z
Si Si1 0.664479 0.977923 0.268600
Si Si2 0.350216 0.847334 0.440831
Si Si3 0.666778 0.520980 0.054100
Si Si4 0.685846 0.848626 0.382090
Si Si5 0.894900 0.655361 0.096706
Si Si6 0.945938 0.400833 0.724224
Si Si7 0.816147 0.848398 0.814274
Si Si8 0.097234 0.412045 0.488687
O O1 0.666584 0.927250 0.333994
O O2 0.766584 0.912157 0.229672
O O3 0.500000 0.000000 0.244432
O O4 0.734446 0.073215 0.279208
O O5 0.321966 0.750000 0.465131
O O6 0.345844 0.920299 0.492363
O O7 0.520749 0.847927 0.414597
O O8 0.226374 0.862387 0.386370
O O9 0.500000 0.500000 0.077297
O O10 0.761899 0.438274 0.032583
O O11 0.774894 0.577773 0.096870
O O12 0.706383 0.750000 0.357115
O O13 0.824482 0.869658 0.428892
O O14 0.823808 0.750000 0.098512
O O15 0.989851 0.644407 0.160124
O O16 0.990098 0.644269 0.033441
O O17 0.000000 0.500000 0.722257
O O18 0.015280 0.357736 0.786191
O O19 0.763215 0.750000 0.801011
O O20 0.000000 0.500000 0.474215
#
# Coordination Sequence:
#
# PCOD9360803 Si02
#       8
#     8   8   8   8   8   8   8   8
#     4  11  23  39  64  95 133 169 212 267 329 393
#     4  10  20  35  60  93 130 165 207 262 325 391
#     4  11  21  37  64  93 127 167 213 263 324 390
#     4  11  22  37  61  95 134 169 211 267 328 396
#     4  11  24  44  64  89 127 169 219 274 324 381
#     4  10  23  43  65  89 123 170 220 269 322 381
#     4  10  21  39  65  95 126 168 216 267 325 387
#     4  10  22  38  63  94 128 172 216 267 325 391
#
# _framework density 21.762584
#
# number of rings (size 3 to 8) (size 9 to 14) (size 15 to 20)
#    0.000    1.500    2.500    3.000    0.000    5.000 
#    0.000    2.500    0.000    0.000    0.000    0.000 
#    0.000    0.000    0.000    0.000    0.000    0.000 
#
# Total GULP energy -178536.062756 kJ/mol
# GULP energy per Si atom -5579.251961 kJ/mol
# Density = 2.171305 g / cm^3
# Si number density = 21.762584 Si / 1000 Ang^3
#
#
#
# Elastic Constant Matrix: (Units=GPa)
#
#
# Indices 1 2 3 4 5 6 
#
# 1 87.6435 1.5752 17.8998 0.0000 0.0000 0.0000
# 2 1.5752 75.5498 8.6737 0.0000 0.0000 0.0000
# 3 17.8998 8.6737 80.5532 0.0000 0.0000 0.0000
# 4 0.0000 0.0000 0.0000 5.6270 0.0000 0.0000
# 5 0.0000 0.0000 0.0000 0.0000 15.8450 0.0000
# 6 0.0000 0.0000 0.0000 0.0000 0.0000 24.1620
#
#
#
# Elastic Compliance Matrix: (Units=1/GPa)
#
#
# Indices 1 2 3 4 5 6 
#
# 1 0.011953 0.000056 -0.002662 0.000000 0.000000 0.000000
# 2 0.000056 0.013402 -0.001456 0.000000 0.000000 0.000000
# 3 -0.002662 -0.001456 0.013162 0.000000 0.000000 0.000000
# 4 0.000000 0.000000 0.000000 0.177715 0.000000 0.000000
# 5 0.000000 0.000000 0.000000 0.000000 0.063111 0.000000
# 6 0.000000 0.000000 0.000000 0.000000 0.000000 0.041387
#
#
# Mechanical properties :
#
#
# Convention : Reuss Voigt Hill
#
# Bulk Modulus (GPa) = 32.90053 33.33820 33.11936
# Shear Modulus (GPa) = 14.74993 23.49999 19.12496
#
# Velocity S-wave (km/s) = 2.60622 3.28965 2.96767
# Velocity P-wave (km/s) = 4.92009 5.45723 5.19560
#
# Compressibility (1/GPa) = 0.03039465
#
# Stress axis : x y z
#
# Youngs Moduli (GPa) = 83.66429 74.61436 75.97385
#
# Poissons Ratio (x) = -0.00421 0.20225
# Poissons Ratio (y) = -0.00472 0.11059
# Poissons Ratio (z) = 0.22272 0.10861
#
# Static dielectric constant tensor:
#      x y z
#    x 1.862130 0.000000 0.000000 
#    y 0.000000 1.780780 0.000000 
#    z 0.000000 0.000000 1.815050 
# 
# From -- ./inp_files/15654.got.cif
#   From: 2010.05.17/outbox.cif.g08.bks.cpg/sg39_8_cif.got.tgz:15654.got - 2010.06.03 18:22:40.
