data_PCOD9360752
_publ_section_title
;
Structure prediction by ZEFSAII (Michael W. Deem and Ramdas Pophale) SiO2 
 PCOD9360752
Probable space group: A B M 2
;
_chemical_formula_sum "Si O2"
_cell_formula_units_Z 64
_cell_length_a 14.881540
_cell_length_b 9.252741
_cell_length_c 24.629176
_cell_angle_alpha 90.000000
_cell_angle_beta 90.000000
_cell_angle_gamma 90.000000
_cell_volume 3391.315259
_symmetry_space_group_name_H-M "A B M 2"
_symmetry_group_IT_number 39
_symmetry_cell_setting 'orthorhombic'
loop_
_space_group_symop_operation_xyz
x,y,z
-x,-y,z
-x,1/2+y,z
x,1/2-y,z
x,1/2+y,1/2+z
-x,1/2-y,1/2+z
-x,y,1/2+z
x,-y,1/2+z
loop_
_atom_site_type_symbol
_atom_site_label
_atom_site_fract_x
_atom_site_fract_y
_atom_site_fract_z
Si Si1 0.793044 0.921702 0.562520
Si Si2 0.903845 0.920906 0.451625
Si Si3 0.410800 0.582406 0.081144
Si Si4 0.081702 0.417474 0.767980
Si Si5 0.345516 0.081874 0.702200
Si Si6 0.590043 0.077815 0.323167
Si Si7 0.217919 0.419045 0.864282
Si Si8 0.832955 0.078442 0.671098
O O1 0.792053 0.750000 0.576748
O O2 0.849263 0.940114 0.507890
O O3 0.687393 0.966361 0.559227
O O4 0.837482 0.011262 0.611161
O O5 0.917668 0.750000 0.442716
O O6 0.840370 0.987716 0.405380
O O7 0.000000 0.000000 0.453066
O O8 0.500000 0.500000 0.063104
O O9 0.420357 0.750000 0.066596
O O10 0.402966 0.573010 0.146986
O O11 0.060193 0.250000 0.758937
O O12 0.168906 0.425047 0.805941
O O13 0.099911 0.501397 0.712464
O O14 0.000000 0.500000 0.796885
O O15 0.312072 0.250000 0.705342
O O16 0.394142 0.050573 0.758765
O O17 0.264506 0.971541 0.693085
O O18 0.581422 0.250000 0.329292
O O19 0.679742 0.032363 0.355232
O O20 0.500000 0.000000 0.341287
O O21 0.217297 0.250000 0.881106
O O22 0.843078 0.250000 0.670918
#
# Coordination Sequence:
#
# PCOD9360752 Si02
#       8
#     8   8   8   8   8   8   8   8
#     4   9  21  41  60  81 116 158 193 239 298 354
#     4  11  24  43  68  91 113 147 196 249 303 358
#     4   9  17  30  52  80 114 153 194 235 283 339
#     4  11  22  38  58  83 118 156 192 235 293 358
#     4   9  17  33  52  75 116 163 199 237 287 341
#     4  10  20  35  56  85 119 160 201 242 292 345
#     4  10  22  41  63  86 119 156 195 244 297 349
#     4  11  21  33  55  87 119 154 195 240 290 347
#
# _framework density 18.871734
#
# number of rings (size 3 to 8) (size 9 to 14) (size 15 to 20)
#    0.000    2.000    1.250    3.375    0.000    6.500 
#    0.000    1.875    0.000    3.000    0.000    0.000 
#    0.000    0.000    0.000    0.000    0.000    0.000 
#
# Total GULP energy -178612.336974 kJ/mol
# GULP energy per Si atom -5581.635530 kJ/mol
# Density = 1.882878 g / cm^3
# Si number density = 18.871734 Si / 1000 Ang^3
#
#
#
# Elastic Constant Matrix: (Units=GPa)
#
#
# Indices 1 2 3 4 5 6 
#
# 1 140.4049 66.3943 50.0671 0.0000 0.0000 0.0000
# 2 66.3943 103.2117 57.6369 0.0000 0.0000 0.0000
# 3 50.0671 57.6369 73.6444 0.0000 0.0000 0.0000
# 4 0.0000 0.0000 0.0000 16.9313 0.0000 0.0000
# 5 0.0000 0.0000 0.0000 0.0000 15.8124 0.0000
# 6 0.0000 0.0000 0.0000 0.0000 0.0000 34.7995
#
#
#
# Elastic Compliance Matrix: (Units=1/GPa)
#
#
# Indices 1 2 3 4 5 6 
#
# 1 0.010681 -0.005002 -0.003347 0.000000 0.000000 0.000000
# 2 -0.005002 0.019553 -0.011903 0.000000 0.000000 0.000000
# 3 -0.003347 -0.011903 0.025169 0.000000 0.000000 0.000000
# 4 0.000000 0.000000 0.000000 0.059062 0.000000 0.000000
# 5 0.000000 0.000000 0.000000 0.000000 0.063241 0.000000
# 6 0.000000 0.000000 0.000000 0.000000 0.000000 0.028736
#
#
# Mechanical properties :
#
#
# Convention : Reuss Voigt Hill
#
# Bulk Modulus (GPa) = 67.10872 73.93972 70.52422
# Shear Modulus (GPa) = 19.84810 23.05281 21.45045
#
# Velocity S-wave (km/s) = 3.24657 3.49886 3.37507
# Velocity P-wave (km/s) = 7.04920 7.45573 7.25531
#
# Compressibility (1/GPa) = 0.01490119
#
# Stress axis : x y z
#
# Youngs Moduli (GPa) = 93.62432 51.14216 39.73063
#
# Poissons Ratio (x) = 0.25581 0.13297
# Poissons Ratio (y) = 0.46831 0.47290
# Poissons Ratio (z) = 0.31333 0.60873
#
# Static dielectric constant tensor:
#      x y z
#    x 1.689740 0.000000 0.000000 
#    y 0.000000 1.632260 0.000000 
#    z 0.000000 0.000000 1.654730 
# 
# From -- ./inp_files/16174.got.cif
#   From: 2010.05.17/outbox.cif.g08.bks.cpg/sg39_9_cif.got.tgz:16174.got - 2010.06.03 18:22:40.
