data_PCOD9360687
_publ_section_title
;
Structure prediction by ZEFSAII (Michael W. Deem and Ramdas Pophale) SiO2 
 PCOD9360687
Probable space group: A B M 2
;
_chemical_formula_sum "Si O2"
_cell_formula_units_Z 40
_cell_length_a 9.168795
_cell_length_b 18.572797
_cell_length_c 12.463224
_cell_angle_alpha 90.000000
_cell_angle_beta 90.000000
_cell_angle_gamma 90.000000
_cell_volume 2122.364512
_symmetry_space_group_name_H-M "A B M 2"
_symmetry_group_IT_number 39
_symmetry_cell_setting 'orthorhombic'
loop_
_space_group_symop_operation_xyz
x,y,z
-x,-y,z
-x,1/2+y,z
x,1/2-y,z
x,1/2+y,1/2+z
-x,1/2-y,1/2+z
-x,y,1/2+z
x,-y,1/2+z
loop_
_atom_site_type_symbol
_atom_site_label
_atom_site_fract_x
_atom_site_fract_y
_atom_site_fract_z
Si Si1 0.352261 0.098590 0.221920
Si Si2 0.667193 0.915695 0.609197
Si Si3 0.447529 0.331013 0.427600
Si Si4 0.713783 0.571733 0.000488
Si Si5 0.843684 0.966392 0.790218
O O1 0.514331 0.084596 0.174371
O O2 0.371744 0.157471 0.313267
O O3 0.278338 0.029684 0.278845
O O4 0.260817 0.113100 0.113036
O O5 0.660397 0.851591 0.524299
O O6 0.794979 0.912687 0.696224
O O7 0.681886 0.990436 0.542539
O O8 0.502663 0.250000 0.438425
O O9 0.576907 0.389554 0.442798
O O10 0.834768 0.566182 0.909030
O O11 0.000000 0.000000 0.769207
#
# Coordination Sequence:
#
# PCOD9360687 Si02
#       5
#     8   8   8   8   8
#     4  10  20  34  57  84 116 143 191 244 296 343
#     4  10  21  36  62  85 117 144 194 262 301 341
#     4  11  21  35  59  87 118 154 195 243 304 356
#     4  10  20  34  57  85 116 146 190 253 298 346
#     4  11  21  35  59  89 117 151 190 244 303 354
#
# _framework density 18.846903999999999
#
# number of rings (size 3 to 8) (size 9 to 14) (size 15 to 20)
#    0.000    1.600    4.000    5.400    0.000    6.400 
#    0.000    0.000    0.000    2.400    0.000    0.000 
#    0.000    0.000    0.000    0.000    0.000    0.000 
#
# Total GULP energy -111409.184850 kJ/mol
# GULP energy per Si atom -5570.459243 kJ/mol
# Density = 1.880401 g / cm^3
# Si number density = 18.846904 Si / 1000 Ang^3
#
#
#
# Elastic Constant Matrix: (Units=GPa)
#
#
# Indices 1 2 3 4 5 6 
#
# 1 49.2927 0.0083 32.6634 0.0000 0.0000 0.0000
# 2 0.0083 40.6909 17.1174 0.0000 0.0000 0.0000
# 3 32.6634 17.1174 130.2744 0.0000 0.0000 0.0000
# 4 0.0000 0.0000 0.0000 8.2161 0.0000 0.0000
# 5 0.0000 0.0000 0.0000 0.0000 14.3336 0.0000
# 6 0.0000 0.0000 0.0000 0.0000 0.0000 6.3165
#
#
#
# Elastic Compliance Matrix: (Units=1/GPa)
#
#
# Indices 1 2 3 4 5 6 
#
# 1 0.024615 0.002743 -0.006532 0.000000 0.000000 0.000000
# 2 0.002743 0.026319 -0.004146 0.000000 0.000000 0.000000
# 3 -0.006532 -0.004146 0.009859 0.000000 0.000000 0.000000
# 4 0.000000 0.000000 0.000000 0.121713 0.000000 0.000000
# 5 0.000000 0.000000 0.000000 0.000000 0.069766 0.000000
# 6 0.000000 0.000000 0.000000 0.000000 0.000000 0.158314
#
#
# Mechanical properties :
#
#
# Convention : Reuss Voigt Hill
#
# Bulk Modulus (GPa) = 22.26067 35.53736 28.89902
# Shear Modulus (GPa) = 11.32683 17.13784 14.23234
#
# Velocity S-wave (km/s) = 2.45417 3.01876 2.75099
# Velocity P-wave (km/s) = 4.45731 5.57201 5.04554
#
# Compressibility (1/GPa) = 0.04492227
#
# Stress axis : x y z
#
# Youngs Moduli (GPa) = 40.62579 37.99541 101.43413
#
# Poissons Ratio (x) = -0.10421 0.66257
# Poissons Ratio (y) = -0.11143 0.42053
# Poissons Ratio (z) = 0.26537 0.15752
#
# Static dielectric constant tensor:
#      x y z
#    x 1.649390 0.000000 0.000000 
#    y 0.000000 1.640710 0.000000 
#    z 0.000000 0.000000 1.737370 
# 
# From -- ./inp_files/5050.got.cif
#   From: 2010.05.17/outbox.cif.g08.bks.cpg/sg39_3_cif.got.tgz:5050.got - 2010.06.03 18:22:40.
