data_PCOD9360828
_publ_section_title
;
Structure prediction by ZEFSAII (Michael W. Deem and Ramdas Pophale) SiO2 
 PCOD9360828
Probable space group: A B M 2
;
_chemical_formula_sum "Si O2"
_cell_formula_units_Z 48
_cell_length_a 9.846369
_cell_length_b 8.535787
_cell_length_c 30.904830
_cell_angle_alpha 90.000000
_cell_angle_beta 90.000000
_cell_angle_gamma 90.000000
_cell_volume 2597.443058
_symmetry_space_group_name_H-M "A B M 2"
_symmetry_group_IT_number 39
_symmetry_cell_setting 'orthorhombic'
loop_
_space_group_symop_operation_xyz
x,y,z
-x,-y,z
-x,1/2+y,z
x,1/2-y,z
x,1/2+y,1/2+z
-x,1/2-y,1/2+z
-x,y,1/2+z
x,-y,1/2+z
loop_
_atom_site_type_symbol
_atom_site_label
_atom_site_fract_x
_atom_site_fract_y
_atom_site_fract_z
Si Si1 0.351615 0.061169 0.006580
Si Si2 0.847534 0.439431 0.430848
Si Si3 0.847344 0.937898 0.679353
Si Si4 0.649358 0.561947 0.106312
Si Si5 0.649215 0.060955 0.255579
Si Si6 0.350840 0.060875 0.854650
O O1 0.355609 0.250000 0.005750
O O2 0.326919 0.012734 0.056332
O O3 0.500000 0.000000 0.993511
O O4 0.236555 0.008653 0.973206
O O5 0.850189 0.250000 0.430877
O O6 0.762621 0.491021 0.388635
O O7 0.000000 0.500000 0.430695
O O8 0.849947 0.750000 0.679178
O O9 0.763047 0.991201 0.721747
O O10 0.763263 0.996319 0.637961
O O11 0.000000 0.000000 0.679488
O O12 0.500000 0.500000 0.118951
O O13 0.648775 0.750000 0.108262
O O14 0.645392 0.250000 0.255059
O O15 0.676226 0.010209 0.305113
O O16 0.500000 0.000000 0.243127
O O17 0.354511 0.250000 0.855228
O O18 0.500000 0.000000 0.867007
#
# Coordination Sequence:
#
# PCOD9360828 Si02
#       6
#     8   8   8   8   8   8
#     4   9  19  35  55  79 104 133 171 214 256 302
#     4  10  21  35  51  75 107 139 171 208 253 305
#     4  11  23  37  53  76 107 141 176 215 262 312
#     4  10  20  36  57  80 106 136 174 217 261 309
#     4   9  19  35  55  78 103 133 170 213 258 305
#     4   9  18  34  55  78 103 132 170 213 255 303
#
# _framework density 18.479711000000002
#
# number of rings (size 3 to 8) (size 9 to 14) (size 15 to 20)
#    0.000    2.333    0.000    2.000    0.000    6.000 
#    0.000    1.667    0.000    0.000    0.000    0.000 
#    0.000    0.000    0.000    0.000    0.000    0.000 
#
# Total GULP energy -133988.962662 kJ/mol
# GULP energy per Si atom -5582.873444 kJ/mol
# Density = 1.843765 g / cm^3
# Si number density = 18.479711 Si / 1000 Ang^3
#
#
#
# Elastic Constant Matrix: (Units=GPa)
#
#
# Indices 1 2 3 4 5 6 
#
# 1 205.9838 30.9541 128.6278 0.0000 0.0000 0.0000
# 2 30.9541 17.3110 27.8890 0.0000 0.0000 0.0000
# 3 128.6278 27.8890 126.0936 0.0000 0.0000 0.0000
# 4 0.0000 0.0000 0.0000 19.1285 0.0000 0.0000
# 5 0.0000 0.0000 0.0000 0.0000 -4.5870 0.0000
# 6 0.0000 0.0000 0.0000 0.0000 0.0000 36.6770
#
#
#
# Elastic Compliance Matrix: (Units=1/GPa)
#
#
# Indices 1 2 3 4 5 6 
#
# 1 0.013476 -0.003029 -0.013077 0.000000 0.000000 0.000000
# 2 -0.003029 0.090427 -0.016910 0.000000 0.000000 0.000000
# 3 -0.013077 -0.016910 0.025010 0.000000 0.000000 0.000000
# 4 0.000000 0.000000 0.000000 0.052278 0.000000 0.000000
# 5 0.000000 0.000000 0.000000 0.000000 -0.218007 0.000000
# 6 0.000000 0.000000 0.000000 0.000000 0.000000 0.027265
#
#
# Mechanical properties :
#
#
# Convention : Reuss Voigt Hill
#
# Bulk Modulus (GPa) = 15.90318 80.48111 48.19215
# Shear Modulus (GPa) = 64.56553 21.03821 42.80187
#
# Velocity S-wave (km/s) = 5.91730 3.37775 4.81787
# Velocity P-wave (km/s) = 7.43709 7.67189 7.55540
#
# Compressibility (1/GPa) = 0.06288051
#
# Stress axis : x y z
#
# Youngs Moduli (GPa) = 74.20787 11.05870 39.98375
#
# Poissons Ratio (x) = 0.03350 0.52285
# Poissons Ratio (y) = 0.22478 0.67614
# Poissons Ratio (z) = 0.97038 0.18701
#
# Static dielectric constant tensor:
#      x y z
#    x 1.586030 0.000000 0.000000 
#    y 0.000000 1.637440 0.000000 
#    z 0.000000 0.000000 1.657510 
# 
# From -- ./inp_files/17576.got.cif
#   From: 2010.05.17/outbox.cif.g08.bks.cpg/sg39_9_cif.got.tgz:17576.got - 2010.06.03 18:22:40.
