data_PCOD9360622
_publ_section_title
;
Structure prediction by ZEFSAII (Michael W. Deem and Ramdas Pophale) SiO2 
 PCOD9360622
Probable space group: A B M 2
;
_chemical_formula_sum "Si O2"
_cell_formula_units_Z 56
_cell_length_a 19.887323
_cell_length_b 8.802414
_cell_length_c 16.259008
_cell_angle_alpha 90.000000
_cell_angle_beta 90.000000
_cell_angle_gamma 90.000000
_cell_volume 2846.244227
_symmetry_space_group_name_H-M "A B M 2"
_symmetry_group_IT_number 39
_symmetry_cell_setting 'orthorhombic'
loop_
_space_group_symop_operation_xyz
x,y,z
-x,-y,z
-x,1/2+y,z
x,1/2-y,z
x,1/2+y,1/2+z
-x,1/2-y,1/2+z
-x,y,1/2+z
x,-y,1/2+z
loop_
_atom_site_type_symbol
_atom_site_label
_atom_site_fract_x
_atom_site_fract_y
_atom_site_fract_z
Si Si1 0.215083 0.568448 0.396980
Si Si2 0.068388 0.932111 0.650171
Si Si3 0.345807 0.568924 0.827465
Si Si4 0.931612 0.432111 0.333631
Si Si5 0.654193 0.931076 0.656337
Si Si6 0.574498 0.566119 0.491901
Si Si7 0.784917 0.068448 0.586822
O O1 0.222118 0.750000 0.384506
O O2 0.269028 0.483484 0.341412
O O3 0.137804 0.528772 0.378506
O O4 0.230039 0.533405 0.491901
O O5 0.062493 0.750000 0.653927
O O6 0.137804 0.971227 0.605296
O O7 0.073310 0.000000 0.741901
O O8 0.000000 0.000000 0.612593
O O9 0.348795 0.750000 0.822833
O O10 0.371320 0.500000 0.741901
O O11 0.386719 0.518267 0.908653
O O12 0.937507 0.250000 0.329876
O O13 0.000000 0.500000 0.371209
O O14 0.651205 0.750000 0.660970
O O15 0.613281 0.981733 0.575149
O O16 0.730973 0.983483 0.642390
O O17 0.500000 0.500000 0.491901
O O18 0.572404 0.750000 0.491901
O O19 0.777882 0.250000 0.599297
#
# Coordination Sequence:
#
# PCOD9360622 Si02
#       7
#     8   8   8   8   8   8   8
#     4  10  21  37  58  85 117 155 200 251 305 361
#     4  10  20  34  52  76 108 148 196 248 301 360
#     4  11  23  41  64  94 126 162 206 251 299 360
#     4  10  20  34  52  76 108 148 196 248 301 360
#     4  11  23  41  64  94 126 162 206 251 299 360
#     4  10  24  44  66  94 129 162 201 246 297 358
#     4  10  21  37  58  85 117 155 200 251 305 361
#
# _framework density 19.675049999999999
#
# number of rings (size 3 to 8) (size 9 to 14) (size 15 to 20)
#    0.000    1.714    1.429    3.429    0.000    8.000 
#    0.000    2.857    0.000    0.000    0.000    0.000 
#    0.000    0.000    0.000    0.000    0.000    0.000 
#
# Total GULP energy -156431.141375 kJ/mol
# GULP energy per Si atom -5586.826478 kJ/mol
# Density = 1.963027 g / cm^3
# Si number density = 19.675050 Si / 1000 Ang^3
#
#
#
# Elastic Constant Matrix: (Units=GPa)
#
#
# Indices 1 2 3 4 5 6 
#
# 1 121.1529 32.4781 60.3840 0.0000 0.0000 0.0000
# 2 32.4781 32.2819 42.8725 0.0000 0.0000 0.0000
# 3 60.3840 42.8725 133.8160 0.0000 0.0000 0.0000
# 4 0.0000 0.0000 0.0000 26.8232 0.0000 0.0000
# 5 0.0000 0.0000 0.0000 0.0000 16.6466 0.0000
# 6 0.0000 0.0000 0.0000 0.0000 0.0000 30.3889
#
#
#
# Elastic Compliance Matrix: (Units=1/GPa)
#
#
# Indices 1 2 3 4 5 6 
#
# 1 0.011819 -0.008369 -0.002652 0.000000 0.000000 0.000000
# 2 -0.008369 0.059845 -0.015397 0.000000 0.000000 0.000000
# 3 -0.002652 -0.015397 0.013603 0.000000 0.000000 0.000000
# 4 0.000000 0.000000 0.000000 0.037281 0.000000 0.000000
# 5 0.000000 0.000000 0.000000 0.000000 0.060072 0.000000
# 6 0.000000 0.000000 0.000000 0.000000 0.000000 0.032907
#
#
# Mechanical properties :
#
#
# Convention : Reuss Voigt Hill
#
# Bulk Modulus (GPa) = 30.83469 62.08000 46.45734
# Shear Modulus (GPa) = 17.90998 24.87282 21.39140
#
# Velocity S-wave (km/s) = 3.02037 3.55939 3.30090
# Velocity P-wave (km/s) = 5.27916 6.96516 6.17993
#
# Compressibility (1/GPa) = 0.03243101
#
# Stress axis : x y z
#
# Youngs Moduli (GPa) = 84.60647 16.70980 73.51493
#
# Poissons Ratio (x) = 0.13984 0.19498
# Poissons Ratio (y) = 0.70807 1.13191
# Poissons Ratio (z) = 0.22439 0.25728
#
# Static dielectric constant tensor:
#      x y z
#    x 1.683990 0.000000 0.000000 
#    y 0.000000 1.659590 0.000000 
#    z 0.000000 0.000000 1.698540 
# 
# From -- ./inp_files/10404.got.cif
#   From: 2010.05.17/outbox.cif.g08.bks.cpg/sg39_6_cif.got.tgz:10404.got - 2010.06.03 18:22:40.
