data_PCOD9360115
_publ_section_title
;
Structure prediction by ZEFSAII (Michael W. Deem and Ramdas Pophale) SiO2 
 PCOD9360115
Probable space group: A B M 2
;
_chemical_formula_sum "Si O2"
_cell_formula_units_Z 48
_cell_length_a 9.491923
_cell_length_b 8.664076
_cell_length_c 32.709172
_cell_angle_alpha 90.000000
_cell_angle_beta 90.000000
_cell_angle_gamma 90.000000
_cell_volume 2689.961166
_symmetry_space_group_name_H-M "A B M 2"
_symmetry_group_IT_number 39
_symmetry_cell_setting 'orthorhombic'
loop_
_space_group_symop_operation_xyz
x,y,z
-x,-y,z
-x,1/2+y,z
x,1/2-y,z
x,1/2+y,1/2+z
-x,1/2-y,1/2+z
-x,y,1/2+z
x,-y,1/2+z
loop_
_atom_site_type_symbol
_atom_site_label
_atom_site_fract_x
_atom_site_fract_y
_atom_site_fract_z
Si Si1 0.340816 0.065349 0.102910
Si Si2 0.840467 0.435261 0.851721
Si Si3 0.658481 0.435259 0.018836
Si Si4 0.841288 0.933939 0.767331
Si Si5 0.158000 0.436012 0.441557
Si Si6 0.658891 0.935368 0.193467
O O1 0.345134 0.250000 0.098872
O O2 0.282277 0.026837 0.147894
O O3 0.500000 0.000000 0.103813
O O4 0.276880 0.994097 0.061789
O O5 0.843086 0.250000 0.847890
O O6 0.777633 0.506418 0.810491
O O7 0.781622 0.477571 0.896530
O O8 0.000000 0.500000 0.852806
O O9 0.500000 0.500000 0.015690
O O10 0.652488 0.250000 0.019738
O O11 0.747616 0.486924 0.979583
O O12 0.847496 0.750000 0.767896
O O13 0.751680 0.993663 0.729270
O O14 0.000000 0.000000 0.764199
O O15 0.149984 0.250000 0.442538
O O16 0.000000 0.500000 0.445083
O O17 0.654749 0.750000 0.197043
O O18 0.500000 0.000000 0.196083
#
# Coordination Sequence:
#
# PCOD9360115 Si02
#       6
#     8   8   8   8   8   8
#     4   9  17  30  50  73  97 129 166 201 241 292
#     4   9  16  30  50  71  97 129 166 205 245 294
#     4  10  19  32  50  74 101 130 165 203 244 290
#     4  11  21  34  53  77 103 133 169 208 252 299
#     4   9  19  33  51  74  99 129 165 205 247 293
#     4  10  20  35  54  77 103 132 168 208 251 300
#
# _framework density 17.844123
#
# number of rings (size 3 to 8) (size 9 to 14) (size 15 to 20)
#    0.000    2.333    0.000    5.500    0.000    4.000 
#    0.000    1.667    0.000    4.000    0.000    0.000 
#    0.000    0.000    0.000    0.000    0.000    0.000 
#
# Total GULP energy -133750.628615 kJ/mol
# GULP energy per Si atom -5572.942859 kJ/mol
# Density = 1.780351 g / cm^3
# Si number density = 17.844123 Si / 1000 Ang^3
#
#
#
# Elastic Constant Matrix: (Units=GPa)
#
#
# Indices 1 2 3 4 5 6 
#
# 1 38.1056 20.7985 60.3220 0.0000 0.0000 0.0000
# 2 20.7985 85.0657 68.9454 0.0000 0.0000 0.0000
# 3 60.3220 68.9454 230.5960 0.0000 0.0000 0.0000
# 4 0.0000 0.0000 0.0000 26.2575 0.0000 0.0000
# 5 0.0000 0.0000 0.0000 0.0000 32.9734 0.0000
# 6 0.0000 0.0000 0.0000 0.0000 0.0000 21.8469
#
#
#
# Elastic Compliance Matrix: (Units=1/GPa)
#
#
# Indices 1 2 3 4 5 6 
#
# 1 0.045030 -0.001930 -0.011202 0.000000 0.000000 0.000000
# 2 -0.001930 0.015598 -0.004159 0.000000 0.000000 0.000000
# 3 -0.011202 -0.004159 0.008510 0.000000 0.000000 0.000000
# 4 0.000000 0.000000 0.000000 0.038084 0.000000 0.000000
# 5 0.000000 0.000000 0.000000 0.000000 0.030328 0.000000
# 6 0.000000 0.000000 0.000000 0.000000 0.000000 0.045773
#
#
# Mechanical properties :
#
#
# Convention : Reuss Voigt Hill
#
# Bulk Modulus (GPa) = 28.93865 72.65545 50.79705
# Shear Modulus (GPa) = 21.79362 29.79565 25.79463
#
# Velocity S-wave (km/s) = 3.49855 4.09072 3.80617
# Velocity P-wave (km/s) = 5.70723 7.94463 6.91699
#
# Compressibility (1/GPa) = 0.03455586
#
# Stress axis : x y z
#
# Youngs Moduli (GPa) = 22.20742 64.10997 117.50294
#
# Poissons Ratio (x) = 0.12375 1.31631
# Poissons Ratio (y) = 0.04287 0.48866
# Poissons Ratio (z) = 0.24877 0.26661
#
# Static dielectric constant tensor:
#      x y z
#    x 1.582780 0.000000 0.000000 
#    y 0.000000 1.601790 0.000000 
#    z 0.000000 0.000000 1.680170 
# 
# From -- ./inp_files/16898.got.cif
#   From: 2010.05.17/outbox.cif.g08.bks.cpg/sg39_9_cif.got.tgz:16898.got - 2010.06.03 18:22:40.
