data_PCOD9360276
_publ_section_title
;
Structure prediction by ZEFSAII (Michael W. Deem and Ramdas Pophale) SiO2 
 PCOD9360276
Probable space group: A B M 2
;
_chemical_formula_sum "Si O2"
_cell_formula_units_Z 64
_cell_length_a 9.815087
_cell_length_b 17.740794
_cell_length_c 16.169898
_cell_angle_alpha 90.000000
_cell_angle_beta 90.000000
_cell_angle_gamma 90.000000
_cell_volume 2815.622888
_symmetry_space_group_name_H-M "A B M 2"
_symmetry_group_IT_number 39
_symmetry_cell_setting 'orthorhombic'
loop_
_space_group_symop_operation_xyz
x,y,z
-x,-y,z
-x,1/2+y,z
x,1/2-y,z
x,1/2+y,1/2+z
-x,1/2-y,1/2+z
-x,y,1/2+z
x,-y,1/2+z
loop_
_atom_site_type_symbol
_atom_site_label
_atom_site_fract_x
_atom_site_fract_y
_atom_site_fract_z
Si Si1 0.392229 0.593268 0.087650
Si Si2 0.695743 0.429889 0.558454
Si Si3 0.030382 0.338560 0.723644
Si Si4 0.770490 0.164076 0.969385
Si Si5 0.747797 0.095418 0.749758
Si Si6 0.467358 0.662801 0.849942
Si Si7 0.951059 0.840014 0.028703
Si Si8 0.697787 0.927548 0.772652
O O1 0.329725 0.518295 0.044212
O O2 0.545724 0.606215 0.057780
O O3 0.384435 0.577165 0.185151
O O4 0.292621 0.659835 0.061461
O O5 0.744515 0.424112 0.653247
O O6 0.814353 0.386583 0.510828
O O7 0.051266 0.250000 0.738863
O O8 0.160059 0.385819 0.754191
O O9 0.892899 0.367465 0.768342
O O10 0.999155 0.348336 0.625002
O O11 0.787462 0.250000 0.942282
O O12 0.645389 0.134476 0.915306
O O13 0.921337 0.131572 0.974500
O O14 0.625582 0.152864 0.768165
O O15 0.722532 0.014896 0.792632
O O16 0.501425 0.750000 0.865081
O O17 0.601721 0.613344 0.839057
O O18 0.929380 0.750000 0.016436
#
# Coordination Sequence:
#
# PCOD9360276 Si02
#       8
#     8   8   8   8   8   8   8   8
#     4  10  19  36  58  87 121 154 197 258 312 363
#     4   9  19  34  57  89 116 146 200 252 308 366
#     4  10  19  33  58  92 122 153 204 260 309 368
#     4  10  22  39  57  83 120 163 205 248 309 372
#     4  10  20  37  58  86 119 159 201 256 314 372
#     4  11  23  39  59  84 120 168 211 252 310 376
#     4   9  18  34  56  87 121 157 200 250 305 366
#     4  11  20  36  61  90 122 160 205 262 318 365
#
# _framework density 22.730316999999999
#
# number of rings (size 3 to 8) (size 9 to 14) (size 15 to 20)
#    0.000    2.000    2.500    1.500    0.000    2.000 
#    4.500    1.250    2.750    3.000    0.000    0.000 
#    0.000    0.000    0.000    0.000    0.000    0.000 
#
# Total GULP energy -178594.022307 kJ/mol
# GULP energy per Si atom -5581.063197 kJ/mol
# Density = 2.267858 g / cm^3
# Si number density = 22.730317 Si / 1000 Ang^3
#
#
#
# Elastic Constant Matrix: (Units=GPa)
#
#
# Indices 1 2 3 4 5 6 
#
# 1 174.5567 52.7270 11.6517 0.0000 0.0000 0.0000
# 2 52.7270 61.5886 23.5640 0.0000 0.0000 0.0000
# 3 11.6517 23.5640 26.0073 0.0000 0.0000 0.0000
# 4 0.0000 0.0000 0.0000 17.5401 0.0000 0.0000
# 5 0.0000 0.0000 0.0000 0.0000 29.8450 0.0000
# 6 0.0000 0.0000 0.0000 0.0000 0.0000 35.3835
#
#
#
# Elastic Compliance Matrix: (Units=1/GPa)
#
#
# Indices 1 2 3 4 5 6 
#
# 1 0.007991 -0.008374 0.004008 0.000000 0.000000 0.000000
# 2 -0.008374 0.033628 -0.026717 0.000000 0.000000 0.000000
# 3 0.004008 -0.026717 0.060862 0.000000 0.000000 0.000000
# 4 0.000000 0.000000 0.000000 0.057012 0.000000 0.000000
# 5 0.000000 0.000000 0.000000 0.000000 0.033506 0.000000
# 6 0.000000 0.000000 0.000000 0.000000 0.000000 0.028262
#
#
# Mechanical properties :
#
#
# Convention : Reuss Voigt Hill
#
# Bulk Modulus (GPa) = 24.80548 48.67090 36.73819
# Shear Modulus (GPa) = 16.84249 28.16772 22.50511
#
# Velocity S-wave (km/s) = 2.72503 3.52407 3.14999
# Velocity P-wave (km/s) = 4.56483 6.16584 5.42472
#
# Compressibility (1/GPa) = 0.04031367
#
# Stress axis : x y z
#
# Youngs Moduli (GPa) = 125.14228 29.73674 16.43049
#
# Poissons Ratio (x) = 0.24903 -0.06585
# Poissons Ratio (y) = 1.04800 0.43898
# Poissons Ratio (z) = -0.50153 0.79448
#
# Static dielectric constant tensor:
#      x y z
#    x 1.820750 0.000000 0.000000 
#    y 0.000000 1.834870 0.000000 
#    z 0.000000 0.000000 2.012190 
# 
# From -- ./inp_files/14282.got.cif
#   From: 2010.05.17/outbox.cif.g08.bks.cpg/sg39_8_cif.got.tgz:14282.got - 2010.06.03 18:22:40.
