data_PCOD9360563
_publ_section_title
;
Structure prediction by ZEFSAII (Michael W. Deem and Ramdas Pophale) SiO2 
 PCOD9360563
Probable space group: A B M 2
;
_chemical_formula_sum "Si O2"
_cell_formula_units_Z 56
_cell_length_a 20.796381
_cell_length_b 9.067396
_cell_length_c 15.086470
_cell_angle_alpha 90.000000
_cell_angle_beta 90.000000
_cell_angle_gamma 90.000000
_cell_volume 2844.840892
_symmetry_space_group_name_H-M "A B M 2"
_symmetry_group_IT_number 39
_symmetry_cell_setting 'orthorhombic'
loop_
_space_group_symop_operation_xyz
x,y,z
-x,-y,z
-x,1/2+y,z
x,1/2-y,z
x,1/2+y,1/2+z
-x,1/2-y,1/2+z
-x,y,1/2+z
x,-y,1/2+z
loop_
_atom_site_type_symbol
_atom_site_label
_atom_site_fract_x
_atom_site_fract_y
_atom_site_fract_z
Si Si1 0.068996 0.926863 0.695340
Si Si2 0.562673 0.583507 0.290103
Si Si3 0.304444 0.417175 0.543351
Si Si4 0.826942 0.072898 0.545723
Si Si5 0.161040 0.570348 0.853745
Si Si6 0.700485 0.582898 0.330367
Si Si7 0.436912 0.584016 0.577782
O O1 0.061980 0.750000 0.694098
O O2 0.118233 0.965979 0.616542
O O3 0.103116 0.966768 0.788240
O O4 0.000000 0.000000 0.685087
O O5 0.500000 0.500000 0.324369
O O6 0.564311 0.750000 0.327843
O O7 0.632509 0.510734 0.306140
O O8 0.555905 0.594130 0.184201
O O9 0.304006 0.250000 0.578135
O O10 0.242310 0.508094 0.574322
O O11 0.298602 0.409253 0.436788
O O12 0.371499 0.496225 0.561938
O O13 0.822405 0.250000 0.539224
O O14 0.843557 0.003478 0.449880
O O15 0.164448 0.750000 0.863190
O O16 0.229078 0.521753 0.809056
O O17 0.697859 0.750000 0.292308
O O18 0.500000 0.500000 0.543651
O O19 0.432832 0.750000 0.541912
#
# Coordination Sequence:
#
# PCOD9360563 Si02
#       7
#     8   8   8   8   8   8   8
#     4  10  23  40  62  89 119 155 194 234 285 350
#     4   9  18  32  50  71  99 137 177 223 271 325
#     4  10  20  35  55  79 109 144 184 231 285 342
#     4  10  21  38  60  88 119 153 194 240 289 343
#     4   9  19  38  61  84 114 153 193 236 287 342
#     4   8  16  32  54  75  98 135 180 220 271 329
#     4  10  20  33  51  74 105 143 185 233 283 338
#
# _framework density 19.684756
#
# number of rings (size 3 to 8) (size 9 to 14) (size 15 to 20)
#    0.000    2.571    0.000    2.143    2.000    3.429 
#    0.000    7.857    0.000    0.000    0.000    0.000 
#    0.000    0.000    0.000    0.000    0.000    0.000 
#
# Total GULP energy -156157.463788 kJ/mol
# GULP energy per Si atom -5577.052278 kJ/mol
# Density = 1.963995 g / cm^3
# Si number density = 19.684756 Si / 1000 Ang^3
#
#
#
# Elastic Constant Matrix: (Units=GPa)
#
#
# Indices 1 2 3 4 5 6 
#
# 1 205.8646 76.0044 47.7917 0.0000 0.0000 0.0000
# 2 76.0044 79.2734 31.2012 0.0000 0.0000 0.0000
# 3 47.7917 31.2012 51.4823 0.0000 0.0000 0.0000
# 4 0.0000 0.0000 0.0000 18.4144 0.0000 0.0000
# 5 0.0000 0.0000 0.0000 0.0000 47.4867 0.0000
# 6 0.0000 0.0000 0.0000 0.0000 0.0000 36.1069
#
#
#
# Elastic Compliance Matrix: (Units=1/GPa)
#
#
# Indices 1 2 3 4 5 6 
#
# 1 0.008010 -0.006242 -0.003653 0.000000 0.000000 0.000000
# 2 -0.006242 0.021431 -0.007194 0.000000 0.000000 0.000000
# 3 -0.003653 -0.007194 0.027175 0.000000 0.000000 0.000000
# 4 0.000000 0.000000 0.000000 0.054305 0.000000 0.000000
# 5 0.000000 0.000000 0.000000 0.000000 0.021059 0.000000
# 6 0.000000 0.000000 0.000000 0.000000 0.000000 0.027696
#
#
# Mechanical properties :
#
#
# Convention : Reuss Voigt Hill
#
# Bulk Modulus (GPa) = 44.56608 71.84611 58.20609
# Shear Modulus (GPa) = 24.83467 32.50977 28.67222
#
# Velocity S-wave (km/s) = 3.55578 4.06830 3.82064
# Velocity P-wave (km/s) = 6.28865 7.65805 7.00688
#
# Compressibility (1/GPa) = 0.02243859
#
# Stress axis : x y z
#
# Youngs Moduli (GPa) = 124.84177 46.66231 36.79877
#
# Poissons Ratio (x) = 0.29127 0.13442
# Poissons Ratio (y) = 0.77928 0.26471
# Poissons Ratio (z) = 0.45603 0.33567
#
# Static dielectric constant tensor:
#      x y z
#    x 1.683630 0.000000 0.000000 
#    y 0.000000 1.704660 0.000000 
#    z 0.000000 0.000000 1.699790 
# 
# From -- ./inp_files/10371.got.cif
#   From: 2010.05.17/outbox.cif.g08.bks.cpg/sg39_6_cif.got.tgz:10371.got - 2010.06.03 18:22:40.
