data_PCOD9360224
_publ_section_title
;
Structure prediction by ZEFSAII (Michael W. Deem and Ramdas Pophale) SiO2 
 PCOD9360224
Probable space group: A B M 2
;
_chemical_formula_sum "Si O2"
_cell_formula_units_Z 48
_cell_length_a 9.286763
_cell_length_b 8.197905
_cell_length_c 32.600638
_cell_angle_alpha 90.000000
_cell_angle_beta 90.000000
_cell_angle_gamma 90.000000
_cell_volume 2481.951799
_symmetry_space_group_name_H-M "A B M 2"
_symmetry_group_IT_number 39
_symmetry_cell_setting 'orthorhombic'
loop_
_space_group_symop_operation_xyz
x,y,z
-x,-y,z
-x,1/2+y,z
x,1/2-y,z
x,1/2+y,1/2+z
-x,1/2-y,1/2+z
-x,y,1/2+z
x,-y,1/2+z
loop_
_atom_site_type_symbol
_atom_site_label
_atom_site_fract_x
_atom_site_fract_y
_atom_site_fract_z
Si Si1 0.664379 0.944398 0.577050
Si Si2 0.335200 0.947182 0.238073
Si Si3 0.834883 0.447293 0.157167
Si Si4 0.833120 0.946701 0.907669
Si Si5 0.833734 0.945381 0.996993
Si Si6 0.166512 0.552573 0.318369
O O1 0.666684 0.750000 0.579094
O O2 0.753616 0.007579 0.616338
O O3 0.500000 0.000000 0.578711
O O4 0.740110 0.995413 0.534896
O O5 0.330342 0.750000 0.238327
O O6 0.247284 0.003947 0.198114
O O7 0.259333 0.006108 0.279900
O O8 0.500000 0.000000 0.235858
O O9 0.830749 0.250000 0.156999
O O10 0.000000 0.500000 0.157337
O O11 0.825382 0.750000 0.907698
O O12 0.776553 0.003289 0.863275
O O13 0.777271 0.003667 0.952099
O O14 0.000000 0.000000 0.907578
O O15 0.832345 0.750000 0.996914
O O16 0.000000 0.000000 0.001548
O O17 0.168849 0.750000 0.318197
O O18 0.000000 0.500000 0.314080
#
# Coordination Sequence:
#
# PCOD9360224 Si02
#       6
#     8   8   8   8   8   8
#     4  11  23  38  55  77 106 139 175 214 261 313
#     4  10  21  36  53  76 106 138 171 208 253 305
#     4  10  22  38  57  81 105 132 169 212 256 305
#     4   8  15  28  48  74 103 134 169 213 258 299
#     4  10  19  33  54  79 107 139 177 219 262 308
#     4   9  17  31  52  77 104 134 172 214 255 302
#
# _framework density 19.33962
#
# number of rings (size 3 to 8) (size 9 to 14) (size 15 to 20)
#    0.000    2.333    0.000    2.500    0.000    4.667 
#    0.000    0.833    0.000    2.000    0.000    0.000 
#    0.000    0.000    0.000    0.000    0.000    0.000 
#
# Total GULP energy -133875.418887 kJ/mol
# GULP energy per Si atom -5578.142454 kJ/mol
# Density = 1.929560 g / cm^3
# Si number density = 19.339620 Si / 1000 Ang^3
#
#
#
# Elastic Constant Matrix: (Units=GPa)
#
#
# Indices 1 2 3 4 5 6 
#
# 1 132.1192 9.4884 116.1203 0.0000 0.0000 0.0000
# 2 9.4884 16.2885 24.2206 0.0000 0.0000 0.0000
# 3 116.1203 24.2206 253.6491 0.0000 0.0000 0.0000
# 4 0.0000 0.0000 0.0000 18.3465 0.0000 0.0000
# 5 0.0000 0.0000 0.0000 0.0000 -6.4803 0.0000
# 6 0.0000 0.0000 0.0000 0.0000 0.0000 30.7671
#
#
#
# Elastic Compliance Matrix: (Units=1/GPa)
#
#
# Indices 1 2 3 4 5 6 
#
# 1 0.012694 0.001453 -0.005950 0.000000 0.000000 0.000000
# 2 0.001453 0.071719 -0.007514 0.000000 0.000000 0.000000
# 3 -0.005950 -0.007514 0.007384 0.000000 0.000000 0.000000
# 4 0.000000 0.000000 0.000000 0.054506 0.000000 0.000000
# 5 0.000000 0.000000 0.000000 0.000000 -0.154315 0.000000
# 6 0.000000 0.000000 0.000000 0.000000 0.000000 0.032502
#
#
# Mechanical properties :
#
#
# Convention : Reuss Voigt Hill
#
# Bulk Modulus (GPa) = 14.75447 77.96836 46.36141
# Shear Modulus (GPa) = 70.31871 25.34182 47.83027
#
# Velocity S-wave (km/s) = 6.03646 3.62381 4.97850
# Velocity P-wave (km/s) = 7.49872 7.61001 7.55457
#
# Compressibility (1/GPa) = 0.06777608
#
# Stress axis : x y z
#
# Youngs Moduli (GPa) = 78.77627 13.94325 135.43004
#
# Poissons Ratio (x) = -0.02026 0.80583
# Poissons Ratio (y) = -0.11447 1.01757
# Poissons Ratio (z) = 0.46873 0.10476
#
# Static dielectric constant tensor:
#      x y z
#    x 1.606130 0.000000 0.000000 
#    y 0.000000 1.664970 0.000000 
#    z 0.000000 0.000000 1.733190 
# 
# From -- ./inp_files/17577.got.cif
#   From: 2010.05.17/outbox.cif.g08.bks.cpg/sg39_9_cif.got.tgz:17577.got - 2010.06.03 18:22:40.
