data_PCOD9360817
_publ_section_title
;
Structure prediction by ZEFSAII (Michael W. Deem and Ramdas Pophale) SiO2 
 PCOD9360817
Probable space group: A B M 2
;
_chemical_formula_sum "Si O2"
_cell_formula_units_Z 56
_cell_length_a 24.379374
_cell_length_b 8.987589
_cell_length_c 14.667880
_cell_angle_alpha 90.000000
_cell_angle_beta 90.000000
_cell_angle_gamma 90.000000
_cell_volume 3213.905495
_symmetry_space_group_name_H-M "A B M 2"
_symmetry_group_IT_number 39
_symmetry_cell_setting 'orthorhombic'
loop_
_space_group_symop_operation_xyz
x,y,z
-x,-y,z
-x,1/2+y,z
x,1/2-y,z
x,1/2+y,1/2+z
-x,1/2-y,1/2+z
-x,y,1/2+z
x,-y,1/2+z
loop_
_atom_site_type_symbol
_atom_site_label
_atom_site_fract_x
_atom_site_fract_y
_atom_site_fract_z
Si Si1 0.559687 0.429438 0.889050
Si Si2 0.648216 0.070954 0.039499
Si Si3 0.057975 0.571824 0.750309
Si Si4 0.056758 0.073086 0.036390
Si Si5 0.737547 0.429204 0.888986
Si Si6 0.856841 0.071301 0.385826
Si Si7 0.351976 0.570973 0.738428
O O1 0.500000 0.500000 0.889215
O O2 0.555691 0.250000 0.889057
O O3 0.595371 0.472175 0.799956
O O4 0.595572 0.472165 0.977917
O O5 0.647610 0.250000 0.047709
O O6 0.648474 0.000092 0.138991
O O7 0.701164 0.031364 0.977829
O O8 0.056387 0.750000 0.762919
O O9 0.064481 0.538420 0.642841
O O10 0.107795 0.499664 0.804666
O O11 0.000000 0.500000 0.779276
O O12 0.050322 0.250000 0.028010
O O13 0.108739 0.028967 0.976306
O O14 0.000000 0.000000 0.004995
O O15 0.744376 0.250000 0.888901
O O16 0.795819 0.507917 0.888327
O O17 0.700941 0.468145 0.800259
O O18 0.855871 0.250000 0.378174
O O19 0.352636 0.750000 0.729969
#
# Coordination Sequence:
#
# PCOD9360817 Si02
#       7
#     8   8   8   8   8   8   8
#     4   9  19  35  53  78 111 142 173 213 257 307
#     4   9  19  36  56  77 104 138 176 215 259 307
#     4  10  20  36  55  76 104 137 170 209 258 311
#     4   9  20  36  53  74 102 133 166 205 252 305
#     4   9  20  38  54  72 102 138 172 212 260 308
#     4  11  22  35  53  79 105 133 172 215 258 308
#     4   9  19  36  56  76 103 139 176 213 259 308
#
# _framework density 17.424282999999999
#
# number of rings (size 3 to 8) (size 9 to 14) (size 15 to 20)
#    0.000    2.571    0.000    3.000    0.000    6.857 
#    0.000   10.000    0.000    0.000    0.000    0.000 
#    0.000    0.000    0.000    0.000    0.000    0.000 
#
# Total GULP energy -156215.964449 kJ/mol
# GULP energy per Si atom -5579.141587 kJ/mol
# Density = 1.738462 g / cm^3
# Si number density = 17.424283 Si / 1000 Ang^3
#
#
#
# Elastic Constant Matrix: (Units=GPa)
#
#
# Indices 1 2 3 4 5 6 
#
# 1 199.3416 63.4394 104.3264 0.0000 0.0000 0.0000
# 2 63.4394 36.8828 56.4710 0.0000 0.0000 0.0000
# 3 104.3264 56.4710 162.3157 0.0000 0.0000 0.0000
# 4 0.0000 0.0000 0.0000 31.5300 0.0000 0.0000
# 5 0.0000 0.0000 0.0000 0.0000 14.4540 0.0000
# 6 0.0000 0.0000 0.0000 0.0000 0.0000 37.7751
#
#
#
# Elastic Compliance Matrix: (Units=1/GPa)
#
#
# Indices 1 2 3 4 5 6 
#
# 1 0.011168 -0.017587 -0.001059 0.000000 0.000000 0.000000
# 2 -0.017587 0.085715 -0.018517 0.000000 0.000000 0.000000
# 3 -0.001059 -0.018517 0.013284 0.000000 0.000000 0.000000
# 4 0.000000 0.000000 0.000000 0.031716 0.000000 0.000000
# 5 0.000000 0.000000 0.000000 0.000000 0.069185 0.000000
# 6 0.000000 0.000000 0.000000 0.000000 0.000000 0.026472
#
#
# Mechanical properties :
#
#
# Convention : Reuss Voigt Hill
#
# Bulk Modulus (GPa) = 27.90212 94.11265 61.00738
# Shear Modulus (GPa) = 15.44099 28.37203 21.90651
#
# Velocity S-wave (km/s) = 2.98010 4.03960 3.54961
# Velocity P-wave (km/s) = 5.28105 8.71134 7.20336
#
# Compressibility (1/GPa) = 0.03583957
#
# Stress axis : x y z
#
# Youngs Moduli (GPa) = 89.54151 11.66661 75.27952
#
# Poissons Ratio (x) = 0.20519 0.07974
# Poissons Ratio (y) = 1.57480 1.39393
# Poissons Ratio (z) = 0.09485 0.21603
#
# Static dielectric constant tensor:
#      x y z
#    x 1.565150 0.000000 0.000000 
#    y 0.000000 1.581860 0.000000 
#    z 0.000000 0.000000 1.592830 
# 
# From -- ./inp_files/10345.got.cif
#   From: 2010.05.17/outbox.cif.g08.bks.cpg/sg39_6_cif.got.tgz:10345.got - 2010.06.03 18:22:40.
