data_PCOD9360004
_publ_section_title
;
Structure prediction by ZEFSAII (Michael W. Deem and Ramdas Pophale) SiO2 
 PCOD9360004
Probable space group: A B M 2
;
_chemical_formula_sum "Si O2"
_cell_formula_units_Z 64
_cell_length_a 12.340447
_cell_length_b 17.645903
_cell_length_c 14.866413
_cell_angle_alpha 90.000000
_cell_angle_beta 90.000000
_cell_angle_gamma 90.000000
_cell_volume 3237.285279
_symmetry_space_group_name_H-M "A B M 2"
_symmetry_group_IT_number 39
_symmetry_cell_setting 'orthorhombic'
loop_
_space_group_symop_operation_xyz
x,y,z
-x,-y,z
-x,1/2+y,z
x,1/2-y,z
x,1/2+y,1/2+z
-x,1/2-y,1/2+z
-x,y,1/2+z
x,-y,1/2+z
loop_
_atom_site_type_symbol
_atom_site_label
_atom_site_fract_x
_atom_site_fract_y
_atom_site_fract_z
Si Si1 0.431540 0.607941 0.843680
Si Si2 0.387044 0.167388 0.530515
Si Si3 0.667009 0.454984 0.374880
Si Si4 0.160047 0.879674 0.108579
Si Si5 0.232186 0.955902 0.568272
Si Si6 0.974761 0.590258 0.973033
Si Si7 0.452887 0.416932 0.156050
Si Si8 0.850690 0.160830 0.310263
O O1 0.353344 0.535349 0.827453
O O2 0.548184 0.581339 0.881458
O O3 0.457646 0.636336 0.743855
O O4 0.379947 0.655635 0.923462
O O5 0.433100 0.250000 0.547986
O O6 0.271085 0.159008 0.577435
O O7 0.467790 0.108902 0.577065
O O8 0.714297 0.476789 0.472103
O O9 0.747604 0.394498 0.329719
O O10 0.121580 0.849775 0.205101
O O11 0.188324 0.969067 0.116396
O O12 0.073606 0.874269 0.028160
O O13 0.129598 0.906128 0.539116
O O14 0.329952 0.919844 0.622728
O O15 0.941607 0.630568 0.880129
O O16 0.000000 0.500000 0.958126
O O17 0.500000 0.500000 0.181417
O O18 0.827995 0.250000 0.327261
#
# Coordination Sequence:
#
# PCOD9360004 Si02
#       8
#     8   8   8   8   8   8   8   8
#     4  11  21  36  61  91 126 167 204 251 305 365
#     4  12  26  40  61  94 130 165 202 257 315 371
#     4  10  18  37  60  90 125 160 210 247 298 372
#     4  11  21  41  64  90 129 160 206 258 314 373
#     4  10  19  37  65  91 121 160 211 261 303 359
#     4   9  23  43  66  93 120 165 214 265 308 369
#     4  12  20  36  66  93 123 165 205 249 303 374
#     4  11  24  40  65  96 125 164 209 261 321 375
#
# _framework density 19.769652000000001
#
# number of rings (size 3 to 8) (size 9 to 14) (size 15 to 20)
#    0.000    1.250    5.000    1.875    0.000    3.500 
#    2.250    0.000    0.000    0.000    0.000    0.000 
#    0.000    0.000    0.000    0.000    0.000    0.000 
#
# Total GULP energy -178508.227499 kJ/mol
# GULP energy per Si atom -5578.382109 kJ/mol
# Density = 1.972466 g / cm^3
# Si number density = 19.769652 Si / 1000 Ang^3
#
#
#
# Elastic Constant Matrix: (Units=GPa)
#
#
# Indices 1 2 3 4 5 6 
#
# 1 90.4142 11.4077 36.2398 0.0000 0.0000 0.0000
# 2 11.4077 50.5027 28.4455 0.0000 0.0000 0.0000
# 3 36.2398 28.4455 122.0272 0.0000 0.0000 0.0000
# 4 0.0000 0.0000 0.0000 9.3417 0.0000 0.0000
# 5 0.0000 0.0000 0.0000 0.0000 28.2080 0.0000
# 6 0.0000 0.0000 0.0000 0.0000 0.0000 2.4256
#
#
#
# Elastic Compliance Matrix: (Units=1/GPa)
#
#
# Indices 1 2 3 4 5 6 
#
# 1 0.012586 -0.000849 -0.003540 0.000000 0.000000 0.000000
# 2 -0.000849 0.022851 -0.005075 0.000000 0.000000 0.000000
# 3 -0.003540 -0.005075 0.010429 0.000000 0.000000 0.000000
# 4 0.000000 0.000000 0.000000 0.107046 0.000000 0.000000
# 5 0.000000 0.000000 0.000000 0.000000 0.035451 0.000000
# 6 0.000000 0.000000 0.000000 0.000000 0.000000 0.412276
#
#
# Mechanical properties :
#
#
# Convention : Reuss Voigt Hill
#
# Bulk Modulus (GPa) = 37.12091 46.12557 41.62324
# Shear Modulus (GPa) = 7.95486 20.45179 14.20333
#
# Velocity S-wave (km/s) = 2.00811 3.21986 2.68328
# Velocity P-wave (km/s) = 4.91876 6.09963 5.54074
#
# Compressibility (1/GPa) = 0.02693899
#
# Stress axis : x y z
#
# Youngs Moduli (GPa) = 79.45197 43.76182 95.88554
#
# Poissons Ratio (x) = 0.03716 0.33943
# Poissons Ratio (y) = 0.06747 0.48658
# Poissons Ratio (z) = 0.28125 0.22207
#
# Static dielectric constant tensor:
#      x y z
#    x 1.689200 0.000000 0.000000 
#    y 0.000000 1.707730 0.000000 
#    z 0.000000 0.000000 1.705090 
# 
# From -- ./inp_files/9470.got.cif
#   From: 2010.05.17/outbox.cif.g08.bks.cpg/sg39_5_cif.got.tgz:9470.got - 2010.06.03 18:22:40.
