data_PCOD9360732
_publ_section_title
;
Structure prediction by ZEFSAII (Michael W. Deem and Ramdas Pophale) SiO2 
 PCOD9360732
Probable space group: A B M 2
;
_chemical_formula_sum "Si O2"
_cell_formula_units_Z 64
_cell_length_a 8.770361
_cell_length_b 16.731755
_cell_length_c 23.613126
_cell_angle_alpha 90.000000
_cell_angle_beta 90.000000
_cell_angle_gamma 90.000000
_cell_volume 3465.073499
_symmetry_space_group_name_H-M "A B M 2"
_symmetry_group_IT_number 39
_symmetry_cell_setting 'orthorhombic'
loop_
_space_group_symop_operation_xyz
x,y,z
-x,-y,z
-x,1/2+y,z
x,1/2-y,z
x,1/2+y,1/2+z
-x,1/2-y,1/2+z
-x,y,1/2+z
x,-y,1/2+z
loop_
_atom_site_type_symbol
_atom_site_label
_atom_site_fract_x
_atom_site_fract_y
_atom_site_fract_z
Si Si1 0.295072 0.340347 0.014370
Si Si2 0.602702 0.920486 0.522959
Si Si3 0.675689 0.976207 0.820307
Si Si4 0.291764 0.073759 0.210044
Si Si5 0.820503 0.011593 0.442242
Si Si6 0.784477 0.583618 0.637811
Si Si7 0.898139 0.341612 0.627247
Si Si8 0.611043 0.342448 0.234725
O O1 0.255441 0.250000 0.998332
O O2 0.477183 0.352719 0.012628
O O3 0.225720 0.354684 0.077250
O O4 0.224480 0.406555 0.973700
O O5 0.691859 0.905135 0.580503
O O6 0.500000 0.000000 0.530370
O O7 0.721932 0.942144 0.473373
O O8 0.770494 0.981745 0.877211
O O9 0.668738 0.889576 0.790222
O O10 0.500000 0.000000 0.832626
O O11 0.737004 0.036374 0.771765
O O12 0.183225 0.142936 0.187190
O O13 0.463034 0.108051 0.212720
O O14 0.261179 0.001317 0.165947
O O15 0.000000 0.000000 0.448094
O O16 0.735051 0.647219 0.685420
O O17 0.960971 0.597829 0.623710
O O18 0.950785 0.250000 0.622016
O O19 0.575161 0.250000 0.244794
#
# Coordination Sequence:
#
# PCOD9360732 Si02
#       8
#     8   8   8   8   8   8   8   8
#     4  10  22  38  58  83 113 149 190 233 281 335
#     4  10  20  35  58  82 107 146 192 231 273 333
#     4   9  20  37  57  80 106 143 192 233 270 325
#     4  10  20  35  56  79 108 148 191 227 268 330
#     4  11  22  39  61  84 111 146 187 236 288 339
#     4  11  20  33  53  82 115 148 184 228 280 335
#     4  11  22  34  52  83 119 151 181 227 287 337
#     4  10  20  35  56  83 113 147 185 229 277 330
#
# _framework density 18.470026000000001
#
# number of rings (size 3 to 8) (size 9 to 14) (size 15 to 20)
#    0.000    1.750    0.000    7.125    0.000    4.500 
#    0.000    0.625    0.000    4.500    0.000    0.000 
#    0.000    0.000    0.000    0.000    0.000    0.000 
#
# Total GULP energy -178599.088257 kJ/mol
# GULP energy per Si atom -5581.221508 kJ/mol
# Density = 1.842799 g / cm^3
# Si number density = 18.470026 Si / 1000 Ang^3
#
#
#
# Elastic Constant Matrix: (Units=GPa)
#
#
# Indices 1 2 3 4 5 6 
#
# 1 113.0504 26.8281 61.9180 0.0000 0.0000 0.0000
# 2 26.8281 83.9369 44.7902 0.0000 0.0000 0.0000
# 3 61.9180 44.7902 107.8858 0.0000 0.0000 0.0000
# 4 0.0000 0.0000 0.0000 13.8634 0.0000 0.0000
# 5 0.0000 0.0000 0.0000 0.0000 -20.8412 0.0000
# 6 0.0000 0.0000 0.0000 0.0000 0.0000 24.0521
#
#
#
# Elastic Compliance Matrix: (Units=1/GPa)
#
#
# Indices 1 2 3 4 5 6 
#
# 1 0.012904 -0.000222 -0.007314 0.000000 0.000000 0.000000
# 2 -0.000222 0.015308 -0.006228 0.000000 0.000000 0.000000
# 3 -0.007314 -0.006228 0.016052 0.000000 0.000000 0.000000
# 4 0.000000 0.000000 0.000000 0.072132 0.000000 0.000000
# 5 0.000000 0.000000 0.000000 0.000000 -0.047982 0.000000
# 6 0.000000 0.000000 0.000000 0.000000 0.000000 0.041576
#
#
# Mechanical properties :
#
#
# Convention : Reuss Voigt Hill
#
# Bulk Modulus (GPa) = 59.74743 63.54951 61.64847
# Shear Modulus (GPa) = 34.94127 14.83733 24.88930
#
# Velocity S-wave (km/s) = 4.35418 2.83736 3.67488
# Velocity P-wave (km/s) = 7.59586 6.72426 7.17331
#
# Compressibility (1/GPa) = 0.01673712
#
# Stress axis : x y z
#
# Youngs Moduli (GPa) = 77.49513 65.32536 62.29609
#
# Poissons Ratio (x) = 0.01447 0.45563
# Poissons Ratio (y) = 0.01717 0.38799
# Poissons Ratio (z) = 0.56679 0.40686
#
# Static dielectric constant tensor:
#      x y z
#    x 1.661190 0.000000 0.000000 
#    y 0.000000 1.661680 0.000000 
#    z 0.000000 0.000000 1.612290 
# 
# From -- ./inp_files/14180.got.cif
#   From: 2010.05.17/outbox.cif.g08.bks.cpg/sg39_8_cif.got.tgz:14180.got - 2010.06.03 18:22:40.
