data_PCOD9360375
_publ_section_title
;
Structure prediction by ZEFSAII (Michael W. Deem and Ramdas Pophale) SiO2 
 PCOD9360375
Probable space group: A B M 2
;
_chemical_formula_sum "Si O2"
_cell_formula_units_Z 56
_cell_length_a 14.895416
_cell_length_b 8.603595
_cell_length_c 26.166555
_cell_angle_alpha 90.000000
_cell_angle_beta 90.000000
_cell_angle_gamma 90.000000
_cell_volume 3353.352003
_symmetry_space_group_name_H-M "A B M 2"
_symmetry_group_IT_number 39
_symmetry_cell_setting 'orthorhombic'
loop_
_space_group_symop_operation_xyz
x,y,z
-x,-y,z
-x,1/2+y,z
x,1/2-y,z
x,1/2+y,1/2+z
-x,1/2-y,1/2+z
-x,y,1/2+z
x,-y,1/2+z
loop_
_atom_site_type_symbol
_atom_site_label
_atom_site_fract_x
_atom_site_fract_y
_atom_site_fract_z
Si Si1 0.904802 0.563064 0.680560
Si Si2 0.288323 0.436976 0.717814
Si Si3 0.598838 0.437211 0.927663
Si Si4 0.400381 0.563208 0.810797
Si Si5 0.095094 0.936982 0.061580
Si Si6 0.712268 0.061325 0.024465
Si Si7 0.601192 0.935853 0.120992
O O1 0.908210 0.750000 0.681123
O O2 0.815307 0.513962 0.710144
O O3 0.895065 0.513567 0.621063
O O4 0.000000 0.500000 0.699751
O O5 0.292121 0.250000 0.715723
O O6 0.330952 0.496327 0.770203
O O7 0.346202 0.502726 0.670706
O O8 0.500000 0.500000 0.940404
O O9 0.595151 0.250000 0.928342
O O10 0.620277 0.484264 0.869400
O O11 0.669223 0.487216 0.970657
O O12 0.500000 0.500000 0.798790
O O13 0.401476 0.750000 0.807845
O O14 0.091806 0.750000 0.060909
O O15 0.184328 0.986897 0.031887
O O16 0.000000 0.000000 0.042384
O O17 0.709145 0.250000 0.027663
O O18 0.653565 0.995320 0.070929
O O19 0.599168 0.750000 0.121585
O O20 0.500000 0.000000 0.120922
#
# Coordination Sequence:
#
# PCOD9360375 Si02
#       7
#     8   8   8   8   8   8   8
#     4   9  18  32  51  74 101 132 166 207 252 301
#     4  11  21  36  54  75 103 136 170 210 258 305
#     4   9  19  34  54  75 101 135 173 213 254 300
#     4  10  20  35  53  77 102 134 176 216 256 301
#     4   9  17  31  50  73 102 133 167 208 251 300
#     4  10  19  35  54  75 104 137 170 210 256 303
#     4  12  24  35  49  73 105 139 169 206 252 306
#
# _framework density 16.699708000000001
#
# number of rings (size 3 to 8) (size 9 to 14) (size 15 to 20)
#    0.000    2.000    1.429    3.000    0.000    4.000 
#    0.000    0.000    0.000    0.857    0.000    4.000 
#    0.000    0.000    0.000    0.000    0.000    0.000 
#
# Total GULP energy -156275.761443 kJ/mol
# GULP energy per Si atom -5581.277194 kJ/mol
# Density = 1.666170 g / cm^3
# Si number density = 16.699708 Si / 1000 Ang^3
#
#
#
# Elastic Constant Matrix: (Units=GPa)
#
#
# Indices 1 2 3 4 5 6 
#
# 1 191.8893 40.0518 98.9748 0.0000 0.0000 0.0000
# 2 40.0518 38.2411 28.0757 0.0000 0.0000 0.0000
# 3 98.9748 28.0757 104.4172 0.0000 0.0000 0.0000
# 4 0.0000 0.0000 0.0000 18.9957 0.0000 0.0000
# 5 0.0000 0.0000 0.0000 0.0000 19.2331 0.0000
# 6 0.0000 0.0000 0.0000 0.0000 0.0000 28.4735
#
#
#
# Elastic Compliance Matrix: (Units=1/GPa)
#
#
# Indices 1 2 3 4 5 6 
#
# 1 0.010847 -0.004750 -0.009005 0.000000 0.000000 0.000000
# 2 -0.004750 0.034662 -0.004818 0.000000 0.000000 0.000000
# 3 -0.009005 -0.004818 0.019408 0.000000 0.000000 0.000000
# 4 0.000000 0.000000 0.000000 0.052643 0.000000 0.000000
# 5 0.000000 0.000000 0.000000 0.000000 0.051994 0.000000
# 6 0.000000 0.000000 0.000000 0.000000 0.000000 0.035120
#
#
# Mechanical properties :
#
#
# Convention : Reuss Voigt Hill
#
# Bulk Modulus (GPa) = 36.00710 74.30580 55.15645
# Shear Modulus (GPa) = 19.91428 24.50348 22.20888
#
# Velocity S-wave (km/s) = 3.45700 3.83469 3.65073
# Velocity P-wave (km/s) = 6.12721 8.01239 7.13236
#
# Compressibility (1/GPa) = 0.02777230
#
# Stress axis : x y z
#
# Youngs Moduli (GPa) = 92.18830 28.85041 51.52569
#
# Poissons Ratio (x) = 0.13704 0.46398
# Poissons Ratio (y) = 0.43788 0.24823
# Poissons Ratio (z) = 0.83014 0.13899
#
# Static dielectric constant tensor:
#      x y z
#    x 1.552760 0.000000 0.000000 
#    y 0.000000 1.571520 0.000000 
#    z 0.000000 0.000000 1.550460 
# 
# From -- ./inp_files/14803.got.cif
#   From: 2010.05.17/outbox.cif.g08.bks.cpg/sg39_8_cif.got.tgz:14803.got - 2010.06.03 18:22:40.
