data_PCOD9360062
_publ_section_title
;
Structure prediction by ZEFSAII (Michael W. Deem and Ramdas Pophale) SiO2 
 PCOD9360062
Probable space group: A B M 2
;
_chemical_formula_sum "Si O2"
_cell_formula_units_Z 48
_cell_length_a 26.141589
_cell_length_b 14.326783
_cell_length_c 5.282843
_cell_angle_alpha 90.000000
_cell_angle_beta 90.000000
_cell_angle_gamma 90.000000
_cell_volume 1978.556103
_symmetry_space_group_name_H-M "A B M 2"
_symmetry_group_IT_number 39
_symmetry_cell_setting 'orthorhombic'
loop_
_space_group_symop_operation_xyz
x,y,z
-x,-y,z
-x,1/2+y,z
x,1/2-y,z
x,1/2+y,1/2+z
-x,1/2-y,1/2+z
-x,y,1/2+z
x,-y,1/2+z
loop_
_atom_site_type_symbol
_atom_site_label
_atom_site_fract_x
_atom_site_fract_y
_atom_site_fract_z
Si Si1 0.528833 0.137032 0.603160
Si Si2 0.029297 0.363990 0.245912
Si Si3 0.201347 0.863036 0.105909
Si Si4 0.315495 0.895763 0.271566
Si Si5 0.642888 0.395675 0.771561
Si Si6 0.143136 0.863903 0.606872
O O1 0.530795 0.250000 0.604708
O O2 0.510423 0.108150 0.324830
O O3 0.584898 0.103522 0.679457
O O4 0.030477 0.250000 0.247030
O O5 0.086253 0.395996 0.177185
O O6 0.009397 0.391815 0.522034
O O7 0.203526 0.750000 0.105180
O O8 0.257478 0.896826 0.179784
O O9 0.162245 0.890960 0.328756
O O10 0.182000 0.892525 0.829648
O O11 0.323287 0.852090 0.547446
O O12 0.336366 0.000003 0.312372
O O13 0.349253 0.852044 0.047431
O O14 0.141991 0.750000 0.608308
#
# Coordination Sequence:
#
# PCOD9360062 Si02
#       6
#     8   8   8   8   8   8
#     4  10  21  38  60  85 111 137 166 202 246 301
#     4   9  15  23  37  58  88 129 171 209 256 313
#     4  10  19  31  48  69  97 135 176 217 259 302
#     4  10  21  36  52  75 103 137 174 214 259 300
#     4  10  21  38  56  78 107 136 167 209 253 300
#     4   9  17  28  42  65  96 132 176 219 261 310
#
# _framework density 24.260114999999999
#
# number of rings (size 3 to 8) (size 9 to 14) (size 15 to 20)
#    0.000    2.333    0.000    3.000    0.000    5.333 
#    0.000   10.000    0.000    0.000    0.000    0.000 
#    0.000    0.000    0.000  210.000    0.000   93.333 
#
# Total GULP energy -134303.594712 kJ/mol
# GULP energy per Si atom -5595.983113 kJ/mol
# Density = 2.420490 g / cm^3
# Si number density = 24.260115 Si / 1000 Ang^3
#
#
#
# Elastic Constant Matrix: (Units=GPa)
#
#
# Indices 1 2 3 4 5 6 
#
# 1 61.2747 -8.0887 -36.8687 0.0000 0.0000 0.0000
# 2 -8.0887 101.0760 -13.4954 0.0000 0.0000 0.0000
# 3 -36.8687 -13.4954 102.8621 0.0000 0.0000 0.0000
# 4 0.0000 0.0000 0.0000 -11.2584 0.0000 0.0000
# 5 0.0000 0.0000 0.0000 0.0000 50.1343 0.0000
# 6 0.0000 0.0000 0.0000 0.0000 0.0000 24.8583
#
#
#
# Elastic Compliance Matrix: (Units=1/GPa)
#
#
# Indices 1 2 3 4 5 6 
#
# 1 0.021562 0.002807 0.008097 0.000000 0.000000 0.000000
# 2 0.002807 0.010435 0.002375 0.000000 0.000000 0.000000
# 3 0.008097 0.002375 0.012935 0.000000 0.000000 0.000000
# 4 0.000000 0.000000 0.000000 -0.088823 0.000000 0.000000
# 5 0.000000 0.000000 0.000000 0.000000 0.019946 0.000000
# 6 0.000000 0.000000 0.000000 0.000000 0.000000 0.040228
#
#
# Mechanical properties :
#
#
# Convention : Reuss Voigt Hill
#
# Bulk Modulus (GPa) = 13.98802 16.47857 15.23330
# Shear Modulus (GPa) = 368.79040 34.32456 201.55748
#
# Velocity S-wave (km/s) = 12.34282 3.76554 9.12481
# Velocity P-wave (km/s) = 14.45355 5.07079 10.83093
#
# Compressibility (1/GPa) = 0.07148973
#
# Stress axis : x y z
#
# Youngs Moduli (GPa) = 46.37743 95.82901 77.30683
#
# Poissons Ratio (x) = -0.26895 -0.62593
# Poissons Ratio (y) = -0.13016 -0.18361
# Poissons Ratio (z) = -0.37551 -0.22760
#
# Static dielectric constant tensor:
#      x y z
#    x 1.854560 0.000000 0.000000 
#    y 0.000000 1.795100 0.000000 
#    z 0.000000 0.000000 1.967460 
# 
# From -- ./inp_files/1039.got.cif
#   From: 2010.05.17/outbox.cif.g08.bks.cpg/sg39_1_cif.got.tgz:1039.got - 2010.06.03 18:22:40.
