data_PCOD9360999
_publ_section_title
;
Structure prediction by ZEFSAII (Michael W. Deem and Ramdas Pophale) SiO2 
 PCOD9360999
Probable space group: A B M 2
;
_chemical_formula_sum "Si O2"
_cell_formula_units_Z 32
_cell_length_a 8.106536
_cell_length_b 22.420777
_cell_length_c 8.686442
_cell_angle_alpha 90.000000
_cell_angle_beta 90.000000
_cell_angle_gamma 90.000000
_cell_volume 1578.802840
_symmetry_space_group_name_H-M "A B M 2"
_symmetry_group_IT_number 39
_symmetry_cell_setting 'orthorhombic'
loop_
_space_group_symop_operation_xyz
x,y,z
-x,-y,z
-x,1/2+y,z
x,1/2-y,z
x,1/2+y,1/2+z
-x,1/2-y,1/2+z
-x,y,1/2+z
x,-y,1/2+z
loop_
_atom_site_type_symbol
_atom_site_label
_atom_site_fract_x
_atom_site_fract_y
_atom_site_fract_z
Si Si1 0.647014 0.318294 0.876590
Si Si2 0.354809 0.128587 0.049933
Si Si3 0.313799 0.430066 0.555626
Si Si4 0.174755 0.468367 0.874567
O O1 0.680248 0.250000 0.914669
O O2 0.682288 0.331911 0.698380
O O3 0.454920 0.333938 0.919749
O O4 0.740402 0.367130 0.980539
O O5 0.497701 0.082176 0.104305
O O6 0.208568 0.089591 0.979662
O O7 0.207655 0.449683 0.700234
O O8 0.301956 0.480553 0.426983
O O9 0.000000 0.500000 0.893710
#
# Coordination Sequence:
#
# PCOD9360999 Si02
#       4
#     8   8   8   8
#     4  10  20  37  66  95 126 164 221 269 304 368
#     4  10  20  37  62  96 124 163 215 261 318 376
#     4  10  22  38  59  92 129 163 215 259 317 383
#     4  12  23  39  62  94 132 168 205 269 333 387
#
# _framework density 20.268522999999998
#
# number of rings (size 3 to 8) (size 9 to 14) (size 15 to 20)
#    1.500    0.000    2.500    3.750    0.000    2.000 
#    0.000    1.250    0.000    7.500    0.000    0.000 
#    0.000    0.000    0.000    0.000    0.000    0.000 
#
# Total GULP energy -89217.623061 kJ/mol
# GULP energy per Si atom -5576.101441 kJ/mol
# Density = 2.022239 g / cm^3
# Si number density = 20.268523 Si / 1000 Ang^3
#
#
#
# Elastic Constant Matrix: (Units=GPa)
#
#
# Indices 1 2 3 4 5 6 
#
# 1 25.7194 5.5843 15.9428 0.0000 0.0000 0.0000
# 2 5.5843 146.9244 65.5696 0.0000 0.0000 0.0000
# 3 15.9428 65.5696 120.1467 0.0000 0.0000 0.0000
# 4 0.0000 0.0000 0.0000 34.3477 0.0000 0.0000
# 5 0.0000 0.0000 0.0000 0.0000 15.9023 0.0000
# 6 0.0000 0.0000 0.0000 0.0000 0.0000 13.6159
#
#
#
# Elastic Compliance Matrix: (Units=1/GPa)
#
#
# Indices 1 2 3 4 5 6 
#
# 1 0.042523 0.001192 -0.006293 0.000000 0.000000 0.000000
# 2 0.001192 0.009031 -0.005087 0.000000 0.000000 0.000000
# 3 -0.006293 -0.005087 0.011934 0.000000 0.000000 0.000000
# 4 0.000000 0.000000 0.000000 0.029114 0.000000 0.000000
# 5 0.000000 0.000000 0.000000 0.000000 0.062884 0.000000
# 6 0.000000 0.000000 0.000000 0.000000 0.000000 0.073443
#
#
# Mechanical properties :
#
#
# Convention : Reuss Voigt Hill
#
# Bulk Modulus (GPa) = 23.19479 51.88709 37.54094
# Shear Modulus (GPa) = 18.96258 26.48610 22.72434
#
# Velocity S-wave (km/s) = 3.06202 3.61884 3.35201
# Velocity P-wave (km/s) = 4.89591 6.56633 5.79166
#
# Compressibility (1/GPa) = 0.04311312
#
# Stress axis : x y z
#
# Youngs Moduli (GPa) = 23.51649 110.72851 83.79133
#
# Poissons Ratio (x) = -0.13203 0.52733
# Poissons Ratio (y) = -0.02804 0.42624
# Poissons Ratio (z) = 0.14800 0.56327
#
# Static dielectric constant tensor:
#      x y z
#    x 1.758580 0.000000 0.000000 
#    y 0.000000 1.708750 0.000000 
#    z 0.000000 0.000000 1.725080 
# 
# From -- ./inp_files/1984.got.cif
#   From: 2010.05.17/outbox.cif.g08.bks.cpg/sg39_1_cif.got.tgz:1984.got - 2010.06.03 18:22:40.
