data_PCOD9360501
_publ_section_title
;
Structure prediction by ZEFSAII (Michael W. Deem and Ramdas Pophale) SiO2 
 PCOD9360501
Probable space group: A B M 2
;
_chemical_formula_sum "Si O2"
_cell_formula_units_Z 48
_cell_length_a 19.444005
_cell_length_b 8.550748
_cell_length_c 15.511956
_cell_angle_alpha 90.000000
_cell_angle_beta 90.000000
_cell_angle_gamma 90.000000
_cell_volume 2579.030010
_symmetry_space_group_name_H-M "A B M 2"
_symmetry_group_IT_number 39
_symmetry_cell_setting 'orthorhombic'
loop_
_space_group_symop_operation_xyz
x,y,z
-x,-y,z
-x,1/2+y,z
x,1/2-y,z
x,1/2+y,1/2+z
-x,1/2-y,1/2+z
-x,y,1/2+z
x,-y,1/2+z
loop_
_atom_site_type_symbol
_atom_site_label
_atom_site_fract_x
_atom_site_fract_y
_atom_site_fract_z
Si Si1 0.178737 0.440351 0.676120
Si Si2 0.680896 0.060706 0.427744
Si Si3 0.169262 0.062429 0.479966
Si Si4 0.923074 0.562476 0.828002
Si Si5 0.423283 0.936937 0.578165
Si Si6 0.332478 0.938815 0.231057
O O1 0.178944 0.250000 0.677328
O O2 0.160714 0.489717 0.579215
O O3 0.124769 0.492548 0.748363
O O4 0.256198 0.489431 0.700428
O O5 0.686714 0.250000 0.430098
O O6 0.626131 0.010310 0.499724
O O7 0.659045 0.016498 0.330942
O O8 0.755456 0.991453 0.448885
O O9 0.165731 0.250000 0.477399
O O10 0.112934 0.993380 0.415745
O O11 0.924024 0.750000 0.826874
O O12 0.000000 0.500000 0.820488
O O13 0.425072 0.750000 0.576829
O O14 0.500000 0.000000 0.568838
O O15 0.388653 0.992846 0.666831
O O16 0.335147 0.750000 0.225724
#
# Coordination Sequence:
#
# PCOD9360501 Si02
#       6
#     8   8   8   8   8   8
#     4   9  19  36  61  87 118 155 194 238 292 349
#     4  10  21  38  61  88 119 156 197 242 293 349
#     4  11  21  36  61  92 119 154 198 242 292 351
#     4  11  23  42  61  86 122 159 196 243 298 350
#     4  11  24  40  59  88 122 157 196 244 298 351
#     4  10  19  38  63  87 117 156 195 242 295 348
#
# _framework density 18.611647999999999
#
# number of rings (size 3 to 8) (size 9 to 14) (size 15 to 20)
#    0.000    1.667    3.333    1.500    0.000    2.667 
#    0.000    6.667    0.000    0.000    0.000    0.000 
#    0.000    0.000    0.000    0.000    0.000    0.000 
#
# Total GULP energy -134086.926681 kJ/mol
# GULP energy per Si atom -5586.955278 kJ/mol
# Density = 1.856929 g / cm^3
# Si number density = 18.611648 Si / 1000 Ang^3
#
#
#
# Elastic Constant Matrix: (Units=GPa)
#
#
# Indices 1 2 3 4 5 6 
#
# 1 101.0024 18.3388 24.2290 0.0000 0.0000 0.0000
# 2 18.3388 25.9174 21.3491 0.0000 0.0000 0.0000
# 3 24.2290 21.3491 117.1873 0.0000 0.0000 0.0000
# 4 0.0000 0.0000 0.0000 21.6458 0.0000 0.0000
# 5 0.0000 0.0000 0.0000 0.0000 33.0533 0.0000
# 6 0.0000 0.0000 0.0000 0.0000 0.0000 33.8997
#
#
#
# Elastic Compliance Matrix: (Units=1/GPa)
#
#
# Indices 1 2 3 4 5 6 
#
# 1 0.011469 -0.007250 -0.001050 0.000000 0.000000 0.000000
# 2 -0.007250 0.049980 -0.007606 0.000000 0.000000 0.000000
# 3 -0.001050 -0.007606 0.010136 0.000000 0.000000 0.000000
# 4 0.000000 0.000000 0.000000 0.046198 0.000000 0.000000
# 5 0.000000 0.000000 0.000000 0.000000 0.030254 0.000000
# 6 0.000000 0.000000 0.000000 0.000000 0.000000 0.029499
#
#
# Mechanical properties :
#
#
# Convention : Reuss Voigt Hill
#
# Bulk Modulus (GPa) = 25.14367 41.32675 33.23521
# Shear Modulus (GPa) = 22.46109 29.73244 26.09676
#
# Velocity S-wave (km/s) = 3.47771 4.00123 3.74862
# Velocity P-wave (km/s) = 5.44655 6.60299 6.05245
#
# Compressibility (1/GPa) = 0.03977145
#
# Stress axis : x y z
#
# Youngs Moduli (GPa) = 87.19058 20.00811 98.65582
#
# Poissons Ratio (x) = 0.14506 0.10364
# Poissons Ratio (y) = 0.63214 0.75040
# Poissons Ratio (z) = 0.09159 0.15219
#
# Static dielectric constant tensor:
#      x y z
#    x 1.598490 0.000000 0.000000 
#    y 0.000000 1.638770 0.000000 
#    z 0.000000 0.000000 1.639850 
# 
# From -- ./inp_files/10024.got.cif
#   From: 2010.05.17/outbox.cif.g08.bks.cpg/sg39_6_cif.got.tgz:10024.got - 2010.06.03 18:22:40.
