data_PCOD9360515
_publ_section_title
;
Structure prediction by ZEFSAII (Michael W. Deem and Ramdas Pophale) SiO2 
 PCOD9360515
Probable space group: A B M 2
;
_chemical_formula_sum "Si O2"
_cell_formula_units_Z 64
_cell_length_a 15.923617
_cell_length_b 18.859069
_cell_length_c 11.010120
_cell_angle_alpha 90.000000
_cell_angle_beta 90.000000
_cell_angle_gamma 90.000000
_cell_volume 3306.389592
_symmetry_space_group_name_H-M "A B M 2"
_symmetry_group_IT_number 39
_symmetry_cell_setting 'orthorhombic'
loop_
_space_group_symop_operation_xyz
x,y,z
-x,-y,z
-x,1/2+y,z
x,1/2-y,z
x,1/2+y,1/2+z
-x,1/2-y,1/2+z
-x,y,1/2+z
x,-y,1/2+z
loop_
_atom_site_type_symbol
_atom_site_label
_atom_site_fract_x
_atom_site_fract_y
_atom_site_fract_z
Si Si1 0.846475 0.669689 0.684420
Si Si2 0.986263 0.583881 0.140466
Si Si3 0.277944 0.408609 0.524932
Si Si4 0.555463 0.334521 0.938611
Si Si5 0.852718 0.048865 0.823788
Si Si6 0.141888 0.106245 0.931572
Si Si7 0.282012 0.936426 0.609125
Si Si8 0.563592 0.835482 0.165492
O O1 0.850289 0.750000 0.640387
O O2 0.760910 0.633336 0.638517
O O3 0.852695 0.665073 0.829512
O O4 0.926491 0.624393 0.641631
O O5 0.934487 0.586940 0.267775
O O6 0.000000 0.500000 0.117296
O O7 0.928025 0.614620 0.034303
O O8 0.353802 0.368584 0.460958
O O9 0.198325 0.417015 0.434477
O O10 0.310143 0.486248 0.563652
O O11 0.564342 0.250000 0.945569
O O12 0.526160 0.350460 0.800353
O O13 0.495052 0.354666 0.050670
O O14 0.786222 0.047579 0.713702
O O15 0.874657 0.969154 0.864344
O O16 0.230385 0.098498 0.999476
O O17 0.353531 0.883468 0.653372
O O18 0.580367 0.750000 0.159730
#
# Coordination Sequence:
#
# PCOD9360515 Si02
#       8
#     8   8   8   8   8   8   8   8
#     4  12  26  40  57  90 129 163 207 259 315 376
#     4  11  22  38  64  87 116 165 216 255 309 368
#     4  11  22  40  65  92 124 163 207 255 312 373
#     4  10  22  42  66  91 128 169 210 254 315 381
#     4  10  19  39  64  89 117 155 206 257 309 359
#     4  10  22  38  59  89 121 158 201 259 312 370
#     4  10  20  39  67  93 119 156 206 257 304 372
#     4  10  22  42  66  96 127 166 211 258 313 380
#
# _framework density 19.356460999999999
#
# number of rings (size 3 to 8) (size 9 to 14) (size 15 to 20)
#    0.000    1.500    3.750    1.875    3.500    2.500 
#    0.000    5.000    0.000    0.000    0.000    0.000 
#    0.000    0.000    0.000    0.000    0.000    0.000 
#
# Total GULP energy -178634.198026 kJ/mol
# GULP energy per Si atom -5582.318688 kJ/mol
# Density = 1.931241 g / cm^3
# Si number density = 19.356461 Si / 1000 Ang^3
#
#
#
# Elastic Constant Matrix: (Units=GPa)
#
#
# Indices 1 2 3 4 5 6 
#
# 1 61.4997 27.1371 35.5919 0.0000 0.0000 0.0000
# 2 27.1371 46.0955 24.3699 0.0000 0.0000 0.0000
# 3 35.5919 24.3699 101.4430 0.0000 0.0000 0.0000
# 4 0.0000 0.0000 0.0000 15.8737 0.0000 0.0000
# 5 0.0000 0.0000 0.0000 0.0000 28.5011 0.0000
# 6 0.0000 0.0000 0.0000 0.0000 0.0000 19.0683
#
#
#
# Elastic Compliance Matrix: (Units=1/GPa)
#
#
# Indices 1 2 3 4 5 6 
#
# 1 0.024736 -0.011425 -0.005934 0.000000 0.000000 0.000000
# 2 -0.011425 0.030127 -0.003229 0.000000 0.000000 0.000000
# 3 -0.005934 -0.003229 0.012715 0.000000 0.000000 0.000000
# 4 0.000000 0.000000 0.000000 0.062997 0.000000 0.000000
# 5 0.000000 0.000000 0.000000 0.000000 0.035086 0.000000
# 6 0.000000 0.000000 0.000000 0.000000 0.000000 0.052443
#
#
# Mechanical properties :
#
#
# Convention : Reuss Voigt Hill
#
# Bulk Modulus (GPa) = 37.87542 42.58176 40.22859
# Shear Modulus (GPa) = 18.65097 20.81791 19.73444
#
# Velocity S-wave (km/s) = 3.10748 3.28304 3.19647
# Velocity P-wave (km/s) = 5.69957 6.03470 5.86953
#
# Compressibility (1/GPa) = 0.02640235
#
# Stress axis : x y z
#
# Youngs Moduli (GPa) = 40.42709 33.19238 78.64449
#
# Poissons Ratio (x) = 0.37923 0.46668
# Poissons Ratio (y) = 0.46189 0.25394
# Poissons Ratio (z) = 0.23990 0.10718
#
# Static dielectric constant tensor:
#      x y z
#    x 1.646100 0.000000 0.000000 
#    y 0.000000 1.647440 0.000000 
#    z 0.000000 0.000000 1.731490 
# 
# From -- ./inp_files/6619.got.cif
#   From: 2010.05.17/outbox.cif.g08.bks.cpg/sg39_4_cif.got.tgz:6619.got - 2010.06.03 18:22:40.
