data_PCOD9360222
_publ_section_title
;
Structure prediction by ZEFSAII (Michael W. Deem and Ramdas Pophale) SiO2 
 PCOD9360222
Probable space group: A B M 2
;
_chemical_formula_sum "Si O2"
_cell_formula_units_Z 64
_cell_length_a 25.474084
_cell_length_b 8.905487
_cell_length_c 15.026040
_cell_angle_alpha 90.000000
_cell_angle_beta 90.000000
_cell_angle_gamma 90.000000
_cell_volume 3408.794270
_symmetry_space_group_name_H-M "A B M 2"
_symmetry_group_IT_number 39
_symmetry_cell_setting 'orthorhombic'
loop_
_space_group_symop_operation_xyz
x,y,z
-x,-y,z
-x,1/2+y,z
x,1/2-y,z
x,1/2+y,1/2+z
-x,1/2-y,1/2+z
-x,y,1/2+z
x,-y,1/2+z
loop_
_atom_site_type_symbol
_atom_site_label
_atom_site_fract_x
_atom_site_fract_y
_atom_site_fract_z
Si Si1 0.943958 0.569868 0.028440
Si Si2 0.663183 0.569609 0.815890
Si Si3 0.553814 0.577387 0.309675
Si Si4 0.055230 0.929723 0.321233
Si Si5 0.446971 0.421003 0.527269
Si Si6 0.865413 0.568024 0.668364
Si Si7 0.332545 0.432815 0.510890
Si Si8 0.744965 0.567606 0.665577
O O1 0.945969 0.750000 0.036778
O O2 0.897821 0.502253 0.087506
O O3 0.000000 0.500000 0.055843
O O4 0.936030 0.529919 0.924415
O O5 0.661685 0.750000 0.820468
O O6 0.606346 0.510825 0.784276
O O7 0.673110 0.501601 0.913336
O O8 0.708972 0.521636 0.748616
O O9 0.500000 0.500000 0.279948
O O10 0.556300 0.750000 0.281064
O O11 0.552744 0.577120 0.418574
O O12 0.050137 0.750000 0.316805
O O13 0.102880 0.974419 0.257607
O O14 0.000000 0.000000 0.291831
O O15 0.500000 0.500000 0.557453
O O16 0.449210 0.250000 0.557836
O O17 0.389316 0.482881 0.549938
O O18 0.866318 0.750000 0.661183
O O19 0.805045 0.517360 0.669975
O O20 0.334695 0.250000 0.504051
O O21 0.285590 0.476462 0.576024
O O22 0.745757 0.750000 0.666605
#
# Coordination Sequence:
#
# PCOD9360222 Si02
#       8
#     8   8   8   8   8   8   8   8
#     4  10  20  35  55  82 112 141 171 211 260 312
#     4  10  19  33  54  78 103 137 177 220 267 316
#     4   9  16  28  48  75 104 135 170 213 265 324
#     4   9  19  34  54  79 109 139 170 209 258 311
#     4   8  14  24  43  68  93 121 158 201 250 305
#     4  10  20  36  56  78 105 142 182 221 262 308
#     4   9  18  35  54  72  99 138 176 216 265 319
#     4   9  20  37  55  74 103 143 184 219 261 315
#
# _framework density 18.774967
#
# number of rings (size 3 to 8) (size 9 to 14) (size 15 to 20)
#    0.000    2.750    0.000    2.250    0.000    6.000 
#    0.000    5.000    0.000    1.500    0.000    0.000 
#    0.000    0.000    0.000    0.000    0.000    0.000 
#
# Total GULP energy -178535.451618 kJ/mol
# GULP energy per Si atom -5579.232863 kJ/mol
# Density = 1.873223 g / cm^3
# Si number density = 18.774967 Si / 1000 Ang^3
#
#
#
# Elastic Constant Matrix: (Units=GPa)
#
#
# Indices 1 2 3 4 5 6 
#
# 1 221.3912 48.5055 90.8933 0.0000 0.0000 0.0000
# 2 48.5055 37.1372 30.1895 0.0000 0.0000 0.0000
# 3 90.8933 30.1895 89.8831 0.0000 0.0000 0.0000
# 4 0.0000 0.0000 0.0000 2.7181 0.0000 0.0000
# 5 0.0000 0.0000 0.0000 0.0000 -11.3073 0.0000
# 6 0.0000 0.0000 0.0000 0.0000 0.0000 27.2734
#
#
#
# Elastic Compliance Matrix: (Units=1/GPa)
#
#
# Indices 1 2 3 4 5 6 
#
# 1 0.008510 -0.005667 -0.006703 0.000000 0.000000 0.000000
# 2 -0.005667 0.040814 -0.007978 0.000000 0.000000 0.000000
# 3 -0.006703 -0.007978 0.020583 0.000000 0.000000 0.000000
# 4 0.000000 0.000000 0.000000 0.367908 0.000000 0.000000
# 5 0.000000 0.000000 0.000000 0.000000 -0.088438 0.000000
# 6 0.000000 0.000000 0.000000 0.000000 0.000000 0.036666
#
#
# Mechanical properties :
#
#
# Convention : Reuss Voigt Hill
#
# Bulk Modulus (GPa) = 34.23166 76.39869 55.31518
# Shear Modulus (GPa) = 11.45541 15.65837 13.55689
#
# Velocity S-wave (km/s) = 2.47279 2.89104 2.69006
# Velocity P-wave (km/s) = 5.14053 7.20585 6.25897
#
# Compressibility (1/GPa) = 0.02921272
#
# Stress axis : x y z
#
# Youngs Moduli (GPa) = 117.50619 24.50140 48.58363
#
# Poissons Ratio (x) = 0.13884 0.32563
# Poissons Ratio (y) = 0.66587 0.38760
# Poissons Ratio (z) = 0.78759 0.19547
#
# Static dielectric constant tensor:
#      x y z
#    x 1.637740 0.000000 0.000000 
#    y 0.000000 1.634510 0.000000 
#    z 0.000000 0.000000 1.666640 
# 
# From -- ./inp_files/10666.got.cif
#   From: 2010.05.17/outbox.cif.g08.bks.cpg/sg39_6_cif.got.tgz:10666.got - 2010.06.03 18:22:40.
