data_PCOD9360537
_publ_section_title
;
Structure prediction by ZEFSAII (Michael W. Deem and Ramdas Pophale) SiO2 
 PCOD9360537
Probable space group: A B M 2
;
_chemical_formula_sum "Si O2"
_cell_formula_units_Z 64
_cell_length_a 17.671064
_cell_length_b 9.413204
_cell_length_c 23.253752
_cell_angle_alpha 90.000000
_cell_angle_beta 90.000000
_cell_angle_gamma 90.000000
_cell_volume 3868.060043
_symmetry_space_group_name_H-M "A B M 2"
_symmetry_group_IT_number 39
_symmetry_cell_setting 'orthorhombic'
loop_
_space_group_symop_operation_xyz
x,y,z
-x,-y,z
-x,1/2+y,z
x,1/2-y,z
x,1/2+y,1/2+z
-x,1/2-y,1/2+z
-x,y,1/2+z
x,-y,1/2+z
loop_
_atom_site_type_symbol
_atom_site_label
_atom_site_fract_x
_atom_site_fract_y
_atom_site_fract_z
Si Si1 0.358133 0.586886 0.140120
Si Si2 0.264405 0.579598 0.963159
Si Si3 0.299769 0.587855 0.740831
Si Si4 0.765077 0.417901 0.345444
Si Si5 0.928850 0.917086 0.787773
Si Si6 0.132691 0.088063 0.182319
Si Si7 0.425845 0.920138 0.020195
Si Si8 0.190605 0.587419 0.082159
O O1 0.376044 0.750000 0.155803
O O2 0.355345 0.486645 0.195300
O O3 0.409914 0.540067 0.086885
O O4 0.273348 0.589206 0.112818
O O5 0.260266 0.750000 0.953333
O O6 0.245657 0.493044 0.906388
O O7 0.349550 0.547124 0.984956
O O8 0.208147 0.547072 0.016424
O O9 0.321110 0.750000 0.753969
O O10 0.286866 0.494897 0.797701
O O11 0.217610 0.591796 0.709293
O O12 0.748839 0.250000 0.347792
O O13 0.851810 0.434640 0.323961
O O14 0.944330 0.750000 0.782147
O O15 0.913042 0.988859 0.725933
O O16 0.000000 0.000000 0.813906
O O17 0.104609 0.250000 0.180892
O O18 0.139978 0.017809 0.119682
O O19 0.435774 0.750000 0.018566
O O20 0.500000 0.000000 0.999000
O O21 0.162261 0.750000 0.084418
#
# Coordination Sequence:
#
# PCOD9360537 Si02
#       8
#     8   8   8   8   8   8   8   8
#     4   8  14  26  43  64  91 119 147 182 228 279
#     4   9  18  32  49  70  97 130 168 206 243 286
#     4   9  16  26  43  67  92 118 149 186 229 276
#     4  10  20  32  48  71  97 127 164 205 246 289
#     4  10  20  33  49  70  96 125 158 197 244 295
#     4   9  16  26  43  68  94 118 146 183 228 277
#     4   9  18  31  48  71  98 128 160 198 246 296
#     4   8  14  26  44  65  90 119 149 185 229 274
#
# _framework density 16.545762
#
# number of rings (size 3 to 8) (size 9 to 14) (size 15 to 20)
#    0.000    3.000    0.000    3.000    0.000    6.000 
#    0.000    2.500    0.000    1.500    0.000    7.000 
#    0.000    0.000    0.000    0.000    0.000    0.000 
#
# Total GULP energy -178243.003982 kJ/mol
# GULP energy per Si atom -5570.093874 kJ/mol
# Density = 1.650810 g / cm^3
# Si number density = 16.545762 Si / 1000 Ang^3
#
#
#
# Elastic Constant Matrix: (Units=GPa)
#
#
# Indices 1 2 3 4 5 6 
#
# 1 39.3815 38.2165 26.9340 0.0000 0.0000 0.0000
# 2 38.2165 109.3931 83.1617 0.0000 0.0000 0.0000
# 3 26.9340 83.1617 130.7974 0.0000 0.0000 0.0000
# 4 0.0000 0.0000 0.0000 31.9625 0.0000 0.0000
# 5 0.0000 0.0000 0.0000 0.0000 9.2480 0.0000
# 6 0.0000 0.0000 0.0000 0.0000 0.0000 20.5798
#
#
#
# Elastic Compliance Matrix: (Units=1/GPa)
#
#
# Indices 1 2 3 4 5 6 
#
# 1 0.038515 -0.014373 0.001207 0.000000 0.000000 0.000000
# 2 -0.014373 0.023057 -0.011700 0.000000 0.000000 0.000000
# 3 0.001207 -0.011700 0.014836 0.000000 0.000000 0.000000
# 4 0.000000 0.000000 0.000000 0.031287 0.000000 0.000000
# 5 0.000000 0.000000 0.000000 0.000000 0.108131 0.000000
# 6 0.000000 0.000000 0.000000 0.000000 0.000000 0.048591
#
#
# Mechanical properties :
#
#
# Convention : Reuss Voigt Hill
#
# Bulk Modulus (GPa) = 37.48669 64.02179 50.75424
# Shear Modulus (GPa) = 15.47798 21.10874 18.29336
#
# Velocity S-wave (km/s) = 3.06185 3.57568 3.32870
# Velocity P-wave (km/s) = 5.93342 7.47162 6.74650
#
# Compressibility (1/GPa) = 0.02667614
#
# Stress axis : x y z
#
# Youngs Moduli (GPa) = 25.96419 43.37062 67.40471
#
# Poissons Ratio (x) = 0.62337 -0.08139
# Poissons Ratio (y) = 0.37318 0.78864
# Poissons Ratio (z) = -0.03135 0.50744
#
# Static dielectric constant tensor:
#      x y z
#    x 1.570130 0.000000 0.000000 
#    y 0.000000 1.555100 0.000000 
#    z 0.000000 0.000000 1.544930 
# 
# From -- ./inp_files/16354.got.cif
#   From: 2010.05.17/outbox.cif.g08.bks.cpg/sg39_9_cif.got.tgz:16354.got - 2010.06.03 18:22:40.
