data_PCOD9360724
_publ_section_title
;
Structure prediction by ZEFSAII (Michael W. Deem and Ramdas Pophale) SiO2 
 PCOD9360724
Probable space group: A B M 2
;
_chemical_formula_sum "Si O2"
_cell_formula_units_Z 48
_cell_length_a 9.485572
_cell_length_b 8.541722
_cell_length_c 31.772353
_cell_angle_alpha 90.000000
_cell_angle_beta 90.000000
_cell_angle_gamma 90.000000
_cell_volume 2574.295139
_symmetry_space_group_name_H-M "A B M 2"
_symmetry_group_IT_number 39
_symmetry_cell_setting 'orthorhombic'
loop_
_space_group_symop_operation_xyz
x,y,z
-x,-y,z
-x,1/2+y,z
x,1/2-y,z
x,1/2+y,1/2+z
-x,1/2-y,1/2+z
-x,y,1/2+z
x,-y,1/2+z
loop_
_atom_site_type_symbol
_atom_site_label
_atom_site_fract_x
_atom_site_fract_y
_atom_site_fract_z
Si Si1 0.340935 0.938493 0.564340
Si Si2 0.157552 0.061173 0.238475
Si Si3 0.841454 0.561043 0.144197
Si Si4 0.660106 0.562821 0.908342
Si Si5 0.840624 0.062859 0.986055
Si Si6 0.658279 0.938595 0.317778
O O1 0.342602 0.750000 0.562705
O O2 0.265271 0.989191 0.607781
O O3 0.500000 0.000000 0.561726
O O4 0.247721 0.001542 0.525913
O O5 0.156560 0.250000 0.238797
O O6 0.202981 0.011064 0.191395
O O7 0.253023 0.009314 0.277311
O O8 0.000000 0.000000 0.244417
O O9 0.846984 0.750000 0.143570
O O10 0.000000 0.500000 0.136512
O O11 0.500000 0.500000 0.914188
O O12 0.656571 0.750000 0.909745
O O13 0.710097 0.505912 0.862338
O O14 0.760646 0.497475 0.944515
O O15 0.842598 0.250000 0.986289
O O16 0.000000 0.000000 0.987646
O O17 0.658379 0.750000 0.320155
O O18 0.500000 0.000000 0.312801
#
# Coordination Sequence:
#
# PCOD9360724 Si02
#       6
#     8   8   8   8   8   8
#     4  11  23  39  59  85 116 150 189 232 280 333
#     4   9  19  35  55  80 111 147 187 231 278 331
#     4   9  19  36  57  81 111 147 187 231 279 331
#     4  11  22  39  61  85 114 149 189 232 282 335
#     4  12  25  42  62  86 115 147 186 230 280 335
#     4  10  20  35  55  81 113 148 188 232 279 331
#
# _framework density 18.645882
#
# number of rings (size 3 to 8) (size 9 to 14) (size 15 to 20)
#    0.000    1.667    0.000    6.000    0.000    5.333 
#    0.000    1.667    0.000    0.000    0.000    0.000 
#    0.000    0.000    0.000    0.000    0.000    0.000 
#
# Total GULP energy -134094.391006 kJ/mol
# GULP energy per Si atom -5587.266292 kJ/mol
# Density = 1.860344 g / cm^3
# Si number density = 18.645882 Si / 1000 Ang^3
#
#
#
# Elastic Constant Matrix: (Units=GPa)
#
#
# Indices 1 2 3 4 5 6 
#
# 1 128.3857 44.9979 126.8421 0.0000 0.0000 0.0000
# 2 44.9979 95.5508 60.3799 0.0000 0.0000 0.0000
# 3 126.8421 60.3799 215.6697 0.0000 0.0000 0.0000
# 4 0.0000 0.0000 0.0000 27.0233 0.0000 0.0000
# 5 0.0000 0.0000 0.0000 0.0000 40.2750 0.0000
# 6 0.0000 0.0000 0.0000 0.0000 0.0000 34.7562
#
#
#
# Elastic Compliance Matrix: (Units=1/GPa)
#
#
# Indices 1 2 3 4 5 6 
#
# 1 0.018996 -0.002291 -0.010531 0.000000 0.000000 0.000000
# 2 -0.002291 0.012992 -0.002290 0.000000 0.000000 0.000000
# 3 -0.010531 -0.002290 0.011471 0.000000 0.000000 0.000000
# 4 0.000000 0.000000 0.000000 0.037005 0.000000 0.000000
# 5 0.000000 0.000000 0.000000 0.000000 0.024829 0.000000
# 6 0.000000 0.000000 0.000000 0.000000 0.000000 0.028772
#
#
# Mechanical properties :
#
#
# Convention : Reuss Voigt Hill
#
# Bulk Modulus (GPa) = 75.55396 100.44955 88.00175
# Shear Modulus (GPa) = 29.63827 34.23665 31.93746
#
# Velocity S-wave (km/s) = 3.99122 4.28968 4.14314
# Velocity P-wave (km/s) = 7.86436 8.86140 8.37773
#
# Compressibility (1/GPa) = 0.01323557
#
# Stress axis : x y z
#
# Youngs Moduli (GPa) = 52.64156 76.97333 87.17458
#
# Poissons Ratio (x) = 0.17638 0.91802
# Poissons Ratio (y) = 0.12062 0.19959
# Poissons Ratio (z) = 0.55436 0.17623
#
# Static dielectric constant tensor:
#      x y z
#    x 1.602330 0.000000 0.000000 
#    y 0.000000 1.633820 0.000000 
#    z 0.000000 0.000000 1.656530 
# 
# From -- ./inp_files/17610.got.cif
#   From: 2010.05.17/outbox.cif.g08.bks.cpg/sg39_9_cif.got.tgz:17610.got - 2010.06.03 18:22:40.
