data_PCOD9360293
_publ_section_title
;
Structure prediction by ZEFSAII (Michael W. Deem and Ramdas Pophale) SiO2 
 PCOD9360293
Probable space group: A B M 2
;
_chemical_formula_sum "Si O2"
_cell_formula_units_Z 56
_cell_length_a 18.575567
_cell_length_b 8.674497
_cell_length_c 18.960067
_cell_angle_alpha 90.000000
_cell_angle_beta 90.000000
_cell_angle_gamma 90.000000
_cell_volume 3055.105752
_symmetry_space_group_name_H-M "A B M 2"
_symmetry_group_IT_number 39
_symmetry_cell_setting 'orthorhombic'
loop_
_space_group_symop_operation_xyz
x,y,z
-x,-y,z
-x,1/2+y,z
x,1/2-y,z
x,1/2+y,1/2+z
-x,1/2-y,1/2+z
-x,y,1/2+z
x,-y,1/2+z
loop_
_atom_site_type_symbol
_atom_site_label
_atom_site_fract_x
_atom_site_fract_y
_atom_site_fract_z
Si Si1 0.923621 0.435235 0.519750
Si Si2 0.204895 0.074020 0.109800
Si Si3 0.580116 0.065073 0.083910
Si Si4 0.686658 0.070180 0.209038
Si Si5 0.080301 0.935853 0.356039
Si Si6 0.689407 0.924648 0.976274
Si Si7 0.764003 0.932557 0.338678
O O1 0.921087 0.250000 0.519761
O O2 0.868869 0.487395 0.579050
O O3 0.909752 0.482140 0.438771
O O4 0.000000 0.500000 0.538659
O O5 0.199219 0.250000 0.138842
O O6 0.242047 0.959066 0.162988
O O7 0.254031 0.084620 0.040244
O O8 0.580041 0.250000 0.083509
O O9 0.623538 0.016313 0.155320
O O10 0.500000 0.000000 0.085397
O O11 0.622056 0.007235 0.014014
O O12 0.675758 0.250000 0.224831
O O13 0.704953 0.978590 0.279708
O O14 0.077768 0.750000 0.350600
O O15 0.156203 0.995063 0.323335
O O16 0.000000 0.000000 0.334858
O O17 0.670082 0.750000 0.955012
O O18 0.729815 0.006559 0.911897
O O19 0.773006 0.750000 0.341458
#
# Coordination Sequence:
#
# PCOD9360293 Si02
#       7
#     8   8   8   8   8   8   8
#     4   9  17  29  47  74 105 139 180 228 282 333
#     4   9  17  33  53  76 105 140 181 227 279 334
#     4  10  21  39  63  91 118 148 186 228 280 343
#     4  10  22  38  57  82 112 148 190 233 281 339
#     4  10  19  34  53  79 112 150 192 239 293 342
#     4  10  19  35  59  84 113 146 183 232 281 329
#     4  12  23  36  56  84 116 153 196 241 287 341
#
# _framework density 18.329971
#
# number of rings (size 3 to 8) (size 9 to 14) (size 15 to 20)
#    0.000    2.000    1.429    3.000    0.000    3.429 
#    0.000    1.429    0.000    3.429    0.000    0.000 
#    0.000    0.000    0.000    0.000    0.000    0.000 
#
# Total GULP energy -155997.956282 kJ/mol
# GULP energy per Si atom -5571.355581 kJ/mol
# Density = 1.828825 g / cm^3
# Si number density = 18.329971 Si / 1000 Ang^3
#
#
#
# Elastic Constant Matrix: (Units=GPa)
#
#
# Indices 1 2 3 4 5 6 
#
# 1 116.6087 35.1366 28.6690 0.0000 0.0000 0.0000
# 2 35.1366 74.9733 26.2214 0.0000 0.0000 0.0000
# 3 28.6690 26.2214 55.1682 0.0000 0.0000 0.0000
# 4 0.0000 0.0000 0.0000 23.8926 0.0000 0.0000
# 5 0.0000 0.0000 0.0000 0.0000 21.8654 0.0000
# 6 0.0000 0.0000 0.0000 0.0000 0.0000 28.1549
#
#
#
# Elastic Compliance Matrix: (Units=1/GPa)
#
#
# Indices 1 2 3 4 5 6 
#
# 1 0.010603 -0.003649 -0.003776 0.000000 0.000000 0.000000
# 2 -0.003649 0.017253 -0.006304 0.000000 0.000000 0.000000
# 3 -0.003776 -0.006304 0.023085 0.000000 0.000000 0.000000
# 4 0.000000 0.000000 0.000000 0.041854 0.000000 0.000000
# 5 0.000000 0.000000 0.000000 0.000000 0.045734 0.000000
# 6 0.000000 0.000000 0.000000 0.000000 0.000000 0.035518
#
#
# Mechanical properties :
#
#
# Convention : Reuss Voigt Hill
#
# Bulk Modulus (GPa) = 42.58298 47.42268 45.00283
# Shear Modulus (GPa) = 23.88536 25.23080 24.55808
#
# Velocity S-wave (km/s) = 3.61373 3.71412 3.66427
# Velocity P-wave (km/s) = 6.37917 6.65738 6.51976
#
# Compressibility (1/GPa) = 0.02348356
#
# Stress axis : x y z
#
# Youngs Moduli (GPa) = 94.30867 57.96120 43.31808
#
# Poissons Ratio (x) = 0.21148 0.16357
# Poissons Ratio (y) = 0.34411 0.27309
# Poissons Ratio (z) = 0.35611 0.36540
#
# Static dielectric constant tensor:
#      x y z
#    x 1.646530 0.000000 0.000000 
#    y 0.000000 1.640290 0.000000 
#    z 0.000000 0.000000 1.652910 
# 
# From -- ./inp_files/14927.got.cif
#   From: 2010.05.17/outbox.cif.g08.bks.cpg/sg39_8_cif.got.tgz:14927.got - 2010.06.03 18:22:40.
