data_PCOD9360022
_publ_section_title
;
Structure prediction by ZEFSAII (Michael W. Deem and Ramdas Pophale) SiO2 
 PCOD9360022
Probable space group: A B M 2
;
_chemical_formula_sum "Si O2"
_cell_formula_units_Z 64
_cell_length_a 21.663787
_cell_length_b 9.449032
_cell_length_c 14.375418
_cell_angle_alpha 90.000000
_cell_angle_beta 90.000000
_cell_angle_gamma 90.000000
_cell_volume 2942.674179
_symmetry_space_group_name_H-M "A B M 2"
_symmetry_group_IT_number 39
_symmetry_cell_setting 'orthorhombic'
loop_
_space_group_symop_operation_xyz
x,y,z
-x,-y,z
-x,1/2+y,z
x,1/2-y,z
x,1/2+y,1/2+z
-x,1/2-y,1/2+z
-x,y,1/2+z
x,-y,1/2+z
loop_
_atom_site_type_symbol
_atom_site_label
_atom_site_fract_x
_atom_site_fract_y
_atom_site_fract_z
Si Si1 0.197043 0.087897 0.049070
Si Si2 0.674971 0.589956 0.790091
Si Si3 0.559640 0.410427 0.791045
Si Si4 0.058941 0.585588 0.328478
Si Si5 0.059860 0.586233 0.555098
Si Si6 0.191781 0.911930 0.325973
Si Si7 0.679135 0.590714 0.570847
Si Si8 0.438982 0.912152 0.563580
O O1 0.207645 0.250000 0.082686
O O2 0.129117 0.036865 0.081799
O O3 0.254752 0.986627 0.066541
O O4 0.191766 0.096544 0.937373
O O5 0.674454 0.750000 0.831353
O O6 0.620691 0.490591 0.824070
O O7 0.742806 0.522415 0.800794
O O8 0.665091 0.605546 0.680269
O O9 0.500000 0.500000 0.817473
O O10 0.556426 0.250000 0.824580
O O11 0.560886 0.406140 0.677392
O O12 0.055284 0.750000 0.301152
O O13 0.058241 0.582965 0.441654
O O14 0.125695 0.525597 0.298706
O O15 0.000000 0.500000 0.296013
O O16 0.054528 0.750000 0.583060
O O17 0.000000 0.500000 0.586477
O O18 0.193602 0.750000 0.288723
O O19 0.680823 0.750000 0.530723
O O20 0.623646 0.492500 0.534631
O O21 0.440724 0.750000 0.530363
O O22 0.500000 0.000000 0.537291
#
# Coordination Sequence:
#
# PCOD9360022 Si02
#       8
#     8   8   8   8   8   8   8   8
#     4   9  17  30  47  66  89 118 150 183 222 266
#     4   9  17  30  47  66  89 118 150 182 217 260
#     4   9  16  26  42  65  90 115 145 182 221 259
#     4   8  13  23  40  62  85 108 139 179 220 259
#     4   8  14  24  40  62  85 109 140 180 222 261
#     4   8  15  29  48  66  86 117 152 182 217 263
#     4  10  19  29  44  68  94 119 148 182 221 264
#     4   9  16  27  44  65  89 116 147 184 222 260
#
# _framework density 21.748925
#
# number of rings (size 3 to 8) (size 9 to 14) (size 15 to 20)
#    0.000    3.250    0.000    2.625    0.000    4.000 
#    0.000    3.125    0.000    1.500    0.000    7.000 
#    0.000    0.000    0.000    0.000    0.000    0.000 
#
# Total GULP energy -178456.671946 kJ/mol
# GULP energy per Si atom -5576.770998 kJ/mol
# Density = 2.169942 g / cm^3
# Si number density = 21.748925 Si / 1000 Ang^3
#
#
#
# Elastic Constant Matrix: (Units=GPa)
#
#
# Indices 1 2 3 4 5 6 
#
# 1 261.6811 131.2716 -1.7799 0.0000 0.0000 0.0000
# 2 131.2716 140.1244 6.1669 0.0000 0.0000 0.0000
# 3 -1.7799 6.1669 50.9052 0.0000 0.0000 0.0000
# 4 0.0000 0.0000 0.0000 17.0338 0.0000 0.0000
# 5 0.0000 0.0000 0.0000 0.0000 17.3992 0.0000
# 6 0.0000 0.0000 0.0000 0.0000 0.0000 34.6551
#
#
#
# Elastic Compliance Matrix: (Units=1/GPa)
#
#
# Indices 1 2 3 4 5 6 
#
# 1 0.007269 -0.006857 0.001085 0.000000 0.000000 0.000000
# 2 -0.006857 0.013644 -0.001893 0.000000 0.000000 0.000000
# 3 0.001085 -0.001893 0.019912 0.000000 0.000000 0.000000
# 4 0.000000 0.000000 0.000000 0.058707 0.000000 0.000000
# 5 0.000000 0.000000 0.000000 0.000000 0.057474 0.000000
# 6 0.000000 0.000000 0.000000 0.000000 0.000000 0.028856
#
#
# Mechanical properties :
#
#
# Convention : Reuss Voigt Hill
#
# Bulk Modulus (GPa) = 39.22480 80.44756 59.83618
# Shear Modulus (GPa) = 23.84488 34.95445 29.39966
#
# Velocity S-wave (km/s) = 3.31474 4.01331 3.68064
# Velocity P-wave (km/s) = 5.72053 7.65148 6.75535
#
# Compressibility (1/GPa) = 0.02549407
#
# Stress axis : x y z
#
# Youngs Moduli (GPa) = 137.57506 73.29304 50.22209
#
# Poissons Ratio (x) = 0.50259 -0.05448
# Poissons Ratio (y) = 0.94339 0.09505
# Poissons Ratio (z) = -0.14925 0.13872
#
# Static dielectric constant tensor:
#      x y z
#    x 1.799450 0.000000 0.000000 
#    y 0.000000 1.779300 0.000000 
#    z 0.000000 0.000000 1.859690 
# 
# From -- ./inp_files/13186.got.cif
#   From: 2010.05.17/outbox.cif.g08.bks.cpg/sg39_7_cif.got.tgz:13186.got - 2010.06.03 18:22:40.
