data_PCOD9360839
_publ_section_title
;
Structure prediction by ZEFSAII (Michael W. Deem and Ramdas Pophale) SiO2 
 PCOD9360839
Probable space group: A B M 2
;
_chemical_formula_sum "Si O2"
_cell_formula_units_Z 56
_cell_length_a 11.286859
_cell_length_b 15.452672
_cell_length_c 14.568792
_cell_angle_alpha 90.000000
_cell_angle_beta 90.000000
_cell_angle_gamma 90.000000
_cell_volume 2540.974045
_symmetry_space_group_name_H-M "A B M 2"
_symmetry_group_IT_number 39
_symmetry_cell_setting 'orthorhombic'
loop_
_space_group_symop_operation_xyz
x,y,z
-x,-y,z
-x,1/2+y,z
x,1/2-y,z
x,1/2+y,1/2+z
-x,1/2-y,1/2+z
-x,y,1/2+z
x,-y,1/2+z
loop_
_atom_site_type_symbol
_atom_site_label
_atom_site_fract_x
_atom_site_fract_y
_atom_site_fract_z
Si Si1 0.987014 0.647076 0.379950
Si Si2 0.333891 0.544903 0.505967
Si Si3 0.531155 0.349734 0.349304
Si Si4 0.103178 0.854538 0.565207
Si Si5 0.667529 0.048258 0.188413
Si Si6 0.098352 0.854441 0.201552
Si Si7 0.272269 0.084406 0.344885
O O1 0.001310 0.750000 0.381539
O O2 0.854119 0.628917 0.350072
O O3 0.021907 0.616234 0.479812
O O4 0.082052 0.614581 0.306033
O O5 0.421483 0.601434 0.441056
O O6 0.230762 0.604670 0.548678
O O7 0.379213 0.490042 0.593052
O O8 0.279923 0.478707 0.432241
O O9 0.571087 0.250000 0.349046
O O10 0.581390 0.398144 0.257679
O O11 0.389092 0.356062 0.349200
O O12 0.114850 0.750000 0.566722
O O13 0.023506 0.879861 0.651803
O O14 0.781862 0.105940 0.163291
O O15 0.712577 0.970336 0.252387
O O16 0.106635 0.750000 0.197058
#
# Coordination Sequence:
#
# PCOD9360839 Si02
#       7
#     8   8   8   8   8   8   8
#     4  10  20  36  57  84 123 166 207 253 308 369
#     4  11  23  40  65  94 126 163 210 268 323 374
#     4  11  25  47  69  90 124 171 220 262 314 382
#     4  10  21  37  59  89 125 164 207 253 308 380
#     4  11  23  40  65  94 126 163 210 268 323 374
#     4  10  21  37  59  89 125 164 207 253 308 380
#     4  11  24  39  61  91 126 165 212 268 318 371
#
# _framework density 22.038792999999998
#
# number of rings (size 3 to 8) (size 9 to 14) (size 15 to 20)
#    0.000    1.429    0.000    6.429    0.000    8.571 
#    0.000    5.714    0.000    0.000    0.000    0.000 
#    0.000    0.000    0.000    0.000    0.000    0.000 
#
# Total GULP energy -156513.443099 kJ/mol
# GULP energy per Si atom -5589.765825 kJ/mol
# Density = 2.198863 g / cm^3
# Si number density = 22.038793 Si / 1000 Ang^3
#
#
#
# Elastic Constant Matrix: (Units=GPa)
#
#
# Indices 1 2 3 4 5 6 
#
# 1 106.9210 20.4618 15.8814 0.0000 0.0000 0.0000
# 2 20.4618 47.6642 45.2675 0.0000 0.0000 0.0000
# 3 15.8814 45.2675 136.1566 0.0000 0.0000 0.0000
# 4 0.0000 0.0000 0.0000 19.4098 0.0000 0.0000
# 5 0.0000 0.0000 0.0000 0.0000 12.0102 0.0000
# 6 0.0000 0.0000 0.0000 0.0000 0.0000 3842.8999
#
#
#
# Elastic Compliance Matrix: (Units=1/GPa)
#
#
# Indices 1 2 3 4 5 6 
#
# 1 0.010204 -0.004750 0.000389 0.000000 0.000000 0.000000
# 2 -0.004750 0.032872 -0.010375 0.000000 0.000000 0.000000
# 3 0.000389 -0.010375 0.010748 0.000000 0.000000 0.000000
# 4 0.000000 0.000000 0.000000 0.051520 0.000000 0.000000
# 5 0.000000 0.000000 0.000000 0.000000 0.083263 0.000000
# 6 0.000000 0.000000 0.000000 0.000000 0.000000 0.000260
#
#
# Mechanical properties :
#
#
# Convention : Reuss Voigt Hill
#
# Bulk Modulus (GPa) = 41.06248 50.44034 45.75141
# Shear Modulus (GPa) = 22.07920 788.80606 405.44263
#
# Velocity S-wave (km/s) = 3.16861 18.93922 13.57818
# Velocity P-wave (km/s) = 5.66208 22.38740 16.32873
#
# Compressibility (1/GPa) = 0.02435313
#
# Stress axis : x y z
#
# Youngs Moduli (GPa) = 98.00158 30.42062 93.03680
#
# Poissons Ratio (x) = 0.14449 -0.03619
# Poissons Ratio (y) = 0.46549 0.96525
# Poissons Ratio (z) = -0.03812 0.31561
#
# Static dielectric constant tensor:
#      x y z
#    x 1.791830 0.000000 0.000000 
#    y 0.000000 1.801140 0.000000 
#    z 0.000000 0.000000 1.806140 
# 
# From -- ./inp_files/9281.got.cif
#   From: 2010.05.17/outbox.cif.g08.bks.cpg/sg39_5_cif.got.tgz:9281.got - 2010.06.03 18:22:40.
