data_PCOD9360049
_publ_section_title
;
Structure prediction by ZEFSAII (Michael W. Deem and Ramdas Pophale) SiO2 
 PCOD9360049
Probable space group: A B M 2
;
_chemical_formula_sum "Si O2"
_cell_formula_units_Z 56
_cell_length_a 18.616241
_cell_length_b 8.742581
_cell_length_c 19.057847
_cell_angle_alpha 90.000000
_cell_angle_beta 90.000000
_cell_angle_gamma 90.000000
_cell_volume 3101.740733
_symmetry_space_group_name_H-M "A B M 2"
_symmetry_group_IT_number 39
_symmetry_cell_setting 'orthorhombic'
loop_
_space_group_symop_operation_xyz
x,y,z
-x,-y,z
-x,1/2+y,z
x,1/2-y,z
x,1/2+y,1/2+z
-x,1/2-y,1/2+z
-x,y,1/2+z
x,-y,1/2+z
loop_
_atom_site_type_symbol
_atom_site_label
_atom_site_fract_x
_atom_site_fract_y
_atom_site_fract_z
Si Si1 0.079548 0.566106 0.907800
Si Si2 0.736251 0.568853 0.653319
Si Si3 0.419863 0.069425 0.130042
Si Si4 0.423281 0.570361 0.462135
Si Si5 0.187529 0.072367 0.016564
Si Si6 0.288926 0.421345 0.411808
Si Si7 0.188321 0.425573 0.283953
O O1 0.079525 0.750000 0.909835
O O2 0.125087 0.522615 0.837495
O O3 0.000000 0.500000 0.903979
O O4 0.119676 0.506067 0.977921
O O5 0.728988 0.750000 0.646336
O O6 0.654756 0.500840 0.660373
O O7 0.778079 0.502339 0.585551
O O8 0.787709 0.525516 0.718493
O O9 0.422083 0.250000 0.146171
O O10 0.500000 0.000000 0.146792
O O11 0.409625 0.051703 0.045694
O O12 0.500000 0.500000 0.449156
O O13 0.418277 0.750000 0.445980
O O14 0.370049 0.467834 0.417415
O O15 0.172927 0.250000 0.029215
O O16 0.248357 0.047019 0.957847
O O17 0.275234 0.250000 0.441025
O O18 0.257163 0.422041 0.334815
O O19 0.172579 0.250000 0.261707
#
# Coordination Sequence:
#
# PCOD9360049 Si02
#       7
#     8   8   8   8   8   8   8
#     4  10  21  40  65  92 120 151 187 231 282 342
#     4  12  23  36  57  85 117 153 196 244 289 341
#     4  10  20  34  53  79 112 151 192 240 294 345
#     4  10  19  30  49  76 107 144 185 236 290 340
#     4  11  21  35  58  85 114 148 187 232 279 332
#     4  10  19  34  55  79 108 142 184 234 281 335
#     4   9  21  39  58  82 115 153 190 229 281 341
#
# _framework density 18.054379000000001
#
# number of rings (size 3 to 8) (size 9 to 14) (size 15 to 20)
#    0.000    1.714    1.429    5.143    0.000    4.571 
#    0.000    1.429    0.000    5.143    0.000    0.000 
#    0.000    0.000    0.000    0.000    0.000    0.000 
#
# Total GULP energy -156063.052288 kJ/mol
# GULP energy per Si atom -5573.680439 kJ/mol
# Density = 1.801329 g / cm^3
# Si number density = 18.054379 Si / 1000 Ang^3
#
#
#
# Elastic Constant Matrix: (Units=GPa)
#
#
# Indices 1 2 3 4 5 6 
#
# 1 119.6453 47.5708 40.8800 0.0000 0.0000 0.0000
# 2 47.5708 106.5259 41.3846 0.0000 0.0000 0.0000
# 3 40.8800 41.3846 67.6608 0.0000 0.0000 0.0000
# 4 0.0000 0.0000 0.0000 25.0715 0.0000 0.0000
# 5 0.0000 0.0000 0.0000 0.0000 14.4561 0.0000
# 6 0.0000 0.0000 0.0000 0.0000 0.0000 30.4521
#
#
#
# Elastic Compliance Matrix: (Units=1/GPa)
#
#
# Indices 1 2 3 4 5 6 
#
# 1 0.011277 -0.003134 -0.004897 0.000000 0.000000 0.000000
# 2 -0.003134 0.013184 -0.006171 0.000000 0.000000 0.000000
# 3 -0.004897 -0.006171 0.021513 0.000000 0.000000 0.000000
# 4 0.000000 0.000000 0.000000 0.039886 0.000000 0.000000
# 5 0.000000 0.000000 0.000000 0.000000 0.069175 0.000000
# 6 0.000000 0.000000 0.000000 0.000000 0.000000 0.032838
#
#
# Mechanical properties :
#
#
# Convention : Reuss Voigt Hill
#
# Bulk Modulus (GPa) = 56.91076 61.50031 59.20554
# Shear Modulus (GPa) = 22.50910 24.92904 23.71907
#
# Velocity S-wave (km/s) = 3.53475 3.71991 3.62851
# Velocity P-wave (km/s) = 6.94619 7.25177 7.10063
#
# Compressibility (1/GPa) = 0.01757137
#
# Stress axis : x y z
#
# Youngs Moduli (GPa) = 88.67541 75.84948 46.48443
#
# Poissons Ratio (x) = 0.23768 0.22763
# Poissons Ratio (y) = 0.27787 0.28684
# Poissons Ratio (z) = 0.43423 0.46805
#
# Static dielectric constant tensor:
#      x y z
#    x 1.613750 0.000000 0.000000 
#    y 0.000000 1.628190 0.000000 
#    z 0.000000 0.000000 1.613550 
# 
# From -- ./inp_files/13066.got.cif
#   From: 2010.05.17/outbox.cif.g08.bks.cpg/sg39_7_cif.got.tgz:13066.got - 2010.06.03 18:22:40.
