data_PCOD9360171
_publ_section_title
;
Structure prediction by ZEFSAII (Michael W. Deem and Ramdas Pophale) SiO2 
 PCOD9360171
Probable space group: A B M 2
;
_chemical_formula_sum "Si O2"
_cell_formula_units_Z 56
_cell_length_a 15.606391
_cell_length_b 8.854051
_cell_length_c 20.226274
_cell_angle_alpha 90.000000
_cell_angle_beta 90.000000
_cell_angle_gamma 90.000000
_cell_volume 2794.862129
_symmetry_space_group_name_H-M "A B M 2"
_symmetry_group_IT_number 39
_symmetry_cell_setting 'orthorhombic'
loop_
_space_group_symop_operation_xyz
x,y,z
-x,-y,z
-x,1/2+y,z
x,1/2-y,z
x,1/2+y,1/2+z
-x,1/2-y,1/2+z
-x,y,1/2+z
x,-y,1/2+z
loop_
_atom_site_type_symbol
_atom_site_label
_atom_site_fract_x
_atom_site_fract_y
_atom_site_fract_z
Si Si1 0.090365 0.427242 0.985450
Si Si2 0.729033 0.571430 0.449562
Si Si3 0.326287 0.929430 0.166478
Si Si4 0.410599 0.929336 0.546484
Si Si5 0.723852 0.428556 0.313936
Si Si6 0.917239 0.071281 0.266984
Si Si7 0.853358 0.926688 0.135473
O O1 0.092516 0.250000 0.967618
O O2 0.174476 0.508344 0.957127
O O3 0.000000 0.500000 0.966276
O O4 0.100876 0.440473 0.065117
O O5 0.728268 0.750000 0.459768
O O6 0.667229 0.492160 0.502447
O O7 0.697580 0.526297 0.376434
O O8 0.338274 0.750000 0.159684
O O9 0.321859 0.966263 0.244452
O O10 0.393338 0.017391 0.121612
O O11 0.233235 0.975809 0.137979
O O12 0.412721 0.750000 0.542675
O O13 0.500000 0.000000 0.523457
O O14 0.710753 0.250000 0.327126
O O15 0.825856 0.450878 0.302003
O O16 0.928794 0.250000 0.257457
O O17 0.907655 0.986855 0.196878
O O18 0.000000 0.000000 0.301693
O O19 0.831794 0.750000 0.145112
#
# Coordination Sequence:
#
# PCOD9360171 Si02
#       7
#     8   8   8   8   8   8   8
#     4  11  23  37  56  85 123 169 217 267 319 373
#     4  12  25  42  65  93 129 171 215 264 317 379
#     4  10  20  38  65  95 126 160 202 253 310 372
#     4  12  25  44  71 101 132 165 207 259 315 379
#     4   9  21  40  61  86 123 168 209 255 313 373
#     4  10  20  33  52  79 115 159 209 265 315 370
#     4  10  19  32  54  83 118 160 204 257 315 370
#
# _framework density 20.036767999999999
#
# number of rings (size 3 to 8) (size 9 to 14) (size 15 to 20)
#    0.000    1.429    1.429    5.571    0.000    6.857 
#    0.000    2.143    0.000    3.429    0.000    0.000 
#    0.000    0.000    0.000    0.000    0.000    0.000 
#
# Total GULP energy -156540.550132 kJ/mol
# GULP energy per Si atom -5590.733933 kJ/mol
# Density = 1.999116 g / cm^3
# Si number density = 20.036768 Si / 1000 Ang^3
#
#
#
# Elastic Constant Matrix: (Units=GPa)
#
#
# Indices 1 2 3 4 5 6 
#
# 1 83.5208 41.6152 31.0497 0.0000 0.0000 0.0000
# 2 41.6152 137.2104 67.4545 0.0000 0.0000 0.0000
# 3 31.0497 67.4545 93.5162 0.0000 0.0000 0.0000
# 4 0.0000 0.0000 0.0000 12.5952 0.0000 0.0000
# 5 0.0000 0.0000 0.0000 0.0000 -8.9665 0.0000
# 6 0.0000 0.0000 0.0000 0.0000 0.0000 32.8416
#
#
#
# Elastic Compliance Matrix: (Units=1/GPa)
#
#
# Indices 1 2 3 4 5 6 
#
# 1 0.014484 -0.003143 -0.002542 0.000000 0.000000 0.000000
# 2 -0.003143 0.011975 -0.007594 0.000000 0.000000 0.000000
# 3 -0.002542 -0.007594 0.017015 0.000000 0.000000 0.000000
# 4 0.000000 0.000000 0.000000 0.079395 0.000000 0.000000
# 5 0.000000 0.000000 0.000000 0.000000 -0.111526 0.000000
# 6 0.000000 0.000000 0.000000 0.000000 0.000000 0.030449
#
#
# Mechanical properties :
#
#
# Convention : Reuss Voigt Hill
#
# Bulk Modulus (GPa) = 59.11650 66.05402 62.58526
# Shear Modulus (GPa) = 67.57774 18.90259 43.24017
#
# Velocity S-wave (km/s) = 5.81378 3.07481 4.65051
# Velocity P-wave (km/s) = 8.63915 6.75603 7.75496
#
# Compressibility (1/GPa) = 0.01691575
#
# Stress axis : x y z
#
# Youngs Moduli (GPa) = 69.04062 83.50949 58.77260
#
# Poissons Ratio (x) = 0.26251 0.14938
# Poissons Ratio (y) = 0.21703 0.44631
# Poissons Ratio (z) = 0.17548 0.63415
#
# Static dielectric constant tensor:
#      x y z
#    x 1.716170 0.000000 0.000000 
#    y 0.000000 1.668060 0.000000 
#    z 0.000000 0.000000 1.727450 
# 
# From -- ./inp_files/14723.got.cif
#   From: 2010.05.17/outbox.cif.g08.bks.cpg/sg39_8_cif.got.tgz:14723.got - 2010.06.03 18:22:40.
