data_PCOD9360692
_publ_section_title
;
Structure prediction by ZEFSAII (Michael W. Deem and Ramdas Pophale) SiO2 
 PCOD9360692
Probable space group: A B M 2
;
_chemical_formula_sum "Si O2"
_cell_formula_units_Z 32
_cell_length_a 10.618180
_cell_length_b 15.583574
_cell_length_c 9.048870
_cell_angle_alpha 90.000000
_cell_angle_beta 90.000000
_cell_angle_gamma 90.000000
_cell_volume 1497.309223
_symmetry_space_group_name_H-M "A B M 2"
_symmetry_group_IT_number 39
_symmetry_cell_setting 'orthorhombic'
loop_
_space_group_symop_operation_xyz
x,y,z
-x,-y,z
-x,1/2+y,z
x,1/2-y,z
x,1/2+y,1/2+z
-x,1/2-y,1/2+z
-x,y,1/2+z
x,-y,1/2+z
loop_
_atom_site_type_symbol
_atom_site_label
_atom_site_fract_x
_atom_site_fract_y
_atom_site_fract_z
Si Si1 0.000000 0.500000 0.119491
Si Si2 0.152601 0.426483 0.354879
Si Si3 0.836390 0.250000 0.309511
Si Si4 0.886717 0.750000 0.461305
Si Si5 0.500000 0.500000 0.081589
Si Si6 0.335334 0.078442 0.823481
O O1 0.955592 0.573845 0.230296
O O2 0.896399 0.465832 0.008080
O O3 0.185264 0.331183 0.394134
O O4 0.249926 0.494500 0.295626
O O5 0.749901 0.335838 0.333989
O O6 0.965310 0.250000 0.408651
O O7 0.877286 0.250000 0.137668
O O8 0.431613 0.570121 0.186651
O O9 0.591849 0.553939 0.973884
#
# Coordination Sequence:
#
# PCOD9360692 Si02
#       6
#     4   8   4   4   4   8
#     4  10  20  34  58  86 124 170 206 248 314 384
#     4  11  21  38  60  89 130 169 206 256 313 378
#     4  12  26  42  66  98 132 168 208 256 318 386
#     4  12  24  38  62 100 136 170 206 244 312 402
#     4  10  24  46  68  88 120 168 224 272 316 362
#     4  11  24  44  67  93 126 168 216 269 317 364
#
# _framework density 21.371670000000002
#
# number of rings (size 3 to 8) (size 9 to 14) (size 15 to 20)
#    0.000    1.000    0.000    9.000    0.000    3.000 
#    0.000    5.000    0.000    0.000    0.000    0.000 
#    0.000    0.000    0.000    0.000    0.000    0.000 
#
# Total GULP energy -89345.857997 kJ/mol
# GULP energy per Si atom -5584.116125 kJ/mol
# Density = 2.132303 g / cm^3
# Si number density = 21.371670 Si / 1000 Ang^3
#
#
#
# Elastic Constant Matrix: (Units=GPa)
#
#
# Indices 1 2 3 4 5 6 
#
# 1 62.2291 29.3984 19.6124 0.0000 0.0000 0.0000
# 2 29.3984 138.1230 10.0407 0.0000 0.0000 0.0000
# 3 19.6124 10.0407 112.4576 0.0000 0.0000 0.0000
# 4 0.0000 0.0000 0.0000 109.1253 0.0000 0.0000
# 5 0.0000 0.0000 0.0000 0.0000 42.5836 0.0000
# 6 0.0000 0.0000 0.0000 0.0000 0.0000 32.8589
#
#
#
# Elastic Compliance Matrix: (Units=1/GPa)
#
#
# Indices 1 2 3 4 5 6 
#
# 1 0.018783 -0.003784 -0.002938 0.000000 0.000000 0.000000
# 2 -0.003784 0.008050 -0.000059 0.000000 0.000000 0.000000
# 3 -0.002938 -0.000059 0.009410 0.000000 0.000000 0.000000
# 4 0.000000 0.000000 0.000000 0.009164 0.000000 0.000000
# 5 0.000000 0.000000 0.000000 0.000000 0.023483 0.000000
# 6 0.000000 0.000000 0.000000 0.000000 0.000000 0.030433
#
#
# Mechanical properties :
#
#
# Convention : Reuss Voigt Hill
#
# Bulk Modulus (GPa) = 44.08983 47.87917 45.98450
# Shear Modulus (GPa) = 41.51265 53.83079 47.67172
#
# Velocity S-wave (km/s) = 4.41206 5.02420 4.72805
# Velocity P-wave (km/s) = 6.82861 7.49056 7.16723
#
# Compressibility (1/GPa) = 0.02268097
#
# Stress axis : x y z
#
# Youngs Moduli (GPa) = 53.23858 124.22891 106.27163
#
# Poissons Ratio (x) = 0.47012 0.31222
# Poissons Ratio (y) = 0.20147 0.00624
# Poissons Ratio (z) = 0.15641 0.00730
#
# Static dielectric constant tensor:
#      x y z
#    x 1.917150 0.000000 0.000000 
#    y 0.000000 1.063970 0.000000 
#    z 0.000000 0.000000 1.751400 
# 
# From -- ./inp_files/2468.got.cif
#   From: 2010.05.17/outbox.cif.g08.bks.cpg/sg39_2_cif.got.tgz:2468.got - 2010.06.03 18:22:40.
