data_PCOD9360981
_publ_section_title
;
Structure prediction by ZEFSAII (Michael W. Deem and Ramdas Pophale) SiO2 
 PCOD9360981
Probable space group: A B M 2
;
_chemical_formula_sum "Si O2"
_cell_formula_units_Z 60
_cell_length_a 23.170780
_cell_length_b 7.849238
_cell_length_c 14.488226
_cell_angle_alpha 90.000000
_cell_angle_beta 90.000000
_cell_angle_gamma 90.000000
_cell_volume 2635.016647
_symmetry_space_group_name_H-M "A B M 2"
_symmetry_group_IT_number 39
_symmetry_cell_setting 'orthorhombic'
loop_
_space_group_symop_operation_xyz
x,y,z
-x,-y,z
-x,1/2+y,z
x,1/2-y,z
x,1/2+y,1/2+z
-x,1/2-y,1/2+z
-x,y,1/2+z
x,-y,1/2+z
loop_
_atom_site_type_symbol
_atom_site_label
_atom_site_fract_x
_atom_site_fract_y
_atom_site_fract_z
Si Si1 0.906644 0.540887 0.656180
Si Si2 0.653724 0.953158 0.143272
Si Si3 0.778634 0.447795 0.933465
Si Si4 0.092573 0.958435 0.936365
Si Si5 0.778750 0.947033 0.657189
Si Si6 0.653730 0.448598 0.434683
Si Si7 0.000000 0.000000 0.296188
Si Si8 0.435135 0.055603 0.285886
O O1 0.912231 0.750000 0.669455
O O2 0.914928 0.511421 0.546287
O O3 0.841676 0.485258 0.683519
O O4 0.952513 0.444304 0.719606
O O5 0.647224 0.750000 0.135869
O O6 0.602417 0.029567 0.204280
O O7 0.717504 0.977606 0.185584
O O8 0.652515 0.019561 0.038848
O O9 0.774169 0.250000 0.907226
O O10 0.842349 0.509070 0.907668
O O11 0.720114 0.536441 0.902061
O O12 0.779193 0.457425 0.045291
O O13 0.086196 0.750000 0.923023
O O14 0.047154 0.056983 0.873056
O O15 0.777892 0.750000 0.683637
O O16 0.638093 0.250000 0.434337
O O17 0.607125 0.540990 0.372584
O O18 0.441226 0.250000 0.258371
O O19 0.500000 0.000000 0.303956
#
# Coordination Sequence:
#
# PCOD9360981 Si02
#       8
#     8   8   8   8   8   8   4   8
#     4   9  19  35  51  71 102 136 174 222 272 325
#     4   9  20  38  60  86 115 143 179 229 278 323
#     4   8  15  32  56  79 105 142 183 222 274 336
#     4   9  19  35  52  71 101 139 177 221 273 330
#     4   8  15  31  56  80 104 139 180 222 274 333
#     4  10  20  37  61  89 116 143 181 231 280 324
#     4  12  20  30  50  76 100 134 182 226 272 326
#     4  11  24  41  58  82 117 156 191 223 264 318
#
# _framework density 22.770254999999999
#
# number of rings (size 3 to 8) (size 9 to 14) (size 15 to 20)
#    0.000    2.667    0.000    3.200    0.000    3.200 
#    0.000    6.667    0.000    6.400    0.000    0.000 
#    0.000    0.000    0.000    0.000    0.000    0.000 
#
# Total GULP energy -167103.517899 kJ/mol
# GULP energy per Si atom -5570.117263 kJ/mol
# Density = 2.271843 g / cm^3
# Si number density = 22.770255 Si / 1000 Ang^3
#
#
#
# Elastic Constant Matrix: (Units=GPa)
#
#
# Indices 1 2 3 4 5 6 
#
# 1 185.2945 14.0963 49.1884 0.0000 0.0000 0.0000
# 2 14.0963 33.4077 0.0166 0.0000 0.0000 0.0000
# 3 49.1884 0.0166 109.2753 0.0000 0.0000 0.0000
# 4 0.0000 0.0000 0.0000 -0.7077 0.0000 0.0000
# 5 0.0000 0.0000 0.0000 0.0000 30.4307 0.0000
# 6 0.0000 0.0000 0.0000 0.0000 0.0000 30.5197
#
#
#
# Elastic Compliance Matrix: (Units=1/GPa)
#
#
# Indices 1 2 3 4 5 6 
#
# 1 0.006361 -0.002683 -0.002863 0.000000 0.000000 0.000000
# 2 -0.002683 0.031065 0.001203 0.000000 0.000000 0.000000
# 3 -0.002863 0.001203 0.010440 0.000000 0.000000 0.000000
# 4 0.000000 0.000000 0.000000 -1.412959 0.000000 0.000000
# 5 0.000000 0.000000 0.000000 0.000000 0.032862 0.000000
# 6 0.000000 0.000000 0.000000 0.000000 0.000000 0.032766
#
#
# Mechanical properties :
#
#
# Convention : Reuss Voigt Hill
#
# Bulk Modulus (GPa) = 25.52331 50.50891 38.01611
# Shear Modulus (GPa) = -3.91322 29.69362 12.89020
#
# Velocity S-wave (km/s) = -1.31236 3.61509 2.38186
# Velocity P-wave (km/s) = 2.98948 6.29724 4.92911
#
# Compressibility (1/GPa) = 0.03917988
#
# Stress axis : x y z
#
# Youngs Moduli (GPa) = 157.21162 32.19107 95.78851
#
# Poissons Ratio (x) = 0.08635 0.27423
# Poissons Ratio (y) = 0.42172 -0.11521
# Poissons Ratio (z) = 0.45007 -0.03872
#
# Static dielectric constant tensor:
#      x y z
#    x 1.852600 0.000000 0.000000 
#    y 0.000000 1.895610 0.000000 
#    z 0.000000 0.000000 1.907530 
# 
# From -- ./inp_files/10501.got.cif
#   From: 2010.05.17/outbox.cif.g08.bks.cpg/sg39_6_cif.got.tgz:10501.got - 2010.06.03 18:22:40.
