data_PCOD9360992
_publ_section_title
;
Structure prediction by ZEFSAII (Michael W. Deem and Ramdas Pophale) SiO2 
 PCOD9360992
Probable space group: A B M 2
;
_chemical_formula_sum "Si O2"
_cell_formula_units_Z 56
_cell_length_a 11.156520
_cell_length_b 15.150623
_cell_length_c 17.560815
_cell_angle_alpha 90.000000
_cell_angle_beta 90.000000
_cell_angle_gamma 90.000000
_cell_volume 2968.273451
_symmetry_space_group_name_H-M "A B M 2"
_symmetry_group_IT_number 39
_symmetry_cell_setting 'orthorhombic'
loop_
_space_group_symop_operation_xyz
x,y,z
-x,-y,z
-x,1/2+y,z
x,1/2-y,z
x,1/2+y,1/2+z
-x,1/2-y,1/2+z
-x,y,1/2+z
x,-y,1/2+z
loop_
_atom_site_type_symbol
_atom_site_label
_atom_site_fract_x
_atom_site_fract_y
_atom_site_fract_z
Si Si1 0.242665 0.350016 0.848040
Si Si2 0.440563 0.648701 0.214512
Si Si3 0.354830 0.005515 0.446376
Si Si4 0.667580 0.850480 0.317451
Si Si5 0.934377 0.907173 0.718314
Si Si6 0.281866 0.027668 0.616990
Si Si7 0.181877 0.346598 0.178697
O O1 0.231042 0.250000 0.877557
O O2 0.346456 0.351559 0.783937
O O3 0.288829 0.418817 0.911534
O O4 0.125433 0.374218 0.797112
O O5 0.444352 0.750000 0.183875
O O6 0.565467 0.627844 0.255249
O O7 0.396548 0.575423 0.155321
O O8 0.333528 0.081606 0.384827
O O9 0.298252 0.030925 0.527051
O O10 0.500000 0.000000 0.454120
O O11 0.646096 0.750000 0.342942
O O12 0.787683 0.855241 0.268352
O O13 0.828627 0.921178 0.656907
O O14 0.038671 0.851846 0.677589
O O15 0.000000 0.000000 0.733435
O O16 0.249993 0.926185 0.637474
O O17 0.224750 0.250000 0.153464
#
# Coordination Sequence:
#
# PCOD9360992 Si02
#       7
#     8   8   8   8   8   8   8
#     4  10  20  37  62  88 117 157 202 244 295 352
#     4   9  18  36  60  84 111 150 196 246 291 341
#     4  12  24  36  56  88 127 163 186 237 303 368
#     4  10  21  38  60  87 117 151 198 248 295 347
#     4   9  18  39  63  87 114 152 207 257 293 344
#     4  10  23  36  57  89 120 156 197 238 294 359
#     4  10  21  38  63  88 115 154 202 251 289 338
#
# _framework density 18.866185999999999
#
# number of rings (size 3 to 8) (size 9 to 14) (size 15 to 20)
#    0.000    2.000    1.429    3.000    2.000    1.714 
#    0.000    6.429    0.000    1.714    0.000    0.000 
#    0.000    0.000    0.000    0.000    0.000    0.000 
#
# Total GULP energy -156092.293620 kJ/mol
# GULP energy per Si atom -5574.724772 kJ/mol
# Density = 1.882325 g / cm^3
# Si number density = 18.866186 Si / 1000 Ang^3
#
#
#
# Elastic Constant Matrix: (Units=GPa)
#
#
# Indices 1 2 3 4 5 6 
#
# 1 56.8471 56.2071 49.2632 0.0000 0.0000 0.0000
# 2 56.2071 125.6949 72.1969 0.0000 0.0000 0.0000
# 3 49.2632 72.1969 92.0681 0.0000 0.0000 0.0000
# 4 0.0000 0.0000 0.0000 1.6897 0.0000 0.0000
# 5 0.0000 0.0000 0.0000 0.0000 13.7214 0.0000
# 6 0.0000 0.0000 0.0000 0.0000 0.0000 7.8003
#
#
#
# Elastic Compliance Matrix: (Units=1/GPa)
#
#
# Indices 1 2 3 4 5 6 
#
# 1 0.038439 -0.009780 -0.012898 0.000000 0.000000 0.000000
# 2 -0.009780 0.016964 -0.008070 0.000000 0.000000 0.000000
# 3 -0.012898 -0.008070 0.024091 0.000000 0.000000 0.000000
# 4 0.000000 0.000000 0.000000 0.591821 0.000000 0.000000
# 5 0.000000 0.000000 0.000000 0.000000 0.072879 0.000000
# 6 0.000000 0.000000 0.000000 0.000000 0.000000 0.128200
#
#
# Mechanical properties :
#
#
# Convention : Reuss Voigt Hill
#
# Bulk Modulus (GPa) = 55.56257 69.99383 62.77820
# Shear Modulus (GPa) = 5.31978 11.10516 8.21247
#
# Velocity S-wave (km/s) = 1.68103 2.42880 2.08865
# Velocity P-wave (km/s) = 5.76911 6.71164 6.25814
#
# Compressibility (1/GPa) = 0.01799773
#
# Stress axis : x y z
#
# Youngs Moduli (GPa) = 26.01557 58.94742 41.50919
#
# Poissons Ratio (x) = 0.57651 0.53539
# Poissons Ratio (y) = 0.25443 0.33497
# Poissons Ratio (z) = 0.33555 0.47569
#
# Static dielectric constant tensor:
#      x y z
#    x 1.720420 0.000000 0.000000 
#    y 0.000000 1.746780 0.000000 
#    z 0.000000 0.000000 1.594090 
# 
# From -- ./inp_files/9295.got.cif
#   From: 2010.05.17/outbox.cif.g08.bks.cpg/sg39_5_cif.got.tgz:9295.got - 2010.06.03 18:22:40.
