data_PCOD9360046
_publ_section_title
;
Structure prediction by ZEFSAII (Michael W. Deem and Ramdas Pophale) SiO2 
 PCOD9360046
Probable space group: A B M 2
;
_chemical_formula_sum "Si O2"
_cell_formula_units_Z 44
_cell_length_a 29.840454
_cell_length_b 13.716948
_cell_length_c 5.020121
_cell_angle_alpha 90.000000
_cell_angle_beta 90.000000
_cell_angle_gamma 90.000000
_cell_volume 2054.835706
_symmetry_space_group_name_H-M "A B M 2"
_symmetry_group_IT_number 39
_symmetry_cell_setting 'orthorhombic'
loop_
_space_group_symop_operation_xyz
x,y,z
-x,-y,z
-x,1/2+y,z
x,1/2-y,z
x,1/2+y,1/2+z
-x,1/2-y,1/2+z
-x,y,1/2+z
x,-y,1/2+z
loop_
_atom_site_type_symbol
_atom_site_label
_atom_site_fract_x
_atom_site_fract_y
_atom_site_fract_z
Si Si1 0.593580 0.569628 0.067130
Si Si2 0.214256 0.568793 0.536565
Si Si3 0.529404 0.750000 0.183211
Si Si4 0.024889 0.134002 0.980723
Si Si5 0.691934 0.933109 0.166336
Si Si6 0.879654 0.063694 0.669772
O O1 0.589209 0.482191 0.281879
O O2 0.557986 0.653693 0.118764
O O3 0.643862 0.612812 0.105260
O O4 0.214443 0.523623 0.241850
O O5 0.261484 0.620287 0.598265
O O6 0.166623 0.618566 0.596594
O O7 0.513344 0.750000 0.487584
O O8 0.021376 0.250000 0.966404
O O9 0.073783 0.112137 0.092637
O O10 0.013429 0.098590 0.685240
O O11 0.692535 0.972661 0.467563
O O12 0.878512 0.968673 0.475995
#
# Coordination Sequence:
#
# PCOD9360046 Si02
#       6
#     8   8   4   8   8   8
#     4  10  21  38  60  84 112 151 192 231 279 335
#     4   8  14  25  43  70  98 123 154 195 249 303
#     4  12  26  40  58  86 118 152 190 240 284 324
#     4  10  21  35  48  63  89 127 161 195 243 296
#     4   8  14  27  49  74  99 132 169 204 249 309
#     4  10  19  30  48  73  96 120 155 203 247 292
#
# _framework density 21.412904000000001
#
# number of rings (size 3 to 8) (size 9 to 14) (size 15 to 20)
#    0.000    2.545    0.000    2.182    0.000    4.364 
#    0.000    0.000    2.000    0.000    0.000    0.000 
#    0.000    0.000    0.000    0.000    0.000    0.000 
#
# Total GULP energy -122667.919401 kJ/mol
# GULP energy per Si atom -5575.814518 kJ/mol
# Density = 2.136417 g / cm^3
# Si number density = 21.412904 Si / 1000 Ang^3
#
#
#
# Elastic Constant Matrix: (Units=GPa)
#
#
# Indices 1 2 3 4 5 6 
#
# 1 113.9197 13.7699 -4.9776 0.0000 0.0000 0.0000
# 2 13.7699 39.2208 -6.1291 0.0000 0.0000 0.0000
# 3 -4.9776 -6.1291 82.7567 0.0000 0.0000 0.0000
# 4 0.0000 0.0000 0.0000 5.7792 0.0000 0.0000
# 5 0.0000 0.0000 0.0000 0.0000 37.2098 0.0000
# 6 0.0000 0.0000 0.0000 0.0000 0.0000 -15.9953
#
#
#
# Elastic Compliance Matrix: (Units=1/GPa)
#
#
# Indices 1 2 3 4 5 6 
#
# 1 0.009175 -0.003172 0.000317 0.000000 0.000000 0.000000
# 2 -0.003172 0.026892 0.001801 0.000000 0.000000 0.000000
# 3 0.000317 0.001801 0.012236 0.000000 0.000000 0.000000
# 4 0.000000 0.000000 0.000000 0.173034 0.000000 0.000000
# 5 0.000000 0.000000 0.000000 0.000000 0.026875 0.000000
# 6 0.000000 0.000000 0.000000 0.000000 0.000000 -0.062519
#
#
# Mechanical properties :
#
#
# Convention : Reuss Voigt Hill
#
# Bulk Modulus (GPa) = 21.64731 26.80262 24.22496
# Shear Modulus (GPa) = 24.60630 20.94768 22.77699
#
# Velocity S-wave (km/s) = 3.39357 3.13113 3.26499
# Velocity P-wave (km/s) = 5.04841 5.06124 5.05483
#
# Compressibility (1/GPa) = 0.04619512
#
# Stress axis : x y z
#
# Youngs Moduli (GPa) = 108.98766 37.18626 81.72569
#
# Poissons Ratio (x) = 0.11795 -0.02590
# Poissons Ratio (y) = 0.34569 -0.14718
# Poissons Ratio (z) = -0.03454 -0.06697
#
# Static dielectric constant tensor:
#      x y z
#    x 1.874080 0.000000 0.000000 
#    y 0.000000 1.737850 0.000000 
#    z 0.000000 0.000000 1.744550 
# 
# From -- ./inp_files/1375.got.cif
#   From: 2010.05.17/outbox.cif.g08.bks.cpg/sg39_1_cif.got.tgz:1375.got - 2010.06.03 18:22:40.
