data_PCOD9360212
_publ_section_title
;
Structure prediction by ZEFSAII (Michael W. Deem and Ramdas Pophale) SiO2 
 PCOD9360212
Probable space group: A B M 2
;
_chemical_formula_sum "Si O2"
_cell_formula_units_Z 56
_cell_length_a 15.537097
_cell_length_b 8.913559
_cell_length_c 20.326531
_cell_angle_alpha 90.000000
_cell_angle_beta 90.000000
_cell_angle_gamma 90.000000
_cell_volume 2815.038165
_symmetry_space_group_name_H-M "A B M 2"
_symmetry_group_IT_number 39
_symmetry_cell_setting 'orthorhombic'
loop_
_space_group_symop_operation_xyz
x,y,z
-x,-y,z
-x,1/2+y,z
x,1/2-y,z
x,1/2+y,1/2+z
-x,1/2-y,1/2+z
-x,y,1/2+z
x,-y,1/2+z
loop_
_atom_site_type_symbol
_atom_site_label
_atom_site_fract_x
_atom_site_fract_y
_atom_site_fract_z
Si Si1 0.220744 0.930184 0.462490
Si Si2 0.646121 0.074907 0.636696
Si Si3 0.826473 0.928812 0.594626
Si Si4 0.413646 0.071376 0.770517
Si Si5 0.221635 0.572393 0.313489
Si Si6 0.087987 0.428084 0.215766
Si Si7 0.586859 0.077462 0.489568
O O1 0.221218 0.750000 0.475838
O O2 0.191568 0.954598 0.388076
O O3 0.320495 0.983274 0.467036
O O4 0.168930 0.011413 0.520049
O O5 0.665739 0.250000 0.650614
O O6 0.592294 0.071467 0.569161
O O7 0.733839 0.986062 0.621404
O O8 0.599921 0.000003 0.698293
O O9 0.831254 0.750000 0.597329
O O10 0.894201 0.002995 0.643842
O O11 0.424183 0.250000 0.765610
O O12 0.323734 0.041011 0.807596
O O13 0.500000 0.000000 0.799884
O O14 0.210930 0.750000 0.298429
O O15 0.166879 0.477938 0.262062
O O16 0.081794 0.250000 0.212422
O O17 0.000000 0.500000 0.242033
O O18 0.583901 0.250000 0.468174
O O19 0.500000 0.000000 0.467163
#
# Coordination Sequence:
#
# PCOD9360212 Si02
#       7
#     8   8   8   8   8   8   8
#     4   9  20  39  60  83 119 166 208 252 310 367
#     4  10  19  33  53  79 114 157 204 257 314 366
#     4  11  21  37  62  93 124 155 199 251 309 371
#     4  11  22  34  53  83 122 167 214 262 311 366
#     4  10  22  42  64  89 126 169 212 259 311 369
#     4  12  25  43  70  99 128 160 201 252 312 376
#     4   9  18  30  47  74 109 152 204 254 304 356
#
# _framework density 19.893159000000001
#
# number of rings (size 3 to 8) (size 9 to 14) (size 15 to 20)
#    0.000    1.714    1.429    4.714    0.000    5.714 
#    0.000    0.714    0.000    3.429    0.000    0.000 
#    0.000    0.000    0.000    0.000    0.000    0.000 
#
# Total GULP energy -156441.304965 kJ/mol
# GULP energy per Si atom -5587.189463 kJ/mol
# Density = 1.984788 g / cm^3
# Si number density = 19.893159 Si / 1000 Ang^3
#
#
#
# Elastic Constant Matrix: (Units=GPa)
#
#
# Indices 1 2 3 4 5 6 
#
# 1 63.8682 47.5644 21.0640 0.0000 0.0000 0.0000
# 2 47.5644 123.0102 54.8264 0.0000 0.0000 0.0000
# 3 21.0640 54.8264 90.2297 0.0000 0.0000 0.0000
# 4 0.0000 0.0000 0.0000 6.5106 0.0000 0.0000
# 5 0.0000 0.0000 0.0000 0.0000 -2.9529 0.0000
# 6 0.0000 0.0000 0.0000 0.0000 0.0000 29.9510
#
#
#
# Elastic Compliance Matrix: (Units=1/GPa)
#
#
# Indices 1 2 3 4 5 6 
#
# 1 0.021990 -0.008523 0.000045 0.000000 0.000000 0.000000
# 2 -0.008523 0.014452 -0.006792 0.000000 0.000000 0.000000
# 3 0.000045 -0.006792 0.015199 0.000000 0.000000 0.000000
# 4 0.000000 0.000000 0.000000 0.153596 0.000000 0.000000
# 5 0.000000 0.000000 0.000000 0.000000 -0.338652 0.000000
# 6 0.000000 0.000000 0.000000 0.000000 0.000000 0.033388
#
#
# Mechanical properties :
#
#
# Convention : Reuss Voigt Hill
#
# Bulk Modulus (GPa) = 47.38894 58.22419 52.80657
# Shear Modulus (GPa) = -80.05933 16.94528 -31.55702
#
# Velocity S-wave (km/s) = -6.35075 2.92175 -3.98719
# Velocity P-wave (km/s) = 5.46833 6.38077 2.32504
#
# Compressibility (1/GPa) = 0.02110197
#
# Stress axis : x y z
#
# Youngs Moduli (GPa) = 45.47618 69.19377 65.79280
#
# Poissons Ratio (x) = 0.58973 -0.00298
# Poissons Ratio (y) = 0.38759 0.44686
# Poissons Ratio (z) = -0.00206 0.46996
#
# Static dielectric constant tensor:
#      x y z
#    x 1.732940 0.000000 0.000000 
#    y 0.000000 1.667110 0.000000 
#    z 0.000000 0.000000 1.708940 
# 
# From -- ./inp_files/14795.got.cif
#   From: 2010.05.17/outbox.cif.g08.bks.cpg/sg39_8_cif.got.tgz:14795.got - 2010.06.03 18:22:40.
