data_PCOD9360195
_publ_section_title
;
Structure prediction by ZEFSAII (Michael W. Deem and Ramdas Pophale) SiO2 
 PCOD9360195
Probable space group: A B M 2
;
_chemical_formula_sum "Si O2"
_cell_formula_units_Z 64
_cell_length_a 9.900742
_cell_length_b 14.261234
_cell_length_c 19.534601
_cell_angle_alpha 90.000000
_cell_angle_beta 90.000000
_cell_angle_gamma 90.000000
_cell_volume 2758.223120
_symmetry_space_group_name_H-M "A B M 2"
_symmetry_group_IT_number 39
_symmetry_cell_setting 'orthorhombic'
loop_
_space_group_symop_operation_xyz
x,y,z
-x,-y,z
-x,1/2+y,z
x,1/2-y,z
x,1/2+y,1/2+z
-x,1/2-y,1/2+z
-x,y,1/2+z
x,-y,1/2+z
loop_
_atom_site_type_symbol
_atom_site_label
_atom_site_fract_x
_atom_site_fract_y
_atom_site_fract_z
Si Si1 0.805615 0.463263 0.434080
Si Si2 0.106755 0.137497 0.649785
Si Si3 0.459429 0.892826 0.610980
Si Si4 0.485054 0.357078 0.266388
Si Si5 0.837532 0.443951 0.588029
Si Si6 0.781645 0.361700 0.300294
Si Si7 0.459490 0.648572 0.462890
Si Si8 0.278476 0.856286 0.867636
O O1 0.871555 0.443510 0.507266
O O2 0.846877 0.402587 0.368521
O O3 0.648772 0.432948 0.449730
O O4 0.813606 0.569293 0.406716
O O5 0.130596 0.250000 0.635638
O O6 0.141599 0.119974 0.729311
O O7 0.954757 0.106804 0.630641
O O8 0.184747 0.053686 0.609121
O O9 0.497352 0.855296 0.684804
O O10 0.298746 0.887635 0.601655
O O11 0.515224 0.853755 0.540157
O O12 0.500000 0.000000 0.612882
O O13 0.482244 0.250000 0.289873
O O14 0.625806 0.397942 0.293998
O O15 0.340488 0.392198 0.294853
O O16 0.774464 0.250000 0.305976
O O17 0.389579 0.750000 0.453175
O O18 0.584851 0.644304 0.412714
O O19 0.223948 0.750000 0.862608
#
# Coordination Sequence:
#
# PCOD9360195 Si02
#       8
#     8   8   8   8   8   8   8   8
#     4  11  21  36  64  91 125 168 215 271 330 401
#     4  10  23  46  70  91 125 169 222 286 332 377
#     4  11  22  34  59  94 129 170 208 258 329 400
#     4  10  21  35  54  90 134 170 210 258 320 397
#     4  10  24  43  65  98 126 166 226 270 331 397
#     4  10  21  38  66  99 128 173 224 271 331 396
#     4  10  19  33  51  82 128 171 213 256 310 390
#     4  10  21  34  53  88 135 176 207 255 321 397
#
# _framework density 23.203341999999999
#
# number of rings (size 3 to 8) (size 9 to 14) (size 15 to 20)
#    0.000    1.750    1.250    3.375    3.500    3.500 
#    0.000    5.625    0.000    0.000    0.000    0.000 
#    0.000    0.000    0.000    0.000    0.000    0.000 
#
# Total GULP energy -178617.735460 kJ/mol
# GULP energy per Si atom -5581.804233 kJ/mol
# Density = 2.315053 g / cm^3
# Si number density = 23.203342 Si / 1000 Ang^3
#
#
#
# Elastic Constant Matrix: (Units=GPa)
#
#
# Indices 1 2 3 4 5 6 
#
# 1 32.4644 -22.9133 1.0144 0.0000 0.0000 0.0000
# 2 -22.9133 73.4362 -0.9398 0.0000 0.0000 0.0000
# 3 1.0144 -0.9398 149.3424 0.0000 0.0000 0.0000
# 4 0.0000 0.0000 0.0000 39.7917 0.0000 0.0000
# 5 0.0000 0.0000 0.0000 0.0000 23.2246 0.0000
# 6 0.0000 0.0000 0.0000 0.0000 0.0000 14.1489
#
#
#
# Elastic Compliance Matrix: (Units=1/GPa)
#
#
# Indices 1 2 3 4 5 6 
#
# 1 0.039508 0.012325 -0.000191 0.000000 0.000000 0.000000
# 2 0.012325 0.017463 0.000026 0.000000 0.000000 0.000000
# 3 -0.000191 0.000026 0.006697 0.000000 0.000000 0.000000
# 4 0.000000 0.000000 0.000000 0.025131 0.000000 0.000000
# 5 0.000000 0.000000 0.000000 0.000000 0.043058 0.000000
# 6 0.000000 0.000000 0.000000 0.000000 0.000000 0.070677
#
#
# Mechanical properties :
#
#
# Convention : Reuss Voigt Hill
#
# Bulk Modulus (GPa) = 11.36521 23.28508 17.32514
# Shear Modulus (GPa) = 24.09138 33.97182 29.03160
#
# Velocity S-wave (km/s) = 3.22572 3.83050 3.54104
# Velocity P-wave (km/s) = 4.33387 5.44248 4.91950
#
# Compressibility (1/GPa) = 0.08798784
#
# Stress axis : x y z
#
# Youngs Moduli (GPa) = 25.31165 57.26382 149.30983
#
# Poissons Ratio (x) = -0.70575 0.02849
# Poissons Ratio (y) = -0.31195 -0.00391
# Poissons Ratio (z) = 0.00483 -0.00150
#
# Static dielectric constant tensor:
#      x y z
#    x 1.929530 0.000000 0.000000 
#    y 0.000000 1.884670 0.000000 
#    z 0.000000 0.000000 1.891570 
# 
# From -- ./inp_files/12345.got.cif
#   From: 2010.05.17/outbox.cif.g08.bks.cpg/sg39_7_cif.got.tgz:12345.got - 2010.06.03 18:22:40.
