data_PCOD9360461
_publ_section_title
;
Structure prediction by ZEFSAII (Michael W. Deem and Ramdas Pophale) SiO2 
 PCOD9360461
Probable space group: A B M 2
;
_chemical_formula_sum "Si O2"
_cell_formula_units_Z 48
_cell_length_a 12.006300
_cell_length_b 17.855677
_cell_length_c 11.360840
_cell_angle_alpha 90.000000
_cell_angle_beta 90.000000
_cell_angle_gamma 90.000000
_cell_volume 2435.543863
_symmetry_space_group_name_H-M "A B M 2"
_symmetry_group_IT_number 39
_symmetry_cell_setting 'orthorhombic'
loop_
_space_group_symop_operation_xyz
x,y,z
-x,-y,z
-x,1/2+y,z
x,1/2-y,z
x,1/2+y,1/2+z
-x,1/2-y,1/2+z
-x,y,1/2+z
x,-y,1/2+z
loop_
_atom_site_type_symbol
_atom_site_label
_atom_site_fract_x
_atom_site_fract_y
_atom_site_fract_z
Si Si1 0.663623 0.662333 0.925760
Si Si2 0.749195 0.917166 0.307526
Si Si3 0.111690 0.413975 0.540828
Si Si4 0.139349 0.905948 0.567708
Si Si5 0.303716 0.080124 0.699716
Si Si6 0.549093 0.420840 0.968835
O O1 0.676551 0.750000 0.938634
O O2 0.643509 0.636735 0.791896
O O3 0.775921 0.621282 0.968386
O O4 0.555163 0.632253 0.993564
O O5 0.840533 0.906728 0.409670
O O6 0.799964 0.882852 0.188899
O O7 0.634703 0.891073 0.369720
O O8 0.726211 0.003757 0.269678
O O9 0.123629 0.503836 0.563528
O O10 0.194544 0.383278 0.640262
O O11 0.988358 0.381493 0.553597
O O12 0.382587 0.063166 0.588339
O O13 0.500000 0.500000 0.926313
#
# Coordination Sequence:
#
# PCOD9360461 Si02
#       6
#     8   8   8   8   8   8
#     4  12  26  41  59  88 131 167 200 247 311 377
#     4  10  19  36  62  95 122 147 201 264 307 344
#     4   9  19  35  65  93 118 148 203 263 304 350
#     4  10  21  35  60  94 122 156 196 252 311 360
#     4  10  21  38  59  91 121 156 201 254 310 357
#     4  11  22  38  63  90 120 160 209 259 300 355
#
# _framework density 19.708124999999999
#
# number of rings (size 3 to 8) (size 9 to 14) (size 15 to 20)
#    0.000    1.667    3.333    2.000    7.000    2.000 
#    0.000    0.833    0.000    2.000    0.000    0.000 
#    0.000    0.000    0.000    0.000    0.000    0.000 
#
# Total GULP energy -133799.569542 kJ/mol
# GULP energy per Si atom -5574.982064 kJ/mol
# Density = 1.966327 g / cm^3
# Si number density = 19.708125 Si / 1000 Ang^3
#
#
#
# Elastic Constant Matrix: (Units=GPa)
#
#
# Indices 1 2 3 4 5 6 
#
# 1 142.0248 21.8640 28.9089 0.0000 0.0000 0.0000
# 2 21.8640 31.0497 0.6557 0.0000 0.0000 0.0000
# 3 28.9089 0.6557 62.8593 0.0000 0.0000 0.0000
# 4 0.0000 0.0000 0.0000 4.9923 0.0000 0.0000
# 5 0.0000 0.0000 0.0000 0.0000 23.3325 0.0000
# 6 0.0000 0.0000 0.0000 0.0000 0.0000 8.5734
#
#
#
# Elastic Compliance Matrix: (Units=1/GPa)
#
#
# Indices 1 2 3 4 5 6 
#
# 1 0.008791 -0.006106 -0.003979 0.000000 0.000000 0.000000
# 2 -0.006106 0.036455 0.002428 0.000000 0.000000 0.000000
# 3 -0.003979 0.002428 0.017713 0.000000 0.000000 0.000000
# 4 0.000000 0.000000 0.000000 0.200310 0.000000 0.000000
# 5 0.000000 0.000000 0.000000 0.000000 0.042859 0.000000
# 6 0.000000 0.000000 0.000000 0.000000 0.000000 0.116640
#
#
# Mechanical properties :
#
#
# Convention : Reuss Voigt Hill
#
# Bulk Modulus (GPa) = 20.98895 37.64345 29.31620
# Shear Modulus (GPa) = 11.01409 19.67998 15.34703
#
# Velocity S-wave (km/s) = 2.36659 3.16345 2.79358
# Velocity P-wave (km/s) = 4.25919 5.69957 5.03119
#
# Compressibility (1/GPa) = 0.04764412
#
# Stress axis : x y z
#
# Youngs Moduli (GPa) = 113.75223 27.43113 56.45479
#
# Poissons Ratio (x) = 0.16750 0.22465
# Poissons Ratio (y) = 0.69460 -0.13707
# Poissons Ratio (z) = 0.45265 -0.06660
#
# Static dielectric constant tensor:
#      x y z
#    x 1.744240 0.000000 0.000000 
#    y 0.000000 1.681890 0.000000 
#    z 0.000000 0.000000 1.710150 
# 
# From -- ./inp_files/5909.got.cif
#   From: 2010.05.17/outbox.cif.g08.bks.cpg/sg39_3_cif.got.tgz:5909.got - 2010.06.03 18:22:40.
