data_PCOD9360644
_publ_section_title
;
Structure prediction by ZEFSAII (Michael W. Deem and Ramdas Pophale) SiO2 
 PCOD9360644
Probable space group: A B M 2
;
_chemical_formula_sum "Si O2"
_cell_formula_units_Z 48
_cell_length_a 9.891941
_cell_length_b 26.535798
_cell_length_c 8.648998
_cell_angle_alpha 90.000000
_cell_angle_beta 90.000000
_cell_angle_gamma 90.000000
_cell_volume 2270.280226
_symmetry_space_group_name_H-M "A B M 2"
_symmetry_group_IT_number 39
_symmetry_cell_setting 'orthorhombic'
loop_
_space_group_symop_operation_xyz
x,y,z
-x,-y,z
-x,1/2+y,z
x,1/2-y,z
x,1/2+y,1/2+z
-x,1/2-y,1/2+z
-x,y,1/2+z
x,-y,1/2+z
loop_
_atom_site_type_symbol
_atom_site_label
_atom_site_fract_x
_atom_site_fract_y
_atom_site_fract_z
Si Si1 0.006889 0.750000 0.301210
Si Si2 0.811160 0.641057 0.052095
Si Si3 0.656236 0.356332 0.874785
Si Si4 0.901078 0.829681 0.549228
Si Si5 0.604896 0.072646 0.398589
Si Si6 0.467246 0.250000 0.283209
Si Si7 0.300527 0.750000 0.482390
Si Si8 0.500000 0.000000 0.649336
O O1 0.082150 0.705986 0.196879
O O2 0.924900 0.793771 0.399844
O O3 0.737358 0.631813 0.216254
O O4 0.790250 0.701279 0.016241
O O5 0.970594 0.632937 0.055500
O O6 0.731708 0.608963 0.924694
O O7 0.529803 0.392936 0.896112
O O8 0.595929 0.300404 0.853607
O O9 0.758536 0.355924 0.018544
O O10 0.591594 0.035383 0.543483
O O11 0.593375 0.036315 0.252220
O O12 0.626165 0.250000 0.318765
O O13 0.421858 0.250000 0.105417
#
# Coordination Sequence:
#
# PCOD9360644 Si02
#       8
#     4   8   8   8   8   4   4   4
#     4  10  20  36  54  84 124 190 218 246 278 362
#     4  11  22  40  60  92 128 170 206 257 300 370
#     4  11  22  40  60  92 128 170 206 257 300 370
#     4  11  22  38  58  85 130 176 222 249 298 363
#     4  11  22  43  70  92 122 151 210 263 328 374
#     4  10  20  34  53  86 130 162 200 246 291 348
#     4  10  20  34  53  86 130 162 200 246 291 348
#     4  10  24  42  68  98 112 158 200 268 328 396
#
# _framework density 21.142764
#
# number of rings (size 3 to 8) (size 9 to 14) (size 15 to 20)
#    0.000    1.333    5.000    2.000    2.333    1.333 
#    6.000    0.000    0.000    6.000    0.000    0.000 
#    0.000    0.000    0.000    0.000    0.000    0.000 
#
# Total GULP energy -133710.147463 kJ/mol
# GULP energy per Si atom -5571.256144 kJ/mol
# Density = 2.109464 g / cm^3
# Si number density = 21.142764 Si / 1000 Ang^3
#
#
#
# Elastic Constant Matrix: (Units=GPa)
#
#
# Indices 1 2 3 4 5 6 
#
# 1 82.9258 21.3915 5.9550 0.0000 0.0000 0.0000
# 2 21.3915 92.5509 16.3582 0.0000 0.0000 0.0000
# 3 5.9550 16.3582 53.2820 0.0000 0.0000 0.0000
# 4 0.0000 0.0000 0.0000 19.4596 0.0000 0.0000
# 5 0.0000 0.0000 0.0000 0.0000 25.1740 0.0000
# 6 0.0000 0.0000 0.0000 0.0000 0.0000 -33.7913
#
#
#
# Elastic Compliance Matrix: (Units=1/GPa)
#
#
# Indices 1 2 3 4 5 6 
#
# 1 0.012839 -0.002870 -0.000554 0.000000 0.000000 0.000000
# 2 -0.002870 0.012066 -0.003384 0.000000 0.000000 0.000000
# 3 -0.000554 -0.003384 0.019869 0.000000 0.000000 0.000000
# 4 0.000000 0.000000 0.000000 0.051388 0.000000 0.000000
# 5 0.000000 0.000000 0.000000 0.000000 0.039723 0.000000
# 6 0.000000 0.000000 0.000000 0.000000 0.000000 -0.029593
#
#
# Mechanical properties :
#
#
# Convention : Reuss Voigt Hill
#
# Bulk Modulus (GPa) = 32.09300 35.12980 33.61140
# Shear Modulus (GPa) = 38.37488 14.50540 26.44014
#
# Velocity S-wave (km/s) = 4.26495 2.62213 3.54015
# Velocity P-wave (km/s) = 6.28213 5.08124 5.71333
#
# Compressibility (1/GPa) = 0.03115944
#
# Stress axis : x y z
#
# Youngs Moduli (GPa) = 77.88775 82.87617 50.33011
#
# Poissons Ratio (x) = 0.23782 0.02788
# Poissons Ratio (y) = 0.22351 0.17030
# Poissons Ratio (z) = 0.04315 0.28043
#
# Static dielectric constant tensor:
#      x y z
#    x 1.798970 0.000000 0.000000 
#    y 0.000000 1.744380 0.000000 
#    z 0.000000 0.000000 1.857610 
# 
# From -- ./inp_files/2355.got.cif
#   From: 2010.05.17/outbox.cif.g08.bks.cpg/sg39_2_cif.got.tgz:2355.got - 2010.06.03 18:22:40.
