data_PCOD9360673
_publ_section_title
;
Structure prediction by ZEFSAII (Michael W. Deem and Ramdas Pophale) SiO2 
 PCOD9360673
Probable space group: A B M 2
;
_chemical_formula_sum "Si O2"
_cell_formula_units_Z 64
_cell_length_a 14.397470
_cell_length_b 8.383773
_cell_length_c 26.959546
_cell_angle_alpha 90.000000
_cell_angle_beta 90.000000
_cell_angle_gamma 90.000000
_cell_volume 3254.155242
_symmetry_space_group_name_H-M "A B M 2"
_symmetry_group_IT_number 39
_symmetry_cell_setting 'orthorhombic'
loop_
_space_group_symop_operation_xyz
x,y,z
-x,-y,z
-x,1/2+y,z
x,1/2-y,z
x,1/2+y,1/2+z
-x,1/2-y,1/2+z
-x,y,1/2+z
x,-y,1/2+z
loop_
_atom_site_type_symbol
_atom_site_label
_atom_site_fract_x
_atom_site_fract_y
_atom_site_fract_z
Si Si1 0.212955 0.943251 0.637190
Si Si2 0.785700 0.442503 0.942578
Si Si3 0.395039 0.439679 0.184504
Si Si4 0.605271 0.559207 0.899730
Si Si5 0.606751 0.058711 0.290041
Si Si6 0.106138 0.442814 0.235938
Si Si7 0.894338 0.559233 0.540397
Si Si8 0.893766 0.443019 0.844952
O O1 0.210381 0.750000 0.636000
O O2 0.320234 0.994015 0.643868
O O3 0.160449 0.997434 0.687287
O O4 0.161315 0.005736 0.588995
O O5 0.787393 0.250000 0.942370
O O6 0.679415 0.497289 0.939054
O O7 0.837083 0.500673 0.892571
O O8 0.840804 0.498707 0.991062
O O9 0.500000 0.500000 0.178196
O O10 0.399195 0.250000 0.183869
O O11 0.355854 0.488626 0.238803
O O12 0.500000 0.500000 0.906977
O O13 0.603759 0.750000 0.899674
O O14 0.639751 0.505402 0.844484
O O15 0.610408 0.250000 0.287248
O O16 0.500000 0.000000 0.289709
O O17 0.108131 0.250000 0.235823
O O18 0.141563 0.496267 0.290433
O O19 0.000000 0.500000 0.232327
O O20 0.896272 0.750000 0.538959
O O21 0.000000 0.500000 0.541607
O O22 0.892523 0.250000 0.845526
O O23 0.000000 0.500000 0.849158
#
# Coordination Sequence:
#
# PCOD9360673 Si02
#       8
#     8   8   8   8   8   8   8   8
#     4  10  22  38  58  84 112 150 198 239 289 346
#     4  10  22  38  59  85 113 150 195 238 289 344
#     4  10  20  34  55  82 115 154 195 239 288 342
#     4  10  21  36  56  84 118 156 196 239 285 339
#     4   9  17  30  49  77 112 151 192 231 278 333
#     4   9  18  33  52  78 109 142 180 224 282 344
#     4  11  24  42  64  89 115 149 192 241 293 345
#     4   9  18  33  54  79 111 146 180 229 285 343
#
# _framework density 19.667162999999999
#
# number of rings (size 3 to 8) (size 9 to 14) (size 15 to 20)
#    0.000    2.250    0.000    3.000    1.750    5.500 
#    0.000    0.625    0.000    1.500    0.000    0.000 
#    0.000    0.000    0.000    0.000    0.000    0.000 
#
# Total GULP energy -178587.653398 kJ/mol
# GULP energy per Si atom -5580.864169 kJ/mol
# Density = 1.962240 g / cm^3
# Si number density = 19.667163 Si / 1000 Ang^3
#
#
#
# Elastic Constant Matrix: (Units=GPa)
#
#
# Indices 1 2 3 4 5 6 
#
# 1 137.0795 19.4933 100.8577 0.0000 0.0000 0.0000
# 2 19.4933 22.1108 27.9071 0.0000 0.0000 0.0000
# 3 100.8577 27.9071 159.2628 0.0000 0.0000 0.0000
# 4 0.0000 0.0000 0.0000 21.3914 0.0000 0.0000
# 5 0.0000 0.0000 0.0000 0.0000 38.5699 0.0000
# 6 0.0000 0.0000 0.0000 0.0000 0.0000 21.0495
#
#
#
# Elastic Compliance Matrix: (Units=1/GPa)
#
#
# Indices 1 2 3 4 5 6 
#
# 1 0.013696 -0.001448 -0.008419 0.000000 0.000000 0.000000
# 2 -0.001448 0.058222 -0.009285 0.000000 0.000000 0.000000
# 3 -0.008419 -0.009285 0.013238 0.000000 0.000000 0.000000
# 4 0.000000 0.000000 0.000000 0.046748 0.000000 0.000000
# 5 0.000000 0.000000 0.000000 0.000000 0.025927 0.000000
# 6 0.000000 0.000000 0.000000 0.000000 0.000000 0.047507
#
#
# Mechanical properties :
#
#
# Convention : Reuss Voigt Hill
#
# Bulk Modulus (GPa) = 21.34431 68.32994 44.83712
# Shear Modulus (GPa) = 19.28568 27.54849 23.41709
#
# Velocity S-wave (km/s) = 3.13486 3.74670 3.45435
# Velocity P-wave (km/s) = 4.89688 7.31680 6.22555
#
# Compressibility (1/GPa) = 0.04685088
#
# Stress axis : x y z
#
# Youngs Moduli (GPa) = 73.01603 17.17551 75.54108
#
# Poissons Ratio (x) = 0.02487 0.63602
# Poissons Ratio (y) = 0.10571 0.70142
# Poissons Ratio (z) = 0.61476 0.15948
#
# Static dielectric constant tensor:
#      x y z
#    x 1.680740 0.000000 0.000000 
#    y 0.000000 1.671400 0.000000 
#    z 0.000000 0.000000 1.709760 
# 
# From -- ./inp_files/16225.got.cif
#   From: 2010.05.17/outbox.cif.g08.bks.cpg/sg39_9_cif.got.tgz:16225.got - 2010.06.03 18:22:40.
