data_PCOD9360189
_publ_section_title
;
Structure prediction by ZEFSAII (Michael W. Deem and Ramdas Pophale) SiO2 
 PCOD9360189
Probable space group: A B M 2
;
_chemical_formula_sum "Si O2"
_cell_formula_units_Z 56
_cell_length_a 24.642019
_cell_length_b 8.404919
_cell_length_c 14.822989
_cell_angle_alpha 90.000000
_cell_angle_beta 90.000000
_cell_angle_gamma 90.000000
_cell_volume 3070.051118
_symmetry_space_group_name_H-M "A B M 2"
_symmetry_group_IT_number 39
_symmetry_cell_setting 'orthorhombic'
loop_
_space_group_symop_operation_xyz
x,y,z
-x,-y,z
-x,1/2+y,z
x,1/2-y,z
x,1/2+y,1/2+z
-x,1/2-y,1/2+z
-x,y,1/2+z
x,-y,1/2+z
loop_
_atom_site_type_symbol
_atom_site_label
_atom_site_fract_x
_atom_site_fract_y
_atom_site_fract_z
Si Si1 0.143549 0.055708 0.376590
Si Si2 0.353207 0.440921 0.732271
Si Si3 0.058583 0.559564 0.728339
Si Si4 0.058588 0.559542 0.024802
Si Si5 0.561289 0.440717 0.875797
Si Si6 0.646813 0.556339 0.525080
Si Si7 0.732393 0.057354 0.875836
O O1 0.144836 0.250000 0.376840
O O2 0.108246 0.005446 0.290373
O O3 0.108254 0.005333 0.462798
O O4 0.205573 0.001274 0.376358
O O5 0.353133 0.250000 0.731440
O O6 0.405219 0.498591 0.789206
O O7 0.353253 0.498566 0.628513
O O8 0.301299 0.499433 0.789226
O O9 0.057215 0.750000 0.728630
O O10 0.064975 0.499905 0.626592
O O11 0.000000 0.500000 0.762007
O O12 0.057240 0.750000 0.024486
O O13 0.000000 0.500000 0.991162
O O14 0.500000 0.500000 0.876606
O O15 0.562074 0.250000 0.873936
O O16 0.594842 0.492899 0.965091
O O17 0.646762 0.750000 0.527457
O O18 0.698983 0.507753 0.465355
O O19 0.732039 0.250000 0.874250
#
# Coordination Sequence:
#
# PCOD9360189 Si02
#       7
#     8   8   8   8   8   8   8
#     4   9  19  33  52  73  98 131 168 205 252 305
#     4  10  19  34  54  79 105 134 170 210 249 295
#     4  10  19  33  50  72  99 130 164 205 252 305
#     4  10  19  33  51  73  98 130 166 206 253 306
#     4  10  20  36  55  79 108 140 171 208 250 295
#     4   8  17  33  54  74 100 135 169 202 247 295
#     4   9  18  36  54  72  99 134 170 208 251 301
#
# _framework density 18.240739000000001
#
# number of rings (size 3 to 8) (size 9 to 14) (size 15 to 20)
#    0.000    2.571    0.000    3.857    0.000    1.714 
#    0.000   15.000    0.000    0.000    0.000    0.000 
#    0.000    0.000    0.000    0.000    0.000    0.000 
#
# Total GULP energy -156183.324105 kJ/mol
# GULP energy per Si atom -5577.975861 kJ/mol
# Density = 1.819922 g / cm^3
# Si number density = 18.240739 Si / 1000 Ang^3
#
#
#
# Elastic Constant Matrix: (Units=GPa)
#
#
# Indices 1 2 3 4 5 6 
#
# 1 211.3096 27.1417 110.8174 0.0000 0.0000 0.0000
# 2 27.1417 34.6318 22.5745 0.0000 0.0000 0.0000
# 3 110.8174 22.5745 171.1437 0.0000 0.0000 0.0000
# 4 0.0000 0.0000 0.0000 18.0483 0.0000 0.0000
# 5 0.0000 0.0000 0.0000 0.0000 7.4603 0.0000
# 6 0.0000 0.0000 0.0000 0.0000 0.0000 24.9691
#
#
#
# Elastic Compliance Matrix: (Units=1/GPa)
#
#
# Indices 1 2 3 4 5 6 
#
# 1 0.007429 -0.002940 -0.004423 0.000000 0.000000 0.000000
# 2 -0.002940 0.032754 -0.002417 0.000000 0.000000 0.000000
# 3 -0.004423 -0.002417 0.009026 0.000000 0.000000 0.000000
# 4 0.000000 0.000000 0.000000 0.055407 0.000000 0.000000
# 5 0.000000 0.000000 0.000000 0.000000 0.134043 0.000000
# 6 0.000000 0.000000 0.000000 0.000000 0.000000 0.040049
#
#
# Mechanical properties :
#
#
# Convention : Reuss Voigt Hill
#
# Bulk Modulus (GPa) = 33.72609 82.01692 57.87151
# Shear Modulus (GPa) = 16.22575 27.19898 21.71236
#
# Velocity S-wave (km/s) = 2.98574 3.86568 3.45385
# Velocity P-wave (km/s) = 5.51505 8.06138 6.90658
#
# Compressibility (1/GPa) = 0.02965064
#
# Stress axis : x y z
#
# Youngs Moduli (GPa) = 134.59862 30.53016 110.79399
#
# Poissons Ratio (x) = 0.08975 0.49003
# Poissons Ratio (y) = 0.39566 0.26779
# Poissons Ratio (z) = 0.59532 0.07379
#
# Static dielectric constant tensor:
#      x y z
#    x 1.613490 0.000000 0.000000 
#    y 0.000000 1.630080 0.000000 
#    z 0.000000 0.000000 1.621740 
# 
# From -- ./inp_files/10374.got.cif
#   From: 2010.05.17/outbox.cif.g08.bks.cpg/sg39_6_cif.got.tgz:10374.got - 2010.06.03 18:22:40.
