data_PCOD9360915
_publ_section_title
;
Structure prediction by ZEFSAII (Michael W. Deem and Ramdas Pophale) SiO2 
 PCOD9360915
Probable space group: A B M 2
;
_chemical_formula_sum "Si O2"
_cell_formula_units_Z 52
_cell_length_a 19.177034
_cell_length_b 7.795887
_cell_length_c 14.197431
_cell_angle_alpha 90.000000
_cell_angle_beta 90.000000
_cell_angle_gamma 90.000000
_cell_volume 2122.544188
_symmetry_space_group_name_H-M "A B M 2"
_symmetry_group_IT_number 39
_symmetry_cell_setting 'orthorhombic'
loop_
_space_group_symop_operation_xyz
x,y,z
-x,-y,z
-x,1/2+y,z
x,1/2-y,z
x,1/2+y,1/2+z
-x,1/2-y,1/2+z
-x,y,1/2+z
x,-y,1/2+z
loop_
_atom_site_type_symbol
_atom_site_label
_atom_site_fract_x
_atom_site_fract_y
_atom_site_fract_z
Si Si1 0.922403 0.945853 0.660530
Si Si2 0.080200 0.049567 0.887373
Si Si3 0.426169 0.556798 0.084380
Si Si4 0.784377 0.932205 0.090629
Si Si5 0.689927 0.946346 0.744577
Si Si6 0.579437 0.442875 0.380349
Si Si7 0.819156 0.750000 0.475439
O O1 0.906061 0.750000 0.627471
O O2 0.915942 0.953614 0.772989
O O3 0.866730 0.062557 0.610243
O O4 0.000000 0.000000 0.636141
O O5 0.093905 0.250000 0.913757
O O6 0.132464 0.904897 0.926333
O O7 0.000000 0.000000 0.911879
O O8 0.500000 0.500000 0.126529
O O9 0.434723 0.750000 0.048170
O O10 0.411460 0.447752 0.992044
O O11 0.367264 0.551890 0.161408
O O12 0.760914 0.750000 0.050869
O O13 0.752757 0.955642 0.195660
O O14 0.771055 0.097893 0.027418
O O15 0.713520 0.750000 0.764182
O O16 0.646571 0.027247 0.830716
O O17 0.500000 0.500000 0.361549
O O18 0.582638 0.250000 0.343000
#
# Coordination Sequence:
#
# PCOD9360915 Si02
#       7
#     8   8   8   8   8   8   4
#     4  10  21  42  68  96 126 164 215 269 321 394
#     4  10  21  40  68  97 126 164 208 266 339 388
#     4  10  20  36  62  93 128 164 207 263 319 378
#     4  12  26  44  65  92 129 174 219 265 329 389
#     4  10  22  43  62  84 129 174 211 269 322 381
#     4  10  20  36  62  94 127 162 211 263 316 382
#     4  12  24  44  62  92 136 160 208 276 308 408
#
# _framework density 24.498901
#
# number of rings (size 3 to 8) (size 9 to 14) (size 15 to 20)
#    0.000    1.538    2.308    3.231    2.154    3.077 
#    5.538    0.000    0.000    0.000    0.000    0.000 
#    0.000    0.000    0.000    0.000    0.000    0.000 
#
# Total GULP energy -144913.776965 kJ/mol
# GULP energy per Si atom -5573.606806 kJ/mol
# Density = 2.444314 g / cm^3
# Si number density = 24.498901 Si / 1000 Ang^3
#
#
#
# Elastic Constant Matrix: (Units=GPa)
#
#
# Indices 1 2 3 4 5 6 
#
# 1 42.0257 2.5407 -0.7035 0.0000 0.0000 0.0000
# 2 2.5407 172.3840 13.3862 0.0000 0.0000 0.0000
# 3 -0.7035 13.3862 61.8553 0.0000 0.0000 0.0000
# 4 0.0000 0.0000 0.0000 29.9309 0.0000 0.0000
# 5 0.0000 0.0000 0.0000 0.0000 -23.1267 0.0000
# 6 0.0000 0.0000 0.0000 0.0000 0.0000 16.6238
#
#
#
# Elastic Compliance Matrix: (Units=1/GPa)
#
#
# Indices 1 2 3 4 5 6 
#
# 1 0.023824 -0.000379 0.000353 0.000000 0.000000 0.000000
# 2 -0.000379 0.005906 -0.001282 0.000000 0.000000 0.000000
# 3 0.000353 -0.001282 0.016448 0.000000 0.000000 0.000000
# 4 0.000000 0.000000 0.000000 0.033410 0.000000 0.000000
# 5 0.000000 0.000000 0.000000 0.000000 -0.043240 0.000000
# 6 0.000000 0.000000 0.000000 0.000000 0.000000 0.060155
#
#
# Mechanical properties :
#
#
# Convention : Reuss Voigt Hill
#
# Bulk Modulus (GPa) = 22.95578 34.07907 28.51742
# Shear Modulus (GPa) = 43.99852 22.08838 33.04345
#
# Velocity S-wave (km/s) = 4.24245 3.00593 3.67655
# Velocity P-wave (km/s) = 5.77826 5.09786 5.44869
#
# Compressibility (1/GPa) = 0.04356202
#
# Stress axis : x y z
#
# Youngs Moduli (GPa) = 41.97492 169.31453 60.79646
#
# Poissons Ratio (x) = 0.06409 -0.02145
# Poissons Ratio (y) = 0.01589 0.07797
# Poissons Ratio (z) = -0.01481 0.21714
#
# Static dielectric constant tensor:
#      x y z
#    x 2.256260 0.000000 0.000000 
#    y 0.000000 1.927420 0.000000 
#    z 0.000000 0.000000 1.968610 
# 
# From -- ./inp_files/12894.got.cif
#   From: 2010.05.17/outbox.cif.g08.bks.cpg/sg39_7_cif.got.tgz:12894.got - 2010.06.03 18:22:40.
