data_PCOD9360663
_publ_section_title
;
Structure prediction by ZEFSAII (Michael W. Deem and Ramdas Pophale) SiO2 
 PCOD9360663
Probable space group: A B M 2
;
_chemical_formula_sum "Si O2"
_cell_formula_units_Z 56
_cell_length_a 24.301658
_cell_length_b 8.893851
_cell_length_c 14.652709
_cell_angle_alpha 90.000000
_cell_angle_beta 90.000000
_cell_angle_gamma 90.000000
_cell_volume 3166.968026
_symmetry_space_group_name_H-M "A B M 2"
_symmetry_group_IT_number 39
_symmetry_cell_setting 'orthorhombic'
loop_
_space_group_symop_operation_xyz
x,y,z
-x,-y,z
-x,1/2+y,z
x,1/2-y,z
x,1/2+y,1/2+z
-x,1/2-y,1/2+z
-x,y,1/2+z
x,-y,1/2+z
loop_
_atom_site_type_symbol
_atom_site_label
_atom_site_fract_x
_atom_site_fract_y
_atom_site_fract_z
Si Si1 0.855550 0.569305 0.706180
Si Si2 0.641950 0.069250 0.568944
Si Si3 0.264814 0.570317 0.715612
Si Si4 0.439979 0.570413 0.211125
Si Si5 0.941521 0.569846 0.342949
Si Si6 0.057411 0.070822 0.556807
Si Si7 0.346972 0.569017 0.357641
O O1 0.853301 0.750000 0.711325
O O2 0.794678 0.503104 0.706215
O O3 0.891699 0.503467 0.788449
O O4 0.890461 0.524298 0.616488
O O5 0.634298 0.250000 0.571737
O O6 0.696383 0.033867 0.628466
O O7 0.647566 0.024017 0.463325
O O8 0.591774 0.992458 0.622444
O O9 0.259968 0.750000 0.721608
O O10 0.296790 0.508069 0.804245
O O11 0.500000 0.500000 0.219460
O O12 0.443904 0.750000 0.205237
O O13 0.401440 0.532698 0.298361
O O14 0.942407 0.750000 0.331006
O O15 0.935329 0.534546 0.450351
O O16 0.000000 0.500000 0.313415
O O17 0.052025 0.250000 0.564853
O O18 0.000000 0.000000 0.588651
O O19 0.339512 0.750000 0.354524
#
# Coordination Sequence:
#
# PCOD9360663 Si02
#       7
#     8   8   8   8   8   8   8
#     4  11  22  36  54  77 105 139 176 216 262 312
#     4   9  19  37  58  79 106 140 179 219 264 313
#     4  10  21  36  54  78 106 137 175 221 265 311
#     4  10  20  34  54  81 113 144 177 217 260 306
#     4  10  20  36  55  78 106 136 172 214 263 318
#     4   9  20  36  54  76 104 136 170 211 260 314
#     4   9  19  37  58  79 106 142 178 216 262 312
#
# _framework density 17.682528000000001
#
# number of rings (size 3 to 8) (size 9 to 14) (size 15 to 20)
#    0.000    2.286    0.000    2.143    0.000    6.286 
#    0.000    4.286    0.000    0.000    0.000    0.000 
#    0.000    0.000    0.000    0.000    0.000    0.000 
#
# Total GULP energy -156300.686867 kJ/mol
# GULP energy per Si atom -5582.167388 kJ/mol
# Density = 1.764228 g / cm^3
# Si number density = 17.682528 Si / 1000 Ang^3
#
#
#
# Elastic Constant Matrix: (Units=GPa)
#
#
# Indices 1 2 3 4 5 6 
#
# 1 173.5654 61.3122 77.7350 0.0000 0.0000 0.0000
# 2 61.3122 43.4552 49.1986 0.0000 0.0000 0.0000
# 3 77.7350 49.1986 138.6732 0.0000 0.0000 0.0000
# 4 0.0000 0.0000 0.0000 23.3728 0.0000 0.0000
# 5 0.0000 0.0000 0.0000 0.0000 15.5351 0.0000
# 6 0.0000 0.0000 0.0000 0.0000 0.0000 34.0049
#
#
#
# Elastic Compliance Matrix: (Units=1/GPa)
#
#
# Indices 1 2 3 4 5 6 
#
# 1 0.011598 -0.015047 -0.001163 0.000000 0.000000 0.000000
# 2 -0.015047 0.057983 -0.012137 0.000000 0.000000 0.000000
# 3 -0.001163 -0.012137 0.012169 0.000000 0.000000 0.000000
# 4 0.000000 0.000000 0.000000 0.042785 0.000000 0.000000
# 5 0.000000 0.000000 0.000000 0.000000 0.064370 0.000000
# 6 0.000000 0.000000 0.000000 0.000000 0.000000 0.029408
#
#
# Mechanical properties :
#
#
# Convention : Reuss Voigt Hill
#
# Bulk Modulus (GPa) = 39.90919 81.35392 60.63156
# Shear Modulus (GPa) = 17.64557 25.74576 21.69566
#
# Velocity S-wave (km/s) = 3.16240 3.81990 3.50659
# Velocity P-wave (km/s) = 5.99610 8.09713 7.12449
#
# Compressibility (1/GPa) = 0.02505689
#
# Stress axis : x y z
#
# Youngs Moduli (GPa) = 86.22417 17.24643 82.17703
#
# Poissons Ratio (x) = 0.25951 0.09556
# Poissons Ratio (y) = 1.29741 0.99734
# Poissons Ratio (z) = 0.10026 0.20931
#
# Static dielectric constant tensor:
#      x y z
#    x 1.567290 0.000000 0.000000 
#    y 0.000000 1.591170 0.000000 
#    z 0.000000 0.000000 1.606260 
# 
# From -- ./inp_files/10330.got.cif
#   From: 2010.05.17/outbox.cif.g08.bks.cpg/sg39_6_cif.got.tgz:10330.got - 2010.06.03 18:22:40.
