data_PCOD9360736
_publ_section_title
;
Structure prediction by ZEFSAII (Michael W. Deem and Ramdas Pophale) SiO2 
 PCOD9360736
Probable space group: A B M 2
;
_chemical_formula_sum "Si O2"
_cell_formula_units_Z 64
_cell_length_a 25.109666
_cell_length_b 9.147388
_cell_length_c 14.850559
_cell_angle_alpha 90.000000
_cell_angle_beta 90.000000
_cell_angle_gamma 90.000000
_cell_volume 3410.993079
_symmetry_space_group_name_H-M "A B M 2"
_symmetry_group_IT_number 39
_symmetry_cell_setting 'orthorhombic'
loop_
_space_group_symop_operation_xyz
x,y,z
-x,-y,z
-x,1/2+y,z
x,1/2-y,z
x,1/2+y,1/2+z
-x,1/2-y,1/2+z
-x,y,1/2+z
x,-y,1/2+z
loop_
_atom_site_type_symbol
_atom_site_label
_atom_site_fract_x
_atom_site_fract_y
_atom_site_fract_z
Si Si1 0.945381 0.923303 0.180950
Si Si2 0.331360 0.573242 0.865801
Si Si3 0.136496 0.925300 0.527445
Si Si4 0.661831 0.424002 0.173726
Si Si5 0.552476 0.083872 0.885286
Si Si6 0.553356 0.582037 0.165120
Si Si7 0.943982 0.574819 0.392476
Si Si8 0.249714 0.576501 0.022870
O O1 0.953431 0.750000 0.172706
O O2 0.895763 0.963375 0.118632
O O3 0.936153 0.955526 0.286134
O O4 0.000000 0.000000 0.151962
O O5 0.334918 0.750000 0.852824
O O6 0.325443 0.494977 0.770332
O O7 0.388546 0.526446 0.907738
O O8 0.283086 0.542875 0.932674
O O9 0.135768 0.750000 0.516413
O O10 0.103348 0.003146 0.448540
O O11 0.196168 0.984804 0.530032
O O12 0.653920 0.250000 0.182430
O O13 0.606915 0.496639 0.140267
O O14 0.709905 0.450532 0.105116
O O15 0.548664 0.250000 0.916970
O O16 0.552205 0.083313 0.775306
O O17 0.500000 0.000000 0.915360
O O18 0.500000 0.500000 0.135435
O O19 0.554501 0.750000 0.135318
O O20 0.946464 0.750000 0.405732
O O21 0.000000 0.500000 0.418722
O O22 0.237057 0.750000 0.021946
#
# Coordination Sequence:
#
# PCOD9360736 Si02
#       8
#     8   8   8   8   8   8   8   8
#     4   9  20  37  58  85 116 148 180 218 267 322
#     4   9  19  37  57  75 103 144 183 222 275 333
#     4  11  23  38  57  83 113 147 188 232 275 321
#     4  10  20  35  56  81 108 140 181 229 280 331
#     4   8  14  25  45  72  98 127 165 209 259 319
#     4   9  16  28  49  77 107 140 177 219 273 334
#     4  10  20  37  60  87 118 150 183 220 268 323
#     4  10  23  41  57  76 107 148 190 231 276 327
#
# _framework density 18.762864
#
# number of rings (size 3 to 8) (size 9 to 14) (size 15 to 20)
#    0.000    2.500    0.000    2.625    0.000    8.000 
#    0.000    4.375    0.000    1.500    0.000    0.000 
#    0.000    0.000    0.000    0.000    0.000    0.000 
#
# Total GULP energy -178657.434755 kJ/mol
# GULP energy per Si atom -5583.044836 kJ/mol
# Density = 1.872016 g / cm^3
# Si number density = 18.762864 Si / 1000 Ang^3
#
#
#
# Elastic Constant Matrix: (Units=GPa)
#
#
# Indices 1 2 3 4 5 6 
#
# 1 174.3474 92.5019 67.8806 0.0000 0.0000 0.0000
# 2 92.5019 84.8263 55.3886 0.0000 0.0000 0.0000
# 3 67.8806 55.3886 80.3371 0.0000 0.0000 0.0000
# 4 0.0000 0.0000 0.0000 13.6360 0.0000 0.0000
# 5 0.0000 0.0000 0.0000 0.0000 412.1815 0.0000
# 6 0.0000 0.0000 0.0000 0.0000 0.0000 41.4753
#
#
#
# Elastic Compliance Matrix: (Units=1/GPa)
#
#
# Indices 1 2 3 4 5 6 
#
# 1 0.013849 -0.013571 -0.002345 0.000000 0.000000 0.000000
# 2 -0.013571 0.034739 -0.012485 0.000000 0.000000 0.000000
# 3 -0.002345 -0.012485 0.023037 0.000000 0.000000 0.000000
# 4 0.000000 0.000000 0.000000 0.073335 0.000000 0.000000
# 5 0.000000 0.000000 0.000000 0.000000 0.002426 0.000000
# 6 0.000000 0.000000 0.000000 0.000000 0.000000 0.024111
#
#
# Mechanical properties :
#
#
# Convention : Reuss Voigt Hill
#
# Bulk Modulus (GPa) = 67.45873 85.67255 76.56564
# Shear Modulus (GPa) = 21.43718 101.70788 61.57253
#
# Velocity S-wave (km/s) = 3.38380 7.37053 5.73475
# Velocity P-wave (km/s) = 7.16228 10.87165 9.20573
#
# Compressibility (1/GPa) = 0.01482388
#
# Stress axis : x y z
#
# Youngs Moduli (GPa) = 72.20854 28.78574 43.40878
#
# Poissons Ratio (x) = 0.39064 0.10180
# Poissons Ratio (y) = 0.97991 0.54195
# Poissons Ratio (z) = 0.16935 0.35938
#
# Static dielectric constant tensor:
#      x y z
#    x 1.614010 0.000000 0.000000 
#    y 0.000000 1.631560 0.000000 
#    z 0.000000 0.000000 1.672800 
# 
# From -- ./inp_files/10648.got.cif
#   From: 2010.05.17/outbox.cif.g08.bks.cpg/sg39_6_cif.got.tgz:10648.got - 2010.06.03 18:22:40.
