data_PCOD9360844
_publ_section_title
;
Structure prediction by ZEFSAII (Michael W. Deem and Ramdas Pophale) SiO2 
 PCOD9360844
Probable space group: A B M 2
;
_chemical_formula_sum "Si O2"
_cell_formula_units_Z 64
_cell_length_a 19.298683
_cell_length_b 9.237268
_cell_length_c 19.725781
_cell_angle_alpha 90.000000
_cell_angle_beta 90.000000
_cell_angle_gamma 90.000000
_cell_volume 3516.457911
_symmetry_space_group_name_H-M "A B M 2"
_symmetry_group_IT_number 39
_symmetry_cell_setting 'orthorhombic'
loop_
_space_group_symop_operation_xyz
x,y,z
-x,-y,z
-x,1/2+y,z
x,1/2-y,z
x,1/2+y,1/2+z
-x,1/2-y,1/2+z
-x,y,1/2+z
x,-y,1/2+z
loop_
_atom_site_type_symbol
_atom_site_label
_atom_site_fract_x
_atom_site_fract_y
_atom_site_fract_z
Si Si1 0.427265 0.576572 0.728580
Si Si2 0.299939 0.075267 0.483316
Si Si3 0.572912 0.576545 0.384718
Si Si4 0.698966 0.576213 0.130126
Si Si5 0.165428 0.078548 0.661235
Si Si6 0.073790 0.420324 0.793010
Si Si7 0.071093 0.082162 0.539500
Si Si8 0.841615 0.581347 0.405371
O O1 0.500000 0.500000 0.713960
O O2 0.436375 0.750000 0.725984
O O3 0.407444 0.539697 0.806642
O O4 0.368680 0.537602 0.674299
O O5 0.297741 0.250000 0.494326
O O6 0.366915 0.038919 0.437760
O O7 0.231168 0.038655 0.439822
O O8 0.301841 0.996409 0.555722
O O9 0.500000 0.500000 0.399838
O O10 0.563594 0.750000 0.387621
O O11 0.702657 0.750000 0.124196
O O12 0.765693 0.514302 0.169539
O O13 0.183181 0.250000 0.657400
O O14 0.108240 0.060345 0.719319
O O15 0.130042 0.031283 0.591038
O O16 0.063391 0.250000 0.805462
O O17 0.129835 0.484673 0.845031
O O18 0.000000 0.500000 0.798633
O O19 0.059117 0.250000 0.555950
O O20 0.100993 0.072057 0.464338
O O21 0.000000 0.000000 0.547372
O O22 0.835569 0.750000 0.384138
#
# Coordination Sequence:
#
# PCOD9360844 Si02
#       8
#     8   8   8   8   8   8   8   8
#     4   9  20  38  59  87 117 150 193 235 283 339
#     4  10  21  39  61  83 116 159 193 232 289 346
#     4   9  19  37  61  86 115 153 193 235 283 338
#     4  11  23  37  59  89 119 150 192 244 285 336
#     4  10  22  41  59  81 115 153 193 233 285 348
#     4  11  24  40  60  86 117 151 191 241 291 346
#     4  10  20  36  58  81 107 145 190 231 278 336
#     4  10  21  38  60  83 113 153 193 237 286 343
#
# _framework density 18.200133999999998
#
# number of rings (size 3 to 8) (size 9 to 14) (size 15 to 20)
#    0.000    2.000    1.250    1.500    1.750    5.500 
#    0.000    2.500    0.000    0.000    0.000    0.000 
#    0.000    0.000    0.000    0.000    0.000    0.000 
#
# Total GULP energy -178629.422912 kJ/mol
# GULP energy per Si atom -5582.169466 kJ/mol
# Density = 1.815871 g / cm^3
# Si number density = 18.200134 Si / 1000 Ang^3
#
#
#
# Elastic Constant Matrix: (Units=GPa)
#
#
# Indices 1 2 3 4 5 6 
#
# 1 104.2761 38.8896 32.0683 0.0000 0.0000 0.0000
# 2 38.8896 41.1447 33.6889 0.0000 0.0000 0.0000
# 3 32.0683 33.6889 56.2601 0.0000 0.0000 0.0000
# 4 0.0000 0.0000 0.0000 27.1626 0.0000 0.0000
# 5 0.0000 0.0000 0.0000 0.0000 4.2981 0.0000
# 6 0.0000 0.0000 0.0000 0.0000 0.0000 34.9451
#
#
#
# Elastic Compliance Matrix: (Units=1/GPa)
#
#
# Indices 1 2 3 4 5 6 
#
# 1 0.014811 -0.013904 -0.000117 0.000000 0.000000 0.000000
# 2 -0.013904 0.060736 -0.028444 0.000000 0.000000 0.000000
# 3 -0.000117 -0.028444 0.034873 0.000000 0.000000 0.000000
# 4 0.000000 0.000000 0.000000 0.036815 0.000000 0.000000
# 5 0.000000 0.000000 0.000000 0.000000 0.232659 0.000000
# 6 0.000000 0.000000 0.000000 0.000000 0.000000 0.028616
#
#
# Mechanical properties :
#
#
# Convention : Reuss Voigt Hill
#
# Bulk Modulus (GPa) = 39.22836 45.66384 42.44610
# Shear Modulus (GPa) = 9.96141 19.75010 14.85576
#
# Velocity S-wave (km/s) = 2.34204 3.29775 2.86010
# Velocity P-wave (km/s) = 5.37719 6.29639 5.85486
#
# Compressibility (1/GPa) = 0.02549176
#
# Stress axis : x y z
#
# Youngs Moduli (GPa) = 67.51629 16.46481 28.67522
#
# Poissons Ratio (x) = 0.22892 0.00335
# Poissons Ratio (y) = 0.93874 0.81563
# Poissons Ratio (z) = 0.00788 0.46832
#
# Static dielectric constant tensor:
#      x y z
#    x 1.603180 0.000000 0.000000 
#    y 0.000000 1.613140 0.000000 
#    z 0.000000 0.000000 1.627010 
# 
# From -- ./inp_files/13161.got.cif
#   From: 2010.05.17/outbox.cif.g08.bks.cpg/sg39_7_cif.got.tgz:13161.got - 2010.06.03 18:22:40.
