data_PCOD9360855
_publ_section_title
;
Structure prediction by ZEFSAII (Michael W. Deem and Ramdas Pophale) SiO2 
 PCOD9360855
Probable space group: A B M 2
;
_chemical_formula_sum "Si O2"
_cell_formula_units_Z 56
_cell_length_a 11.335971
_cell_length_b 14.472137
_cell_length_c 15.210685
_cell_angle_alpha 90.000000
_cell_angle_beta 90.000000
_cell_angle_gamma 90.000000
_cell_volume 2495.399961
_symmetry_space_group_name_H-M "A B M 2"
_symmetry_group_IT_number 39
_symmetry_cell_setting 'orthorhombic'
loop_
_space_group_symop_operation_xyz
x,y,z
-x,-y,z
-x,1/2+y,z
x,1/2-y,z
x,1/2+y,1/2+z
-x,1/2-y,1/2+z
-x,y,1/2+z
x,-y,1/2+z
loop_
_atom_site_type_symbol
_atom_site_label
_atom_site_fract_x
_atom_site_fract_y
_atom_site_fract_z
Si Si1 0.950082 0.141407 0.641750
Si Si2 0.480114 0.355509 0.010711
Si Si3 0.563797 0.861513 0.317646
Si Si4 0.727912 0.471699 0.588530
Si Si5 0.169836 0.855798 0.804886
Si Si6 0.641133 0.855825 0.675082
Si Si7 0.097343 0.069741 0.479141
O O1 0.970420 0.250000 0.637500
O O2 0.820622 0.109149 0.610277
O O3 0.936127 0.108187 0.742462
O O4 0.043107 0.100550 0.572776
O O5 0.431117 0.250000 0.003499
O O6 0.516387 0.388409 0.913854
O O7 0.392465 0.423687 0.061067
O O8 0.590203 0.348787 0.076312
O O9 0.574189 0.750000 0.321827
O O10 0.697001 0.896619 0.298922
O O11 0.465438 0.878647 0.242831
O O12 0.720345 0.552345 0.662676
O O13 0.783096 0.517994 0.502231
O O14 0.183687 0.750000 0.775691
O O15 0.127720 0.857725 0.905066
O O16 0.685727 0.750000 0.696840
O O17 0.000000 0.000000 0.441905
#
# Coordination Sequence:
#
# PCOD9360855 Si02
#       7
#     8   8   8   8   8   8   8
#     4  10  22  41  63  86 115 153 200 252 302 353
#     4  10  20  36  58  85 121 159 196 239 286 346
#     4   9  19  36  60  90 120 156 199 238 286 351
#     4  11  22  37  59  88 122 161 196 239 297 350
#     4  10  20  38  64  87 113 154 199 245 299 356
#     4  10  21  37  57  85 122 159 196 239 287 346
#     4  10  23  39  58  85 116 152 199 252 302 352
#
# _framework density 22.441293000000002
#
# number of rings (size 3 to 8) (size 9 to 14) (size 15 to 20)
#    0.000    2.000    0.000    3.000    0.000    7.429 
#    0.000    5.714    0.000    6.857    0.000    0.000 
#    0.000    1.143    0.000    0.000    0.000    0.000 
#
# Total GULP energy -156037.083804 kJ/mol
# GULP energy per Si atom -5572.752993 kJ/mol
# Density = 2.239022 g / cm^3
# Si number density = 22.441293 Si / 1000 Ang^3
#
#
#
# Elastic Constant Matrix: (Units=GPa)
#
#
# Indices 1 2 3 4 5 6 
#
# 1 37.8285 9.6842 -10.6007 0.0000 0.0000 0.0000
# 2 9.6842 68.3121 -4.7098 0.0000 0.0000 0.0000
# 3 -10.6007 -4.7098 85.9071 0.0000 0.0000 0.0000
# 4 0.0000 0.0000 0.0000 24.3764 0.0000 0.0000
# 5 0.0000 0.0000 0.0000 0.0000 -6.7864 0.0000
# 6 0.0000 0.0000 0.0000 0.0000 0.0000 20.5867
#
#
#
# Elastic Compliance Matrix: (Units=1/GPa)
#
#
# Indices 1 2 3 4 5 6 
#
# 1 0.028326 -0.003789 0.003288 0.000000 0.000000 0.000000
# 2 -0.003789 0.015201 0.000366 0.000000 0.000000 0.000000
# 3 0.003288 0.000366 0.012066 0.000000 0.000000 0.000000
# 4 0.000000 0.000000 0.000000 0.041023 0.000000 0.000000
# 5 0.000000 0.000000 0.000000 0.000000 -0.147353 0.000000
# 6 0.000000 0.000000 0.000000 0.000000 0.000000 0.048575
#
#
# Mechanical properties :
#
#
# Convention : Reuss Voigt Hill
#
# Bulk Modulus (GPa) = 18.07577 20.08836 19.08207
# Shear Modulus (GPa) = 302.10391 20.81360 161.45875
#
# Velocity S-wave (km/s) = 11.61516 3.04874 8.49137
# Velocity P-wave (km/s) = 13.70966 4.62213 10.23032
#
# Compressibility (1/GPa) = 0.05532266
#
# Stress axis : x y z
#
# Youngs Moduli (GPa) = 35.30275 65.78488 82.87593
#
# Poissons Ratio (x) = 0.24926 -0.27247
# Poissons Ratio (y) = 0.13376 -0.03032
# Poissons Ratio (z) = -0.11606 -0.02407
#
# Static dielectric constant tensor:
#      x y z
#    x 1.833510 0.000000 0.000000 
#    y 0.000000 1.918650 0.000000 
#    z 0.000000 0.000000 1.844880 
# 
# From -- ./inp_files/9301.got.cif
#   From: 2010.05.17/outbox.cif.g08.bks.cpg/sg39_5_cif.got.tgz:9301.got - 2010.06.03 18:22:40.
