data_PCOD9360575
_publ_section_title
;
Structure prediction by ZEFSAII (Michael W. Deem and Ramdas Pophale) SiO2 
 PCOD9360575
Probable space group: A B M 2
;
_chemical_formula_sum "Si O2"
_cell_formula_units_Z 60
_cell_length_a 6.132710
_cell_length_b 23.779964
_cell_length_c 17.210380
_cell_angle_alpha 90.000000
_cell_angle_beta 90.000000
_cell_angle_gamma 90.000000
_cell_volume 2509.886490
_symmetry_space_group_name_H-M "A B M 2"
_symmetry_group_IT_number 39
_symmetry_cell_setting 'orthorhombic'
loop_
_space_group_symop_operation_xyz
x,y,z
-x,-y,z
-x,1/2+y,z
x,1/2-y,z
x,1/2+y,1/2+z
-x,1/2-y,1/2+z
-x,y,1/2+z
x,-y,1/2+z
loop_
_atom_site_type_symbol
_atom_site_label
_atom_site_fract_x
_atom_site_fract_y
_atom_site_fract_z
Si Si1 0.737692 0.316420 0.669170
Si Si2 0.707465 0.083499 0.207124
Si Si3 0.945373 0.815788 0.793987
Si Si4 0.410956 0.686252 0.045889
Si Si5 0.403029 0.439329 0.333656
Si Si6 0.000000 0.000000 0.306743
Si Si7 0.957725 0.393817 0.062157
Si Si8 0.739318 0.869742 0.937162
O O1 0.774439 0.250000 0.650038
O O2 0.501439 0.328895 0.632391
O O3 0.809307 0.321158 0.759085
O O4 0.897604 0.356949 0.621689
O O5 0.801043 0.141919 0.242148
O O6 0.463540 0.075109 0.242861
O O7 0.835582 0.035234 0.254558
O O8 0.792915 0.072347 0.119157
O O9 0.883278 0.750000 0.785836
O O10 0.901774 0.837214 0.880038
O O11 0.340081 0.750000 0.046217
O O12 0.213069 0.647652 0.021807
O O13 0.615278 0.675272 0.990816
O O14 0.500000 0.500000 0.353909
O O15 0.147278 0.451584 0.347034
O O16 0.547305 0.398287 0.386701
O O17 0.129641 0.411618 0.995781
#
# Coordination Sequence:
#
# PCOD9360575 Si02
#       8
#     8   8   8   8   8   4   8   8
#     4   8  16  32  52  75 108 155 211 262 305 362
#     4   9  20  37  61  89 116 158 216 267 319 385
#     4   9  17  33  57  84 120 164 209 264 324 383
#     4  10  20  33  52  81 119 167 215 258 315 388
#     4   9  20  39  63  90 118 155 204 260 324 386
#     4  10  20  40  68  90 116 154 208 280 334 372
#     4  10  20  35  54  80 120 164 203 256 317 378
#     4  10  21  36  55  87 129 166 206 257 322 404
#
# _framework density 23.905463999999998
#
# number of rings (size 3 to 8) (size 9 to 14) (size 15 to 20)
#    0.000    2.667    0.000    0.800    0.000    8.533 
#    0.000    4.000    0.000   10.400    0.000    0.000 
#    0.000    0.000    0.000    0.000    0.000   16.533 
#
# Total GULP energy -167117.822278 kJ/mol
# GULP energy per Si atom -5570.594076 kJ/mol
# Density = 2.385105 g / cm^3
# Si number density = 23.905464 Si / 1000 Ang^3
#
#
#
# Elastic Constant Matrix: (Units=GPa)
#
#
# Indices 1 2 3 4 5 6 
#
# 1 92.6616 19.5511 46.8735 0.0000 0.0000 0.0000
# 2 19.5511 56.1052 6.7426 0.0000 0.0000 0.0000
# 3 46.8735 6.7426 109.6968 0.0000 0.0000 0.0000
# 4 0.0000 0.0000 0.0000 7.0682 0.0000 0.0000
# 5 0.0000 0.0000 0.0000 0.0000 21.6014 0.0000
# 6 0.0000 0.0000 0.0000 0.0000 0.0000 6.6876
#
#
#
# Elastic Compliance Matrix: (Units=1/GPa)
#
#
# Indices 1 2 3 4 5 6 
#
# 1 0.014784 -0.004425 -0.006045 0.000000 0.000000 0.000000
# 2 -0.004425 0.019281 0.000706 0.000000 0.000000 0.000000
# 3 -0.006045 0.000706 0.011656 0.000000 0.000000 0.000000
# 4 0.000000 0.000000 0.000000 0.141478 0.000000 0.000000
# 5 0.000000 0.000000 0.000000 0.000000 0.046293 0.000000
# 6 0.000000 0.000000 0.000000 0.000000 0.000000 0.149530
#
#
# Mechanical properties :
#
#
# Convention : Reuss Voigt Hill
#
# Bulk Modulus (GPa) = 38.18067 44.97756 41.57911
# Shear Modulus (GPa) = 12.15715 19.42455 15.79085
#
# Velocity S-wave (km/s) = 2.25755 2.85363 2.57291
# Velocity P-wave (km/s) = 4.77510 5.45098 5.12420
#
# Compressibility (1/GPa) = 0.02619126
#
# Stress axis : x y z
#
# Youngs Moduli (GPa) = 67.64268 51.86486 85.79492
#
# Poissons Ratio (x) = 0.22951 0.51863
# Poissons Ratio (y) = 0.29933 -0.06055
# Poissons Ratio (z) = 0.40890 -0.03660
#
# Static dielectric constant tensor:
#      x y z
#    x 2.006080 0.000000 0.000000 
#    y 0.000000 1.924660 0.000000 
#    z 0.000000 0.000000 1.988230 
# 
# From -- ./inp_files/11156.got.cif
#   From: 2010.05.17/outbox.cif.g08.bks.cpg/sg39_6_cif.got.tgz:11156.got - 2010.06.03 18:22:40.
