data_PCOD9360613
_publ_section_title
;
Structure prediction by ZEFSAII (Michael W. Deem and Ramdas Pophale) SiO2 
 PCOD9360613
Probable space group: A B M 2
;
_chemical_formula_sum "Si O2"
_cell_formula_units_Z 64
_cell_length_a 21.241213
_cell_length_b 9.424395
_cell_length_c 14.484477
_cell_angle_alpha 90.000000
_cell_angle_beta 90.000000
_cell_angle_gamma 90.000000
_cell_volume 2899.583452
_symmetry_space_group_name_H-M "A B M 2"
_symmetry_group_IT_number 39
_symmetry_cell_setting 'orthorhombic'
loop_
_space_group_symop_operation_xyz
x,y,z
-x,-y,z
-x,1/2+y,z
x,1/2-y,z
x,1/2+y,1/2+z
-x,1/2-y,1/2+z
-x,y,1/2+z
x,-y,1/2+z
loop_
_atom_site_type_symbol
_atom_site_label
_atom_site_fract_x
_atom_site_fract_y
_atom_site_fract_z
Si Si1 0.702669 0.406620 0.888060
Si Si2 0.938750 0.911500 0.167409
Si Si3 0.559273 0.079409 0.931960
Si Si4 0.061250 0.911500 0.892940
Si Si5 0.702669 0.406620 0.672289
Si Si6 0.817059 0.909776 0.893167
Si Si7 0.559273 0.920591 0.128389
Si Si8 0.182941 0.409776 0.667182
O O1 0.711336 0.250000 0.930914
O O2 0.628764 0.441145 0.891568
O O3 0.718798 0.394080 0.780175
O O4 0.750672 0.523735 0.923876
O O5 0.941109 0.750000 0.134518
O O6 0.939084 0.907787 0.280175
O O7 0.874708 0.989860 0.140134
O O8 0.000000 0.000000 0.139482
O O9 0.548177 0.250000 0.937872
O O10 0.500000 0.000000 0.885565
O O11 0.563632 1.000000 0.030174
O O12 0.058891 0.750000 0.925831
O O13 0.125292 0.989860 0.920215
O O14 0.000000 0.000000 0.920867
O O15 0.711336 0.250000 0.629435
O O16 0.628764 0.441145 0.668781
O O17 0.750672 0.523735 0.636473
O O18 0.825521 0.750000 0.926829
O O19 0.817683 0.903595 0.780175
O O20 0.548177 0.750000 0.122477
O O21 0.500000 0.000000 0.174784
O O22 0.174479 0.250000 0.633520
#
# Coordination Sequence:
#
# PCOD9360613 Si02
#       8
#     8   8   8   8   8   8   8   8
#     4   9  18  32  48  67  92 122 154 188 229 275
#     4   9  15  22  33  50  76 112 151 188 225 268
#     4  10  20  34  52  71  93 121 152 188 229 274
#     4   9  15  22  33  50  76 112 151 188 225 268
#     4   9  18  32  48  67  92 122 154 188 229 275
#     4   9  16  25  38  58  84 114 148 186 228 272
#     4  10  20  34  52  71  93 121 152 188 229 274
#     4   9  16  25  38  58  84 114 148 186 228 272
#
# _framework density 22.072136
#
# number of rings (size 3 to 8) (size 9 to 14) (size 15 to 20)
#    0.000    2.750    0.000    3.000    0.000    8.500 
#    0.000    0.000    0.000    0.000    0.000    0.000 
#    0.000    1.000    0.000   10.500    0.000   15.750 
#
# Total GULP energy -178602.163941 kJ/mol
# GULP energy per Si atom -5581.317623 kJ/mol
# Density = 2.202190 g / cm^3
# Si number density = 22.072136 Si / 1000 Ang^3
#
#
#
# Elastic Constant Matrix: (Units=GPa)
#
#
# Indices 1 2 3 4 5 6 
#
# 1 179.0154 137.4220 -7.9631 0.0000 0.0000 0.0000
# 2 137.4220 221.2300 10.8748 0.0000 0.0000 0.0000
# 3 -7.9631 10.8748 50.5031 0.0000 0.0000 0.0000
# 4 0.0000 0.0000 0.0000 2.7582 0.0000 0.0000
# 5 0.0000 0.0000 0.0000 0.0000 127.2866 0.0000
# 6 0.0000 0.0000 0.0000 0.0000 0.0000 45.8136
#
#
#
# Elastic Compliance Matrix: (Units=1/GPa)
#
#
# Indices 1 2 3 4 5 6 
#
# 1 0.011196 -0.007117 0.003298 0.000000 0.000000 0.000000
# 2 -0.007117 0.009092 -0.003080 0.000000 0.000000 0.000000
# 3 0.003298 -0.003080 0.020984 0.000000 0.000000 0.000000
# 4 0.000000 0.000000 0.000000 0.362561 0.000000 0.000000
# 5 0.000000 0.000000 0.000000 0.000000 0.007856 0.000000
# 6 0.000000 0.000000 0.000000 0.000000 0.000000 0.021828
#
#
# Mechanical properties :
#
#
# Convention : Reuss Voigt Hill
#
# Bulk Modulus (GPa) = 36.39753 81.26843 58.83298
# Shear Modulus (GPa) = 10.95354 55.86600 33.40977
#
# Velocity S-wave (km/s) = 2.23011 5.03643 3.89480
# Velocity P-wave (km/s) = 4.81220 8.40953 6.85118
#
# Compressibility (1/GPa) = 0.02747440
#
# Stress axis : x y z
#
# Youngs Moduli (GPa) = 89.31724 109.98268 47.65542
#
# Poissons Ratio (x) = 0.78272 -0.15716
# Poissons Ratio (y) = 0.63565 0.14678
# Poissons Ratio (z) = -0.29455 0.33875
#
# Static dielectric constant tensor:
#      x y z
#    x 1.801770 0.000000 0.000000 
#    y 0.000000 1.775990 0.000000 
#    z 0.000000 0.000000 1.887930 
# 
# From -- ./inp_files/4005.got.cif
#   From: 2010.05.17/outbox.cif.g08.bks.cpg/sg39_3_cif.got.tgz:4005.got - 2010.06.03 18:22:40.
