data_PCOD9360424
_publ_section_title
;
Structure prediction by ZEFSAII (Michael W. Deem and Ramdas Pophale) SiO2 
 PCOD9360424
Probable space group: A B M 2
;
_chemical_formula_sum "Si O2"
_cell_formula_units_Z 40
_cell_length_a 13.044021
_cell_length_b 17.749545
_cell_length_c 7.693442
_cell_angle_alpha 90.000000
_cell_angle_beta 90.000000
_cell_angle_gamma 90.000000
_cell_volume 1781.227527
_symmetry_space_group_name_H-M "A B M 2"
_symmetry_group_IT_number 39
_symmetry_cell_setting 'orthorhombic'
loop_
_space_group_symop_operation_xyz
x,y,z
-x,-y,z
-x,1/2+y,z
x,1/2-y,z
x,1/2+y,1/2+z
-x,1/2-y,1/2+z
-x,y,1/2+z
x,-y,1/2+z
loop_
_atom_site_type_symbol
_atom_site_label
_atom_site_fract_x
_atom_site_fract_y
_atom_site_fract_z
Si Si1 0.879860 0.838318 0.977490
Si Si2 0.600031 0.052228 0.295370
Si Si3 0.344849 0.338534 0.086194
Si Si4 0.308760 0.907805 0.931020
Si Si5 0.896076 0.661193 0.565520
O O1 0.884898 0.750000 0.027998
O O2 0.872661 0.842953 0.769874
O O3 0.773387 0.865006 0.057172
O O4 0.989648 0.870154 0.034167
O O5 0.591234 0.111994 0.450659
O O6 0.633756 0.090051 0.116000
O O7 0.500000 0.000000 0.274525
O O8 0.685770 0.991660 0.353228
O O9 0.353352 0.250000 0.048439
O O10 0.364025 0.355655 0.287702
O O11 0.193758 0.879971 0.963410
O O12 0.894534 0.750000 0.513832
#
# Coordination Sequence:
#
# PCOD9360424 Si02
#       5
#     8   8   8   8   8
#     4   9  18  35  63 104 148 190 234 293 363 429
#     4  12  27  48  76  99 141 197 244 303 381 438
#     4  11  24  45  76 112 144 184 248 310 359 437
#     4  12  24  43  74 102 142 194 242 295 366 441
#     4  10  19  35  65 103 147 193 241 293 354 432
#
# _framework density 22.456426
#
# number of rings (size 3 to 8) (size 9 to 14) (size 15 to 20)
#    0.000    1.200    4.000    2.400    0.000    4.800 
#    0.000    3.000    0.000    0.000    0.000    0.000 
#    0.000    0.000    0.000    0.000    0.000    0.000 
#
# Total GULP energy -111874.777356 kJ/mol
# GULP energy per Si atom -5593.738868 kJ/mol
# Density = 2.240531 g / cm^3
# Si number density = 22.456426 Si / 1000 Ang^3
#
#
#
# Elastic Constant Matrix: (Units=GPa)
#
#
# Indices 1 2 3 4 5 6 
#
# 1 122.7815 32.0899 41.6399 0.0000 0.0000 0.0000
# 2 32.0899 68.3148 18.3296 0.0000 0.0000 0.0000
# 3 41.6399 18.3296 102.1751 0.0000 0.0000 0.0000
# 4 0.0000 0.0000 0.0000 36.8833 0.0000 0.0000
# 5 0.0000 0.0000 0.0000 0.0000 36.2616 0.0000
# 6 0.0000 0.0000 0.0000 0.0000 0.0000 40.9418
#
#
#
# Elastic Compliance Matrix: (Units=1/GPa)
#
#
# Indices 1 2 3 4 5 6 
#
# 1 0.010364 -0.003924 -0.003520 0.000000 0.000000 0.000000
# 2 -0.003924 0.016864 -0.001426 0.000000 0.000000 0.000000
# 3 -0.003520 -0.001426 0.011477 0.000000 0.000000 0.000000
# 4 0.000000 0.000000 0.000000 0.027113 0.000000 0.000000
# 5 0.000000 0.000000 0.000000 0.000000 0.027577 0.000000
# 6 0.000000 0.000000 0.000000 0.000000 0.000000 0.024425
#
#
# Mechanical properties :
#
#
# Convention : Reuss Voigt Hill
#
# Bulk Modulus (GPa) = 47.69713 53.04338 50.37025
# Shear Modulus (GPa) = 35.07594 36.23147 35.65371
#
# Velocity S-wave (km/s) = 3.95645 4.02109 3.98890
# Velocity P-wave (km/s) = 6.49286 6.72538 6.61014
#
# Compressibility (1/GPa) = 0.02096562
#
# Stress axis : x y z
#
# Youngs Moduli (GPa) = 96.49028 59.29807 87.12807
#
# Poissons Ratio (x) = 0.23268 0.30666
# Poissons Ratio (y) = 0.37861 0.12426
# Poissons Ratio (z) = 0.33961 0.08457
#
# Static dielectric constant tensor:
#      x y z
#    x 1.871300 0.000000 0.000000 
#    y 0.000000 1.810790 0.000000 
#    z 0.000000 0.000000 1.834020 
# 
# From -- ./inp_files/2528.got.cif
#   From: 2010.05.17/outbox.cif.g08.bks.cpg/sg39_2_cif.got.tgz:2528.got - 2010.06.03 18:22:40.
