data_PCOD9360549
_publ_section_title
;
Structure prediction by ZEFSAII (Michael W. Deem and Ramdas Pophale) SiO2 
 PCOD9360549
Probable space group: A B M 2
;
_chemical_formula_sum "Si O2"
_cell_formula_units_Z 64
_cell_length_a 14.623237
_cell_length_b 8.565061
_cell_length_c 32.405010
_cell_angle_alpha 90.000000
_cell_angle_beta 90.000000
_cell_angle_gamma 90.000000
_cell_volume 4058.692405
_symmetry_space_group_name_H-M "A B M 2"
_symmetry_group_IT_number 39
_symmetry_cell_setting 'orthorhombic'
loop_
_space_group_symop_operation_xyz
x,y,z
-x,-y,z
-x,1/2+y,z
x,1/2-y,z
x,1/2+y,1/2+z
-x,1/2-y,1/2+z
-x,y,1/2+z
x,-y,1/2+z
loop_
_atom_site_type_symbol
_atom_site_label
_atom_site_fract_x
_atom_site_fract_y
_atom_site_fract_z
Si Si1 0.901646 0.435847 0.991220
Si Si2 0.098908 0.436105 0.084103
Si Si3 0.717836 0.438686 0.456967
Si Si4 0.396353 0.061791 0.787149
Si Si5 0.284278 0.062413 0.616744
Si Si6 0.397005 0.062477 0.038577
Si Si7 0.396286 0.561134 0.196903
Si Si8 0.396292 0.938921 0.377435
O O1 0.905330 0.250000 0.994121
O O2 0.817710 0.489995 0.963214
O O3 0.000000 0.500000 0.977186
O O4 0.885750 0.503866 0.037249
O O5 0.097468 0.250000 0.083380
O O6 0.182581 0.496687 0.111305
O O7 0.000000 0.500000 0.097318
O O8 0.725501 0.250000 0.456562
O O9 0.656480 0.481799 0.496739
O O10 0.666743 0.489957 0.415337
O O11 0.396698 0.250000 0.787162
O O12 0.359235 0.012300 0.742298
O O13 0.359263 0.012516 0.832018
O O14 0.500000 0.000000 0.787142
O O15 0.280974 0.250000 0.616113
O O16 0.333659 0.010213 0.658872
O O17 0.343670 0.004677 0.577901
O O18 0.397928 0.250000 0.041318
O O19 0.500000 0.000000 0.037571
O O20 0.500000 0.500000 0.192158
O O21 0.400223 0.750000 0.196073
O O22 0.400229 0.750000 0.378456
O O23 0.500000 0.000000 0.382135
#
# Coordination Sequence:
#
# PCOD9360549 Si02
#       8
#     8   8   8   8   8   8   8   8
#     4  11  21  34  53  72  93 122 156 197 240 281
#     4  11  21  35  53  72  94 121 155 197 241 283
#     4  10  20  33  47  68  96 127 161 196 235 279
#     4   8  14  27  45  66  91 122 158 196 238 276
#     4  11  21  33  48  69  95 126 163 197 237 282
#     4  11  22  33  45  62  93 131 165 197 230 273
#     4   9  18  30  46  68  96 127 161 199 235 279
#     4   9  17  29  47  69  96 128 161 197 235 279
#
# _framework density 15.768625999999999
#
# number of rings (size 3 to 8) (size 9 to 14) (size 15 to 20)
#    0.000    2.000    1.250    4.500    0.000    3.000 
#    0.000    0.000    0.000    0.000    0.000    0.875 
#    0.000    0.000    0.000    0.000    0.000    0.000 
#
# Total GULP energy -178467.342171 kJ/mol
# GULP energy per Si atom -5577.104443 kJ/mol
# Density = 1.573274 g / cm^3
# Si number density = 15.768626 Si / 1000 Ang^3
#
#
#
# Elastic Constant Matrix: (Units=GPa)
#
#
# Indices 1 2 3 4 5 6 
#
# 1 120.4773 31.9605 80.6479 0.0000 0.0000 0.0000
# 2 31.9605 48.3101 36.8268 0.0000 0.0000 0.0000
# 3 80.6479 36.8268 158.3388 0.0000 0.0000 0.0000
# 4 0.0000 0.0000 0.0000 15.7239 0.0000 0.0000
# 5 0.0000 0.0000 0.0000 0.0000 13.3378 0.0000
# 6 0.0000 0.0000 0.0000 0.0000 0.0000 25.9021
#
#
#
# Elastic Compliance Matrix: (Units=1/GPa)
#
#
# Indices 1 2 3 4 5 6 
#
# 1 0.013331 -0.004428 -0.005760 0.000000 0.000000 0.000000
# 2 -0.004428 0.026632 -0.003938 0.000000 0.000000 0.000000
# 3 -0.005760 -0.003938 0.010165 0.000000 0.000000 0.000000
# 4 0.000000 0.000000 0.000000 0.063597 0.000000 0.000000
# 5 0.000000 0.000000 0.000000 0.000000 0.074975 0.000000
# 6 0.000000 0.000000 0.000000 0.000000 0.000000 0.038607
#
#
# Mechanical properties :
#
#
# Convention : Reuss Voigt Hill
#
# Bulk Modulus (GPa) = 45.71619 69.55518 57.63569
# Shear Modulus (GPa) = 19.02211 22.83883 20.93047
#
# Velocity S-wave (km/s) = 3.47699 3.80988 3.64723
# Velocity P-wave (km/s) = 6.72117 7.97240 7.37337
#
# Compressibility (1/GPa) = 0.02187409
#
# Stress axis : x y z
#
# Youngs Moduli (GPa) = 75.01413 37.54934 98.37368
#
# Poissons Ratio (x) = 0.16629 0.56662
# Poissons Ratio (y) = 0.33220 0.38744
# Poissons Ratio (z) = 0.43207 0.14789
#
# Static dielectric constant tensor:
#      x y z
#    x 1.497530 0.000000 0.000000 
#    y 0.000000 1.535240 0.000000 
#    z 0.000000 0.000000 1.553180 
# 
# From -- ./inp_files/17978.got.cif
#   From: 2010.05.17/outbox.cif.g08.bks.cpg/sg39_9_cif.got.tgz:17978.got - 2010.06.03 18:22:40.
