data_PCOD9360892
_publ_section_title
;
Structure prediction by ZEFSAII (Michael W. Deem and Ramdas Pophale) SiO2 
 PCOD9360892
Probable space group: A B M 2
;
_chemical_formula_sum "Si O2"
_cell_formula_units_Z 60
_cell_length_a 18.618919
_cell_length_b 18.794789
_cell_length_c 9.167052
_cell_angle_alpha 90.000000
_cell_angle_beta 90.000000
_cell_angle_gamma 90.000000
_cell_volume 3207.905838
_symmetry_space_group_name_H-M "A B M 2"
_symmetry_group_IT_number 39
_symmetry_cell_setting 'orthorhombic'
loop_
_space_group_symop_operation_xyz
x,y,z
-x,-y,z
-x,1/2+y,z
x,1/2-y,z
x,1/2+y,1/2+z
-x,1/2-y,1/2+z
-x,y,1/2+z
x,-y,1/2+z
loop_
_atom_site_type_symbol
_atom_site_label
_atom_site_fract_x
_atom_site_fract_y
_atom_site_fract_z
Si Si1 0.189388 0.569536 0.337630
Si Si2 0.735252 0.455597 0.643390
Si Si3 0.927940 0.835195 0.457708
Si Si4 0.762411 0.833233 0.362140
Si Si5 0.401925 0.448907 0.713038
Si Si6 0.709582 0.333341 0.178109
Si Si7 0.500000 0.000000 0.972633
Si Si8 0.966713 0.578871 0.751718
O O1 0.235980 0.553695 0.480681
O O2 0.209015 0.508007 0.223483
O O3 0.220367 0.641354 0.266142
O O4 0.104210 0.571482 0.353248
O O5 0.738920 0.381656 0.728866
O O6 0.657723 0.492422 0.664745
O O7 0.941123 0.750000 0.479882
O O8 0.845872 0.842978 0.404265
O O9 0.942117 0.881727 0.603114
O O10 0.977771 0.869704 0.333735
O O11 0.750808 0.750000 0.332732
O O12 0.719981 0.853898 0.508740
O O13 0.357960 0.377014 0.734098
O O14 0.440856 0.468810 0.862911
O O15 0.460341 0.446212 0.583546
O O16 0.701019 0.250000 0.188185
O O17 0.000000 0.500000 0.726733
#
# Coordination Sequence:
#
# PCOD9360892 Si02
#       8
#     8   8   8   8   8   8   4   8
#     4  11  24  37  61  85 118 155 202 265 308 357
#     4  11  22  39  62  91 117 152 204 250 302 355
#     4  11  25  44  60  83 122 167 208 254 326 388
#     4  10  21  39  61  84 119 159 201 255 309 363
#     4  10  20  36  60  90 119 157 194 239 287 360
#     4  10  20  39  63  87 118 159 202 248 301 354
#     4  10  20  36  60  88 124 154 192 230 296 358
#     4  12  26  39  62  88 118 160 213 269 316 373
#
# _framework density 18.703790999999999
#
# number of rings (size 3 to 8) (size 9 to 14) (size 15 to 20)
#    0.000    1.333    1.333    5.600    5.600    1.067 
#    0.000    0.667    0.000    3.200    0.000    0.000 
#    0.000    0.000    0.000    0.000    0.000    0.000 
#
# Total GULP energy -167585.181055 kJ/mol
# GULP energy per Si atom -5586.172702 kJ/mol
# Density = 1.866122 g / cm^3
# Si number density = 18.703791 Si / 1000 Ang^3
#
#
#
# Elastic Constant Matrix: (Units=GPa)
#
#
# Indices 1 2 3 4 5 6 
#
# 1 42.3549 20.8070 -3.7876 0.0000 0.0000 0.0000
# 2 20.8070 73.9887 27.0263 0.0000 0.0000 0.0000
# 3 -3.7876 27.0263 70.2176 0.0000 0.0000 0.0000
# 4 0.0000 0.0000 0.0000 25.2927 0.0000 0.0000
# 5 0.0000 0.0000 0.0000 0.0000 25.7564 0.0000
# 6 0.0000 0.0000 0.0000 0.0000 0.0000 16.8359
#
#
#
# Elastic Compliance Matrix: (Units=1/GPa)
#
#
# Indices 1 2 3 4 5 6 
#
# 1 0.029108 -0.010192 0.005493 0.000000 0.000000 0.000000
# 2 -0.010192 0.019295 -0.007976 0.000000 0.000000 0.000000
# 3 0.005493 -0.007976 0.017608 0.000000 0.000000 0.000000
# 4 0.000000 0.000000 0.000000 0.039537 0.000000 0.000000
# 5 0.000000 0.000000 0.000000 0.000000 0.038825 0.000000
# 6 0.000000 0.000000 0.000000 0.000000 0.000000 0.059397
#
#
# Mechanical properties :
#
#
# Convention : Reuss Voigt Hill
#
# Bulk Modulus (GPa) = 24.59411 30.51695 27.55553
# Shear Modulus (GPa) = 20.60363 23.07803 21.84083
#
# Velocity S-wave (km/s) = 3.32260 3.51646 3.42090
# Velocity P-wave (km/s) = 5.28180 5.73050 5.51072
#
# Compressibility (1/GPa) = 0.04066015
#
# Stress axis : x y z
#
# Youngs Moduli (GPa) = 34.35455 51.82569 56.79294
#
# Poissons Ratio (x) = 0.52822 -0.31197
# Poissons Ratio (y) = 0.35015 0.45301
# Poissons Ratio (z) = -0.18871 0.41339
#
# Static dielectric constant tensor:
#      x y z
#    x 1.660620 0.000000 0.000000 
#    y 0.000000 1.634730 0.000000 
#    z 0.000000 0.000000 1.644320 
# 
# From -- ./inp_files/3806.got.cif
#   From: 2010.05.17/outbox.cif.g08.bks.cpg/sg39_2_cif.got.tgz:3806.got - 2010.06.03 18:22:40.
