data_PCOD9360034
_publ_section_title
;
Structure prediction by ZEFSAII (Michael W. Deem and Ramdas Pophale) SiO2 
 PCOD9360034
Probable space group: A B M 2
;
_chemical_formula_sum "Si O2"
_cell_formula_units_Z 64
_cell_length_a 14.637778
_cell_length_b 8.717365
_cell_length_c 32.193209
_cell_angle_alpha 90.000000
_cell_angle_beta 90.000000
_cell_angle_gamma 90.000000
_cell_volume 4107.945335
_symmetry_space_group_name_H-M "A B M 2"
_symmetry_group_IT_number 39
_symmetry_cell_setting 'orthorhombic'
loop_
_space_group_symop_operation_xyz
x,y,z
-x,-y,z
-x,1/2+y,z
x,1/2-y,z
x,1/2+y,1/2+z
-x,1/2-y,1/2+z
-x,y,1/2+z
x,-y,1/2+z
loop_
_atom_site_type_symbol
_atom_site_label
_atom_site_fract_x
_atom_site_fract_y
_atom_site_fract_z
Si Si1 0.901783 0.433435 0.882090
Si Si2 0.282921 0.564887 0.413671
Si Si3 0.717944 0.564547 0.751880
Si Si4 0.397192 0.433903 0.580441
Si Si5 0.601637 0.434974 0.332789
Si Si6 0.098222 0.933517 0.785139
Si Si7 0.602417 0.065101 0.172288
Si Si8 0.397289 0.565985 0.494817
O O1 0.904460 0.250000 0.883810
O O2 0.817513 0.496254 0.908457
O O3 0.886808 0.479769 0.833614
O O4 0.000000 0.500000 0.894725
O O5 0.276442 0.750000 0.412768
O O6 0.343034 0.516125 0.373796
O O7 0.335286 0.520741 0.455714
O O8 0.723706 0.750000 0.751872
O O9 0.656390 0.517990 0.791484
O O10 0.818223 0.497268 0.758508
O O11 0.667460 0.514933 0.709734
O O12 0.500000 0.500000 0.581318
O O13 0.399387 0.250000 0.576574
O O14 0.360193 0.474589 0.626210
O O15 0.357078 0.504891 0.538452
O O16 0.500000 0.500000 0.332830
O O17 0.596899 0.250000 0.333046
O O18 0.095956 0.750000 0.783386
O O19 0.000000 0.000000 0.772575
O O20 0.595229 0.250000 0.173908
O O21 0.500000 0.000000 0.177113
O O22 0.500000 0.500000 0.489811
O O23 0.403743 0.750000 0.496380
#
# Coordination Sequence:
#
# PCOD9360034 Si02
#       8
#     8   8   8   8   8   8   8   8
#     4  10  20  33  51  71  92 120 155 196 237 278
#     4  10  20  33  47  67  94 125 159 194 232 275
#     4  10  19  32  48  67  94 126 158 193 233 276
#     4   9  16  28  45  65  91 121 157 197 237 278
#     4  10  20  31  44  62  91 128 159 189 224 265
#     4  10  20  33  50  71  92 120 156 196 237 277
#     4   9  18  30  46  69  95 126 160 196 235 275
#     4  10  19  30  46  68  95 126 160 197 235 276
#
# _framework density 15.579565000000001
#
# number of rings (size 3 to 8) (size 9 to 14) (size 15 to 20)
#    0.000    2.250    1.250    3.000    0.000    4.000 
#    0.000    0.000    0.000    0.000    0.000    0.875 
#    0.000    6.000    0.000    0.000    0.000    0.000 
#
# Total GULP energy -178448.234477 kJ/mol
# GULP energy per Si atom -5576.507327 kJ/mol
# Density = 1.554411 g / cm^3
# Si number density = 15.579565 Si / 1000 Ang^3
#
#
#
# Elastic Constant Matrix: (Units=GPa)
#
#
# Indices 1 2 3 4 5 6 
#
# 1 121.1674 29.8142 76.9127 0.0000 0.0000 0.0000
# 2 29.8142 25.5075 36.9970 0.0000 0.0000 0.0000
# 3 76.9127 36.9970 151.1589 0.0000 0.0000 0.0000
# 4 0.0000 0.0000 0.0000 15.3968 0.0000 0.0000
# 5 0.0000 0.0000 0.0000 0.0000 5.0726 0.0000
# 6 0.0000 0.0000 0.0000 0.0000 0.0000 28.3932
#
#
#
# Elastic Compliance Matrix: (Units=1/GPa)
#
#
# Indices 1 2 3 4 5 6 
#
# 1 0.013388 -0.008943 -0.004623 0.000000 0.000000 0.000000
# 2 -0.008943 0.066755 -0.011789 0.000000 0.000000 0.000000
# 3 -0.004623 -0.011789 0.011853 0.000000 0.000000 0.000000
# 4 0.000000 0.000000 0.000000 0.064948 0.000000 0.000000
# 5 0.000000 0.000000 0.000000 0.000000 0.197139 0.000000
# 6 0.000000 0.000000 0.000000 0.000000 0.000000 0.035220
#
#
# Mechanical properties :
#
#
# Convention : Reuss Voigt Hill
#
# Bulk Modulus (GPa) = 24.22033 65.03130 44.62581
# Shear Modulus (GPa) = 11.01866 20.04652 15.53259
#
# Velocity S-wave (km/s) = 2.66230 3.59098 3.16093
# Velocity P-wave (km/s) = 5.00304 7.68281 6.48290
#
# Compressibility (1/GPa) = 0.04128763
#
# Stress axis : x y z
#
# Youngs Moduli (GPa) = 74.69230 14.98006 84.36424
#
# Poissons Ratio (x) = 0.13396 0.39005
# Poissons Ratio (y) = 0.66795 0.99453
# Poissons Ratio (z) = 0.34533 0.17659
#
# Static dielectric constant tensor:
#      x y z
#    x 1.507250 0.000000 0.000000 
#    y 0.000000 1.526780 0.000000 
#    z 0.000000 0.000000 1.545320 
# 
# From -- ./inp_files/17991.got.cif
#   From: 2010.05.17/outbox.cif.g08.bks.cpg/sg39_9_cif.got.tgz:17991.got - 2010.06.03 18:22:40.
