data_PCOD9360688
_publ_section_title
;
Structure prediction by ZEFSAII (Michael W. Deem and Ramdas Pophale) SiO2 
 PCOD9360688
Probable space group: A B M 2
;
_chemical_formula_sum "Si O2"
_cell_formula_units_Z 60
_cell_length_a 11.041106
_cell_length_b 15.648769
_cell_length_c 18.742313
_cell_angle_alpha 90.000000
_cell_angle_beta 90.000000
_cell_angle_gamma 90.000000
_cell_volume 3238.291542
_symmetry_space_group_name_H-M "A B M 2"
_symmetry_group_IT_number 39
_symmetry_cell_setting 'orthorhombic'
loop_
_space_group_symop_operation_xyz
x,y,z
-x,-y,z
-x,1/2+y,z
x,1/2-y,z
x,1/2+y,1/2+z
-x,1/2-y,1/2+z
-x,y,1/2+z
x,-y,1/2+z
loop_
_atom_site_type_symbol
_atom_site_label
_atom_site_fract_x
_atom_site_fract_y
_atom_site_fract_z
Si Si1 0.378048 0.049922 0.923160
Si Si2 0.867957 0.345922 0.253592
Si Si3 0.152788 0.349394 0.591157
Si Si4 0.112358 0.652745 0.534038
Si Si5 0.500000 0.000000 0.699736
Si Si6 0.116025 0.945756 0.392971
Si Si7 0.701857 0.981578 0.079643
Si Si8 0.586659 0.156519 0.292694
O O1 0.249430 0.010667 0.895191
O O2 0.395082 0.135100 0.876278
O O3 0.500000 0.000000 0.905998
O O4 0.367381 0.050903 0.008594
O O5 0.915691 0.250000 0.265828
O O6 0.889248 0.369875 0.172023
O O7 0.911072 0.408890 0.315064
O O8 0.722705 0.342987 0.261736
O O9 0.196980 0.250000 0.590549
O O10 0.247420 0.422127 0.568733
O O11 0.031117 0.353965 0.545451
O O12 0.149711 0.750000 0.549622
O O13 0.134897 0.628534 0.451545
O O14 0.184698 0.583762 0.581607
O O15 0.385252 0.983988 0.647756
O O16 0.519835 0.918049 0.749981
O O17 0.000000 0.000000 0.416249
O O18 0.531779 0.250000 0.282672
#
# Coordination Sequence:
#
# PCOD9360688 Si02
#       8
#     8   8   8   8   4   8   8   8
#     4  10  20  38  59  83 119 152 202 237 293 359
#     4   9  18  34  56  83 112 151 200 237 287 360
#     4  10  20  37  59  85 120 157 193 244 304 366
#     4  10  21  37  57  82 115 156 202 248 300 356
#     4  12  22  36  62  88 124 156 194 254 298 358
#     4  10  20  34  57  86 113 151 195 252 297 348
#     4  11  22  36  60  90 118 153 197 252 301 355
#     4  10  21  39  61  84 116 161 203 242 293 357
#
# _framework density 18.528288
#
# number of rings (size 3 to 8) (size 9 to 14) (size 15 to 20)
#    0.000    1.867    2.667    2.400    0.000    4.800 
#    0.000    0.667    0.000    1.600    0.000    0.000 
#    0.000    0.000    0.000    0.000    0.000    0.000 
#
# Total GULP energy -167088.973997 kJ/mol
# GULP energy per Si atom -5569.632467 kJ/mol
# Density = 1.848612 g / cm^3
# Si number density = 18.528288 Si / 1000 Ang^3
#
#
#
# Elastic Constant Matrix: (Units=GPa)
#
#
# Indices 1 2 3 4 5 6 
#
# 1 58.2461 34.5019 10.9008 0.0000 0.0000 0.0000
# 2 34.5019 115.4245 43.9660 0.0000 0.0000 0.0000
# 3 10.9008 43.9660 96.0141 0.0000 0.0000 0.0000
# 4 0.0000 0.0000 0.0000 18.4575 0.0000 0.0000
# 5 0.0000 0.0000 0.0000 0.0000 15.9524 0.0000
# 6 0.0000 0.0000 0.0000 0.0000 0.0000 20.0242
#
#
#
# Elastic Compliance Matrix: (Units=1/GPa)
#
#
# Indices 1 2 3 4 5 6 
#
# 1 0.020890 -0.006469 0.000591 0.000000 0.000000 0.000000
# 2 -0.006469 0.012497 -0.004988 0.000000 0.000000 0.000000
# 3 0.000591 -0.004988 0.012632 0.000000 0.000000 0.000000
# 4 0.000000 0.000000 0.000000 0.054178 0.000000 0.000000
# 5 0.000000 0.000000 0.000000 0.000000 0.062687 0.000000
# 6 0.000000 0.000000 0.000000 0.000000 0.000000 0.049940
#
#
# Mechanical properties :
#
#
# Convention : Reuss Voigt Hill
#
# Bulk Modulus (GPa) = 41.17601 49.82469 45.50035
# Shear Modulus (GPa) = 20.60551 22.90789 21.75670
#
# Velocity S-wave (km/s) = 3.33845 3.52003 3.43044
# Velocity P-wave (km/s) = 6.09359 6.59320 6.34831
#
# Compressibility (1/GPa) = 0.02428599
#
# Stress axis : x y z
#
# Youngs Moduli (GPa) = 47.86967 80.01603 79.16238
#
# Poissons Ratio (x) = 0.51765 -0.04676
# Poissons Ratio (y) = 0.30968 0.39488
# Poissons Ratio (z) = -0.02827 0.39914
#
# Static dielectric constant tensor:
#      x y z
#    x 1.659460 0.000000 0.000000 
#    y 0.000000 1.652630 0.000000 
#    z 0.000000 0.000000 1.641030 
# 
# From -- ./inp_files/12296.got.cif
#   From: 2010.05.17/outbox.cif.g08.bks.cpg/sg39_7_cif.got.tgz:12296.got - 2010.06.03 18:22:40.
