data_PCOD9360463
_publ_section_title
;
Structure prediction by ZEFSAII (Michael W. Deem and Ramdas Pophale) SiO2 
 PCOD9360463
Probable space group: A B M 2
;
_chemical_formula_sum "Si O2"
_cell_formula_units_Z 56
_cell_length_a 12.251280
_cell_length_b 14.267961
_cell_length_c 15.410777
_cell_angle_alpha 90.000000
_cell_angle_beta 90.000000
_cell_angle_gamma 90.000000
_cell_volume 2693.815921
_symmetry_space_group_name_H-M "A B M 2"
_symmetry_group_IT_number 39
_symmetry_cell_setting 'orthorhombic'
loop_
_space_group_symop_operation_xyz
x,y,z
-x,-y,z
-x,1/2+y,z
x,1/2-y,z
x,1/2+y,1/2+z
-x,1/2-y,1/2+z
-x,y,1/2+z
x,-y,1/2+z
loop_
_atom_site_type_symbol
_atom_site_label
_atom_site_fract_x
_atom_site_fract_y
_atom_site_fract_z
Si Si1 0.116166 0.136633 0.023840
Si Si2 0.356010 0.056116 0.041440
Si Si3 0.153258 0.135557 0.832382
Si Si4 0.926652 0.139016 0.150243
Si Si5 0.403583 0.637190 0.363986
Si Si6 0.687588 0.852855 0.568887
Si Si7 0.486563 0.142594 0.195072
O O1 0.119856 0.250000 0.025487
O O2 0.235235 0.098721 0.046941
O O3 0.025001 0.103392 0.091034
O O4 0.097008 0.109547 0.923310
O O5 0.414696 0.078583 0.132205
O O6 0.345510 0.946669 0.020026
O O7 0.418683 0.105413 0.962532
O O8 0.155356 0.250000 0.827912
O O9 0.094128 0.099399 0.746209
O O10 0.280525 0.105798 0.837703
O O11 0.949387 0.250000 0.161911
O O12 0.811554 0.134148 0.100173
O O13 0.402291 0.750000 0.362412
O O14 0.493139 0.609389 0.292929
O O15 0.676822 0.750000 0.526326
O O16 0.606754 0.851671 0.651563
O O17 0.443107 0.250000 0.194131
#
# Coordination Sequence:
#
# PCOD9360463 Si02
#       7
#     8   8   8   8   8   8   8
#     4   9  18  31  56  91 121 152 194 244 302 358
#     4  11  21  35  59  90 124 153 196 257 300 351
#     4   8  13  27  53  83 111 150 198 233 274 351
#     4   9  16  31  57  83 116 159 198 239 292 354
#     4   9  17  33  61  91 116 154 200 236 290 370
#     4  10  21  37  58  83 114 161 207 244 292 350
#     4  10  19  36  63  89 115 149 196 246 297 359
#
# _framework density 20.788354000000002
#
# number of rings (size 3 to 8) (size 9 to 14) (size 15 to 20)
#    0.000    2.571    1.429    2.571    0.000    0.571 
#    0.000    2.857    6.286    4.286    0.000    0.000 
#    0.000    0.000    0.000    0.000    0.000    0.000 
#
# Total GULP energy -156245.020858 kJ/mol
# GULP energy per Si atom -5580.179316 kJ/mol
# Density = 2.074104 g / cm^3
# Si number density = 20.788354 Si / 1000 Ang^3
#
#
#
# Elastic Constant Matrix: (Units=GPa)
#
#
# Indices 1 2 3 4 5 6 
#
# 1 88.7463 28.3101 51.6180 0.0000 0.0000 0.0000
# 2 28.3101 83.4131 41.1142 0.0000 0.0000 0.0000
# 3 51.6180 41.1142 116.5095 0.0000 0.0000 0.0000
# 4 0.0000 0.0000 0.0000 -2.7627 0.0000 0.0000
# 5 0.0000 0.0000 0.0000 0.0000 34.8402 0.0000
# 6 0.0000 0.0000 0.0000 0.0000 0.0000 13.9521
#
#
#
# Elastic Compliance Matrix: (Units=1/GPa)
#
#
# Indices 1 2 3 4 5 6 
#
# 1 0.015528 -0.002275 -0.006077 0.000000 0.000000 0.000000
# 2 -0.002275 0.014846 -0.004231 0.000000 0.000000 0.000000
# 3 -0.006077 -0.004231 0.012768 0.000000 0.000000 0.000000
# 4 0.000000 0.000000 0.000000 -0.361959 0.000000 0.000000
# 5 0.000000 0.000000 0.000000 0.000000 0.028702 0.000000
# 6 0.000000 0.000000 0.000000 0.000000 0.000000 0.071674
#
#
# Mechanical properties :
#
#
# Convention : Reuss Voigt Hill
#
# Bulk Modulus (GPa) = 55.62648 58.97260 57.29954
# Shear Modulus (GPa) = -26.69768 20.38102 -3.15833
#
# Velocity S-wave (km/s) = -3.58755 3.13454 -1.23393
# Velocity P-wave (km/s) = 3.10740 6.44439 5.05895
#
# Compressibility (1/GPa) = 0.01797705
#
# Stress axis : x y z
#
# Youngs Moduli (GPa) = 64.39870 67.35763 78.31905
#
# Poissons Ratio (x) = 0.15324 0.47593
# Poissons Ratio (y) = 0.14651 0.33137
# Poissons Ratio (z) = 0.39134 0.28499
#
# Static dielectric constant tensor:
#      x y z
#    x 1.726920 0.000000 0.000000 
#    y 0.000000 1.768720 0.000000 
#    z 0.000000 0.000000 1.758010 
# 
# From -- ./inp_files/9259.got.cif
#   From: 2010.05.17/outbox.cif.g08.bks.cpg/sg39_5_cif.got.tgz:9259.got - 2010.06.03 18:22:40.
