data_PCOD9360021
_publ_section_title
;
Structure prediction by ZEFSAII (Michael W. Deem and Ramdas Pophale) SiO2 
 PCOD9360021
Probable space group: A B M 2
;
_chemical_formula_sum "Si O2"
_cell_formula_units_Z 48
_cell_length_a 13.284546
_cell_length_b 9.095370
_cell_length_c 23.228239
_cell_angle_alpha 90.000000
_cell_angle_beta 90.000000
_cell_angle_gamma 90.000000
_cell_volume 2806.618437
_symmetry_space_group_name_H-M "A B M 2"
_symmetry_group_IT_number 39
_symmetry_cell_setting 'orthorhombic'
loop_
_space_group_symop_operation_xyz
x,y,z
-x,-y,z
-x,1/2+y,z
x,1/2-y,z
x,1/2+y,1/2+z
-x,1/2-y,1/2+z
-x,y,1/2+z
x,-y,1/2+z
loop_
_atom_site_type_symbol
_atom_site_label
_atom_site_fract_x
_atom_site_fract_y
_atom_site_fract_z
Si Si1 0.089631 0.086509 0.071050
Si Si2 0.107763 0.077350 0.395218
Si Si3 0.736933 0.083212 0.476735
Si Si4 0.217311 0.924746 0.161907
Si Si5 0.607192 0.926417 0.570083
Si Si6 0.893033 0.078097 0.757578
O O1 0.060367 0.250000 0.089180
O O2 0.126191 0.988272 0.123753
O O3 0.179750 0.096780 0.026653
O O4 0.000000 0.000000 0.041647
O O5 0.102318 0.250000 0.411479
O O6 0.121794 0.066916 0.326277
O O7 0.202074 0.000218 0.426668
O O8 0.000000 0.000000 0.407742
O O9 0.705806 0.250000 0.460487
O O10 0.650746 0.992375 0.510094
O O11 0.211739 0.750000 0.167997
O O12 0.316308 0.959401 0.123414
O O13 0.197967 0.002530 0.222747
O O14 0.600316 0.750000 0.565591
O O15 0.500000 0.000000 0.581395
O O16 0.899204 0.250000 0.742176
O O17 0.000000 0.000000 0.744530
#
# Coordination Sequence:
#
# PCOD9360021 Si02
#       6
#     8   8   8   8   8   8
#     4  10  19  29  43  66  97 130 162 198 243 295
#     4  10  20  33  50  74 105 141 177 211 249 296
#     4  10  20  33  51  74 100 132 168 208 253 301
#     4  10  20  33  50  72  98 129 165 206 251 300
#     4  10  21  37  57  79 102 129 164 209 261 313
#     4  10  20  33  50  73 104 141 176 210 247 293
#
# _framework density 17.102432
#
# number of rings (size 3 to 8) (size 9 to 14) (size 15 to 20)
#    0.000    2.000    0.000    4.000    0.000    7.333 
#    0.000    0.000    0.000    1.000    0.000    2.333 
#    0.000    0.000    0.000    0.000    0.000    0.000 
#
# Total GULP energy -133792.369039 kJ/mol
# GULP energy per Si atom -5574.682043 kJ/mol
# Density = 1.706351 g / cm^3
# Si number density = 17.102432 Si / 1000 Ang^3
#
#
#
# Elastic Constant Matrix: (Units=GPa)
#
#
# Indices 1 2 3 4 5 6 
#
# 1 84.2163 69.5491 35.4850 0.0000 0.0000 0.0000
# 2 69.5491 137.1087 54.1554 0.0000 0.0000 0.0000
# 3 35.4850 54.1554 74.5840 0.0000 0.0000 0.0000
# 4 0.0000 0.0000 0.0000 21.6270 0.0000 0.0000
# 5 0.0000 0.0000 0.0000 0.0000 18.9914 0.0000
# 6 0.0000 0.0000 0.0000 0.0000 0.0000 27.9530
#
#
#
# Elastic Compliance Matrix: (Units=1/GPa)
#
#
# Indices 1 2 3 4 5 6 
#
# 1 0.020951 -0.009381 -0.003157 0.000000 0.000000 0.000000
# 2 -0.009381 0.014427 -0.006012 0.000000 0.000000 0.000000
# 3 -0.003157 -0.006012 0.019275 0.000000 0.000000 0.000000
# 4 0.000000 0.000000 0.000000 0.046239 0.000000 0.000000
# 5 0.000000 0.000000 0.000000 0.000000 0.052655 0.000000
# 6 0.000000 0.000000 0.000000 0.000000 0.000000 0.035774
#
#
# Mechanical properties :
#
#
# Convention : Reuss Voigt Hill
#
# Bulk Modulus (GPa) = 56.96766 68.25422 62.61094
# Shear Modulus (GPa) = 21.52654 22.82890 22.17772
#
# Velocity S-wave (km/s) = 3.55164 3.65750 3.60496
# Velocity P-wave (km/s) = 7.08526 7.60474 7.34959
#
# Compressibility (1/GPa) = 0.01755382
#
# Stress axis : x y z
#
# Youngs Moduli (GPa) = 47.72963 69.31634 51.88117
#
# Poissons Ratio (x) = 0.65025 0.16377
# Poissons Ratio (y) = 0.44775 0.31191
# Poissons Ratio (z) = 0.15066 0.41673
#
# Static dielectric constant tensor:
#      x y z
#    x 1.642330 0.000000 0.000000 
#    y 0.000000 1.604680 0.000000 
#    z 0.000000 0.000000 1.600400 
# 
# From -- ./inp_files/14594.got.cif
#   From: 2010.05.17/outbox.cif.g08.bks.cpg/sg39_8_cif.got.tgz:14594.got - 2010.06.03 18:22:40.
