data_PCOD9360281
_publ_section_title
;
Structure prediction by ZEFSAII (Michael W. Deem and Ramdas Pophale) SiO2 
 PCOD9360281
Probable space group: A B M 2
;
_chemical_formula_sum "Si O2"
_cell_formula_units_Z 64
_cell_length_a 12.318325
_cell_length_b 14.489631
_cell_length_c 17.610087
_cell_angle_alpha 90.000000
_cell_angle_beta 90.000000
_cell_angle_gamma 90.000000
_cell_volume 3143.188923
_symmetry_space_group_name_H-M "A B M 2"
_symmetry_group_IT_number 39
_symmetry_cell_setting 'orthorhombic'
loop_
_space_group_symop_operation_xyz
x,y,z
-x,-y,z
-x,1/2+y,z
x,1/2-y,z
x,1/2+y,1/2+z
-x,1/2-y,1/2+z
-x,y,1/2+z
x,-y,1/2+z
loop_
_atom_site_type_symbol
_atom_site_label
_atom_site_fract_x
_atom_site_fract_y
_atom_site_fract_z
Si Si1 0.799361 0.351421 0.430270
Si Si2 0.777861 0.358508 0.011515
Si Si3 0.962174 0.396034 0.888065
Si Si4 0.814474 0.643182 0.240420
Si Si5 0.622415 0.994456 0.269327
Si Si6 0.788572 0.355724 0.247263
Si Si7 0.623444 0.496294 0.950746
Si Si8 0.884574 0.980292 0.637981
O O1 0.764873 0.250000 0.456832
O O2 0.788834 0.355755 0.338391
O O3 0.720437 0.428377 0.467701
O O4 0.930417 0.357432 0.431366
O O5 0.776509 0.250000 0.028395
O O6 0.808893 0.422063 0.082709
O O7 0.867218 0.380739 0.948001
O O8 0.667758 0.397382 0.976196
O O9 0.903641 0.363430 0.809307
O O10 0.000000 0.500000 0.873617
O O11 0.802798 0.750000 0.221410
O O12 0.698682 0.595985 0.261969
O O13 0.848388 0.578747 0.170046
O O14 0.615926 0.006950 0.359987
O O15 0.500000 0.000000 0.239838
O O16 0.686903 0.078588 0.230166
O O17 0.784882 0.250000 0.221649
O O18 0.888969 0.411968 0.211494
O O19 0.500000 0.500000 0.980915
O O20 0.000000 0.000000 0.600727
#
# Coordination Sequence:
#
# PCOD9360281 Si02
#       8
#     8   8   8   8   8   8   8   8
#     4  10  19  33  59  92 121 156 200 256 316 371
#     4  12  25  41  63  92 125 167 214 261 315 377
#     4  12  20  37  63  95 131 158 202 260 318 373
#     4  11  22  38  63  96 129 166 210 261 319 381
#     4   9  18  34  58  91 127 159 203 264 318 364
#     4   9  18  35  56  83 116 157 207 248 303 372
#     4  10  21  39  61  88 125 166 207 259 313 370
#     4  11  24  40  58  87 125 170 204 254 315 382
#
# _framework density 20.361485999999999
#
# number of rings (size 3 to 8) (size 9 to 14) (size 15 to 20)
#    0.000    1.500    2.500    4.500    0.000    3.000 
#    0.000    5.625    0.000    3.000    0.000    0.000 
#    0.000    0.000    0.000    0.000    0.000    0.000 
#
# Total GULP energy -178153.577383 kJ/mol
# GULP energy per Si atom -5567.299293 kJ/mol
# Density = 2.031514 g / cm^3
# Si number density = 20.361486 Si / 1000 Ang^3
#
#
#
# Elastic Constant Matrix: (Units=GPa)
#
#
# Indices 1 2 3 4 5 6 
#
# 1 133.2713 40.6389 18.0801 0.0000 0.0000 0.0000
# 2 40.6389 142.6767 10.3459 0.0000 0.0000 0.0000
# 3 18.0801 10.3459 29.0553 0.0000 0.0000 0.0000
# 4 0.0000 0.0000 0.0000 19.4444 0.0000 0.0000
# 5 0.0000 0.0000 0.0000 0.0000 24.8589 0.0000
# 6 0.0000 0.0000 0.0000 0.0000 0.0000 9.5279
#
#
#
# Elastic Compliance Matrix: (Units=1/GPa)
#
#
# Indices 1 2 3 4 5 6 
#
# 1 0.008802 -0.002166 -0.004706 0.000000 0.000000 0.000000
# 2 -0.002166 0.007728 -0.001404 0.000000 0.000000 0.000000
# 3 -0.004706 -0.001404 0.037845 0.000000 0.000000 0.000000
# 4 0.000000 0.000000 0.000000 0.051429 0.000000 0.000000
# 5 0.000000 0.000000 0.000000 0.000000 0.040227 0.000000
# 6 0.000000 0.000000 0.000000 0.000000 0.000000 0.104955
#
#
# Mechanical properties :
#
#
# Convention : Reuss Voigt Hill
#
# Bulk Modulus (GPa) = 26.43854 49.23700 37.83777
# Shear Modulus (GPa) = 17.84785 26.49547 22.17166
#
# Velocity S-wave (km/s) = 2.96387 3.61120 3.30343
# Velocity P-wave (km/s) = 4.97247 6.45148 5.75965
#
# Compressibility (1/GPa) = 0.03782357
#
# Stress axis : x y z
#
# Youngs Moduli (GPa) = 113.60507 129.40660 26.42323
#
# Poissons Ratio (x) = 0.28029 0.12435
# Poissons Ratio (y) = 0.24606 0.03709
# Poissons Ratio (z) = 0.53465 0.18166
#
# Static dielectric constant tensor:
#      x y z
#    x 1.627480 0.000000 0.000000 
#    y 0.000000 1.725640 0.000000 
#    z 0.000000 0.000000 1.760330 
# 
# From -- ./inp_files/12334.got.cif
#   From: 2010.05.17/outbox.cif.g08.bks.cpg/sg39_7_cif.got.tgz:12334.got - 2010.06.03 18:22:40.
