data_PCOD9360767
_publ_section_title
;
Structure prediction by ZEFSAII (Michael W. Deem and Ramdas Pophale) SiO2 
 PCOD9360767
Probable space group: A B M 2
;
_chemical_formula_sum "Si O2"
_cell_formula_units_Z 60
_cell_length_a 15.714169
_cell_length_b 9.259880
_cell_length_c 21.561379
_cell_angle_alpha 90.000000
_cell_angle_beta 90.000000
_cell_angle_gamma 90.000000
_cell_volume 3137.424703
_symmetry_space_group_name_H-M "A B M 2"
_symmetry_group_IT_number 39
_symmetry_cell_setting 'orthorhombic'
loop_
_space_group_symop_operation_xyz
x,y,z
-x,-y,z
-x,1/2+y,z
x,1/2-y,z
x,1/2+y,1/2+z
-x,1/2-y,1/2+z
-x,y,1/2+z
x,-y,1/2+z
loop_
_atom_site_type_symbol
_atom_site_label
_atom_site_fract_x
_atom_site_fract_y
_atom_site_fract_z
Si Si1 0.273184 0.087214 0.427560
Si Si2 0.898669 0.403200 0.999085
Si Si3 0.237689 0.579715 0.185499
Si Si4 0.174666 0.412781 0.826256
Si Si5 0.000000 0.500000 0.883893
Si Si6 0.085022 0.578899 0.616171
Si Si7 0.408297 0.076862 0.147630
Si Si8 0.587804 0.919047 0.001281
O O1 0.304415 0.250000 0.417633
O O2 0.198888 0.091642 0.478916
O O3 0.229371 0.024027 0.366394
O O4 0.344320 0.984791 0.454891
O O5 0.915998 0.250000 0.032408
O O6 0.915282 0.539157 0.042923
O O7 0.949774 0.403817 0.934453
O O8 0.245113 0.750000 0.168404
O O9 0.198710 0.572350 0.254622
O O10 0.169640 0.496011 0.142838
O O11 0.329601 0.502048 0.181477
O O12 0.196433 0.250000 0.846631
O O13 0.074794 0.435018 0.841833
O O14 0.084793 0.750000 0.627071
O O15 0.000000 0.500000 0.641824
O O16 0.412472 0.250000 0.160563
O O17 0.500000 0.000000 0.159761
O O18 0.389476 0.059470 0.073921
O O19 0.577828 0.750000 0.991268
O O20 0.500000 0.000000 0.991223
#
# Coordination Sequence:
#
# PCOD9360767 Si02
#       8
#     8   8   8   8   4   8   8   8
#     4  10  21  36  57  86 118 153 193 240 292 349
#     4  10  20  35  57  85 116 149 190 241 298 355
#     4  11  24  42  62  88 123 162 206 255 303 359
#     4  10  23  41  61  85 115 157 205 250 297 352
#     4  10  20  36  62  86 112 152 200 250 298 358
#     4  12  25  39  58  85 121 160 201 249 302 360
#     4  10  21  39  65  95 124 159 200 248 307 367
#     4  10  20  35  59  90 123 155 191 238 297 359
#
# _framework density 19.123965999999999
#
# number of rings (size 3 to 8) (size 9 to 14) (size 15 to 20)
#    0.000    1.600    0.667    4.000    0.933    8.000 
#    0.000    0.667    0.000    3.200    0.000    0.000 
#    0.000    0.000    0.000    0.000    0.000    0.000 
#
# Total GULP energy -167400.873957 kJ/mol
# GULP energy per Si atom -5580.029132 kJ/mol
# Density = 1.908044 g / cm^3
# Si number density = 19.123966 Si / 1000 Ang^3
#
#
#
# Elastic Constant Matrix: (Units=GPa)
#
#
# Indices 1 2 3 4 5 6 
#
# 1 108.1222 59.2526 45.6467 0.0000 0.0000 0.0000
# 2 59.2526 146.4228 43.2012 0.0000 0.0000 0.0000
# 3 45.6467 43.2012 52.8179 0.0000 0.0000 0.0000
# 4 0.0000 0.0000 0.0000 21.5930 0.0000 0.0000
# 5 0.0000 0.0000 0.0000 0.0000 28.6593 0.0000
# 6 0.0000 0.0000 0.0000 0.0000 0.0000 23.8050
#
#
#
# Elastic Compliance Matrix: (Units=1/GPa)
#
#
# Indices 1 2 3 4 5 6 
#
# 1 0.015540 -0.003066 -0.010923 0.000000 0.000000 0.000000
# 2 -0.003066 0.009607 -0.005208 0.000000 0.000000 0.000000
# 3 -0.010923 -0.005208 0.032632 0.000000 0.000000 0.000000
# 4 0.000000 0.000000 0.000000 0.046311 0.000000 0.000000
# 5 0.000000 0.000000 0.000000 0.000000 0.034893 0.000000
# 6 0.000000 0.000000 0.000000 0.000000 0.000000 0.042008
#
#
# Mechanical properties :
#
#
# Convention : Reuss Voigt Hill
#
# Bulk Modulus (GPa) = 51.58277 67.06266 59.32271
# Shear Modulus (GPa) = 22.13894 25.42895 23.78395
#
# Velocity S-wave (km/s) = 3.40612 3.65045 3.53040
# Velocity P-wave (km/s) = 6.51922 7.27401 6.90693
#
# Compressibility (1/GPa) = 0.01938632
#
# Stress axis : x y z
#
# Youngs Moduli (GPa) = 64.34899 104.09251 30.64455
#
# Poissons Ratio (x) = 0.31915 0.33472
# Poissons Ratio (y) = 0.19730 0.15960
# Poissons Ratio (z) = 0.70285 0.54211
#
# Static dielectric constant tensor:
#      x y z
#    x 1.682180 0.000000 0.000000 
#    y 0.000000 1.709700 0.000000 
#    z 0.000000 0.000000 1.652230 
# 
# From -- ./inp_files/16111.got.cif
#   From: 2010.05.17/outbox.cif.g08.bks.cpg/sg39_9_cif.got.tgz:16111.got - 2010.06.03 18:22:40.
