data_PCOD9360161
_publ_section_title
;
Structure prediction by ZEFSAII (Michael W. Deem and Ramdas Pophale) SiO2 
 PCOD9360161
Probable space group: A B M 2
;
_chemical_formula_sum "Si O2"
_cell_formula_units_Z 64
_cell_length_a 14.887786
_cell_length_b 9.003615
_cell_length_c 24.697879
_cell_angle_alpha 90.000000
_cell_angle_beta 90.000000
_cell_angle_gamma 90.000000
_cell_volume 3310.599859
_symmetry_space_group_name_H-M "A B M 2"
_symmetry_group_IT_number 39
_symmetry_cell_setting 'orthorhombic'
loop_
_space_group_symop_operation_xyz
x,y,z
-x,-y,z
-x,1/2+y,z
x,1/2-y,z
x,1/2+y,1/2+z
-x,1/2-y,1/2+z
-x,y,1/2+z
x,-y,1/2+z
loop_
_atom_site_type_symbol
_atom_site_label
_atom_site_fract_x
_atom_site_fract_y
_atom_site_fract_z
Si Si1 0.411772 0.426596 0.682810
Si Si2 0.901047 0.572680 0.540955
Si Si3 0.166229 0.423777 0.825233
Si Si4 0.782306 0.926796 0.946921
Si Si5 0.407219 0.075760 0.417030
Si Si6 0.214469 0.923792 0.149220
Si Si7 0.648430 0.425003 0.793827
Si Si8 0.913301 0.423299 0.729180
O O1 0.500000 0.500000 0.657601
O O2 0.423687 0.250000 0.690748
O O3 0.321198 0.449475 0.648034
O O4 0.397649 0.506166 0.741029
O O5 0.911039 0.750000 0.533565
O O6 0.842623 0.502860 0.492531
O O7 0.841369 0.548052 0.594884
O O8 0.000000 0.500000 0.544707
O O9 0.153442 0.250000 0.813847
O O10 0.167608 0.447982 0.889293
O O11 0.263120 0.478274 0.804694
O O12 0.098114 0.518829 0.790085
O O13 0.773603 0.750000 0.956170
O O14 0.682932 0.997970 0.939979
O O15 0.405520 0.250000 0.431029
O O16 0.403160 0.065767 0.351169
O O17 0.500000 0.000000 0.435117
O O18 0.201673 0.750000 0.164008
O O19 0.172615 0.024743 0.195712
O O20 0.669074 0.250000 0.784801
O O21 0.924071 0.250000 0.727873
O O22 0.000000 0.500000 0.703568
#
# Coordination Sequence:
#
# PCOD9360161 Si02
#       8
#     8   8   8   8   8   8   8   8
#     4  11  22  36  57  85 122 162 203 249 298 357
#     4  11  24  44  69  93 118 153 202 256 311 369
#     4  10  20  36  57  84 122 161 198 245 301 359
#     4  10  22  40  63  90 121 159 203 253 308 362
#     4  10  20  34  55  86 125 165 208 252 298 360
#     4  10  23  43  64  88 121 159 201 253 306 358
#     4  10  19  32  53  84 120 162 207 246 295 354
#     4  12  24  37  59  88 121 159 200 245 302 368
#
# _framework density 19.331844
#
# number of rings (size 3 to 8) (size 9 to 14) (size 15 to 20)
#    0.000    1.500    1.250    4.125    0.000    7.000 
#    0.000    0.625    0.000    1.500    0.000    0.000 
#    0.000    0.000    0.000    0.000    0.000    0.000 
#
# Total GULP energy -178743.064153 kJ/mol
# GULP energy per Si atom -5585.720755 kJ/mol
# Density = 1.928784 g / cm^3
# Si number density = 19.331844 Si / 1000 Ang^3
#
#
#
# Elastic Constant Matrix: (Units=GPa)
#
#
# Indices 1 2 3 4 5 6 
#
# 1 129.1585 75.9150 53.9359 0.0000 0.0000 0.0000
# 2 75.9150 137.5017 72.7730 0.0000 0.0000 0.0000
# 3 53.9359 72.7730 79.0978 0.0000 0.0000 0.0000
# 4 0.0000 0.0000 0.0000 108.7235 0.0000 0.0000
# 5 0.0000 0.0000 0.0000 0.0000 -13.0637 0.0000
# 6 0.0000 0.0000 0.0000 0.0000 0.0000 35.1122
#
#
#
# Elastic Compliance Matrix: (Units=1/GPa)
#
#
# Indices 1 2 3 4 5 6 
#
# 1 0.012109 -0.004513 -0.004105 0.000000 0.000000 0.000000
# 2 -0.004513 0.015857 -0.011511 0.000000 0.000000 0.000000
# 3 -0.004105 -0.011511 0.026033 0.000000 0.000000 0.000000
# 4 0.000000 0.000000 0.000000 0.009198 0.000000 0.000000
# 5 0.000000 0.000000 0.000000 0.000000 -0.076548 0.000000
# 6 0.000000 0.000000 0.000000 0.000000 0.000000 0.028480
#
#
# Mechanical properties :
#
#
# Convention : Reuss Voigt Hill
#
# Bulk Modulus (GPa) = 72.78148 83.44512 78.11330
# Shear Modulus (GPa) = 83.37912 35.69669 59.53790
#
# Velocity S-wave (km/s) = 6.57450 4.30178 5.55560
# Velocity P-wave (km/s) = 9.76536 8.24209 9.03588
#
# Compressibility (1/GPa) = 0.01373976
#
# Stress axis : x y z
#
# Youngs Moduli (GPa) = 82.58164 63.06491 38.41312
#
# Poissons Ratio (x) = 0.28461 0.15769
# Poissons Ratio (y) = 0.37268 0.44219
# Poissons Ratio (z) = 0.33901 0.72597
#
# Static dielectric constant tensor:
#      x y z
#    x 1.923870 0.000000 0.000000 
#    y 0.000000 1.643050 0.000000 
#    z 0.000000 0.000000 1.680280 
# 
# From -- ./inp_files/16201.got.cif
#   From: 2010.05.17/outbox.cif.g08.bks.cpg/sg39_9_cif.got.tgz:16201.got - 2010.06.03 18:22:40.
