data_PCOD9360186
_publ_section_title
;
Structure prediction by ZEFSAII (Michael W. Deem and Ramdas Pophale) SiO2 
 PCOD9360186
Probable space group: A B M 2
;
_chemical_formula_sum "Si O2"
_cell_formula_units_Z 48
_cell_length_a 11.307030
_cell_length_b 19.437978
_cell_length_c 11.930490
_cell_angle_alpha 90.000000
_cell_angle_beta 90.000000
_cell_angle_gamma 90.000000
_cell_volume 2622.152294
_symmetry_space_group_name_H-M "A B M 2"
_symmetry_group_IT_number 39
_symmetry_cell_setting 'orthorhombic'
loop_
_space_group_symop_operation_xyz
x,y,z
-x,-y,z
-x,1/2+y,z
x,1/2-y,z
x,1/2+y,1/2+z
-x,1/2-y,1/2+z
-x,y,1/2+z
x,-y,1/2+z
loop_
_atom_site_type_symbol
_atom_site_label
_atom_site_fract_x
_atom_site_fract_y
_atom_site_fract_z
Si Si1 0.842879 0.425460 0.747570
Si Si2 0.238239 0.052823 0.485962
Si Si3 0.538188 0.423352 0.146811
Si Si4 0.687442 0.170661 0.298797
Si Si5 0.292399 0.604434 0.531123
Si Si6 0.113389 0.582021 0.194339
O O1 0.777045 0.413614 0.864635
O O2 0.787733 0.386952 0.641281
O O3 0.831944 0.508158 0.730142
O O4 0.982946 0.412313 0.744054
O O5 0.352763 0.073859 0.558891
O O6 0.123829 0.074592 0.559830
O O7 0.252258 0.969975 0.480668
O O8 0.500000 0.500000 0.185520
O O9 0.581886 0.376832 0.249658
O O10 0.424662 0.397809 0.079474
O O11 0.664297 0.250000 0.275402
O O12 0.709965 0.157298 0.429765
O O13 0.804350 0.143070 0.236246
#
# Coordination Sequence:
#
# PCOD9360186 Si02
#       6
#     8   8   8   8   8   8
#     4  10  19  32  62  87 117 146 195 264 300 341
#     4   9  18  34  55  90 119 144 192 256 306 339
#     4   9  21  37  62  87 116 152 200 255 295 349
#     4  11  23  40  59  83 126 164 194 241 305 371
#     4  10  21  34  57  88 115 152 197 244 301 357
#     4   9  20  34  55  88 115 154 196 242 306 354
#
# _framework density 18.305572999999999
#
# number of rings (size 3 to 8) (size 9 to 14) (size 15 to 20)
#    0.000    2.333    1.667    1.000    4.667    2.667 
#    0.000    0.833    0.000    1.000    0.000    0.000 
#    0.000    0.000    0.000    0.000    0.000    0.000 
#
# Total GULP energy -133749.114232 kJ/mol
# GULP energy per Si atom -5572.879760 kJ/mol
# Density = 1.826391 g / cm^3
# Si number density = 18.305573 Si / 1000 Ang^3
#
#
#
# Elastic Constant Matrix: (Units=GPa)
#
#
# Indices 1 2 3 4 5 6 
#
# 1 66.4967 30.3866 32.8256 0.0000 0.0000 0.0000
# 2 30.3866 72.4590 38.6009 0.0000 0.0000 0.0000
# 3 32.8256 38.6009 111.2757 0.0000 0.0000 0.0000
# 4 0.0000 0.0000 0.0000 12.6457 0.0000 0.0000
# 5 0.0000 0.0000 0.0000 0.0000 17.0254 0.0000
# 6 0.0000 0.0000 0.0000 0.0000 0.0000 13.4802
#
#
#
# Elastic Compliance Matrix: (Units=1/GPa)
#
#
# Indices 1 2 3 4 5 6 
#
# 1 0.019723 -0.006344 -0.003617 0.000000 0.000000 0.000000
# 2 -0.006344 0.018970 -0.004709 0.000000 0.000000 0.000000
# 3 -0.003617 -0.004709 0.011687 0.000000 0.000000 0.000000
# 4 0.000000 0.000000 0.000000 0.079078 0.000000 0.000000
# 5 0.000000 0.000000 0.000000 0.000000 0.058736 0.000000
# 6 0.000000 0.000000 0.000000 0.000000 0.000000 0.074183
#
#
# Mechanical properties :
#
#
# Convention : Reuss Voigt Hill
#
# Bulk Modulus (GPa) = 47.53025 50.42865 48.97945
# Shear Modulus (GPa) = 16.73743 18.52482 17.63112
#
# Velocity S-wave (km/s) = 3.02708 3.18461 3.10684
# Velocity P-wave (km/s) = 6.18376 6.41330 6.29957
#
# Compressibility (1/GPa) = 0.02103923
#
# Stress axis : x y z
#
# Youngs Moduli (GPa) = 50.70204 52.71469 85.56224
#
# Poissons Ratio (x) = 0.33442 0.30952
# Poissons Ratio (y) = 0.32165 0.40293
# Poissons Ratio (z) = 0.18341 0.24824
#
# Static dielectric constant tensor:
#      x y z
#    x 1.647080 0.000000 0.000000 
#    y 0.000000 1.618560 0.000000 
#    z 0.000000 0.000000 1.663820 
# 
# From -- ./inp_files/5797.got.cif
#   From: 2010.05.17/outbox.cif.g08.bks.cpg/sg39_3_cif.got.tgz:5797.got - 2010.06.03 18:22:40.
