data_PCOD9360073
_publ_section_title
;
Structure prediction by ZEFSAII (Michael W. Deem and Ramdas Pophale) SiO2 
 PCOD9360073
Probable space group: A B M 2
;
_chemical_formula_sum "Si O2"
_cell_formula_units_Z 56
_cell_length_a 21.073463
_cell_length_b 8.233714
_cell_length_c 15.741640
_cell_angle_alpha 90.000000
_cell_angle_beta 90.000000
_cell_angle_gamma 90.000000
_cell_volume 2731.377093
_symmetry_space_group_name_H-M "A B M 2"
_symmetry_group_IT_number 39
_symmetry_cell_setting 'orthorhombic'
loop_
_space_group_symop_operation_xyz
x,y,z
-x,-y,z
-x,1/2+y,z
x,1/2-y,z
x,1/2+y,1/2+z
-x,1/2-y,1/2+z
-x,y,1/2+z
x,-y,1/2+z
loop_
_atom_site_type_symbol
_atom_site_label
_atom_site_fract_x
_atom_site_fract_y
_atom_site_fract_z
Si Si1 0.839597 0.553685 0.187560
Si Si2 0.565398 0.446293 0.430460
Si Si3 0.702436 0.564437 0.194528
Si Si4 0.296804 0.433916 0.991267
Si Si5 0.432960 0.439125 0.238414
Si Si6 0.839415 0.058570 0.993814
Si Si7 0.072455 0.946569 0.840354
O O1 0.835824 0.750000 0.191037
O O2 0.770303 0.490182 0.218539
O O3 0.849545 0.510669 0.088716
O O4 0.893309 0.499015 0.253139
O O5 0.500000 0.500000 0.475711
O O6 0.564347 0.250000 0.422354
O O7 0.633053 0.495695 0.469273
O O8 0.563629 0.532418 0.339095
O O9 0.700582 0.750000 0.229734
O O10 0.705771 0.574250 0.092986
O O11 0.634870 0.483956 0.214211
O O12 0.292029 0.250000 0.957408
O O13 0.233423 0.527274 0.965181
O O14 0.500000 0.500000 0.202389
O O15 0.429738 0.250000 0.215878
O O16 0.848690 0.250000 0.000784
O O17 0.887344 0.994709 0.922054
O O18 0.074716 0.750000 0.840956
O O19 0.000000 0.000000 0.844301
#
# Coordination Sequence:
#
# PCOD9360073 Si02
#       7
#     8   8   8   8   8   8   8
#     4   9  19  39  61  82 113 153 190 229 280 338
#     4  10  20  33  49  72 103 139 180 224 273 326
#     4   8  16  32  54  74  96 134 179 215 265 324
#     4   9  19  36  55  76 105 143 182 223 277 335
#     4  10  19  31  49  71 100 138 176 222 271 322
#     4  10  21  37  59  89 118 147 189 238 282 331
#     4  10  23  40  61  88 118 152 190 228 277 341
#
# _framework density 20.502479000000001
#
# number of rings (size 3 to 8) (size 9 to 14) (size 15 to 20)
#    0.000    2.571    0.000    3.000    2.000    4.000 
#    0.000    8.571    0.000    0.000    0.000    0.000 
#    0.000    0.000    0.000    0.000    0.000    0.000 
#
# Total GULP energy -155997.980650 kJ/mol
# GULP energy per Si atom -5571.356452 kJ/mol
# Density = 2.045581 g / cm^3
# Si number density = 20.502479 Si / 1000 Ang^3
#
#
#
# Elastic Constant Matrix: (Units=GPa)
#
#
# Indices 1 2 3 4 5 6 
#
# 1 214.2634 14.9209 73.6173 0.0000 0.0000 0.0000
# 2 14.9209 14.3154 3.3579 0.0000 0.0000 0.0000
# 3 73.6173 3.3579 64.4327 0.0000 0.0000 0.0000
# 4 0.0000 0.0000 0.0000 16.2899 0.0000 0.0000
# 5 0.0000 0.0000 0.0000 0.0000 51.9204 0.0000
# 6 0.0000 0.0000 0.0000 0.0000 0.0000 28.4475
#
#
#
# Elastic Compliance Matrix: (Units=1/GPa)
#
#
# Indices 1 2 3 4 5 6 
#
# 1 0.008233 -0.006454 -0.009070 0.000000 0.000000 0.000000
# 2 -0.006454 0.075778 0.003424 0.000000 0.000000 0.000000
# 3 -0.009070 0.003424 0.025705 0.000000 0.000000 0.000000
# 4 0.000000 0.000000 0.000000 0.061388 0.000000 0.000000
# 5 0.000000 0.000000 0.000000 0.000000 0.019260 0.000000
# 6 0.000000 0.000000 0.000000 0.000000 0.000000 0.035153
#
#
# Mechanical properties :
#
#
# Convention : Reuss Voigt Hill
#
# Bulk Modulus (GPa) = 11.69361 52.97820 32.33590
# Shear Modulus (GPa) = 17.97135 32.73924 25.35530
#
# Velocity S-wave (km/s) = 2.96386 4.00039 3.52048
# Velocity P-wave (km/s) = 4.17475 6.87266 5.68604
#
# Compressibility (1/GPa) = 0.08551682
#
# Stress axis : x y z
#
# Youngs Moduli (GPa) = 121.46352 13.19644 38.90344
#
# Poissons Ratio (x) = 0.08516 0.35286
# Poissons Ratio (y) = 0.78388 -0.13322
# Poissons Ratio (z) = 1.10169 -0.04519
#
# Static dielectric constant tensor:
#      x y z
#    x 1.789320 0.000000 0.000000 
#    y 0.000000 1.747460 0.000000 
#    z 0.000000 0.000000 1.724600 
# 
# From -- ./inp_files/10393.got.cif
#   From: 2010.05.17/outbox.cif.g08.bks.cpg/sg39_6_cif.got.tgz:10393.got - 2010.06.03 18:22:40.
