data_PCOD9360648
_publ_section_title
;
Structure prediction by ZEFSAII (Michael W. Deem and Ramdas Pophale) SiO2 
 PCOD9360648
Probable space group: A B M 2
;
_chemical_formula_sum "Si O2"
_cell_formula_units_Z 52
_cell_length_a 26.280936
_cell_length_b 10.923191
_cell_length_c 8.733013
_cell_angle_alpha 90.000000
_cell_angle_beta 90.000000
_cell_angle_gamma 90.000000
_cell_volume 2507.000745
_symmetry_space_group_name_H-M "A B M 2"
_symmetry_group_IT_number 39
_symmetry_cell_setting 'orthorhombic'
loop_
_space_group_symop_operation_xyz
x,y,z
-x,-y,z
-x,1/2+y,z
x,1/2-y,z
x,1/2+y,1/2+z
-x,1/2-y,1/2+z
-x,y,1/2+z
x,-y,1/2+z
loop_
_atom_site_type_symbol
_atom_site_label
_atom_site_fract_x
_atom_site_fract_y
_atom_site_fract_z
Si Si1 0.328772 0.108450 0.566980
Si Si2 0.282576 0.110065 0.884590
Si Si3 0.171695 0.614424 0.527800
Si Si4 0.107212 0.531108 0.253514
Si Si5 0.435068 0.112453 0.731337
Si Si6 0.960403 0.612162 0.475560
Si Si7 0.500000 0.000000 0.486199
O O1 0.331307 0.250000 0.507974
O O2 0.286555 0.105590 0.701302
O O3 0.381963 0.080359 0.652198
O O4 0.316165 0.000981 0.449632
O O5 0.299191 0.250000 0.927437
O O6 0.226149 0.092360 0.950522
O O7 0.172686 0.750000 0.595907
O O8 0.154380 0.519359 0.655373
O O9 0.129262 0.607180 0.394643
O O10 0.071128 0.600385 0.133796
O O11 0.076383 0.419524 0.332490
O O12 0.430253 0.250000 0.787164
O O13 0.478550 0.101988 0.601165
O O14 0.453934 0.034281 0.874256
O O15 0.981397 0.750000 0.461926
O O16 0.000000 0.500000 0.476565
#
# Coordination Sequence:
#
# PCOD9360648 Si02
#       7
#     8   8   8   8   8   8   4
#     4  10  21  37  56  81 114 148 184 228 279 334
#     4  10  21  37  58  85 114 147 187 229 276 331
#     4  10  20  37  59  82 112 147 184 229 277 326
#     4  10  22  38  59  84 113 146 187 230 276 328
#     4  10  20  35  54  77 107 142 181 227 276 328
#     4  11  24  40  60  86 115 149 188 230 277 330
#     4  10  20  34  54  78 104 138 184 228 276 328
#
# _framework density 20.741914999999999
#
# number of rings (size 3 to 8) (size 9 to 14) (size 15 to 20)
#    0.000    1.846    0.000    3.692    0.000    5.538 
#    0.000    7.692    0.000    0.000    0.000    0.000 
#    0.000    0.000    0.000    0.000    0.000    0.000 
#
# Total GULP energy -145077.583672 kJ/mol
# GULP energy per Si atom -5579.907064 kJ/mol
# Density = 2.069471 g / cm^3
# Si number density = 20.741915 Si / 1000 Ang^3
#
#
#
# Elastic Constant Matrix: (Units=GPa)
#
#
# Indices 1 2 3 4 5 6 
#
# 1 47.1807 25.0090 -7.6304 0.0000 0.0000 0.0000
# 2 25.0090 102.0859 25.3692 0.0000 0.0000 0.0000
# 3 -7.6304 25.3692 60.6578 0.0000 0.0000 0.0000
# 4 0.0000 0.0000 0.0000 9.3808 0.0000 0.0000
# 5 0.0000 0.0000 0.0000 0.0000 30.0141 0.0000
# 6 0.0000 0.0000 0.0000 0.0000 0.0000 22.6902
#
#
#
# Elastic Compliance Matrix: (Units=1/GPa)
#
#
# Indices 1 2 3 4 5 6 
#
# 1 0.026647 -0.008215 0.006788 0.000000 0.000000 0.000000
# 2 -0.008215 0.013464 -0.006665 0.000000 0.000000 0.000000
# 3 0.006788 -0.006665 0.020127 0.000000 0.000000 0.000000
# 4 0.000000 0.000000 0.000000 0.106601 0.000000 0.000000
# 5 0.000000 0.000000 0.000000 0.000000 0.033318 0.000000
# 6 0.000000 0.000000 0.000000 0.000000 0.000000 0.044072
#
#
# Mechanical properties :
#
#
# Convention : Reuss Voigt Hill
#
# Bulk Modulus (GPa) = 22.69866 32.82446 27.76156
# Shear Modulus (GPa) = 18.17536 23.56214 20.86875
#
# Velocity S-wave (km/s) = 2.96338 3.37407 3.17537
# Velocity P-wave (km/s) = 4.76193 5.57123 5.18241
#
# Compressibility (1/GPa) = 0.04405546
#
# Stress axis : x y z
#
# Youngs Moduli (GPa) = 37.52717 74.27005 49.68408
#
# Poissons Ratio (x) = 0.61012 -0.33725
# Poissons Ratio (y) = 0.30828 0.33113
# Poissons Ratio (z) = -0.25473 0.49498
#
# Static dielectric constant tensor:
#      x y z
#    x 1.772580 0.000000 0.000000 
#    y 0.000000 1.747200 0.000000 
#    z 0.000000 0.000000 1.716520 
# 
# From -- ./inp_files/4109.got.cif
#   From: 2010.05.17/outbox.cif.g08.bks.cpg/sg39_3_cif.got.tgz:4109.got - 2010.06.03 18:22:40.
