data_PCOD9360333
_publ_section_title
;
Structure prediction by ZEFSAII (Michael W. Deem and Ramdas Pophale) SiO2 
 PCOD9360333
Probable space group: A B M 2
;
_chemical_formula_sum "Si O2"
_cell_formula_units_Z 64
_cell_length_a 13.580586
_cell_length_b 30.014006
_cell_length_c 7.927981
_cell_angle_alpha 90.000000
_cell_angle_beta 90.000000
_cell_angle_gamma 90.000000
_cell_volume 3231.506812
_symmetry_space_group_name_H-M "A B M 2"
_symmetry_group_IT_number 39
_symmetry_cell_setting 'orthorhombic'
loop_
_space_group_symop_operation_xyz
x,y,z
-x,-y,z
-x,1/2+y,z
x,1/2-y,z
x,1/2+y,1/2+z
-x,1/2-y,1/2+z
-x,y,1/2+z
x,-y,1/2+z
loop_
_atom_site_type_symbol
_atom_site_label
_atom_site_fract_x
_atom_site_fract_y
_atom_site_fract_z
Si Si1 0.724190 0.365015 0.655460
Si Si2 0.946340 0.133835 0.067273
Si Si3 0.361133 0.196712 0.601403
Si Si4 0.113806 0.988037 0.178812
Si Si5 0.426183 0.196014 0.978338
Si Si6 0.871173 0.597670 0.909642
Si Si7 0.196186 0.066800 0.381981
Si Si8 0.169774 0.197428 0.392494
O O1 0.630724 0.335013 0.610505
O O2 0.766510 0.389985 0.489595
O O3 0.803929 0.328561 0.721717
O O4 0.717267 0.403210 0.800863
O O5 0.900858 0.129079 0.251869
O O6 0.882806 0.102890 0.942183
O O7 0.930062 0.181869 0.984573
O O8 0.051685 0.111125 0.054387
O O9 0.355198 0.250000 0.602049
O O10 0.382931 0.184561 0.794498
O O11 0.457883 0.185930 0.492483
O O12 0.258953 0.182315 0.518326
O O13 0.112742 0.951626 0.331723
O O14 0.188809 0.965693 0.044426
O O15 0.158813 0.034323 0.237003
O O16 0.000000 0.000000 0.128723
O O17 0.413852 0.250000 0.008886
O O18 0.172648 0.250000 0.367399
#
# Coordination Sequence:
#
# PCOD9360333 Si02
#       8
#     8   8   8   8   8   8   8   8
#     4  11  22  35  49  77 117 151 185 228 278 333
#     4  10  20  35  51  75 106 142 187 230 281 326
#     4   9  18  33  58  88 109 140 191 243 293 337
#     4  11  20  34  58  80 105 141 186 232 293 336
#     4  10  19  34  57  83 114 149 187 236 289 337
#     4  11  22  35  53  75 108 146 183 230 280 339
#     4  10  21  31  50  79 105 139 175 227 278 340
#     4  10  20  36  55  76 109 148 188 235 283 331
#
# _framework density 19.805002999999999
#
# number of rings (size 3 to 8) (size 9 to 14) (size 15 to 20)
#    0.000    1.750    1.250    4.500    3.500    2.000 
#    0.000    3.750    0.000    0.000    0.000    0.000 
#    0.000  121.000    0.000    0.000    0.000    0.000 
#
# Total GULP energy -178260.564884 kJ/mol
# GULP energy per Si atom -5570.642653 kJ/mol
# Density = 1.975993 g / cm^3
# Si number density = 19.805003 Si / 1000 Ang^3
#
#
#
# Elastic Constant Matrix: (Units=GPa)
#
#
# Indices 1 2 3 4 5 6 
#
# 1 47.2441 22.4705 18.0769 0.0000 0.0000 0.0000
# 2 22.4705 83.9009 39.6035 0.0000 0.0000 0.0000
# 3 18.0769 39.6035 90.2369 0.0000 0.0000 0.0000
# 4 0.0000 0.0000 0.0000 38.6585 0.0000 0.0000
# 5 0.0000 0.0000 0.0000 0.0000 27.7168 0.0000
# 6 0.0000 0.0000 0.0000 0.0000 0.0000 20.2708
#
#
#
# Elastic Compliance Matrix: (Units=1/GPa)
#
#
# Indices 1 2 3 4 5 6 
#
# 1 0.024724 -0.005403 -0.002582 0.000000 0.000000 0.000000
# 2 -0.005403 0.016214 -0.006034 0.000000 0.000000 0.000000
# 3 -0.002582 -0.006034 0.014247 0.000000 0.000000 0.000000
# 4 0.000000 0.000000 0.000000 0.025868 0.000000 0.000000
# 5 0.000000 0.000000 0.000000 0.000000 0.036079 0.000000
# 6 0.000000 0.000000 0.000000 0.000000 0.000000 0.049332
#
#
# Mechanical properties :
#
#
# Convention : Reuss Voigt Hill
#
# Bulk Modulus (GPa) = 36.83418 42.40930 39.62174
# Shear Modulus (GPa) = 24.56391 26.74460 25.65426
#
# Velocity S-wave (km/s) = 3.52559 3.67876 3.60299
# Velocity P-wave (km/s) = 5.93396 6.28524 6.11213
#
# Compressibility (1/GPa) = 0.02714870
#
# Stress axis : x y z
#
# Youngs Moduli (GPa) = 40.44594 61.67527 70.18932
#
# Poissons Ratio (x) = 0.33324 0.18120
# Poissons Ratio (y) = 0.21854 0.42350
# Poissons Ratio (z) = 0.10441 0.37213
#
# Static dielectric constant tensor:
#      x y z
#    x 1.705670 0.000000 0.000000 
#    y 0.000000 1.730780 0.000000 
#    z 0.000000 0.000000 1.810730 
# 
# From -- ./inp_files/2908.got.cif
#   From: 2010.05.17/outbox.cif.g08.bks.cpg/sg39_2_cif.got.tgz:2908.got - 2010.06.03 18:22:40.
