data_PCOD9360717
_publ_section_title
;
Structure prediction by ZEFSAII (Michael W. Deem and Ramdas Pophale) SiO2 
 PCOD9360717
Probable space group: A B M 2
;
_chemical_formula_sum "Si O2"
_cell_formula_units_Z 64
_cell_length_a 25.066889
_cell_length_b 9.355920
_cell_length_c 14.644248
_cell_angle_alpha 90.000000
_cell_angle_beta 90.000000
_cell_angle_gamma 90.000000
_cell_volume 3434.424808
_symmetry_space_group_name_H-M "A B M 2"
_symmetry_group_IT_number 39
_symmetry_cell_setting 'orthorhombic'
loop_
_space_group_symop_operation_xyz
x,y,z
-x,-y,z
-x,1/2+y,z
x,1/2-y,z
x,1/2+y,1/2+z
-x,1/2-y,1/2+z
-x,y,1/2+z
x,-y,1/2+z
loop_
_atom_site_type_symbol
_atom_site_label
_atom_site_fract_x
_atom_site_fract_y
_atom_site_fract_z
Si Si1 0.551786 0.912145 0.651370
Si Si2 0.656383 0.083887 0.647683
Si Si3 0.054893 0.920381 0.156871
Si Si4 0.552662 0.414324 0.928358
Si Si5 0.740443 0.080416 0.803020
Si Si6 0.864739 0.921124 0.286310
Si Si7 0.339493 0.919187 0.431126
Si Si8 0.053050 0.582116 0.941550
O O1 0.549314 0.750000 0.683809
O O2 0.551334 0.910883 0.539843
O O3 0.500000 0.000000 0.680474
O O4 0.606874 0.987150 0.677596
O O5 0.640670 0.250000 0.658652
O O6 0.708087 0.057679 0.709037
O O7 0.666844 0.060951 0.540324
O O8 0.050746 0.750000 0.172822
O O9 0.062133 0.945591 0.048540
O O10 0.103770 0.990168 0.210409
O O11 0.000000 0.000000 0.183731
O O12 0.500000 0.500000 0.899307
O O13 0.553156 0.250000 0.896577
O O14 0.606432 0.498178 0.903369
O O15 0.736746 0.250000 0.825378
O O16 0.802458 0.043683 0.793039
O O17 0.709831 0.988468 0.878439
O O18 0.869224 0.750000 0.268547
O O19 0.895977 0.952882 0.380333
O O20 0.344307 0.750000 0.413274
O O21 0.042459 0.750000 0.931026
O O22 0.000000 0.500000 0.911752
#
# Coordination Sequence:
#
# PCOD9360717 Si02
#       8
#     8   8   8   8   8   8   8   8
#     4   9  16  27  48  77 105 134 170 214 266 324
#     4   9  19  36  55  75 104 141 177 218 270 323
#     4  10  20  35  56  83 113 143 176 216 263 314
#     4   9  16  28  49  77 106 136 171 213 267 327
#     4  10  22  39  56  76 106 144 184 224 267 317
#     4  10  21  37  56  79 109 145 183 223 267 314
#     4  10  20  35  55  78 105 138 178 224 270 318
#     4   9  19  35  55  81 112 143 175 214 262 315
#
# _framework density 18.634851999999999
#
# number of rings (size 3 to 8) (size 9 to 14) (size 15 to 20)
#    0.000    2.500    0.000    1.875    0.000    7.500 
#    0.000    0.625    0.000    3.000    0.000    0.000 
#    0.000    0.000    0.000    0.000    0.000    0.000 
#
# Total GULP energy -178712.557615 kJ/mol
# GULP energy per Si atom -5584.767425 kJ/mol
# Density = 1.859244 g / cm^3
# Si number density = 18.634852 Si / 1000 Ang^3
#
#
#
# Elastic Constant Matrix: (Units=GPa)
#
#
# Indices 1 2 3 4 5 6 
#
# 1 200.8606 110.8626 67.2803 0.0000 0.0000 0.0000
# 2 110.8626 111.9537 64.0668 0.0000 0.0000 0.0000
# 3 67.2803 64.0668 69.0726 0.0000 0.0000 0.0000
# 4 0.0000 0.0000 0.0000 33.1171 0.0000 0.0000
# 5 0.0000 0.0000 0.0000 0.0000 1714.0479 0.0000
# 6 0.0000 0.0000 0.0000 0.0000 0.0000 35.1675
#
#
#
# Elastic Compliance Matrix: (Units=1/GPa)
#
#
# Indices 1 2 3 4 5 6 
#
# 1 0.011035 -0.010179 -0.001307 0.000000 0.000000 0.000000
# 2 -0.010179 0.028427 -0.016452 0.000000 0.000000 0.000000
# 3 -0.001307 -0.016452 0.031010 0.000000 0.000000 0.000000
# 4 0.000000 0.000000 0.000000 0.030196 0.000000 0.000000
# 5 0.000000 0.000000 0.000000 0.000000 0.000583 0.000000
# 6 0.000000 0.000000 0.000000 0.000000 0.000000 0.028435
#
#
# Mechanical properties :
#
#
# Convention : Reuss Voigt Hill
#
# Bulk Modulus (GPa) = 68.51204 96.25623 82.38414
# Shear Modulus (GPa) = 26.25681 365.77831 196.01756
#
# Velocity S-wave (km/s) = 3.75776 14.02545 10.26728
# Velocity P-wave (km/s) = 7.46144 17.72147 13.59639
#
# Compressibility (1/GPa) = 0.01459598
#
# Stress axis : x y z
#
# Youngs Moduli (GPa) = 90.62401 35.17779 32.24789
#
# Poissons Ratio (x) = 0.35808 0.04214
# Poissons Ratio (y) = 0.92249 0.53053
# Poissons Ratio (z) = 0.11842 0.57874
#
# Static dielectric constant tensor:
#      x y z
#    x 1.589660 0.000000 0.000000 
#    y 0.000000 1.627760 0.000000 
#    z 0.000000 0.000000 1.672300 
# 
# From -- ./inp_files/10620.got.cif
#   From: 2010.05.17/outbox.cif.g08.bks.cpg/sg39_6_cif.got.tgz:10620.got - 2010.06.03 18:22:40.
