data_PCOD9360226
_publ_section_title
;
Structure prediction by ZEFSAII (Michael W. Deem and Ramdas Pophale) SiO2 
 PCOD9360226
Probable space group: A B M 2
;
_chemical_formula_sum "Si O2"
_cell_formula_units_Z 56
_cell_length_a 5.045613
_cell_length_b 16.596952
_cell_length_c 34.142720
_cell_angle_alpha 90.000000
_cell_angle_beta 90.000000
_cell_angle_gamma 90.000000
_cell_volume 2859.172719
_symmetry_space_group_name_H-M "A B M 2"
_symmetry_group_IT_number 39
_symmetry_cell_setting 'orthorhombic'
loop_
_space_group_symop_operation_xyz
x,y,z
-x,-y,z
-x,1/2+y,z
x,1/2-y,z
x,1/2+y,1/2+z
-x,1/2-y,1/2+z
-x,y,1/2+z
x,-y,1/2+z
loop_
_atom_site_type_symbol
_atom_site_label
_atom_site_fract_x
_atom_site_fract_y
_atom_site_fract_z
Si Si1 0.908983 0.842103 0.292900
Si Si2 0.548504 0.342689 0.920232
Si Si3 0.033077 0.158956 0.973624
Si Si4 0.424265 0.908190 0.336014
Si Si5 0.246465 0.058481 0.046758
Si Si6 0.747739 0.559391 0.131394
Si Si7 0.247378 0.940897 0.716549
O O1 0.993909 0.750000 0.288044
O O2 0.638033 0.849268 0.316814
O O3 0.828650 0.881895 0.251658
O O4 0.137511 0.888084 0.317668
O O5 0.626884 0.250000 0.909100
O O6 0.278562 0.337629 0.944284
O O7 0.472218 0.393692 0.882101
O O8 0.781969 0.375144 0.948937
O O9 0.953147 0.250000 0.985251
O O10 0.153272 0.113660 0.011011
O O11 0.500000 0.000000 0.326257
O O12 0.500000 0.000000 0.039212
O O13 0.271294 0.102729 0.089140
O O14 0.000000 0.000000 0.051977
O O15 0.500000 0.500000 0.131058
O O16 0.730325 0.601664 0.173802
O O17 0.000000 0.500000 0.131990
O O18 0.500000 0.000000 0.723742
O O19 0.000000 0.000000 0.713877
#
# Coordination Sequence:
#
# PCOD9360226 Si02
#       7
#     8   8   8   8   8   8   8
#     4  12  24  39  59  85 117 150 185 231 292 350
#     4  10  21  38  57  78 108 144 180 223 281 338
#     4  10  21  36  55  79 109 144 179 221 278 335
#     4  12  25  41  61  85 111 145 192 240 285 343
#     4  10  19  33  54  81 111 144 186 229 271 324
#     4   8  16  30  51  78 108 144 182 225 275 324
#     4  10  19  35  58  82 111 147 190 233 276 332
#
# _framework density 19.586086000000002
#
# number of rings (size 3 to 8) (size 9 to 14) (size 15 to 20)
#    0.000    1.714    0.000    5.571    0.000    2.857 
#    0.000    0.714    0.000    0.000    0.000   16.000 
#    0.000    0.000    0.000    0.000    0.000    0.000 
#
# Total GULP energy -155961.898356 kJ/mol
# GULP energy per Si atom -5570.067798 kJ/mol
# Density = 1.954151 g / cm^3
# Si number density = 19.586086 Si / 1000 Ang^3
#
#
#
# Elastic Constant Matrix: (Units=GPa)
#
#
# Indices 1 2 3 4 5 6 
#
# 1 126.1603 3.8314 19.4717 0.0000 0.0000 0.0000
# 2 3.8314 52.5705 36.2651 0.0000 0.0000 0.0000
# 3 19.4717 36.2651 152.3949 0.0000 0.0000 0.0000
# 4 0.0000 0.0000 0.0000 51.7979 0.0000 0.0000
# 5 0.0000 0.0000 0.0000 0.0000 31.2960 0.0000
# 6 0.0000 0.0000 0.0000 0.0000 0.0000 16.5916
#
#
#
# Elastic Compliance Matrix: (Units=1/GPa)
#
#
# Indices 1 2 3 4 5 6 
#
# 1 0.008087 0.000148 -0.001068 0.000000 0.000000 0.000000
# 2 0.000148 0.022761 -0.005435 0.000000 0.000000 0.000000
# 3 -0.001068 -0.005435 0.007992 0.000000 0.000000 0.000000
# 4 0.000000 0.000000 0.000000 0.019306 0.000000 0.000000
# 5 0.000000 0.000000 0.000000 0.000000 0.031953 0.000000
# 6 0.000000 0.000000 0.000000 0.000000 0.000000 0.060272
#
#
# Mechanical properties :
#
#
# Convention : Reuss Voigt Hill
#
# Bulk Modulus (GPa) = 38.27388 50.02912 44.15150
# Shear Modulus (GPa) = 29.10519 38.04093 33.57306
#
# Velocity S-wave (km/s) = 3.85907 4.41187 4.14469
# Velocity P-wave (km/s) = 6.28015 7.17993 6.74506
#
# Compressibility (1/GPa) = 0.02612748
#
# Stress axis : x y z
#
# Youngs Moduli (GPa) = 123.65774 43.93538 125.12808
#
# Poissons Ratio (x) = -0.00649 0.13369
# Poissons Ratio (y) = -0.01826 0.68009
# Poissons Ratio (z) = 0.13212 0.23880
#
# Static dielectric constant tensor:
#      x y z
#    x 1.642370 0.000000 0.000000 
#    y 0.000000 1.686270 0.000000 
#    z 0.000000 0.000000 1.831060 
# 
# From -- ./inp_files/17271.got.cif
#   From: 2010.05.17/outbox.cif.g08.bks.cpg/sg39_9_cif.got.tgz:17271.got - 2010.06.03 18:22:40.
