data_PCOD9360048
_publ_section_title
;
Structure prediction by ZEFSAII (Michael W. Deem and Ramdas Pophale) SiO2 
 PCOD9360048
Probable space group: A B M 2
;
_chemical_formula_sum "Si O2"
_cell_formula_units_Z 56
_cell_length_a 18.637499
_cell_length_b 8.735126
_cell_length_c 19.097436
_cell_angle_alpha 90.000000
_cell_angle_beta 90.000000
_cell_angle_gamma 90.000000
_cell_volume 3109.079808
_symmetry_space_group_name_H-M "A B M 2"
_symmetry_group_IT_number 39
_symmetry_cell_setting 'orthorhombic'
loop_
_space_group_symop_operation_xyz
x,y,z
-x,-y,z
-x,1/2+y,z
x,1/2-y,z
x,1/2+y,1/2+z
-x,1/2-y,1/2+z
-x,y,1/2+z
x,-y,1/2+z
loop_
_atom_site_type_symbol
_atom_site_label
_atom_site_fract_x
_atom_site_fract_y
_atom_site_fract_z
Si Si1 0.808856 0.427947 0.238650
Si Si2 0.264046 0.068294 0.375213
Si Si3 0.183968 0.925122 0.506014
Si Si4 0.920252 0.565569 0.621960
Si Si5 0.710609 0.920772 0.132426
Si Si6 0.419765 0.068394 0.844177
Si Si7 0.576745 0.069635 0.177207
O O1 0.817573 0.250000 0.256962
O O2 0.779280 0.516639 0.305641
O O3 0.878492 0.481205 0.193947
O O4 0.747588 0.452179 0.180630
O O5 0.271562 0.250000 0.376332
O O6 0.213410 0.012298 0.438648
O O7 0.345501 0.998702 0.376645
O O8 0.163069 0.750000 0.488625
O O9 0.251258 0.919758 0.558559
O O10 0.122482 0.002625 0.553977
O O11 0.919941 0.750000 0.619792
O O12 0.000000 0.500000 0.622299
O O13 0.719611 0.750000 0.163556
O O14 0.629671 0.970493 0.130625
O O15 0.422417 0.250000 0.858015
O O16 0.408873 0.045839 0.760311
O O17 0.500000 0.000000 0.861167
O O18 0.581244 0.250000 0.163163
O O19 0.500000 0.000000 0.164359
#
# Coordination Sequence:
#
# PCOD9360048 Si02
#       7
#     8   8   8   8   8   8   8
#     4  10  20  35  57  84 113 146 184 229 278 332
#     4  12  23  36  57  85 117 153 195 242 288 342
#     4  10  22  39  59  83 115 153 192 233 282 340
#     4  10  21  39  64  91 119 150 187 229 281 342
#     4  10  19  33  54  79 106 140 183 231 279 333
#     4  10  20  34  53  79 112 151 192 239 293 342
#     4  10  19  30  49  75 107 143 183 235 287 337
#
# _framework density 18.011759000000001
#
# number of rings (size 3 to 8) (size 9 to 14) (size 15 to 20)
#    0.000    1.714    1.429    3.857    0.000    4.571 
#    0.000    1.429    0.000    5.143    0.000    0.000 
#    0.000    0.000    0.000    0.000    0.000    0.000 
#
# Total GULP energy -156054.483720 kJ/mol
# GULP energy per Si atom -5573.374419 kJ/mol
# Density = 1.797076 g / cm^3
# Si number density = 18.011759 Si / 1000 Ang^3
#
#
#
# Elastic Constant Matrix: (Units=GPa)
#
#
# Indices 1 2 3 4 5 6 
#
# 1 127.4285 48.0755 49.1184 0.0000 0.0000 0.0000
# 2 48.0755 93.2009 39.3271 0.0000 0.0000 0.0000
# 3 49.1184 39.3271 71.8909 0.0000 0.0000 0.0000
# 4 0.0000 0.0000 0.0000 21.7953 0.0000 0.0000
# 5 0.0000 0.0000 0.0000 0.0000 15.3756 0.0000
# 6 0.0000 0.0000 0.0000 0.0000 0.0000 28.2794
#
#
#
# Elastic Compliance Matrix: (Units=1/GPa)
#
#
# Indices 1 2 3 4 5 6 
#
# 1 0.011416 -0.003377 -0.005953 0.000000 0.000000 0.000000
# 2 -0.003377 0.014948 -0.005870 0.000000 0.000000 0.000000
# 3 -0.005953 -0.005870 0.021188 0.000000 0.000000 0.000000
# 4 0.000000 0.000000 0.000000 0.045882 0.000000 0.000000
# 5 0.000000 0.000000 0.000000 0.000000 0.065038 0.000000
# 6 0.000000 0.000000 0.000000 0.000000 0.000000 0.035361
#
#
# Mechanical properties :
#
#
# Convention : Reuss Voigt Hill
#
# Bulk Modulus (GPa) = 58.29750 62.84025 60.56887
# Shear Modulus (GPa) = 21.74382 23.49000 22.61691
#
# Velocity S-wave (km/s) = 3.47825 3.61522 3.54739
# Velocity P-wave (km/s) = 6.96904 7.23813 7.10486
#
# Compressibility (1/GPa) = 0.01715340
#
# Stress axis : x y z
#
# Youngs Moduli (GPa) = 87.59619 66.89687 47.19631
#
# Poissons Ratio (x) = 0.22591 0.28094
# Poissons Ratio (y) = 0.29581 0.27705
# Poissons Ratio (z) = 0.52142 0.39269
#
# Static dielectric constant tensor:
#      x y z
#    x 1.609510 0.000000 0.000000 
#    y 0.000000 1.630370 0.000000 
#    z 0.000000 0.000000 1.611210 
# 
# From -- ./inp_files/14936.got.cif
#   From: 2010.05.17/outbox.cif.g08.bks.cpg/sg39_8_cif.got.tgz:14936.got - 2010.06.03 18:22:40.
