data_PCOD9360401
_publ_section_title
;
Structure prediction by ZEFSAII (Michael W. Deem and Ramdas Pophale) SiO2 
 PCOD9360401
Probable space group: A B M 2
;
_chemical_formula_sum "Si O2"
_cell_formula_units_Z 64
_cell_length_a 17.547948
_cell_length_b 20.896825
_cell_length_c 9.132601
_cell_angle_alpha 90.000000
_cell_angle_beta 90.000000
_cell_angle_gamma 90.000000
_cell_volume 3348.891895
_symmetry_space_group_name_H-M "A B M 2"
_symmetry_group_IT_number 39
_symmetry_cell_setting 'orthorhombic'
loop_
_space_group_symop_operation_xyz
x,y,z
-x,-y,z
-x,1/2+y,z
x,1/2-y,z
x,1/2+y,1/2+z
-x,1/2-y,1/2+z
-x,y,1/2+z
x,-y,1/2+z
loop_
_atom_site_type_symbol
_atom_site_label
_atom_site_fract_x
_atom_site_fract_y
_atom_site_fract_z
Si Si1 0.736837 0.054238 0.191730
Si Si2 0.601963 0.322757 0.786337
Si Si3 0.833053 0.975930 0.957768
Si Si4 0.101425 0.889103 0.900886
Si Si5 0.022793 0.427125 0.127671
Si Si6 0.743670 0.173665 0.978469
Si Si7 0.431217 0.547369 0.239825
Si Si8 0.484717 0.124487 0.005299
O O1 0.783554 0.062201 0.341008
O O2 0.654375 0.024059 0.224512
O O3 0.729798 0.123044 0.110440
O O4 0.781919 0.005545 0.086914
O O5 0.613375 0.250000 0.743340
O O6 0.681793 0.345463 0.854283
O O7 0.567111 0.355828 0.642964
O O8 0.539640 0.327119 0.917570
O O9 0.862760 0.040255 0.878706
O O10 0.905372 0.937981 0.019927
O O11 0.048382 0.882233 0.760095
O O12 0.170523 0.840466 0.923647
O O13 0.048450 0.897170 0.042765
O O14 0.000000 0.500000 0.175632
O O15 0.733429 0.250000 0.011102
O O16 0.500000 0.500000 0.275715
O O17 0.455863 0.576593 0.083770
O O18 0.433498 0.595873 0.376024
#
# Coordination Sequence:
#
# PCOD9360401 Si02
#       8
#     8   8   8   8   8   8   8   8
#     4  11  23  39  60  93 123 169 206 256 315 373
#     4  10  20  40  66  86 112 153 213 266 295 344
#     4  10  21  35  60  92 124 155 205 257 314 374
#     4  10  21  35  61  89 122 158 200 250 317 372
#     4  10  19  35  59  93 125 155 196 257 312 380
#     4  10  23  43  64  87 124 170 213 259 311 367
#     4  11  24  37  54  85 128 165 195 244 307 379
#     4  10  22  38  57  87 117 158 202 245 308 361
#
# _framework density 19.110799
#
# number of rings (size 3 to 8) (size 9 to 14) (size 15 to 20)
#    0.000    1.750    2.500    1.875    7.000    2.000 
#    0.000    1.250    0.000    0.750    0.000    0.000 
#    0.000    0.000    0.000    0.000    0.000    0.000 
#
# Total GULP energy -178430.626327 kJ/mol
# GULP energy per Si atom -5575.957073 kJ/mol
# Density = 1.906730 g / cm^3
# Si number density = 19.110799 Si / 1000 Ang^3
#
#
#
# Elastic Constant Matrix: (Units=GPa)
#
#
# Indices 1 2 3 4 5 6 
#
# 1 125.1620 23.4608 33.6333 0.0000 0.0000 0.0000
# 2 23.4608 29.6368 15.8549 0.0000 0.0000 0.0000
# 3 33.6333 15.8549 73.3127 0.0000 0.0000 0.0000
# 4 0.0000 0.0000 0.0000 0.7357 0.0000 0.0000
# 5 0.0000 0.0000 0.0000 0.0000 29.8960 0.0000
# 6 0.0000 0.0000 0.0000 0.0000 0.0000 23.6955
#
#
#
# Elastic Compliance Matrix: (Units=1/GPa)
#
#
# Indices 1 2 3 4 5 6 
#
# 1 0.010027 -0.006193 -0.003261 0.000000 0.000000 0.000000
# 2 -0.006193 0.041981 -0.006238 0.000000 0.000000 0.000000
# 3 -0.003261 -0.006238 0.016485 0.000000 0.000000 0.000000
# 4 0.000000 0.000000 0.000000 1.359224 0.000000 0.000000
# 5 0.000000 0.000000 0.000000 0.000000 0.033449 0.000000
# 6 0.000000 0.000000 0.000000 0.000000 0.000000 0.042202
#
#
# Mechanical properties :
#
#
# Convention : Reuss Voigt Hill
#
# Bulk Modulus (GPa) = 26.94678 41.55661 34.25169
# Shear Modulus (GPa) = 3.23181 21.20961 12.22071
#
# Velocity S-wave (km/s) = 1.30183 3.33502 2.53151
# Velocity P-wave (km/s) = 4.04853 6.05162 5.14843
#
# Compressibility (1/GPa) = 0.03711019
#
# Stress axis : x y z
#
# Youngs Moduli (GPa) = 99.73443 23.82018 60.66086
#
# Poissons Ratio (x) = 0.14751 0.19779
# Poissons Ratio (y) = 0.61764 0.37840
# Poissons Ratio (z) = 0.32519 0.14859
#
# Static dielectric constant tensor:
#      x y z
#    x 1.696440 0.000000 0.000000 
#    y 0.000000 1.699880 0.000000 
#    z 0.000000 0.000000 1.676320 
# 
# From -- ./inp_files/3856.got.cif
#   From: 2010.05.17/outbox.cif.g08.bks.cpg/sg39_2_cif.got.tgz:3856.got - 2010.06.03 18:22:40.
