data_PCOD9360410
_publ_section_title
;
Structure prediction by ZEFSAII (Michael W. Deem and Ramdas Pophale) SiO2 
 PCOD9360410
Probable space group: A B M 2
;
_chemical_formula_sum "Si O2"
_cell_formula_units_Z 56
_cell_length_a 11.442716
_cell_length_b 15.018948
_cell_length_c 17.609000
_cell_angle_alpha 90.000000
_cell_angle_beta 90.000000
_cell_angle_gamma 90.000000
_cell_volume 3026.239714
_symmetry_space_group_name_H-M "A B M 2"
_symmetry_group_IT_number 39
_symmetry_cell_setting 'orthorhombic'
loop_
_space_group_symop_operation_xyz
x,y,z
-x,-y,z
-x,1/2+y,z
x,1/2-y,z
x,1/2+y,1/2+z
-x,1/2-y,1/2+z
-x,y,1/2+z
x,-y,1/2+z
loop_
_atom_site_type_symbol
_atom_site_label
_atom_site_fract_x
_atom_site_fract_y
_atom_site_fract_z
Si Si1 0.321844 0.846620 0.597970
Si Si2 0.169009 0.853720 0.460807
Si Si3 0.713481 0.471061 0.895258
Si Si4 0.898910 0.643311 0.485106
Si Si5 0.540186 0.905725 0.519667
Si Si6 0.641068 0.994351 0.224462
Si Si7 0.250009 0.352497 0.626304
O O1 0.327903 0.750000 0.634349
O O2 0.206030 0.857770 0.549031
O O3 0.423023 0.851005 0.533035
O O4 0.333621 0.919907 0.661580
O O5 0.186285 0.750000 0.435883
O O6 0.031744 0.875350 0.461504
O O7 0.246188 0.928753 0.418754
O O8 0.598739 0.434826 0.940523
O O9 0.690656 0.468711 0.806448
O O10 0.815185 0.407940 0.927216
O O11 0.880835 0.750000 0.480850
O O12 0.858287 0.618466 0.571572
O O13 0.640925 0.859519 0.567978
O O14 0.500000 0.000000 0.554825
O O15 0.500000 0.000000 0.231207
O O16 0.708048 0.082626 0.193551
O O17 0.233342 0.250000 0.650303
#
# Coordination Sequence:
#
# PCOD9360410 Si02
#       7
#     8   8   8   8   8   8   8
#     4  11  21  37  61  86 115 152 192 239 292 341
#     4  10  21  39  63  88 113 150 202 249 285 336
#     4  11  23  36  59  84 120 158 191 237 295 348
#     4   9  20  40  64  87 110 147 205 254 285 332
#     4  11  17  35  57  81 111 148 193 239 278 331
#     4  12  24  37  53  87 128 155 184 234 293 361
#     4  10  19  35  61  85 113 154 195 237 288 339
#
# _framework density 18.504814
#
# number of rings (size 3 to 8) (size 9 to 14) (size 15 to 20)
#    0.000    1.429    4.286    2.143    0.000    1.714 
#    0.000    2.857    0.000    3.429    0.000    0.000 
#    0.000    0.000    0.000    0.000    0.000    0.000 
#
# Total GULP energy -155967.775932 kJ/mol
# GULP energy per Si atom -5570.277712 kJ/mol
# Density = 1.846270 g / cm^3
# Si number density = 18.504814 Si / 1000 Ang^3
#
#
#
# Elastic Constant Matrix: (Units=GPa)
#
#
# Indices 1 2 3 4 5 6 
#
# 1 41.6718 17.4348 42.5121 0.0000 0.0000 0.0000
# 2 17.4348 82.4936 45.2725 0.0000 0.0000 0.0000
# 3 42.5121 45.2725 115.8395 0.0000 0.0000 0.0000
# 4 0.0000 0.0000 0.0000 -95.0907 0.0000 0.0000
# 5 0.0000 0.0000 0.0000 0.0000 12.8787 0.0000
# 6 0.0000 0.0000 0.0000 0.0000 0.0000 19.6598
#
#
#
# Elastic Compliance Matrix: (Units=1/GPa)
#
#
# Indices 1 2 3 4 5 6 
#
# 1 0.038373 -0.000486 -0.013893 0.000000 0.000000 0.000000
# 2 -0.000486 0.015438 -0.005855 0.000000 0.000000 0.000000
# 3 -0.013893 -0.005855 0.016020 0.000000 0.000000 0.000000
# 4 0.000000 0.000000 0.000000 -0.010516 0.000000 0.000000
# 5 0.000000 0.000000 0.000000 0.000000 0.077648 0.000000
# 6 0.000000 0.000000 0.000000 0.000000 0.000000 0.050865
#
#
# Mechanical properties :
#
#
# Convention : Reuss Voigt Hill
#
# Bulk Modulus (GPa) = 34.05608 50.04928 42.05268
# Shear Modulus (GPa) = 21.00104 -3.52475 8.73814
#
# Velocity S-wave (km/s) = 3.37248 -1.38163 2.17539
# Velocity P-wave (km/s) = 5.79730 4.95582 5.39299
#
# Compressibility (1/GPa) = 0.02936333
#
# Stress axis : x y z
#
# Youngs Moduli (GPa) = 26.05979 64.77436 62.42358
#
# Poissons Ratio (x) = 0.03146 0.86724
# Poissons Ratio (y) = 0.01266 0.36551
# Poissons Ratio (z) = 0.36205 0.37928
#
# Static dielectric constant tensor:
#      x y z
#    x 1.689180 0.000000 0.000000 
#    y 0.000000 1.704500 0.000000 
#    z 0.000000 0.000000 1.606450 
# 
# From -- ./inp_files/9306.got.cif
#   From: 2010.05.17/outbox.cif.g08.bks.cpg/sg39_5_cif.got.tgz:9306.got - 2010.06.03 18:22:40.
