data_PCOD9360147
_publ_section_title
;
Structure prediction by ZEFSAII (Michael W. Deem and Ramdas Pophale) SiO2 
 PCOD9360147
Probable space group: A B M 2
;
_chemical_formula_sum "Si O2"
_cell_formula_units_Z 64
_cell_length_a 15.122461
_cell_length_b 8.525295
_cell_length_c 25.245887
_cell_angle_alpha 90.000000
_cell_angle_beta 90.000000
_cell_angle_gamma 90.000000
_cell_volume 3254.786627
_symmetry_space_group_name_H-M "A B M 2"
_symmetry_group_IT_number 39
_symmetry_cell_setting 'orthorhombic'
loop_
_space_group_symop_operation_xyz
x,y,z
-x,-y,z
-x,1/2+y,z
x,1/2-y,z
x,1/2+y,1/2+z
-x,1/2-y,1/2+z
-x,y,1/2+z
x,-y,1/2+z
loop_
_atom_site_type_symbol
_atom_site_label
_atom_site_fract_x
_atom_site_fract_y
_atom_site_fract_z
Si Si1 0.165444 0.065182 0.290060
Si Si2 0.899516 0.435769 0.000174
Si Si3 0.789418 0.063608 0.401836
Si Si4 0.406547 0.063171 0.871566
Si Si5 0.348660 0.562329 0.253432
Si Si6 0.406631 0.438706 0.139889
Si Si7 0.090164 0.938433 0.684568
Si Si8 0.778110 0.439232 0.595060
O O1 0.152734 0.250000 0.300474
O O2 0.099102 0.006279 0.244969
O O3 0.168276 0.972433 0.344612
O O4 0.259696 0.036598 0.261903
O O5 0.905547 0.250000 0.003172
O O6 0.849218 0.485654 0.946490
O O7 0.000000 0.500000 0.003001
O O8 0.835683 0.496166 0.047001
O O9 0.787515 0.250000 0.410920
O O10 0.686531 0.006625 0.397313
O O11 0.406634 0.250000 0.877700
O O12 0.400546 0.030767 0.808300
O O13 0.500000 0.000000 0.892168
O O14 0.330715 0.750000 0.252077
O O15 0.392770 0.509910 0.198769
O O16 0.500000 0.500000 0.119185
O O17 0.407044 0.250000 0.144420
O O18 0.323914 0.485555 0.102778
O O19 0.089864 0.750000 0.685638
O O20 0.171777 0.989087 0.648692
O O21 0.000000 0.000000 0.660087
O O22 0.780438 0.250000 0.591619
#
# Coordination Sequence:
#
# PCOD9360147 Si02
#       8
#     8   8   8   8   8   8   8   8
#     4  10  19  35  56  84 123 164 202 248 304 363
#     4  12  26  45  70  96 117 152 202 255 312 370
#     4  10  22  41  62  89 123 159 203 256 307 361
#     4   9  19  33  53  84 121 161 203 245 294 350
#     4  10  19  32  52  82 120 165 211 251 297 355
#     4  11  22  37  58  87 124 163 205 252 305 362
#     4  10  21  36  56  85 119 157 197 238 301 364
#     4  10  22  43  64  87 122 160 200 254 307 358
#
# _framework density 19.663347999999999
#
# number of rings (size 3 to 8) (size 9 to 14) (size 15 to 20)
#    0.000    1.750    1.250    4.125    0.000    8.000 
#    0.000    1.875    0.000    0.000    0.000    0.000 
#    0.000    0.000    0.000    0.000    0.000    0.000 
#
# Total GULP energy -178588.567467 kJ/mol
# GULP energy per Si atom -5580.892733 kJ/mol
# Density = 1.961859 g / cm^3
# Si number density = 19.663348 Si / 1000 Ang^3
#
#
#
# Elastic Constant Matrix: (Units=GPa)
#
#
# Indices 1 2 3 4 5 6 
#
# 1 163.9096 38.4487 71.0556 0.0000 0.0000 0.0000
# 2 38.4487 34.5130 18.2637 0.0000 0.0000 0.0000
# 3 71.0556 18.2637 95.0787 0.0000 0.0000 0.0000
# 4 0.0000 0.0000 0.0000 28.9420 0.0000 0.0000
# 5 0.0000 0.0000 0.0000 0.0000 16.1211 0.0000
# 6 0.0000 0.0000 0.0000 0.0000 0.0000 30.9956
#
#
#
# Elastic Compliance Matrix: (Units=1/GPa)
#
#
# Indices 1 2 3 4 5 6 
#
# 1 0.010993 -0.008793 -0.006526 0.000000 0.000000 0.000000
# 2 -0.008793 0.039286 -0.000975 0.000000 0.000000 0.000000
# 3 -0.006526 -0.000975 0.015582 0.000000 0.000000 0.000000
# 4 0.000000 0.000000 0.000000 0.034552 0.000000 0.000000
# 5 0.000000 0.000000 0.000000 0.000000 0.062030 0.000000
# 6 0.000000 0.000000 0.000000 0.000000 0.000000 0.032263
#
#
# Mechanical properties :
#
#
# Convention : Reuss Voigt Hill
#
# Bulk Modulus (GPa) = 30.05495 61.00415 45.52955
# Shear Modulus (GPa) = 20.97449 26.26062 23.61755
#
# Velocity S-wave (km/s) = 3.26955 3.65843 3.46944
# Velocity P-wave (km/s) = 5.43794 6.99551 6.26531
#
# Compressibility (1/GPa) = 0.03327239
#
# Stress axis : x y z
#
# Youngs Moduli (GPa) = 90.97087 25.45437 64.17582
#
# Poissons Ratio (x) = 0.22381 0.41882
# Poissons Ratio (y) = 0.79987 0.06260
# Poissons Ratio (z) = 0.59369 0.02483
#
# Static dielectric constant tensor:
#      x y z
#    x 1.728430 0.000000 0.000000 
#    y 0.000000 1.668140 0.000000 
#    z 0.000000 0.000000 1.692490 
# 
# From -- ./inp_files/16264.got.cif
#   From: 2010.05.17/outbox.cif.g08.bks.cpg/sg39_9_cif.got.tgz:16264.got - 2010.06.03 18:22:40.
