data_PCOD9360596
_publ_section_title
;
Structure prediction by ZEFSAII (Michael W. Deem and Ramdas Pophale) SiO2 
 PCOD9360596
Probable space group: A B M 2
;
_chemical_formula_sum "Si O2"
_cell_formula_units_Z 60
_cell_length_a 11.025892
_cell_length_b 13.806033
_cell_length_c 17.547123
_cell_angle_alpha 90.000000
_cell_angle_beta 90.000000
_cell_angle_gamma 90.000000
_cell_volume 2671.090248
_symmetry_space_group_name_H-M "A B M 2"
_symmetry_group_IT_number 39
_symmetry_cell_setting 'orthorhombic'
loop_
_space_group_symop_operation_xyz
x,y,z
-x,-y,z
-x,1/2+y,z
x,1/2-y,z
x,1/2+y,1/2+z
-x,1/2-y,1/2+z
-x,y,1/2+z
x,-y,1/2+z
loop_
_atom_site_type_symbol
_atom_site_label
_atom_site_fract_x
_atom_site_fract_y
_atom_site_fract_z
Si Si1 0.000000 0.500000 0.669250
Si Si2 0.625221 0.963849 0.023662
Si Si3 0.183017 0.064133 0.454233
Si Si4 0.791504 0.363098 0.640408
Si Si5 0.933041 0.854548 0.941337
Si Si6 0.157784 0.140272 0.773860
Si Si7 0.589715 0.133558 0.357383
Si Si8 0.318545 0.133858 0.305597
O O1 0.088418 0.573504 0.625783
O O2 0.090972 0.433741 0.718802
O O3 0.602392 0.918524 0.939359
O O4 0.500000 0.000000 0.057277
O O5 0.707161 0.060233 0.012815
O O6 0.692201 0.888459 0.077423
O O7 0.236584 0.087793 0.371559
O O8 0.070157 0.132864 0.468633
O O9 0.135880 0.953536 0.458684
O O10 0.821391 0.250000 0.642425
O O11 0.734076 0.389348 0.722661
O O12 0.882020 0.750000 0.966145
O O13 0.926025 0.854501 0.849478
O O14 0.164701 0.250000 0.742313
O O15 0.292884 0.112875 0.804153
O O16 0.592418 0.250000 0.369820
O O17 0.459892 0.108508 0.319898
O O18 0.310487 0.250000 0.314426
#
# Coordination Sequence:
#
# PCOD9360596 Si02
#       8
#     4   8   8   8   8   8   8   8
#     4  12  24  42  68  96 132 186 232 290 342 410
#     4  12  25  43  65  99 136 182 226 279 340 415
#     4  11  21  37  63  95 128 167 225 280 326 387
#     4  11  27  48  70  99 141 187 228 281 353 419
#     4  10  20  33  55  92 132 170 214 272 330 383
#     4  10  20  35  62 102 135 173 229 287 342 396
#     4  10  21  39  67 100 136 178 226 279 335 401
#     4  10  21  41  70 101 131 171 223 280 337 400
#
# _framework density 22.462736
#
# number of rings (size 3 to 8) (size 9 to 14) (size 15 to 20)
#    0.000    1.333    2.667    3.600    0.000    4.800 
#    0.000    0.000    0.000    4.800    0.000    0.000 
#    0.000    0.000    0.000    0.000    0.000    0.000 
#
# Total GULP energy -167783.491303 kJ/mol
# GULP energy per Si atom -5592.783043 kJ/mol
# Density = 2.241161 g / cm^3
# Si number density = 22.462736 Si / 1000 Ang^3
#
#
#
# Elastic Constant Matrix: (Units=GPa)
#
#
# Indices 1 2 3 4 5 6 
#
# 1 153.0131 56.1108 36.5725 0.0000 0.0000 0.0000
# 2 56.1108 114.9833 35.6889 0.0000 0.0000 0.0000
# 3 36.5725 35.6889 72.2508 0.0000 0.0000 0.0000
# 4 0.0000 0.0000 0.0000 13.5759 0.0000 0.0000
# 5 0.0000 0.0000 0.0000 0.0000 29.9638 0.0000
# 6 0.0000 0.0000 0.0000 0.0000 0.0000 34.1941
#
#
#
# Elastic Compliance Matrix: (Units=1/GPa)
#
#
# Indices 1 2 3 4 5 6 
#
# 1 0.008359 -0.003267 -0.002618 0.000000 0.000000 0.000000
# 2 -0.003267 0.011548 -0.004051 0.000000 0.000000 0.000000
# 3 -0.002618 -0.004051 0.017167 0.000000 0.000000 0.000000
# 4 0.000000 0.000000 0.000000 0.073660 0.000000 0.000000
# 5 0.000000 0.000000 0.000000 0.000000 0.033374 0.000000
# 6 0.000000 0.000000 0.000000 0.000000 0.000000 0.029245
#
#
# Mechanical properties :
#
#
# Convention : Reuss Voigt Hill
#
# Bulk Modulus (GPa) = 58.12705 66.33238 62.22972
# Shear Modulus (GPa) = 25.13105 29.67175 27.40140
#
# Velocity S-wave (km/s) = 3.34846 3.63841 3.49644
# Velocity P-wave (km/s) = 6.39397 6.87348 6.63806
#
# Compressibility (1/GPa) = 0.01720369
#
# Stress axis : x y z
#
# Youngs Moduli (GPa) = 119.63256 86.59273 58.25254
#
# Poissons Ratio (x) = 0.28287 0.15248
# Poissons Ratio (y) = 0.39079 0.23597
# Poissons Ratio (z) = 0.31315 0.35077
#
# Static dielectric constant tensor:
#      x y z
#    x 1.875420 0.000000 0.000000 
#    y 0.000000 1.842050 0.000000 
#    z 0.000000 0.000000 1.811620 
# 
# From -- ./inp_files/12324.got.cif
#   From: 2010.05.17/outbox.cif.g08.bks.cpg/sg39_7_cif.got.tgz:12324.got - 2010.06.03 18:22:40.
