data_PCOD9360220
_publ_section_title
;
Structure prediction by ZEFSAII (Michael W. Deem and Ramdas Pophale) SiO2 
 PCOD9360220
Probable space group: A B M 2
;
_chemical_formula_sum "Si O2"
_cell_formula_units_Z 48
_cell_length_a 16.911033
_cell_length_b 8.893978
_cell_length_c 18.875967
_cell_angle_alpha 90.000000
_cell_angle_beta 90.000000
_cell_angle_gamma 90.000000
_cell_volume 2839.065402
_symmetry_space_group_name_H-M "A B M 2"
_symmetry_group_IT_number 39
_symmetry_cell_setting 'orthorhombic'
loop_
_space_group_symop_operation_xyz
x,y,z
-x,-y,z
-x,1/2+y,z
x,1/2-y,z
x,1/2+y,1/2+z
-x,1/2-y,1/2+z
-x,y,1/2+z
x,-y,1/2+z
loop_
_atom_site_type_symbol
_atom_site_label
_atom_site_fract_x
_atom_site_fract_y
_atom_site_fract_z
Si Si1 0.827621 0.427414 0.139270
Si Si2 0.684002 0.571327 0.222724
Si Si3 0.083987 0.069121 0.776460
Si Si4 0.582932 0.571264 0.095630
Si Si5 0.231948 0.071055 0.360820
Si Si6 0.256421 0.429961 0.013958
O O1 0.830257 0.250000 0.125650
O O2 0.750748 0.471460 0.185456
O O3 0.897634 0.468173 0.193610
O O4 0.813329 0.513805 0.066134
O O5 0.701988 0.750000 0.210301
O O6 0.605302 0.539184 0.178084
O O7 0.694935 0.545688 0.306032
O O8 0.084691 0.250000 0.783238
O O9 0.154435 0.999707 0.823631
O O10 0.000000 0.000000 0.796779
O O11 0.500000 0.500000 0.075463
O O12 0.576407 0.750000 0.088024
O O13 0.659313 0.523474 0.049287
O O14 0.220992 0.250000 0.367553
O O15 0.247129 0.998553 0.436562
O O16 0.255008 0.250000 0.011220
#
# Coordination Sequence:
#
# PCOD9360220 Si02
#       6
#     8   8   8   8   8   8
#     4   9  17  30  50  74  96 124 165 204 240 291
#     4   8  16  31  49  70  96 126 160 200 245 294
#     4  10  20  34  53  77 104 132 166 208 252 298
#     4   9  18  32  50  72  98 129 166 209 255 301
#     4  10  19  33  54  76 101 134 171 208 251 304
#     4  10  20  34  51  73 103 135 169 209 253 302
#
# _framework density 16.906972
#
# number of rings (size 3 to 8) (size 9 to 14) (size 15 to 20)
#    0.000    2.667    0.000    3.000    0.000    6.000 
#    0.000    1.667    0.000    6.000    0.000    0.000 
#    0.000    0.000    0.000    0.000    0.000    0.000 
#
# Total GULP energy -133611.306096 kJ/mol
# GULP energy per Si atom -5567.137754 kJ/mol
# Density = 1.686849 g / cm^3
# Si number density = 16.906972 Si / 1000 Ang^3
#
#
#
# Elastic Constant Matrix: (Units=GPa)
#
#
# Indices 1 2 3 4 5 6 
#
# 1 76.1250 28.1587 43.6892 0.0000 0.0000 0.0000
# 2 28.1587 48.5234 50.8240 0.0000 0.0000 0.0000
# 3 43.6892 50.8240 144.3806 0.0000 0.0000 0.0000
# 4 0.0000 0.0000 0.0000 28.4273 0.0000 0.0000
# 5 0.0000 0.0000 0.0000 0.0000 14.9404 0.0000
# 6 0.0000 0.0000 0.0000 0.0000 0.0000 22.4803
#
#
#
# Elastic Compliance Matrix: (Units=1/GPa)
#
#
# Indices 1 2 3 4 5 6 
#
# 1 0.017369 -0.007246 -0.002705 0.000000 0.000000 0.000000
# 2 -0.007246 0.035668 -0.010363 0.000000 0.000000 0.000000
# 3 -0.002705 -0.010363 0.011393 0.000000 0.000000 0.000000
# 4 0.000000 0.000000 0.000000 0.035177 0.000000 0.000000
# 5 0.000000 0.000000 0.000000 0.000000 0.066933 0.000000
# 6 0.000000 0.000000 0.000000 0.000000 0.000000 0.044483
#
#
# Mechanical properties :
#
#
# Convention : Reuss Voigt Hill
#
# Bulk Modulus (GPa) = 42.01457 57.15254 49.58355
# Shear Modulus (GPa) = 19.26149 22.92674 21.09412
#
# Velocity S-wave (km/s) = 3.37896 3.68646 3.53605
# Velocity P-wave (km/s) = 6.33463 7.21093 6.78694
#
# Compressibility (1/GPa) = 0.02380127
#
# Stress axis : x y z
#
# Youngs Moduli (GPa) = 57.57331 28.03638 87.77620
#
# Poissons Ratio (x) = 0.20316 0.23745
# Poissons Ratio (y) = 0.41718 0.90962
# Poissons Ratio (z) = 0.15574 0.29054
#
# Static dielectric constant tensor:
#      x y z
#    x 1.572930 0.000000 0.000000 
#    y 0.000000 1.563900 0.000000 
#    z 0.000000 0.000000 1.591330 
# 
# From -- ./inp_files/12650.got.cif
#   From: 2010.05.17/outbox.cif.g08.bks.cpg/sg39_7_cif.got.tgz:12650.got - 2010.06.03 18:22:40.
