data_PCOD9360218
_publ_section_title
;
Structure prediction by ZEFSAII (Michael W. Deem and Ramdas Pophale) SiO2 
 PCOD9360218
Probable space group: A B M 2
;
_chemical_formula_sum "Si O2"
_cell_formula_units_Z 48
_cell_length_a 8.781534
_cell_length_b 32.039137
_cell_length_c 8.446713
_cell_angle_alpha 90.000000
_cell_angle_beta 90.000000
_cell_angle_gamma 90.000000
_cell_volume 2376.506108
_symmetry_space_group_name_H-M "A B M 2"
_symmetry_group_IT_number 39
_symmetry_cell_setting 'orthorhombic'
loop_
_space_group_symop_operation_xyz
x,y,z
-x,-y,z
-x,1/2+y,z
x,1/2-y,z
x,1/2+y,1/2+z
-x,1/2-y,1/2+z
-x,y,1/2+z
x,-y,1/2+z
loop_
_atom_site_type_symbol
_atom_site_label
_atom_site_fract_x
_atom_site_fract_y
_atom_site_fract_z
Si Si1 0.214416 0.202599 0.591830
Si Si2 0.418481 0.876120 0.054311
Si Si3 0.070256 0.045383 0.057631
Si Si4 0.173652 0.584272 0.251652
Si Si5 0.007029 0.834844 0.816845
Si Si6 0.724956 0.389656 0.708866
O O1 0.259829 0.250000 0.560414
O O2 0.354698 0.170220 0.594217
O O3 0.098730 0.184166 0.461440
O O4 0.108398 0.198811 0.745939
O O5 0.338817 0.906250 0.184174
O O6 0.597734 0.880316 0.077537
O O7 0.356377 0.887184 0.880113
O O8 0.196361 0.065551 0.174557
O O9 0.925848 0.075057 0.094622
O O10 0.141515 0.049181 0.882523
O O11 0.000000 0.000000 0.084604
O O12 0.102064 0.624974 0.335569
O O13 0.143131 0.854450 0.709438
#
# Coordination Sequence:
#
# PCOD9360218 Si02
#       6
#     8   8   8   8   8   8
#     4  10  19  33  53  83 115 148 195 249 288 328
#     4  10  21  37  59  82 115 159 197 232 287 354
#     4  11  21  35  58  87 113 141 183 236 286 334
#     4  10  19  35  57  82 113 149 189 230 279 350
#     4   9  18  33  55  78 108 151 193 232 285 340
#     4  10  20  37  58  82 112 152 196 235 282 352
#
# _framework density 20.197718999999999
#
# number of rings (size 3 to 8) (size 9 to 14) (size 15 to 20)
#    0.000    2.000    0.000    7.000    0.000    1.333 
#    0.000    5.833    0.000    6.000    0.000    0.000 
#    0.000    0.000    0.000    0.000    0.000    0.000 
#
# Total GULP energy -133762.296610 kJ/mol
# GULP energy per Si atom -5573.429025 kJ/mol
# Density = 2.015175 g / cm^3
# Si number density = 20.197719 Si / 1000 Ang^3
#
#
#
# Elastic Constant Matrix: (Units=GPa)
#
#
# Indices 1 2 3 4 5 6 
#
# 1 98.7042 29.7482 7.9323 0.0000 0.0000 0.0000
# 2 29.7482 93.8361 9.8564 0.0000 0.0000 0.0000
# 3 7.9323 9.8564 41.6787 0.0000 0.0000 0.0000
# 4 0.0000 0.0000 0.0000 17.8026 0.0000 0.0000
# 5 0.0000 0.0000 0.0000 0.0000 32.9543 0.0000
# 6 0.0000 0.0000 0.0000 0.0000 0.0000 16.5907
#
#
#
# Elastic Compliance Matrix: (Units=1/GPa)
#
#
# Indices 1 2 3 4 5 6 
#
# 1 0.011273 -0.003434 -0.001333 0.000000 0.000000 0.000000
# 2 -0.003434 0.011974 -0.002178 0.000000 0.000000 0.000000
# 3 -0.001333 -0.002178 0.024762 0.000000 0.000000 0.000000
# 4 0.000000 0.000000 0.000000 0.056172 0.000000 0.000000
# 5 0.000000 0.000000 0.000000 0.000000 0.030345 0.000000
# 6 0.000000 0.000000 0.000000 0.000000 0.000000 0.060275
#
#
# Mechanical properties :
#
#
# Convention : Reuss Voigt Hill
#
# Bulk Modulus (GPa) = 29.30960 36.58809 32.94884
# Shear Modulus (GPa) = 22.72058 25.91501 24.31779
#
# Velocity S-wave (km/s) = 3.35760 3.58588 3.47362
# Velocity P-wave (km/s) = 5.43821 5.94129 5.69531
#
# Compressibility (1/GPa) = 0.03411852
#
# Stress axis : x y z
#
# Youngs Moduli (GPa) = 88.70473 83.51235 40.38447
#
# Poissons Ratio (x) = 0.28677 0.05385
# Poissons Ratio (y) = 0.30460 0.08797
# Poissons Ratio (z) = 0.11829 0.18191
#
# Static dielectric constant tensor:
#      x y z
#    x 1.691050 0.000000 0.000000 
#    y 0.000000 1.732180 0.000000 
#    z 0.000000 0.000000 1.808110 
# 
# From -- ./inp_files/2294.got.cif
#   From: 2010.05.17/outbox.cif.g08.bks.cpg/sg39_2_cif.got.tgz:2294.got - 2010.06.03 18:22:40.
