data_PCOD9360006
_publ_section_title
;
Structure prediction by ZEFSAII (Michael W. Deem and Ramdas Pophale) SiO2 
 PCOD9360006
Probable space group: A B M 2
;
_chemical_formula_sum "Si O2"
_cell_formula_units_Z 48
_cell_length_a 5.500375
_cell_length_b 29.529746
_cell_length_c 13.416096
_cell_angle_alpha 90.000000
_cell_angle_beta 90.000000
_cell_angle_gamma 90.000000
_cell_volume 2179.105055
_symmetry_space_group_name_H-M "A B M 2"
_symmetry_group_IT_number 39
_symmetry_cell_setting 'orthorhombic'
loop_
_space_group_symop_operation_xyz
x,y,z
-x,-y,z
-x,1/2+y,z
x,1/2-y,z
x,1/2+y,1/2+z
-x,1/2-y,1/2+z
-x,y,1/2+z
x,-y,1/2+z
loop_
_atom_site_type_symbol
_atom_site_label
_atom_site_fract_x
_atom_site_fract_y
_atom_site_fract_z
Si Si1 0.242348 0.473272 0.748120
Si Si2 0.557416 0.101572 0.380983
Si Si3 0.091147 0.345844 0.008080
Si Si4 0.504743 0.250000 0.667123
Si Si5 0.290131 0.915525 0.062576
Si Si6 0.989150 0.250000 0.040309
Si Si7 0.390300 0.349241 0.201413
O O1 0.500000 0.500000 0.756665
O O2 0.264744 0.429022 0.816259
O O3 0.217664 0.455827 0.634485
O O4 0.000000 0.500000 0.775148
O O5 0.686066 0.143694 0.435470
O O6 0.465896 0.071240 0.472601
O O7 0.364795 0.121851 0.301748
O O8 0.165979 0.344893 0.125457
O O9 0.920386 0.389118 0.005533
O O10 0.976593 0.297534 0.982643
O O11 0.243666 0.250000 0.612827
O O12 0.525219 0.201978 0.723030
O O13 0.739910 0.250000 0.591615
O O14 0.419491 0.877695 0.133156
#
# Coordination Sequence:
#
# PCOD9360006 Si02
#       7
#     8   8   8   4   8   4   8
#     4  11  28  49  71  99 134 174 224 287 346 417
#     4  10  24  42  67 101 132 177 224 286 338 410
#     4  10  21  39  67  98 134 188 220 278 333 404
#     4  10  18  37  61  94 129 186 224 274 316 389
#     4  10  22  42  69  92 132 177 220 276 346 405
#     4  10  20  37  65  96 137 178 232 264 322 391
#     4   9  20  38  63  91 137 178 229 267 338 389
#
# _framework density 22.027393
#
# number of rings (size 3 to 8) (size 9 to 14) (size 15 to 20)
#    0.000    2.000    1.667    0.000    9.333    2.667 
#    0.000    1.667    0.000    0.000    0.000    0.000 
#    0.000    0.000    0.000    0.000    0.000    0.000 
#
# Total GULP energy -133802.903743 kJ/mol
# GULP energy per Si atom -5575.120989 kJ/mol
# Density = 2.197726 g / cm^3
# Si number density = 22.027393 Si / 1000 Ang^3
#
#
#
# Elastic Constant Matrix: (Units=GPa)
#
#
# Indices 1 2 3 4 5 6 
#
# 1 61.6690 12.9137 12.5780 0.0000 0.0000 0.0000
# 2 12.9137 65.2559 28.3903 0.0000 0.0000 0.0000
# 3 12.5780 28.3903 106.1795 0.0000 0.0000 0.0000
# 4 0.0000 0.0000 0.0000 11.2379 0.0000 0.0000
# 5 0.0000 0.0000 0.0000 0.0000 12.3988 0.0000
# 6 0.0000 0.0000 0.0000 0.0000 0.0000 26.9885
#
#
#
# Elastic Compliance Matrix: (Units=1/GPa)
#
#
# Indices 1 2 3 4 5 6 
#
# 1 0.017066 -0.002826 -0.001266 0.000000 0.000000 0.000000
# 2 -0.002826 0.017810 -0.004427 0.000000 0.000000 0.000000
# 3 -0.001266 -0.004427 0.010752 0.000000 0.000000 0.000000
# 4 0.000000 0.000000 0.000000 0.088985 0.000000 0.000000
# 5 0.000000 0.000000 0.000000 0.000000 0.080653 0.000000
# 6 0.000000 0.000000 0.000000 0.000000 0.000000 0.037053
#
#
# Mechanical properties :
#
#
# Convention : Reuss Voigt Hill
#
# Bulk Modulus (GPa) = 34.97955 37.87429 36.42692
# Shear Modulus (GPa) = 17.92848 22.07320 20.00084
#
# Velocity S-wave (km/s) = 2.85602 3.16900 3.01657
# Velocity P-wave (km/s) = 5.17593 5.53368 5.35779
#
# Compressibility (1/GPa) = 0.02858813
#
# Stress axis : x y z
#
# Youngs Moduli (GPa) = 58.59721 56.14921 93.00862
#
# Poissons Ratio (x) = 0.15870 0.11774
# Poissons Ratio (y) = 0.16562 0.41176
# Poissons Ratio (z) = 0.07418 0.24858
#
# Static dielectric constant tensor:
#      x y z
#    x 1.889660 0.000000 0.000000 
#    y 0.000000 1.826390 0.000000 
#    z 0.000000 0.000000 1.765160 
# 
# From -- ./inp_files/7582.got.cif
#   From: 2010.05.17/outbox.cif.g08.bks.cpg/sg39_4_cif.got.tgz:7582.got - 2010.06.03 18:22:40.
