data_PCOD9360867
_publ_section_title
;
Structure prediction by ZEFSAII (Michael W. Deem and Ramdas Pophale) SiO2 
 PCOD9360867
Probable space group: A B M 2
;
_chemical_formula_sum "Si O2"
_cell_formula_units_Z 56
_cell_length_a 20.183432
_cell_length_b 15.791933
_cell_length_c 9.004138
_cell_angle_alpha 90.000000
_cell_angle_beta 90.000000
_cell_angle_gamma 90.000000
_cell_volume 2869.937580
_symmetry_space_group_name_H-M "A B M 2"
_symmetry_group_IT_number 39
_symmetry_cell_setting 'orthorhombic'
loop_
_space_group_symop_operation_xyz
x,y,z
-x,-y,z
-x,1/2+y,z
x,1/2-y,z
x,1/2+y,1/2+z
-x,1/2-y,1/2+z
-x,y,1/2+z
x,-y,1/2+z
loop_
_atom_site_type_symbol
_atom_site_label
_atom_site_fract_x
_atom_site_fract_y
_atom_site_fract_z
Si Si1 0.349737 0.969144 0.997640
Si Si2 0.474304 0.906239 0.161262
Si Si3 0.049930 0.154505 0.124732
Si Si4 0.257053 0.502981 0.749999
Si Si5 0.835857 0.555246 0.002028
Si Si6 0.591898 0.845740 0.963630
Si Si7 0.054777 0.573411 0.944485
O O1 0.310658 0.946590 0.848579
O O2 0.361879 0.071329 0.988180
O O3 0.418834 0.925090 0.035058
O O4 0.300581 0.950640 0.133481
O O5 0.441581 0.861375 0.302332
O O6 0.500000 0.000000 0.208384
O O7 0.534459 0.856285 0.087165
O O8 0.060667 0.250000 0.169628
O O9 0.107107 0.125297 0.010284
O O10 0.056688 0.098706 0.272693
O O11 0.978085 0.143661 0.049135
O O12 0.208343 0.558672 0.649525
O O13 0.212338 0.447842 0.861256
O O14 0.876212 0.466089 0.997526
O O15 0.619760 0.750000 0.970428
O O16 0.000000 0.500000 0.959230
#
# Coordination Sequence:
#
# PCOD9360867 Si02
#       7
#     8   8   8   8   8   8   8
#     4  10  20  37  62  84 107 150 195 234 263 343
#     4  10  20  36  59  85 110 151 191 227 274 342
#     4  11  22  36  57  88 119 143 177 240 297 329
#     4  10  20  36  60  86 104 146 202 234 266 312
#     4  10  20  37  62  84 107 150 195 234 263 343
#     4  11  22  36  57  88 119 143 177 240 297 329
#     4  10  20  36  59  85 110 151 191 227 274 342
#
# _framework density 19.512619000000001
#
# number of rings (size 3 to 8) (size 9 to 14) (size 15 to 20)
#    0.000    1.714    2.857    3.429    4.000    0.000 
#    0.000    2.857    0.000    5.143    0.000    0.000 
#    0.000    0.000    0.000    0.000    0.000    0.000 
#
# Total GULP energy -156145.813802 kJ/mol
# GULP energy per Si atom -5576.636207 kJ/mol
# Density = 1.946821 g / cm^3
# Si number density = 19.512619 Si / 1000 Ang^3
#
#
#
# Elastic Constant Matrix: (Units=GPa)
#
#
# Indices 1 2 3 4 5 6 
#
# 1 75.8960 8.6398 15.1795 0.0000 0.0000 0.0000
# 2 8.6398 52.2577 4.6181 0.0000 0.0000 0.0000
# 3 15.1795 4.6181 83.5895 0.0000 0.0000 0.0000
# 4 0.0000 0.0000 0.0000 -1.0878 0.0000 0.0000
# 5 0.0000 0.0000 0.0000 0.0000 39.6526 0.0000
# 6 0.0000 0.0000 0.0000 0.0000 0.0000 8.2766
#
#
#
# Elastic Compliance Matrix: (Units=1/GPa)
#
#
# Indices 1 2 3 4 5 6 
#
# 1 0.013895 -0.002084 -0.002408 0.000000 0.000000 0.000000
# 2 -0.002084 0.019543 -0.000701 0.000000 0.000000 0.000000
# 3 -0.002408 -0.000701 0.012439 0.000000 0.000000 0.000000
# 4 0.000000 0.000000 0.000000 -0.919254 0.000000 0.000000
# 5 0.000000 0.000000 0.000000 0.000000 0.025219 0.000000
# 6 0.000000 0.000000 0.000000 0.000000 0.000000 0.120823
#
#
# Mechanical properties :
#
#
# Convention : Reuss Voigt Hill
#
# Bulk Modulus (GPa) = 28.17754 29.84647 29.01201
# Shear Modulus (GPa) = -7.09101 21.58866 7.24882
#
# Velocity S-wave (km/s) = -1.90839 3.32986 1.92951
# Velocity P-wave (km/s) = 3.10098 5.48754 4.45697
#
# Compressibility (1/GPa) = 0.03548925
#
# Stress axis : x y z
#
# Youngs Moduli (GPa) = 71.96915 51.17045 80.39063
#
# Poissons Ratio (x) = 0.10666 0.19359
# Poissons Ratio (y) = 0.15002 0.05637
# Poissons Ratio (z) = 0.17331 0.03588
#
# Static dielectric constant tensor:
#      x y z
#    x 1.723930 0.000000 0.000000 
#    y 0.000000 1.795530 0.000000 
#    z 0.000000 0.000000 1.703670 
# 
# From -- ./inp_files/3960.got.cif
#   From: 2010.05.17/outbox.cif.g08.bks.cpg/sg39_2_cif.got.tgz:3960.got - 2010.06.03 18:22:40.
