data_PCOD9360574
_publ_section_title
;
Structure prediction by ZEFSAII (Michael W. Deem and Ramdas Pophale) SiO2 
 PCOD9360574
Probable space group: A B M 2
;
_chemical_formula_sum "Si O2"
_cell_formula_units_Z 56
_cell_length_a 15.534597
_cell_length_b 8.919851
_cell_length_c 20.154281
_cell_angle_alpha 90.000000
_cell_angle_beta 90.000000
_cell_angle_gamma 90.000000
_cell_volume 2792.703958
_symmetry_space_group_name_H-M "A B M 2"
_symmetry_group_IT_number 39
_symmetry_cell_setting 'orthorhombic'
loop_
_space_group_symop_operation_xyz
x,y,z
-x,-y,z
-x,1/2+y,z
x,1/2-y,z
x,1/2+y,1/2+z
-x,1/2-y,1/2+z
-x,y,1/2+z
x,-y,1/2+z
loop_
_atom_site_type_symbol
_atom_site_label
_atom_site_fract_x
_atom_site_fract_y
_atom_site_fract_z
Si Si1 0.829556 0.924782 0.227920
Si Si2 0.589758 0.926737 0.905710
Si Si3 0.369092 0.919207 0.772981
Si Si4 0.090082 0.428050 0.850736
Si Si5 0.768605 0.427803 0.946048
Si Si6 0.230025 0.073241 0.596747
Si Si7 0.412796 0.424415 0.120411
O O1 0.853748 0.750000 0.228677
O O2 0.732676 0.935616 0.258276
O O3 0.890027 0.019641 0.275713
O O4 0.822170 0.986385 0.153398
O O5 0.589918 0.750000 0.917572
O O6 0.500000 0.000000 0.927685
O O7 0.599998 0.962845 0.827004
O O8 0.673409 0.003534 0.937901
O O9 0.384559 0.750000 0.799215
O O10 0.411805 0.930331 0.700894
O O11 0.087082 0.250000 0.855075
O O12 0.166808 0.492556 0.895740
O O13 0.000000 0.500000 0.872060
O O14 0.765049 0.250000 0.931951
O O15 0.800181 0.448951 0.021495
O O16 0.229937 0.250000 0.611985
O O17 0.327687 0.012146 0.599164
O O18 0.500000 0.500000 0.095865
O O19 0.406969 0.250000 0.101076
#
# Coordination Sequence:
#
# PCOD9360574 Si02
#       7
#     8   8   8   8   8   8   8
#     4  10  20  38  65  94 127 161 201 255 309 370
#     4  12  24  36  56  85 121 168 217 267 318 375
#     4   9  18  33  54  81 117 157 200 256 315 369
#     4  12  25  43  71 102 131 165 207 257 315 381
#     4  11  24  44  65  91 130 170 213 266 318 376
#     4  10  22  39  62  88 121 166 210 256 314 375
#     4  10  20  33  52  79 115 159 209 264 316 371
#
# _framework density 20.052249
#
# number of rings (size 3 to 8) (size 9 to 14) (size 15 to 20)
#    0.000    1.429    1.429    5.571    0.000    6.857 
#    0.000    0.714    0.000    3.429    0.000    0.000 
#    0.000    0.000    0.000    0.000    0.000    0.000 
#
# Total GULP energy -156603.755206 kJ/mol
# GULP energy per Si atom -5592.991257 kJ/mol
# Density = 2.000661 g / cm^3
# Si number density = 20.052249 Si / 1000 Ang^3
#
#
#
# Elastic Constant Matrix: (Units=GPa)
#
#
# Indices 1 2 3 4 5 6 
#
# 1 81.0602 50.6935 29.5792 0.0000 0.0000 0.0000
# 2 50.6935 158.2445 58.0732 0.0000 0.0000 0.0000
# 3 29.5792 58.0732 94.1637 0.0000 0.0000 0.0000
# 4 0.0000 0.0000 0.0000 24.4946 0.0000 0.0000
# 5 0.0000 0.0000 0.0000 0.0000 -9.3655 0.0000
# 6 0.0000 0.0000 0.0000 0.0000 0.0000 30.7700
#
#
#
# Elastic Compliance Matrix: (Units=1/GPa)
#
#
# Indices 1 2 3 4 5 6 
#
# 1 0.015831 -0.004196 -0.002385 0.000000 0.000000 0.000000
# 2 -0.004196 0.009280 -0.004405 0.000000 0.000000 0.000000
# 3 -0.002385 -0.004405 0.014086 0.000000 0.000000 0.000000
# 4 0.000000 0.000000 0.000000 0.040825 0.000000 0.000000
# 5 0.000000 0.000000 0.000000 0.000000 -0.106775 0.000000
# 6 0.000000 0.000000 0.000000 0.000000 0.000000 0.032499
#
#
# Mechanical properties :
#
#
# Convention : Reuss Voigt Hill
#
# Bulk Modulus (GPa) = 58.05791 67.79558 62.92675
# Shear Modulus (GPa) = 149.42825 22.18799 85.80812
#
# Velocity S-wave (km/s) = 8.64183 3.33003 6.54868
# Velocity P-wave (km/s) = 11.33980 6.97627 9.41434
#
# Compressibility (1/GPa) = 0.01722418
#
# Stress axis : x y z
#
# Youngs Moduli (GPa) = 63.16707 107.75600 70.99339
#
# Poissons Ratio (x) = 0.45216 0.16932
# Poissons Ratio (y) = 0.26506 0.31274
# Poissons Ratio (z) = 0.15066 0.47469
#
# Static dielectric constant tensor:
#      x y z
#    x 1.695420 0.000000 0.000000 
#    y 0.000000 1.670720 0.000000 
#    z 0.000000 0.000000 1.728780 
# 
# From -- ./inp_files/14777.got.cif
#   From: 2010.05.17/outbox.cif.g08.bks.cpg/sg39_8_cif.got.tgz:14777.got - 2010.06.03 18:22:40.
