data_PCOD9360262
_publ_section_title
;
Structure prediction by ZEFSAII (Michael W. Deem and Ramdas Pophale) SiO2 
 PCOD9360262
Probable space group: A B M 2
;
_chemical_formula_sum "Si O2"
_cell_formula_units_Z 64
_cell_length_a 24.549418
_cell_length_b 8.848692
_cell_length_c 15.702089
_cell_angle_alpha 90.000000
_cell_angle_beta 90.000000
_cell_angle_gamma 90.000000
_cell_volume 3410.968541
_symmetry_space_group_name_H-M "A B M 2"
_symmetry_group_IT_number 39
_symmetry_cell_setting 'orthorhombic'
loop_
_space_group_symop_operation_xyz
x,y,z
-x,-y,z
-x,1/2+y,z
x,1/2-y,z
x,1/2+y,1/2+z
-x,1/2-y,1/2+z
-x,y,1/2+z
x,-y,1/2+z
loop_
_atom_site_type_symbol
_atom_site_label
_atom_site_fract_x
_atom_site_fract_y
_atom_site_fract_z
Si Si1 0.745101 0.931342 0.178410
Si Si2 0.331008 0.068864 0.336259
Si Si3 0.323756 0.568022 0.025960
Si Si4 0.865138 0.431925 0.186015
Si Si5 0.940861 0.431317 0.028612
Si Si6 0.059913 0.568068 0.832541
Si Si7 0.443761 0.430325 0.580523
Si Si8 0.556488 0.070138 0.282082
O O1 0.749905 0.750000 0.178625
O O2 0.708597 0.977397 0.259880
O O3 0.713332 0.986878 0.094931
O O4 0.804231 0.005341 0.183364
O O5 0.338289 0.250000 0.331730
O O6 0.307456 0.033815 0.429234
O O7 0.389909 0.994547 0.325547
O O8 0.320787 0.750000 0.039356
O O9 0.387101 0.522294 0.038054
O O10 0.864743 0.250000 0.190951
O O11 0.897731 0.499587 0.266009
O O12 0.897301 0.477012 0.099663
O O13 0.945592 0.250000 0.031563
O O14 0.926246 0.471588 0.930997
O O15 0.000000 0.500000 0.047900
O O16 0.058290 0.750000 0.824987
O O17 0.000000 0.500000 0.815309
O O18 0.500000 0.500000 0.547369
O O19 0.447925 0.250000 0.573025
O O20 0.439279 0.468547 0.681126
O O21 0.554551 0.250000 0.289872
O O22 0.500000 0.000000 0.314172
#
# Coordination Sequence:
#
# PCOD9360262 Si02
#       8
#     8   8   8   8   8   8   8   8
#     4  11  24  41  59  83 113 149 193 243 290 337
#     4  10  22  39  60  83 112 148 188 235 290 346
#     4  10  21  40  61  82 110 148 189 233 287 345
#     4  11  23  39  60  85 115 156 198 239 286 337
#     4   9  20  37  59  87 120 155 189 229 281 334
#     4  10  20  37  60  89 123 155 190 233 281 336
#     4   9  18  32  54  81 109 142 178 221 276 336
#     4  10  19  33  56  84 114 147 183 227 282 343
#
# _framework density 18.762999000000001
#
# number of rings (size 3 to 8) (size 9 to 14) (size 15 to 20)
#    0.000    2.000    1.250    1.875    0.000    6.000 
#    0.000    6.250    0.000    0.000    0.000    0.000 
#    0.000    0.000    0.000    0.000    0.000    0.000 
#
# Total GULP energy -178744.173252 kJ/mol
# GULP energy per Si atom -5585.755414 kJ/mol
# Density = 1.872029 g / cm^3
# Si number density = 18.762999 Si / 1000 Ang^3
#
#
#
# Elastic Constant Matrix: (Units=GPa)
#
#
# Indices 1 2 3 4 5 6 
#
# 1 154.3317 48.4596 96.3295 0.0000 0.0000 0.0000
# 2 48.4596 35.7816 52.0339 0.0000 0.0000 0.0000
# 3 96.3295 52.0339 132.0151 0.0000 0.0000 0.0000
# 4 0.0000 0.0000 0.0000 24.4626 0.0000 0.0000
# 5 0.0000 0.0000 0.0000 0.0000 -10.1103 0.0000
# 6 0.0000 0.0000 0.0000 0.0000 0.0000 37.8354
#
#
#
# Elastic Compliance Matrix: (Units=1/GPa)
#
#
# Indices 1 2 3 4 5 6 
#
# 1 0.013015 -0.008941 -0.005973 0.000000 0.000000 0.000000
# 2 -0.008941 0.071619 -0.021705 0.000000 0.000000 0.000000
# 3 -0.005973 -0.021705 0.020488 0.000000 0.000000 0.000000
# 4 0.000000 0.000000 0.000000 0.040879 0.000000 0.000000
# 5 0.000000 0.000000 0.000000 0.000000 -0.098909 0.000000
# 6 0.000000 0.000000 0.000000 0.000000 0.000000 0.026430
#
#
# Mechanical properties :
#
#
# Convention : Reuss Voigt Hill
#
# Bulk Modulus (GPa) = 31.36214 79.53047 55.44631
# Shear Modulus (GPa) = 31.76856 18.79123 25.27990
#
# Velocity S-wave (km/s) = 4.11925 3.16809 3.67458
# Velocity P-wave (km/s) = 6.27499 7.47404 6.90061
#
# Compressibility (1/GPa) = 0.03188558
#
# Stress axis : x y z
#
# Youngs Moduli (GPa) = 76.83464 13.96273 48.80834
#
# Poissons Ratio (x) = 0.12483 0.29153
# Poissons Ratio (y) = 0.68694 1.05939
# Poissons Ratio (z) = 0.45893 0.30306
#
# Static dielectric constant tensor:
#      x y z
#    x 1.609970 0.000000 0.000000 
#    y 0.000000 1.629040 0.000000 
#    z 0.000000 0.000000 1.668180 
# 
# From -- ./inp_files/10583.got.cif
#   From: 2010.05.17/outbox.cif.g08.bks.cpg/sg39_6_cif.got.tgz:10583.got - 2010.06.03 18:22:40.
