data_PCOD9360818
_publ_section_title
;
Structure prediction by ZEFSAII (Michael W. Deem and Ramdas Pophale) SiO2 
 PCOD9360818
Probable space group: A B M 2
;
_chemical_formula_sum "Si O2"
_cell_formula_units_Z 56
_cell_length_a 24.392157
_cell_length_b 8.675207
_cell_length_c 14.650007
_cell_angle_alpha 90.000000
_cell_angle_beta 90.000000
_cell_angle_gamma 90.000000
_cell_volume 3100.044195
_symmetry_space_group_name_H-M "A B M 2"
_symmetry_group_IT_number 39
_symmetry_cell_setting 'orthorhombic'
loop_
_space_group_symop_operation_xyz
x,y,z
-x,-y,z
-x,1/2+y,z
x,1/2-y,z
x,1/2+y,1/2+z
-x,1/2-y,1/2+z
-x,y,1/2+z
x,-y,1/2+z
loop_
_atom_site_type_symbol
_atom_site_label
_atom_site_fract_x
_atom_site_fract_y
_atom_site_fract_z
Si Si1 0.854416 0.564878 0.676260
Si Si2 0.650303 0.935584 0.529921
Si Si3 0.267437 0.565934 0.677754
Si Si4 0.439187 0.564965 0.177789
Si Si5 0.940929 0.564908 0.315561
Si Si6 0.058117 0.065660 0.528651
Si Si7 0.349688 0.564431 0.325619
O O1 0.848557 0.750000 0.675802
O O2 0.795122 0.488553 0.677791
O O3 0.891777 0.511337 0.760435
O O4 0.890338 0.515455 0.588436
O O5 0.653258 0.750000 0.527950
O O6 0.596393 0.980891 0.588816
O O7 0.700972 0.999373 0.589285
O O8 0.649310 0.000051 0.427784
O O9 0.271071 0.750000 0.677855
O O10 0.299056 0.499671 0.766292
O O11 0.500000 0.500000 0.177772
O O12 0.441991 0.750000 0.177778
O O13 0.403622 0.519083 0.266768
O O14 0.940078 0.750000 0.305376
O O15 0.935372 0.524888 0.422556
O O16 0.000000 0.500000 0.285162
O O17 0.054817 0.250000 0.535089
O O18 0.000000 0.000000 0.561337
O O19 0.346756 0.750000 0.327447
#
# Coordination Sequence:
#
# PCOD9360818 Si02
#       7
#     8   8   8   8   8   8   8
#     4  11  22  37  56  80 109 143 181 228 279 332
#     4  10  21  39  60  84 114 151 190 232 280 333
#     4  11  23  39  58  82 111 147 188 235 284 335
#     4   9  20  36  56  84 119 152 188 232 276 325
#     4  10  20  36  55  79 108 141 180 223 275 336
#     4   9  20  36  55  77 106 140 175 217 269 325
#     4  10  21  39  60  84 113 150 191 233 281 334
#
# _framework density 18.064257000000001
#
# number of rings (size 3 to 8) (size 9 to 14) (size 15 to 20)
#    0.000    2.000    0.000    4.286    0.000    8.000 
#    0.000    7.143    0.000    0.000    0.000    0.000 
#    0.000    0.000    0.000    0.000    0.000    0.000 
#
# Total GULP energy -156371.410988 kJ/mol
# GULP energy per Si atom -5584.693250 kJ/mol
# Density = 1.802314 g / cm^3
# Si number density = 18.064257 Si / 1000 Ang^3
#
#
#
# Elastic Constant Matrix: (Units=GPa)
#
#
# Indices 1 2 3 4 5 6 
#
# 1 191.0409 54.5920 97.1834 0.0000 0.0000 0.0000
# 2 54.5920 74.2497 56.1069 0.0000 0.0000 0.0000
# 3 97.1834 56.1069 164.0767 0.0000 0.0000 0.0000
# 4 0.0000 0.0000 0.0000 27.7894 0.0000 0.0000
# 5 0.0000 0.0000 0.0000 0.0000 13.1586 0.0000
# 6 0.0000 0.0000 0.0000 0.0000 0.0000 37.2163
#
#
#
# Elastic Compliance Matrix: (Units=1/GPa)
#
#
# Indices 1 2 3 4 5 6 
#
# 1 0.007988 -0.003098 -0.003672 0.000000 0.000000 0.000000
# 2 -0.003098 0.019363 -0.004786 0.000000 0.000000 0.000000
# 3 -0.003672 -0.004786 0.009906 0.000000 0.000000 0.000000
# 4 0.000000 0.000000 0.000000 0.035985 0.000000 0.000000
# 5 0.000000 0.000000 0.000000 0.000000 0.075996 0.000000
# 6 0.000000 0.000000 0.000000 0.000000 0.000000 0.026870
#
#
# Mechanical properties :
#
#
# Convention : Reuss Voigt Hill
#
# Bulk Modulus (GPa) = 70.69956 93.90353 82.30154
# Shear Modulus (GPa) = 24.51771 30.39851 27.45811
#
# Velocity S-wave (km/s) = 3.68808 4.10664 3.90298
# Velocity P-wave (km/s) = 7.57355 8.63608 8.12221
#
# Compressibility (1/GPa) = 0.01414436
#
# Stress axis : x y z
#
# Youngs Moduli (GPa) = 125.19320 51.64565 100.94904
#
# Poissons Ratio (x) = 0.16002 0.37064
# Poissons Ratio (y) = 0.38791 0.48314
# Poissons Ratio (z) = 0.45966 0.24717
#
# Static dielectric constant tensor:
#      x y z
#    x 1.590030 0.000000 0.000000 
#    y 0.000000 1.609070 0.000000 
#    z 0.000000 0.000000 1.617130 
# 
# From -- ./inp_files/10378.got.cif
#   From: 2010.05.17/outbox.cif.g08.bks.cpg/sg39_6_cif.got.tgz:10378.got - 2010.06.03 18:22:40.
