data_PCOD9360126
_publ_section_title
;
Structure prediction by ZEFSAII (Michael W. Deem and Ramdas Pophale) SiO2 
 PCOD9360126
Probable space group: A B M 2
;
_chemical_formula_sum "Si O2"
_cell_formula_units_Z 64
_cell_length_a 7.151731
_cell_length_b 17.175838
_cell_length_c 21.949626
_cell_angle_alpha 90.000000
_cell_angle_beta 90.000000
_cell_angle_gamma 90.000000
_cell_volume 2696.225618
_symmetry_space_group_name_H-M "A B M 2"
_symmetry_group_IT_number 39
_symmetry_cell_setting 'orthorhombic'
loop_
_space_group_symop_operation_xyz
x,y,z
-x,-y,z
-x,1/2+y,z
x,1/2-y,z
x,1/2+y,1/2+z
-x,1/2-y,1/2+z
-x,y,1/2+z
x,-y,1/2+z
loop_
_atom_site_type_symbol
_atom_site_label
_atom_site_fract_x
_atom_site_fract_y
_atom_site_fract_z
Si Si1 0.065173 0.909786 0.036500
Si Si2 0.601767 0.657117 0.939428
Si Si3 0.520335 0.589818 0.817350
Si Si4 0.045513 0.909031 0.276690
Si Si5 0.985636 0.406547 0.906415
Si Si6 0.162880 0.837203 0.156755
Si Si7 0.590555 0.838493 0.197786
Si Si8 0.672216 0.841677 0.067196
O O1 0.884384 0.855638 0.047647
O O2 0.180361 0.890837 0.097033
O O3 0.133564 0.891207 0.967762
O O4 0.000000 0.000000 0.036726
O O5 0.610496 0.750000 0.943369
O O6 0.483903 0.634643 0.880153
O O7 0.808090 0.624543 0.923344
O O8 0.557770 0.628203 0.008281
O O9 0.500000 0.500000 0.832038
O O10 0.736152 0.600063 0.796342
O O11 0.394498 0.613095 0.759581
O O12 0.941491 0.878609 0.337967
O O13 0.029887 0.867498 0.211256
O O14 0.000000 0.000000 0.267779
O O15 0.000000 0.500000 0.900421
O O16 0.105303 0.750000 0.138736
O O17 0.368895 0.832266 0.184743
O O18 0.661628 0.750000 0.206574
O O19 0.658711 0.876399 0.134690
O O20 0.626619 0.750000 0.074991
#
# Coordination Sequence:
#
# PCOD9360126 Si02
#       8
#     8   8   8   8   8   8   8   8
#     4  10  19  32  51  76 103 130 163 206 252 300
#     4   9  17  32  55  78 100 133 174 210 250 307
#     4  10  20  33  51  77 103 130 168 213 256 299
#     4   9  18  34  53  71  97 132 165 204 251 302
#     4   8  16  31  51  75 100 127 165 211 251 293
#     4  10  20  33  50  74 101 131 168 210 254 298
#     4   9  19  35  52  71  99 133 169 210 252 297
#     4   9  18  34  55  76  99 132 171 206 245 298
#
# _framework density 23.736885999999998
#
# number of rings (size 3 to 8) (size 9 to 14) (size 15 to 20)
#    0.000    2.750    0.000    1.125    0.000    6.500 
#    0.000    8.125    0.000    0.750    0.000    5.250 
#    0.000    0.000    0.000    0.000    0.000    0.000 
#
# Total GULP energy -178464.262186 kJ/mol
# GULP energy per Si atom -5577.008193 kJ/mol
# Density = 2.368286 g / cm^3
# Si number density = 23.736886 Si / 1000 Ang^3
#
#
#
# Elastic Constant Matrix: (Units=GPa)
#
#
# Indices 1 2 3 4 5 6 
#
# 1 41.6753 -5.5518 36.4943 0.0000 0.0000 0.0000
# 2 -5.5518 45.4513 46.7939 0.0000 0.0000 0.0000
# 3 36.4943 46.7939 204.1725 0.0000 0.0000 0.0000
# 4 0.0000 0.0000 0.0000 449.9085 0.0000 0.0000
# 5 0.0000 0.0000 0.0000 0.0000 41.4821 0.0000
# 6 0.0000 0.0000 0.0000 0.0000 0.0000 19.2326
#
#
#
# Elastic Compliance Matrix: (Units=1/GPa)
#
#
# Indices 1 2 3 4 5 6 
#
# 1 0.033811 0.013549 -0.009149 0.000000 0.000000 0.000000
# 2 0.013549 0.034226 -0.010266 0.000000 0.000000 0.000000
# 3 -0.009149 -0.010266 0.008886 0.000000 0.000000 0.000000
# 4 0.000000 0.000000 0.000000 0.002223 0.000000 0.000000
# 5 0.000000 0.000000 0.000000 0.000000 0.024107 0.000000
# 6 0.000000 0.000000 0.000000 0.000000 0.000000 0.051995
#
#
# Mechanical properties :
#
#
# Convention : Reuss Voigt Hill
#
# Bulk Modulus (GPa) = 15.33936 49.64132 32.49034
# Shear Modulus (GPa) = 26.49574 116.36215 71.42895
#
# Velocity S-wave (km/s) = 3.34462 7.00914 5.49157
# Velocity P-wave (km/s) = 4.62511 9.29853 7.34351
#
# Compressibility (1/GPa) = 0.06519175
#
# Stress axis : x y z
#
# Youngs Moduli (GPa) = 29.57579 29.21777 112.53751
#
# Poissons Ratio (x) = -0.39587 1.02959
# Poissons Ratio (y) = -0.40072 1.15530
# Poissons Ratio (z) = 0.27058 0.29995
#
# Static dielectric constant tensor:
#      x y z
#    x 1.967920 0.000000 0.000000 
#    y 0.000000 1.767770 0.000000 
#    z 0.000000 0.000000 2.003270 
# 
# From -- ./inp_files/14185.got.cif
#   From: 2010.05.17/outbox.cif.g08.bks.cpg/sg39_8_cif.got.tgz:14185.got - 2010.06.03 18:22:40.
