data_PCOD9360743
_publ_section_title
;
Structure prediction by ZEFSAII (Michael W. Deem and Ramdas Pophale) SiO2 
 PCOD9360743
Probable space group: A B M 2
;
_chemical_formula_sum "Si O2"
_cell_formula_units_Z 64
_cell_length_a 24.877402
_cell_length_b 9.087624
_cell_length_c 14.595059
_cell_angle_alpha 90.000000
_cell_angle_beta 90.000000
_cell_angle_gamma 90.000000
_cell_volume 3299.599498
_symmetry_space_group_name_H-M "A B M 2"
_symmetry_group_IT_number 39
_symmetry_cell_setting 'orthorhombic'
loop_
_space_group_symop_operation_xyz
x,y,z
-x,-y,z
-x,1/2+y,z
x,1/2-y,z
x,1/2+y,1/2+z
-x,1/2-y,1/2+z
-x,y,1/2+z
x,-y,1/2+z
loop_
_atom_site_type_symbol
_atom_site_label
_atom_site_fract_x
_atom_site_fract_y
_atom_site_fract_z
Si Si1 0.758417 0.581612 0.550220
Si Si2 0.852135 0.571968 0.789917
Si Si3 0.626868 0.576154 0.236561
Si Si4 0.556536 0.925820 0.879800
Si Si5 0.864981 0.925896 0.093594
Si Si6 0.349944 0.424693 0.023168
Si Si7 0.265584 0.081463 0.770154
Si Si8 0.057038 0.573755 0.436115
O O1 0.766291 0.750000 0.521231
O O2 0.812329 0.486874 0.541440
O O3 0.705603 0.509855 0.506483
O O4 0.746940 0.583061 0.660590
O O5 0.851405 0.750000 0.780437
O O6 0.865760 0.499401 0.692871
O O7 0.790522 0.531009 0.814703
O O8 0.897375 0.530886 0.862693
O O9 0.620337 0.750000 0.250480
O O10 0.579001 0.488235 0.284166
O O11 0.631728 0.547046 0.127952
O O12 0.682731 0.519831 0.280857
O O13 0.551170 0.750000 0.876617
O O14 0.500000 0.000000 0.902254
O O15 0.602172 0.963784 0.954622
O O16 0.860480 0.750000 0.101007
O O17 0.917615 0.962959 0.034847
O O18 0.339437 0.250000 0.015595
O O19 0.278055 0.250000 0.797870
O O20 0.051177 0.750000 0.430940
O O21 0.000000 0.500000 0.420106
#
# Coordination Sequence:
#
# PCOD9360743 Si02
#       8
#     8   8   8   8   8   8   8   8
#     4   9  17  31  55  86 115 143 178 221 270 325
#     4   9  19  37  58  80 109 145 182 222 272 327
#     4  10  20  36  58  85 114 143 179 223 270 322
#     4  11  24  41  58  79 109 146 188 230 272 321
#     4  10  20  35  56  83 113 144 179 223 275 327
#     4   9  20  38  59  83 113 147 181 222 273 326
#     4   8  15  30  53  81 111 142 175 214 267 327
#     4  10  23  40  56  77 107 144 187 231 274 325
#
# _framework density 19.396293
#
# number of rings (size 3 to 8) (size 9 to 14) (size 15 to 20)
#    0.000    2.500    0.000    2.250    0.000    8.000 
#    0.000    6.250    0.000    0.000    0.000    0.000 
#    0.000    0.000    0.000    0.000    0.000    0.000 
#
# Total GULP energy -178711.761596 kJ/mol
# GULP energy per Si atom -5584.742550 kJ/mol
# Density = 1.935215 g / cm^3
# Si number density = 19.396293 Si / 1000 Ang^3
#
#
#
# Elastic Constant Matrix: (Units=GPa)
#
#
# Indices 1 2 3 4 5 6 
#
# 1 95.2773 28.7376 22.8190 0.0000 0.0000 0.0000
# 2 28.7376 32.3503 15.1442 0.0000 0.0000 0.0000
# 3 22.8190 15.1442 56.2353 0.0000 0.0000 0.0000
# 4 0.0000 0.0000 0.0000 18.0956 0.0000 0.0000
# 5 0.0000 0.0000 0.0000 0.0000 26.0197 0.0000
# 6 0.0000 0.0000 0.0000 0.0000 0.0000 40.8088
#
#
#
# Elastic Compliance Matrix: (Units=1/GPa)
#
#
# Indices 1 2 3 4 5 6 
#
# 1 0.014714 -0.011758 -0.002804 0.000000 0.000000 0.000000
# 2 -0.011758 0.044767 -0.007285 0.000000 0.000000 0.000000
# 3 -0.002804 -0.007285 0.020882 0.000000 0.000000 0.000000
# 4 0.000000 0.000000 0.000000 0.055262 0.000000 0.000000
# 5 0.000000 0.000000 0.000000 0.000000 0.038432 0.000000
# 6 0.000000 0.000000 0.000000 0.000000 0.000000 0.024505
#
#
# Mechanical properties :
#
#
# Convention : Reuss Voigt Hill
#
# Bulk Modulus (GPa) = 27.27088 35.25162 31.26125
# Shear Modulus (GPa) = 19.64811 24.79562 22.22187
#
# Velocity S-wave (km/s) = 3.18619 3.57931 3.38846
# Velocity P-wave (km/s) = 5.25606 5.94103 5.60901
#
# Compressibility (1/GPa) = 0.03666916
#
# Stress axis : x y z
#
# Youngs Moduli (GPa) = 67.96398 22.33809 47.88808
#
# Poissons Ratio (x) = 0.26265 0.13428
# Poissons Ratio (y) = 0.79911 0.34885
# Poissons Ratio (z) = 0.19058 0.16272
#
# Static dielectric constant tensor:
#      x y z
#    x 1.658210 0.000000 0.000000 
#    y 0.000000 1.648880 0.000000 
#    z 0.000000 0.000000 1.707730 
# 
# From -- ./inp_files/10573.got.cif
#   From: 2010.05.17/outbox.cif.g08.bks.cpg/sg39_6_cif.got.tgz:10573.got - 2010.06.03 18:22:40.
