data_PCOD9360027
_publ_section_title
;
Structure prediction by ZEFSAII (Michael W. Deem and Ramdas Pophale) SiO2 
 PCOD9360027
Probable space group: A B M 2
;
_chemical_formula_sum "Si O2"
_cell_formula_units_Z 64
_cell_length_a 20.171335
_cell_length_b 8.788701
_cell_length_c 20.953495
_cell_angle_alpha 90.000000
_cell_angle_beta 90.000000
_cell_angle_gamma 90.000000
_cell_volume 3714.632075
_symmetry_space_group_name_H-M "A B M 2"
_symmetry_group_IT_number 39
_symmetry_cell_setting 'orthorhombic'
loop_
_space_group_symop_operation_xyz
x,y,z
-x,-y,z
-x,1/2+y,z
x,1/2-y,z
x,1/2+y,1/2+z
-x,1/2-y,1/2+z
-x,y,1/2+z
x,-y,1/2+z
loop_
_atom_site_type_symbol
_atom_site_label
_atom_site_fract_x
_atom_site_fract_y
_atom_site_fract_z
Si Si1 0.425976 0.567488 0.883360
Si Si2 0.572904 0.932940 0.633390
Si Si3 0.786734 0.066690 0.202161
Si Si4 0.786459 0.068239 0.559019
Si Si5 0.655623 0.933480 0.509355
Si Si6 0.066237 0.931961 0.561066
Si Si7 0.933478 0.931859 0.704325
Si Si8 0.350044 0.933588 0.262649
O O1 0.500000 0.500000 0.882434
O O2 0.430914 0.750000 0.882115
O O3 0.383967 0.510146 0.823061
O O4 0.386370 0.521741 0.947373
O O5 0.569074 0.750000 0.631340
O O6 0.616076 0.982597 0.572791
O O7 0.608735 0.974746 0.699180
O O8 0.500000 0.000000 0.630376
O O9 0.783438 0.250000 0.194028
O O10 0.859880 0.029490 0.229367
O O11 0.725864 0.021931 0.247383
O O12 0.779211 0.996785 0.131236
O O13 0.781164 0.250000 0.562499
O O14 0.860837 0.030781 0.534562
O O15 0.728732 0.001774 0.515239
O O16 0.660633 0.750000 0.510062
O O17 0.059799 0.750000 0.565129
O O18 0.068056 0.001665 0.632429
O O19 0.000000 0.000000 0.529585
O O20 0.939846 0.750000 0.701907
O O21 0.000000 0.000000 0.735368
O O22 0.352481 0.750000 0.270162
#
# Coordination Sequence:
#
# PCOD9360027 Si02
#       8
#     8   8   8   8   8   8   8   8
#     4  11  24  40  58  78 103 135 171 213 259 309
#     4  10  20  34  53  75  98 127 164 204 251 305
#     4   9  17  31  49  70 101 140 173 206 254 307
#     4  10  19  29  47  76 105 132 169 217 257 296
#     4  10  21  38  55  73 101 137 172 207 255 313
#     4   9  16  25  38  63  98 134 169 203 246 295
#     4   9  15  23  39  63  95 134 170 203 246 296
#     4  10  20  36  56  76 102 135 172 213 256 307
#
# _framework density 17.229163
#
# number of rings (size 3 to 8) (size 9 to 14) (size 15 to 20)
#    0.000    2.250    1.250    3.000    0.000    5.500 
#    0.000    0.000    0.000    0.000    0.000    0.875 
#    0.000    2.000    0.000    0.000    0.000    0.000 
#
# Total GULP energy -178389.388625 kJ/mol
# GULP energy per Si atom -5574.668395 kJ/mol
# Density = 1.718995 g / cm^3
# Si number density = 17.229163 Si / 1000 Ang^3
#
#
#
# Elastic Constant Matrix: (Units=GPa)
#
#
# Indices 1 2 3 4 5 6 
#
# 1 200.7938 50.3256 60.8917 0.0000 0.0000 0.0000
# 2 50.3256 33.7313 28.0477 0.0000 0.0000 0.0000
# 3 60.8917 28.0477 85.2693 0.0000 0.0000 0.0000
# 4 0.0000 0.0000 0.0000 16.2220 0.0000 0.0000
# 5 0.0000 0.0000 0.0000 0.0000 17.6206 0.0000
# 6 0.0000 0.0000 0.0000 0.0000 0.0000 26.6769
#
#
#
# Elastic Compliance Matrix: (Units=1/GPa)
#
#
# Indices 1 2 3 4 5 6 
#
# 1 0.008343 -0.010315 -0.002565 0.000000 0.000000 0.000000
# 2 -0.010315 0.053560 -0.010251 0.000000 0.000000 0.000000
# 3 -0.002565 -0.010251 0.016931 0.000000 0.000000 0.000000
# 4 0.000000 0.000000 0.000000 0.061645 0.000000 0.000000
# 5 0.000000 0.000000 0.000000 0.000000 0.056752 0.000000
# 6 0.000000 0.000000 0.000000 0.000000 0.000000 0.037486
#
#
# Mechanical properties :
#
#
# Convention : Reuss Voigt Hill
#
# Bulk Modulus (GPa) = 30.70190 66.48048 48.59119
# Shear Modulus (GPa) = 17.13288 24.13921 20.63604
#
# Velocity S-wave (km/s) = 3.15685 3.74714 3.46459
# Velocity P-wave (km/s) = 5.58086 7.57570 6.65347
#
# Compressibility (1/GPa) = 0.03257127
#
# Stress axis : x y z
#
# Youngs Moduli (GPa) = 119.85468 18.67079 59.06202
#
# Poissons Ratio (x) = 0.19259 0.15151
# Poissons Ratio (y) = 1.23631 0.60546
# Poissons Ratio (z) = 0.30745 0.19140
#
# Static dielectric constant tensor:
#      x y z
#    x 1.634580 0.000000 0.000000 
#    y 0.000000 1.581090 0.000000 
#    z 0.000000 0.000000 1.556510 
# 
# From -- ./inp_files/13239.got.cif
#   From: 2010.05.17/outbox.cif.g08.bks.cpg/sg39_7_cif.got.tgz:13239.got - 2010.06.03 18:22:40.
