data_PCOD9360830
_publ_section_title
;
Structure prediction by ZEFSAII (Michael W. Deem and Ramdas Pophale) SiO2 
 PCOD9360830
Probable space group: A B M 2
;
_chemical_formula_sum "Si O2"
_cell_formula_units_Z 64
_cell_length_a 19.549814
_cell_length_b 7.628460
_cell_length_c 20.456441
_cell_angle_alpha 90.000000
_cell_angle_beta 90.000000
_cell_angle_gamma 90.000000
_cell_volume 3050.770799
_symmetry_space_group_name_H-M "A B M 2"
_symmetry_group_IT_number 39
_symmetry_cell_setting 'orthorhombic'
loop_
_space_group_symop_operation_xyz
x,y,z
-x,-y,z
-x,1/2+y,z
x,1/2-y,z
x,1/2+y,1/2+z
-x,1/2-y,1/2+z
-x,y,1/2+z
x,-y,1/2+z
loop_
_atom_site_type_symbol
_atom_site_label
_atom_site_fract_x
_atom_site_fract_y
_atom_site_fract_z
Si Si1 0.421055 0.539719 0.886670
Si Si2 0.153632 0.464232 0.168241
Si Si3 0.694730 0.959823 0.140396
Si Si4 0.694151 0.462028 0.986340
Si Si5 0.079233 0.458883 0.036200
Si Si6 0.079896 0.461248 0.299062
Si Si7 0.831375 0.549479 0.417470
Si Si8 0.420931 0.960791 0.738686
O O1 0.500000 0.500000 0.901545
O O2 0.413733 0.750000 0.884573
O O3 0.369577 0.475694 0.942477
O O4 0.406463 0.473954 0.812750
O O5 0.153791 0.250000 0.169289
O O6 0.232205 0.523930 0.167599
O O7 0.119286 0.518232 0.100497
O O8 0.108041 0.522839 0.229160
O O9 0.695260 0.750000 0.147988
O O10 0.631755 0.027548 0.184065
O O11 0.690002 0.992099 0.062770
O O12 0.695743 0.250000 0.984885
O O13 0.763572 0.527860 0.951093
O O14 0.088523 0.250000 0.028988
O O15 0.000000 0.500000 0.043070
O O16 0.111335 0.548101 0.973244
O O17 0.084654 0.250000 0.300418
O O18 0.131584 0.530780 0.354533
O O19 0.000000 0.500000 0.309828
O O20 0.812907 0.750000 0.399734
O O21 0.414763 0.750000 0.740806
O O22 0.500000 0.000000 0.723323
#
# Coordination Sequence:
#
# PCOD9360830 Si02
#       8
#     8   8   8   8   8   8   8   8
#     4   9  19  36  57  83 111 144 181 222 267 317
#     4   9  19  35  55  79 105 137 178 221 264 315
#     4  10  20  36  57  81 108 143 182 220 266 319
#     4  10  21  36  55  81 112 143 180 224 269 316
#     4  11  21  35  56  79 106 141 179 221 266 319
#     4  10  21  37  56  78 105 137 176 222 269 320
#     4  10  21  36  55  80 108 141 178 222 271 320
#     4   9  19  35  58  83 110 143 181 222 265 317
#
# _framework density 20.978304000000001
#
# number of rings (size 3 to 8) (size 9 to 14) (size 15 to 20)
#    0.000    2.250    1.250    1.125    1.750    3.000 
#    0.000    3.750    0.000    0.000    0.000    0.000 
#    0.000    0.000    0.000    0.000    0.000    0.000 
#
# Total GULP energy -178652.075429 kJ/mol
# GULP energy per Si atom -5582.877357 kJ/mol
# Density = 2.093056 g / cm^3
# Si number density = 20.978304 Si / 1000 Ang^3
#
#
#
# Elastic Constant Matrix: (Units=GPa)
#
#
# Indices 1 2 3 4 5 6 
#
# 1 110.7662 -5.4189 29.9061 0.0000 0.0000 0.0000
# 2 -5.4189 44.7050 -5.6754 0.0000 0.0000 0.0000
# 3 29.9061 -5.6754 71.5332 0.0000 0.0000 0.0000
# 4 0.0000 0.0000 0.0000 15.6706 0.0000 0.0000
# 5 0.0000 0.0000 0.0000 0.0000 42.1652 0.0000
# 6 0.0000 0.0000 0.0000 0.0000 0.0000 19.7643
#
#
#
# Elastic Compliance Matrix: (Units=1/GPa)
#
#
# Indices 1 2 3 4 5 6 
#
# 1 0.010199 0.000702 -0.004208 0.000000 0.000000 0.000000
# 2 0.000702 0.022645 0.001503 0.000000 0.000000 0.000000
# 3 -0.004208 0.001503 0.015858 0.000000 0.000000 0.000000
# 4 0.000000 0.000000 0.000000 0.063814 0.000000 0.000000
# 5 0.000000 0.000000 0.000000 0.000000 0.023716 0.000000
# 6 0.000000 0.000000 0.000000 0.000000 0.000000 0.050596
#
#
# Mechanical properties :
#
#
# Convention : Reuss Voigt Hill
#
# Bulk Modulus (GPa) = 22.37357 29.40310 25.88834
# Shear Modulus (GPa) = 24.30351 29.39954 26.85153
#
# Velocity S-wave (km/s) = 3.40738 3.74762 3.58154
# Velocity P-wave (km/s) = 5.11552 5.72474 5.42868
#
# Compressibility (1/GPa) = 0.04469558
#
# Stress axis : x y z
#
# Youngs Moduli (GPa) = 98.05360 44.16026 63.05947
#
# Poissons Ratio (x) = -0.03100 0.26536
# Poissons Ratio (y) = -0.06883 -0.09479
# Poissons Ratio (z) = 0.41261 -0.06638
#
# Static dielectric constant tensor:
#      x y z
#    x 1.723440 0.000000 0.000000 
#    y 0.000000 1.816080 0.000000 
#    z 0.000000 0.000000 1.730410 
# 
# From -- ./inp_files/10185.got.cif
#   From: 2010.05.17/outbox.cif.g08.bks.cpg/sg39_6_cif.got.tgz:10185.got - 2010.06.03 18:22:40.
