data_PCOD9360617
_publ_section_title
;
Structure prediction by ZEFSAII (Michael W. Deem and Ramdas Pophale) SiO2 
 PCOD9360617
Probable space group: A B M 2
;
_chemical_formula_sum "Si O2"
_cell_formula_units_Z 60
_cell_length_a 21.076980
_cell_length_b 9.366238
_cell_length_c 14.323717
_cell_angle_alpha 90.000000
_cell_angle_beta 90.000000
_cell_angle_gamma 90.000000
_cell_volume 2827.673778
_symmetry_space_group_name_H-M "A B M 2"
_symmetry_group_IT_number 39
_symmetry_cell_setting 'orthorhombic'
loop_
_space_group_symop_operation_xyz
x,y,z
-x,-y,z
-x,1/2+y,z
x,1/2-y,z
x,1/2+y,1/2+z
-x,1/2-y,1/2+z
-x,y,1/2+z
x,-y,1/2+z
loop_
_atom_site_type_symbol
_atom_site_label
_atom_site_fract_x
_atom_site_fract_y
_atom_site_fract_z
Si Si1 0.356159 0.077614 0.283630
Si Si2 0.187341 0.587087 0.963643
Si Si3 0.783618 0.587880 0.243141
Si Si4 0.992632 0.250000 0.774231
Si Si5 0.435335 0.078129 0.639040
Si Si6 0.061839 0.913108 0.502640
Si Si7 0.083167 0.509717 0.714592
Si Si8 0.323856 0.422412 0.495569
O O1 0.365584 0.250000 0.277407
O O2 0.289221 0.044301 0.232016
O O3 0.346412 0.037816 0.391647
O O4 0.411938 0.989380 0.236397
O O5 0.172360 0.750000 0.994907
O O6 0.206874 0.593965 0.855117
O O7 0.251431 0.528288 0.013004
O O8 0.127170 0.485857 0.974120
O O9 0.792571 0.750000 0.206384
O O10 0.841305 0.491552 0.207802
O O11 0.937483 0.372814 0.789379
O O12 0.044341 0.372226 0.742259
O O13 0.442357 0.250000 0.642816
O O14 0.378670 0.040437 0.567557
O O15 0.500000 0.000000 0.611018
O O16 0.055876 0.750000 0.468243
O O17 0.062475 0.919870 0.615648
O O18 0.000000 0.000000 0.472333
O O19 0.318034 0.250000 0.495514
#
# Coordination Sequence:
#
# PCOD9360617 Si02
#       8
#     8   8   8   4   8   8   8   8
#     4   9  19  39  65  90 123 163 201 244 296 353
#     4   9  20  38  59  80 110 147 190 235 289 351
#     4   9  18  37  59  82 109 148 190 234 287 350
#     4  10  20  34  52  74 108 140 188 240 296 346
#     4  11  23  40  62  96 129 159 200 243 287 351
#     4  12  22  36  52  76 108 146 188 244 295 349
#     4  11  19  36  53  77 101 145 189 241 287 351
#     4   8  18  40  64  87 123 166 202 240 295 356
#
# _framework density 21.218855999999999
#
# number of rings (size 3 to 8) (size 9 to 14) (size 15 to 20)
#    0.000    2.133    2.667    2.400    2.800    0.533 
#    4.800    5.333    0.000    0.000    0.000    0.000 
#    0.000    0.000    0.000    0.000    0.000    0.000 
#
# Total GULP energy -167031.629803 kJ/mol
# GULP energy per Si atom -5567.720993 kJ/mol
# Density = 2.117056 g / cm^3
# Si number density = 21.218856 Si / 1000 Ang^3
#
#
#
# Elastic Constant Matrix: (Units=GPa)
#
#
# Indices 1 2 3 4 5 6 
#
# 1 161.3329 64.6355 30.4130 0.0000 0.0000 0.0000
# 2 64.6355 116.9209 13.2672 0.0000 0.0000 0.0000
# 3 30.4130 13.2672 45.4522 0.0000 0.0000 0.0000
# 4 0.0000 0.0000 0.0000 27.1014 0.0000 0.0000
# 5 0.0000 0.0000 0.0000 0.0000 27.5234 0.0000
# 6 0.0000 0.0000 0.0000 0.0000 0.0000 35.8093
#
#
#
# Elastic Compliance Matrix: (Units=1/GPa)
#
#
# Indices 1 2 3 4 5 6 
#
# 1 0.008812 -0.004346 -0.004628 0.000000 0.000000 0.000000
# 2 -0.004346 0.010989 -0.000300 0.000000 0.000000 0.000000
# 3 -0.004628 -0.000300 0.025185 0.000000 0.000000 0.000000
# 4 0.000000 0.000000 0.000000 0.036898 0.000000 0.000000
# 5 0.000000 0.000000 0.000000 0.000000 0.036333 0.000000
# 6 0.000000 0.000000 0.000000 0.000000 0.000000 0.027926
#
#
# Mechanical properties :
#
#
# Convention : Reuss Voigt Hill
#
# Bulk Modulus (GPa) = 37.82217 60.03750 48.92983
# Shear Modulus (GPa) = 28.81786 32.44618 30.63202
#
# Velocity S-wave (km/s) = 3.68927 3.91464 3.80363
# Velocity P-wave (km/s) = 6.00093 6.98487 6.51151
#
# Compressibility (1/GPa) = 0.02643952
#
# Stress axis : x y z
#
# Youngs Moduli (GPa) = 113.48163 90.99622 39.70610
#
# Poissons Ratio (x) = 0.39550 0.18375
# Poissons Ratio (y) = 0.49322 0.01189
# Poissons Ratio (z) = 0.52515 0.02726
#
# Static dielectric constant tensor:
#      x y z
#    x 1.793280 0.000000 0.000000 
#    y 0.000000 1.676660 0.000000 
#    z 0.000000 0.000000 1.884700 
# 
# From -- ./inp_files/12966.got.cif
#   From: 2010.05.17/outbox.cif.g08.bks.cpg/sg39_7_cif.got.tgz:12966.got - 2010.06.03 18:22:40.
