data_PCOD9360502
_publ_section_title
;
Structure prediction by ZEFSAII (Michael W. Deem and Ramdas Pophale) SiO2 
 PCOD9360502
Probable space group: A B M 2
;
_chemical_formula_sum "Si O2"
_cell_formula_units_Z 64
_cell_length_a 15.841067
_cell_length_b 19.586889
_cell_length_c 9.547976
_cell_angle_alpha 90.000000
_cell_angle_beta 90.000000
_cell_angle_gamma 90.000000
_cell_volume 2962.519459
_symmetry_space_group_name_H-M "A B M 2"
_symmetry_group_IT_number 39
_symmetry_cell_setting 'orthorhombic'
loop_
_space_group_symop_operation_xyz
x,y,z
-x,-y,z
-x,1/2+y,z
x,1/2-y,z
x,1/2+y,1/2+z
-x,1/2-y,1/2+z
-x,y,1/2+z
x,-y,1/2+z
loop_
_atom_site_type_symbol
_atom_site_label
_atom_site_fract_x
_atom_site_fract_y
_atom_site_fract_z
Si Si1 0.819059 0.466097 0.063170
Si Si2 0.991938 0.670634 0.748512
Si Si3 0.906201 0.401689 0.499704
Si Si4 0.410919 0.888525 0.673595
Si Si5 0.704626 0.005732 0.311584
Si Si6 0.540867 0.574363 0.873076
Si Si7 0.244656 0.326129 0.141115
Si Si8 0.161224 0.824932 0.932307
O O1 0.894901 0.516812 0.018465
O O2 0.786443 0.479307 0.218666
O O3 0.739229 0.483070 0.961996
O O4 0.838838 0.387195 0.037906
O O5 0.966153 0.750000 0.718273
O O6 0.027972 0.631598 0.611460
O O7 0.073513 0.676154 0.849202
O O8 0.928612 0.626827 0.845954
O O9 0.813680 0.375334 0.549724
O O10 0.481157 0.873655 0.790173
O O11 0.459913 0.914387 0.537889
O O12 0.344296 0.832549 0.622464
O O13 0.348045 0.946278 0.735104
O O14 0.638196 0.067673 0.325859
O O15 0.500000 0.500000 0.844906
O O16 0.213764 0.250000 0.110002
O O17 0.226755 0.338127 0.305920
O O18 0.178082 0.750000 0.992545
#
# Coordination Sequence:
#
# PCOD9360502 Si02
#       8
#     8   8   8   8   8   8   8   8
#     4  12  22  38  65  94 128 161 211 271 319 384
#     4  10  21  41  65  91 125 166 211 258 316 392
#     4  11  22  39  64  96 127 165 217 270 325 380
#     4  11  20  36  56  90 122 163 211 259 314 379
#     4  11  20  36  58  91 126 158 204 264 322 370
#     4  10  21  32  56  86 122 160 205 262 316 374
#     4  10  19  38  64  88 122 170 216 260 320 386
#     4   9  20  38  61  88 121 164 207 253 321 392
#
# _framework density 21.603234
#
# number of rings (size 3 to 8) (size 9 to 14) (size 15 to 20)
#    0.000    1.500    3.750    3.750    1.750    1.500 
#    0.000    3.125    0.000    4.500    0.000    0.000 
#    0.000    0.000    0.000    0.000    0.000    0.000 
#
# Total GULP energy -178689.698507 kJ/mol
# GULP energy per Si atom -5584.053078 kJ/mol
# Density = 2.155406 g / cm^3
# Si number density = 21.603234 Si / 1000 Ang^3
#
#
#
# Elastic Constant Matrix: (Units=GPa)
#
#
# Indices 1 2 3 4 5 6 
#
# 1 87.1871 21.4886 29.5329 0.0000 0.0000 0.0000
# 2 21.4886 100.3785 18.9709 0.0000 0.0000 0.0000
# 3 29.5329 18.9709 75.0158 0.0000 0.0000 0.0000
# 4 0.0000 0.0000 0.0000 9.0676 0.0000 0.0000
# 5 0.0000 0.0000 0.0000 0.0000 43.1108 0.0000
# 6 0.0000 0.0000 0.0000 0.0000 0.0000 18.8490
#
#
#
# Elastic Compliance Matrix: (Units=1/GPa)
#
#
# Indices 1 2 3 4 5 6 
#
# 1 0.013605 -0.001996 -0.004851 0.000000 0.000000 0.000000
# 2 -0.001996 0.010755 -0.001934 0.000000 0.000000 0.000000
# 3 -0.004851 -0.001934 0.015730 0.000000 0.000000 0.000000
# 4 0.000000 0.000000 0.000000 0.110282 0.000000 0.000000
# 5 0.000000 0.000000 0.000000 0.000000 0.023196 0.000000
# 6 0.000000 0.000000 0.000000 0.000000 0.000000 0.053053
#
#
# Mechanical properties :
#
#
# Convention : Reuss Voigt Hill
#
# Bulk Modulus (GPa) = 44.39106 44.72956 44.56031
# Shear Modulus (GPa) = 19.86552 27.04477 23.45514
#
# Velocity S-wave (km/s) = 3.03572 3.54204 3.29861
# Velocity P-wave (km/s) = 5.73414 6.12193 5.93121
#
# Compressibility (1/GPa) = 0.02252706
#
# Stress axis : x y z
#
# Youngs Moduli (GPa) = 73.50388 92.97962 63.57442
#
# Poissons Ratio (x) = 0.18555 0.30842
# Poissons Ratio (y) = 0.14668 0.12297
# Poissons Ratio (z) = 0.35659 0.17984
#
# Static dielectric constant tensor:
#      x y z
#    x 1.835090 0.000000 0.000000 
#    y 0.000000 1.827470 0.000000 
#    z 0.000000 0.000000 1.764470 
# 
# From -- ./inp_files/3841.got.cif
#   From: 2010.05.17/outbox.cif.g08.bks.cpg/sg39_2_cif.got.tgz:3841.got - 2010.06.03 18:22:40.
