data_PCOD9360540
_publ_section_title
;
Structure prediction by ZEFSAII (Michael W. Deem and Ramdas Pophale) SiO2 
 PCOD9360540
Probable space group: A B M 2
;
_chemical_formula_sum "Si O2"
_cell_formula_units_Z 64
_cell_length_a 18.037332
_cell_length_b 8.981264
_cell_length_c 23.619187
_cell_angle_alpha 90.000000
_cell_angle_beta 90.000000
_cell_angle_gamma 90.000000
_cell_volume 3826.262013
_symmetry_space_group_name_H-M "A B M 2"
_symmetry_group_IT_number 39
_symmetry_cell_setting 'orthorhombic'
loop_
_space_group_symop_operation_xyz
x,y,z
-x,-y,z
-x,1/2+y,z
x,1/2-y,z
x,1/2+y,1/2+z
-x,1/2-y,1/2+z
-x,y,1/2+z
x,-y,1/2+z
loop_
_atom_site_type_symbol
_atom_site_label
_atom_site_fract_x
_atom_site_fract_y
_atom_site_fract_z
Si Si1 0.647060 0.071823 0.465730
Si Si2 0.132990 0.080424 0.517626
Si Si3 0.767162 0.428721 0.678899
Si Si4 0.735351 0.070638 0.299837
Si Si5 0.298821 0.578644 0.072188
Si Si6 0.575209 0.572184 0.851715
Si Si7 0.074969 0.425711 0.124257
Si Si8 0.791657 0.929332 0.407692
O O1 0.649744 0.250000 0.472301
O O2 0.586569 0.032731 0.418190
O O3 0.645709 0.993658 0.526593
O O4 0.722393 0.014583 0.435998
O O5 0.105657 0.250000 0.523303
O O6 0.217486 0.078419 0.542027
O O7 0.140882 0.041909 0.451314
O O8 0.088076 0.975262 0.559242
O O9 0.762554 0.250000 0.684125
O O10 0.749586 0.509149 0.737504
O O11 0.712644 0.485986 0.629330
O O12 0.850657 0.468573 0.658317
O O13 0.742065 0.250000 0.302705
O O14 0.651234 0.030190 0.319499
O O15 0.791526 0.993403 0.344477
O O16 0.317848 0.750000 0.083892
O O17 0.500000 0.500000 0.829755
O O18 0.569345 0.750000 0.848269
O O19 0.067792 0.250000 0.127105
O O20 0.000000 0.500000 0.145853
O O21 0.779796 0.750000 0.407624
#
# Coordination Sequence:
#
# PCOD9360540 Si02
#       8
#     8   8   8   8   8   8   8   8
#     4   9  16  27  43  67  96 122 151 190 235 285
#     4   8  15  27  44  67  94 120 149 186 231 280
#     4  10  20  33  50  73  98 130 170 210 248 293
#     4  10  20  33  49  72 100 131 168 210 250 294
#     4   9  16  27  45  69  94 122 153 190 236 283
#     4   9  19  32  48  71  98 128 162 201 249 299
#     4  10  20  32  49  72  98 127 161 200 247 298
#     4   9  16  27  45  69  94 122 154 191 235 282
#
# _framework density 16.726507000000002
#
# number of rings (size 3 to 8) (size 9 to 14) (size 15 to 20)
#    0.000    2.750    0.000    3.750    0.000    8.000 
#    0.000    0.000    0.000    1.500    0.000    8.750 
#    0.000    0.000    0.000    0.000    0.000    0.000 
#
# Total GULP energy -178161.826383 kJ/mol
# GULP energy per Si atom -5567.557074 kJ/mol
# Density = 1.668844 g / cm^3
# Si number density = 16.726507 Si / 1000 Ang^3
#
#
#
# Elastic Constant Matrix: (Units=GPa)
#
#
# Indices 1 2 3 4 5 6 
#
# 1 53.5690 29.8760 32.6854 0.0000 0.0000 0.0000
# 2 29.8760 52.2710 38.1367 0.0000 0.0000 0.0000
# 3 32.6854 38.1367 121.7270 0.0000 0.0000 0.0000
# 4 0.0000 0.0000 0.0000 30.7028 0.0000 0.0000
# 5 0.0000 0.0000 0.0000 0.0000 11.6662 0.0000
# 6 0.0000 0.0000 0.0000 0.0000 0.0000 20.4106
#
#
#
# Elastic Compliance Matrix: (Units=1/GPa)
#
#
# Indices 1 2 3 4 5 6 
#
# 1 0.028384 -0.013822 -0.003291 0.000000 0.000000 0.000000
# 2 -0.013822 0.031531 -0.006167 0.000000 0.000000 0.000000
# 3 -0.003291 -0.006167 0.011031 0.000000 0.000000 0.000000
# 4 0.000000 0.000000 0.000000 0.032570 0.000000 0.000000
# 5 0.000000 0.000000 0.000000 0.000000 0.085718 0.000000
# 6 0.000000 0.000000 0.000000 0.000000 0.000000 0.048994
#
#
# Mechanical properties :
#
#
# Convention : Reuss Voigt Hill
#
# Bulk Modulus (GPa) = 41.00831 47.66260 44.33545
# Shear Modulus (GPa) = 17.06964 21.01383 19.04173
#
# Velocity S-wave (km/s) = 3.19801 3.54830 3.37770
# Velocity P-wave (km/s) = 6.18115 6.73382 6.46340
#
# Compressibility (1/GPa) = 0.02438530
#
# Stress axis : x y z
#
# Youngs Moduli (GPa) = 35.23065 31.71512 90.65411
#
# Poissons Ratio (x) = 0.43837 0.29836
# Poissons Ratio (y) = 0.48696 0.55907
# Poissons Ratio (z) = 0.11595 0.19559
#
# Static dielectric constant tensor:
#      x y z
#    x 1.581400 0.000000 0.000000 
#    y 0.000000 1.558250 0.000000 
#    z 0.000000 0.000000 1.586410 
# 
# From -- ./inp_files/16360.got.cif
#   From: 2010.05.17/outbox.cif.g08.bks.cpg/sg39_9_cif.got.tgz:16360.got - 2010.06.03 18:22:40.
