data_PCOD9360629
_publ_section_title
;
Structure prediction by ZEFSAII (Michael W. Deem and Ramdas Pophale) SiO2 
 PCOD9360629
Probable space group: A B M 2
;
_chemical_formula_sum "Si O2"
_cell_formula_units_Z 56
_cell_length_a 24.410417
_cell_length_b 8.504631
_cell_length_c 14.713177
_cell_angle_alpha 90.000000
_cell_angle_beta 90.000000
_cell_angle_gamma 90.000000
_cell_volume 3054.478927
_symmetry_space_group_name_H-M "A B M 2"
_symmetry_group_IT_number 39
_symmetry_cell_setting 'orthorhombic'
loop_
_space_group_symop_operation_xyz
x,y,z
-x,-y,z
-x,1/2+y,z
x,1/2-y,z
x,1/2+y,1/2+z
-x,1/2-y,1/2+z
-x,y,1/2+z
x,-y,1/2+z
loop_
_atom_site_type_symbol
_atom_site_label
_atom_site_fract_x
_atom_site_fract_y
_atom_site_fract_z
Si Si1 0.561387 0.561702 0.406610
Si Si2 0.265640 0.939646 0.404736
Si Si3 0.651340 0.560177 0.260121
Si Si4 0.941862 0.436576 0.069477
Si Si5 0.644510 0.440124 0.551653
Si Si6 0.860184 0.562184 0.921259
Si Si7 0.940069 0.063257 0.772102
O O1 0.500000 0.500000 0.399608
O O2 0.560894 0.750000 0.407779
O O3 0.599312 0.509539 0.321419
O O4 0.591772 0.501380 0.497216
O O5 0.266505 0.750000 0.401196
O O6 0.303088 0.988781 0.490720
O O7 0.202879 0.989780 0.414618
O O8 0.295390 0.002572 0.314602
O O9 0.652037 0.750000 0.259341
O O10 0.648051 0.505831 0.155910
O O11 0.946009 0.250000 0.082710
O O12 0.933662 0.519725 0.166409
O O13 0.000000 0.500000 0.032253
O O14 0.893099 0.479596 0.002202
O O15 0.642715 0.250000 0.551932
O O16 0.861456 0.750000 0.935278
O O17 0.893166 0.518637 0.830546
O O18 0.938173 0.250000 0.785201
O O19 0.000000 0.000000 0.799824
#
# Coordination Sequence:
#
# PCOD9360629 Si02
#       7
#     8   8   8   8   8   8   8
#     4  10  20  34  52  79 110 141 175 218 262 310
#     4   9  20  36  55  78 107 140 178 222 267 312
#     4   9  19  35  56  79 107 141 179 218 264 315
#     4  11  22  38  58  82 110 143 180 224 276 333
#     4   9  18  36  57  78 105 141 178 217 263 313
#     4  11  22  37  55  81 113 146 184 226 272 327
#     4  11  22  38  58  81 108 142 180 225 278 332
#
# _framework density 18.333732999999999
#
# number of rings (size 3 to 8) (size 9 to 14) (size 15 to 20)
#    0.000    2.000    0.000    4.714    0.000    4.000 
#    0.000    2.857    0.000    0.000    0.000    0.000 
#    0.000    0.000    0.000    0.000    0.000    0.000 
#
# Total GULP energy -156367.586788 kJ/mol
# GULP energy per Si atom -5584.556671 kJ/mol
# Density = 1.829200 g / cm^3
# Si number density = 18.333733 Si / 1000 Ang^3
#
#
#
# Elastic Constant Matrix: (Units=GPa)
#
#
# Indices 1 2 3 4 5 6 
#
# 1 148.7685 8.8744 57.4064 0.0000 0.0000 0.0000
# 2 8.8744 29.1582 1.0923 0.0000 0.0000 0.0000
# 3 57.4064 1.0923 121.5131 0.0000 0.0000 0.0000
# 4 0.0000 0.0000 0.0000 26.3357 0.0000 0.0000
# 5 0.0000 0.0000 0.0000 0.0000 15.6883 0.0000
# 6 0.0000 0.0000 0.0000 0.0000 0.0000 25.8212
#
#
#
# Elastic Compliance Matrix: (Units=1/GPa)
#
#
# Indices 1 2 3 4 5 6 
#
# 1 0.008386 -0.002405 -0.003940 0.000000 0.000000 0.000000
# 2 -0.002405 0.034997 0.000821 0.000000 0.000000 0.000000
# 3 -0.003940 0.000821 0.010084 0.000000 0.000000 0.000000
# 4 0.000000 0.000000 0.000000 0.037971 0.000000 0.000000
# 5 0.000000 0.000000 0.000000 0.000000 0.063742 0.000000
# 6 0.000000 0.000000 0.000000 0.000000 0.000000 0.038728
#
#
# Mechanical properties :
#
#
# Convention : Reuss Voigt Hill
#
# Bulk Modulus (GPa) = 23.57402 48.24289 35.90845
# Shear Modulus (GPa) = 22.82134 29.04015 25.93074
#
# Velocity S-wave (km/s) = 3.53196 3.98423 3.76490
# Velocity P-wave (km/s) = 5.43316 6.89466 6.20707
#
# Compressibility (1/GPa) = 0.04241959
#
# Stress axis : x y z
#
# Youngs Moduli (GPa) = 119.25124 28.57405 99.17126
#
# Poissons Ratio (x) = 0.06871 0.39074
# Poissons Ratio (y) = 0.28675 -0.08146
# Poissons Ratio (z) = 0.46985 -0.02347
#
# Static dielectric constant tensor:
#      x y z
#    x 1.606390 0.000000 0.000000 
#    y 0.000000 1.619890 0.000000 
#    z 0.000000 0.000000 1.622330 
# 
# From -- ./inp_files/10341.got.cif
#   From: 2010.05.17/outbox.cif.g08.bks.cpg/sg39_6_cif.got.tgz:10341.got - 2010.06.03 18:22:40.
