data_PCOD9360677
_publ_section_title
;
Structure prediction by ZEFSAII (Michael W. Deem and Ramdas Pophale) SiO2 
 PCOD9360677
Probable space group: A B M 2
;
_chemical_formula_sum "Si O2"
_cell_formula_units_Z 64
_cell_length_a 19.690836
_cell_length_b 8.730451
_cell_length_c 20.900846
_cell_angle_alpha 90.000000
_cell_angle_beta 90.000000
_cell_angle_gamma 90.000000
_cell_volume 3593.061904
_symmetry_space_group_name_H-M "A B M 2"
_symmetry_group_IT_number 39
_symmetry_cell_setting 'orthorhombic'
loop_
_space_group_symop_operation_xyz
x,y,z
-x,-y,z
-x,1/2+y,z
x,1/2-y,z
x,1/2+y,1/2+z
-x,1/2-y,1/2+z
-x,y,1/2+z
x,-y,1/2+z
loop_
_atom_site_type_symbol
_atom_site_label
_atom_site_fract_x
_atom_site_fract_y
_atom_site_fract_z
Si Si1 0.073083 0.932871 0.538290
Si Si2 0.703411 0.433229 0.114340
Si Si3 0.572012 0.932231 0.170836
Si Si4 0.210530 0.934505 0.989892
Si Si5 0.791289 0.432603 0.241635
Si Si6 0.290056 0.933537 0.861174
Si Si7 0.926694 0.933728 0.188229
Si Si8 0.573109 0.433170 0.313285
O O1 0.070484 0.750000 0.534958
O O2 0.084396 0.976541 0.613216
O O3 0.136040 0.994943 0.497820
O O4 0.000000 0.000000 0.519139
O O5 0.691201 0.250000 0.111528
O O6 0.632806 0.518966 0.124766
O O7 0.744299 0.479931 0.051228
O O8 0.749329 0.463859 0.176673
O O9 0.567733 0.750000 0.177596
O O10 0.500000 0.000000 0.149050
O O11 0.585344 0.005160 0.240992
O O12 0.203862 0.750000 0.991225
O O13 0.249645 0.977464 0.925278
O O14 0.792387 0.250000 0.251443
O O15 0.753443 0.512082 0.300332
O O16 0.866487 0.496183 0.229910
O O17 0.297661 0.750000 0.859906
O O18 0.364196 0.008984 0.855466
O O19 0.926652 0.750000 0.192667
O O20 0.000000 0.000000 0.206516
O O21 0.500000 0.500000 0.333445
O O22 0.570607 0.250000 0.311730
#
# Coordination Sequence:
#
# PCOD9360677 Si02
#       8
#     8   8   8   8   8   8   8   8
#     4  10  20  34  57  85 115 149 189 235 282 339
#     4  10  20  36  58  84 114 147 188 232 284 336
#     4  11  21  34  56  85 117 149 189 237 287 339
#     4  10  22  40  60  83 116 154 191 236 283 337
#     4  11  21  35  59  85 115 149 186 235 286 337
#     4  11  23  39  59  85 117 153 193 235 284 340
#     4  10  20  34  55  85 118 150 190 238 288 341
#     4  11  21  36  58  84 114 149 190 236 284 339
#
# _framework density 17.812106
#
# number of rings (size 3 to 8) (size 9 to 14) (size 15 to 20)
#    0.000    1.500    2.500    4.500    0.000    3.000 
#    0.000    1.250    0.000    3.000    0.000    0.000 
#    0.000    0.000    0.000    0.000    0.000    0.000 
#
# Total GULP energy -178803.980508 kJ/mol
# GULP energy per Si atom -5587.624391 kJ/mol
# Density = 1.777157 g / cm^3
# Si number density = 17.812106 Si / 1000 Ang^3
#
#
#
# Elastic Constant Matrix: (Units=GPa)
#
#
# Indices 1 2 3 4 5 6 
#
# 1 179.6314 66.6171 70.8619 0.0000 0.0000 0.0000
# 2 66.6171 80.1979 49.6597 0.0000 0.0000 0.0000
# 3 70.8619 49.6597 95.1405 0.0000 0.0000 0.0000
# 4 0.0000 0.0000 0.0000 20.4070 0.0000 0.0000
# 5 0.0000 0.0000 0.0000 0.0000 27.3952 0.0000
# 6 0.0000 0.0000 0.0000 0.0000 0.0000 36.6435
#
#
#
# Elastic Compliance Matrix: (Units=1/GPa)
#
#
# Indices 1 2 3 4 5 6 
#
# 1 0.009035 -0.004932 -0.004155 0.000000 0.000000 0.000000
# 2 -0.004932 0.021116 -0.007348 0.000000 0.000000 0.000000
# 3 -0.004155 -0.007348 0.017441 0.000000 0.000000 0.000000
# 4 0.000000 0.000000 0.000000 0.049003 0.000000 0.000000
# 5 0.000000 0.000000 0.000000 0.000000 0.036503 0.000000
# 6 0.000000 0.000000 0.000000 0.000000 0.000000 0.027290
#
#
# Mechanical properties :
#
#
# Convention : Reuss Voigt Hill
#
# Bulk Modulus (GPa) = 67.92879 81.02749 74.47814
# Shear Modulus (GPa) = 25.23129 28.07790 26.65459
#
# Velocity S-wave (km/s) = 3.76776 3.97462 3.87257
# Velocity P-wave (km/s) = 7.55957 8.16409 7.86764
#
# Compressibility (1/GPa) = 0.01472130
#
# Stress axis : x y z
#
# Youngs Moduli (GPa) = 110.67766 47.35650 57.33595
#
# Poissons Ratio (x) = 0.23358 0.23824
# Poissons Ratio (y) = 0.54590 0.42132
# Poissons Ratio (z) = 0.45987 0.34799
#
# Static dielectric constant tensor:
#      x y z
#    x 1.599710 0.000000 0.000000 
#    y 0.000000 1.595510 0.000000 
#    z 0.000000 0.000000 1.590260 
# 
# From -- ./inp_files/13168.got.cif
#   From: 2010.05.17/outbox.cif.g08.bks.cpg/sg39_7_cif.got.tgz:13168.got - 2010.06.03 18:22:40.
