data_PCOD9360091
_publ_section_title
;
Structure prediction by ZEFSAII (Michael W. Deem and Ramdas Pophale) SiO2 
 PCOD9360091
Probable space group: A B M 2
;
_chemical_formula_sum "Si O2"
_cell_formula_units_Z 64
_cell_length_a 15.109940
_cell_length_b 7.647976
_cell_length_c 25.714842
_cell_angle_alpha 90.000000
_cell_angle_beta 90.000000
_cell_angle_gamma 90.000000
_cell_volume 2971.618931
_symmetry_space_group_name_H-M "A B M 2"
_symmetry_group_IT_number 39
_symmetry_cell_setting 'orthorhombic'
loop_
_space_group_symop_operation_xyz
x,y,z
-x,-y,z
-x,1/2+y,z
x,1/2-y,z
x,1/2+y,1/2+z
-x,1/2-y,1/2+z
-x,y,1/2+z
x,-y,1/2+z
loop_
_atom_site_type_symbol
_atom_site_label
_atom_site_fract_x
_atom_site_fract_y
_atom_site_fract_z
Si Si1 0.294222 0.541932 0.400670
Si Si2 0.095999 0.457858 0.427520
Si Si3 0.872570 0.545679 0.542104
Si Si4 0.403479 0.457625 0.118655
Si Si5 0.674324 0.962037 0.015274
Si Si6 0.903542 0.960488 0.657399
Si Si7 0.272754 0.048917 0.706404
Si Si8 0.604211 0.961073 0.798764
O O1 0.307588 0.750000 0.400949
O O2 0.187617 0.515133 0.400400
O O3 0.330474 0.473454 0.456112
O O4 0.348791 0.473437 0.351594
O O5 0.103145 0.250000 0.431311
O O6 0.095926 0.532665 0.486920
O O7 0.000000 0.500000 0.403681
O O8 0.898342 0.750000 0.542279
O O9 0.767291 0.527728 0.537872
O O10 0.900055 0.469607 0.597789
O O11 0.500000 0.500000 0.139780
O O12 0.388946 0.250000 0.120952
O O13 0.396293 0.515363 0.058542
O O14 0.329010 0.544854 0.153514
O O15 0.676723 0.750000 0.013475
O O16 0.892151 0.750000 0.653784
O O17 0.822404 0.029846 0.691876
O O18 0.000000 0.000000 0.679181
O O19 0.256123 0.250000 0.721975
O O20 0.336400 0.971454 0.750627
O O21 0.609501 0.750000 0.798125
O O22 0.500000 0.000000 0.795386
#
# Coordination Sequence:
#
# PCOD9360091 Si02
#       8
#     8   8   8   8   8   8   8   8
#     4   9  19  37  57  79 110 144 182 231 279 325
#     4  10  19  31  51  81 114 150 190 226 270 324
#     4   9  17  30  49  75 108 147 184 222 266 317
#     4  11  22  34  52  80 110 144 181 221 275 336
#     4   9  18  32  51  76 108 144 179 219 270 325
#     4  10  20  33  52  78 110 145 181 221 269 321
#     4  10  21  39  59  80 110 145 183 229 276 325
#     4  10  22  40  63  85 106 139 184 233 283 331
#
# _framework density 21.53708
#
# number of rings (size 3 to 8) (size 9 to 14) (size 15 to 20)
#    0.000    2.250    1.250    1.500    0.000    4.500 
#    0.000    0.625    0.000    1.500    0.000    0.000 
#    0.000    0.000    0.000    0.000    0.000    0.000 
#
# Total GULP energy -178505.748429 kJ/mol
# GULP energy per Si atom -5578.304638 kJ/mol
# Density = 2.148806 g / cm^3
# Si number density = 21.537080 Si / 1000 Ang^3
#
#
#
# Elastic Constant Matrix: (Units=GPa)
#
#
# Indices 1 2 3 4 5 6 
#
# 1 165.9316 -8.8764 77.9076 0.0000 0.0000 0.0000
# 2 -8.8764 45.8759 6.7357 0.0000 0.0000 0.0000
# 3 77.9076 6.7357 122.2123 0.0000 0.0000 0.0000
# 4 0.0000 0.0000 0.0000 1.3859 0.0000 0.0000
# 5 0.0000 0.0000 0.0000 0.0000 10.7517 0.0000
# 6 0.0000 0.0000 0.0000 0.0000 0.0000 24.5651
#
#
#
# Elastic Compliance Matrix: (Units=1/GPa)
#
#
# Indices 1 2 3 4 5 6 
#
# 1 0.008892 0.002574 -0.005811 0.000000 0.000000 0.000000
# 2 0.002574 0.022721 -0.002893 0.000000 0.000000 0.000000
# 3 -0.005811 -0.002893 0.012046 0.000000 0.000000 0.000000
# 4 0.000000 0.000000 0.000000 0.721561 0.000000 0.000000
# 5 0.000000 0.000000 0.000000 0.000000 0.093008 0.000000
# 6 0.000000 0.000000 0.000000 0.000000 0.000000 0.040708
#
#
# Mechanical properties :
#
#
# Convention : Reuss Voigt Hill
#
# Bulk Modulus (GPa) = 31.84760 53.95040 42.89900
# Shear Modulus (GPa) = 5.42498 24.55741 14.99120
#
# Velocity S-wave (km/s) = 1.58883 3.38041 2.64117
# Velocity P-wave (km/s) = 4.26442 6.35142 5.40952
#
# Compressibility (1/GPa) = 0.03139954
#
# Stress axis : x y z
#
# Youngs Moduli (GPa) = 112.45553 44.01279 83.01496
#
# Poissons Ratio (x) = -0.11328 0.48236
# Poissons Ratio (y) = -0.28943 0.24016
# Poissons Ratio (z) = 0.65343 0.12733
#
# Static dielectric constant tensor:
#      x y z
#    x 1.808120 0.000000 0.000000 
#    y 0.000000 1.771220 0.000000 
#    z 0.000000 0.000000 1.812340 
# 
# From -- ./inp_files/16135.got.cif
#   From: 2010.05.17/outbox.cif.g08.bks.cpg/sg39_9_cif.got.tgz:16135.got - 2010.06.03 18:22:40.
