data_PCOD9360802
_publ_section_title
;
Structure prediction by ZEFSAII (Michael W. Deem and Ramdas Pophale) SiO2 
 PCOD9360802
Probable space group: A B M 2
;
_chemical_formula_sum "Si O2"
_cell_formula_units_Z 48
_cell_length_a 7.732983
_cell_length_b 10.090981
_cell_length_c 32.254216
_cell_angle_alpha 90.000000
_cell_angle_beta 90.000000
_cell_angle_gamma 90.000000
_cell_volume 2516.905640
_symmetry_space_group_name_H-M "A B M 2"
_symmetry_group_IT_number 39
_symmetry_cell_setting 'orthorhombic'
loop_
_space_group_symop_operation_xyz
x,y,z
-x,-y,z
-x,1/2+y,z
x,1/2-y,z
x,1/2+y,1/2+z
-x,1/2-y,1/2+z
-x,y,1/2+z
x,-y,1/2+z
loop_
_atom_site_type_symbol
_atom_site_label
_atom_site_fract_x
_atom_site_fract_y
_atom_site_fract_z
Si Si1 0.200293 0.989293 0.787570
Si Si2 0.021852 0.750000 0.901529
Si Si3 0.000000 0.500000 0.461344
Si Si4 0.677338 0.589241 0.017062
Si Si5 0.284591 0.250000 0.833364
Si Si6 0.661799 0.902693 0.110281
Si Si7 0.671027 0.907622 0.200595
Si Si8 0.662491 0.750000 0.341490
O O1 0.279827 0.125728 0.802743
O O2 0.216872 0.955989 0.739235
O O3 0.295454 0.875503 0.812975
O O4 0.000000 0.000000 0.799328
O O5 0.013952 0.624304 0.931043
O O6 0.203202 0.750000 0.878336
O O7 0.871703 0.750000 0.866328
O O8 0.828476 0.471382 0.488632
O O9 0.500000 0.500000 0.013177
O O10 0.650093 0.750000 0.009154
O O11 0.742829 0.578552 0.065031
O O12 0.466771 0.250000 0.856562
O O13 0.600850 0.750000 0.111068
O O14 0.754055 0.923309 0.154623
O O15 0.500000 0.000000 0.110940
O O16 0.632199 0.750000 0.205923
O O17 0.500000 0.000000 0.201732
#
# Coordination Sequence:
#
# PCOD9360802 Si02
#       8
#     8   4   4   8   4   8   8   4
#     4  12  23  41  62  92 132 166 209 266 313 372
#     4  12  26  46  68  96 128 162 210 278 332 392
#     4  12  26  44  70  94 138 166 208 274 338 398
#     4  10  22  42  70 100 131 175 220 266 329 393
#     4  12  26  44  70  91 123 168 213 261 320 382
#     4   8  16  34  59  90 129 167 213 265 308 370
#     4  10  20  35  60  93 128 171 219 262 311 372
#     4  12  24  46  70  91 119 166 213 259 322 384
#
# _framework density 19.071037
#
# number of rings (size 3 to 8) (size 9 to 14) (size 15 to 20)
#    0.000    1.333    3.333    2.500    2.333    1.333 
#    1.500    0.000    0.000    0.000    0.000    0.000 
#    0.000    0.000    0.000    0.000    0.000    0.000 
#
# Total GULP energy -133784.562309 kJ/mol
# GULP energy per Si atom -5574.356763 kJ/mol
# Density = 1.902763 g / cm^3
# Si number density = 19.071037 Si / 1000 Ang^3
#
#
#
# Elastic Constant Matrix: (Units=GPa)
#
#
# Indices 1 2 3 4 5 6 
#
# 1 91.2392 33.2500 33.7367 0.0000 0.0000 0.0000
# 2 33.2500 151.4655 69.3471 0.0000 0.0000 0.0000
# 3 33.7367 69.3471 130.8193 0.0000 0.0000 0.0000
# 4 0.0000 0.0000 0.0000 26.6341 0.0000 0.0000
# 5 0.0000 0.0000 0.0000 0.0000 31.5034 0.0000
# 6 0.0000 0.0000 0.0000 0.0000 0.0000 27.8150
#
#
#
# Elastic Compliance Matrix: (Units=1/GPa)
#
#
# Indices 1 2 3 4 5 6 
#
# 1 0.012425 -0.001665 -0.002322 0.000000 0.000000 0.000000
# 2 -0.001665 0.008941 -0.004310 0.000000 0.000000 0.000000
# 3 -0.002322 -0.004310 0.010528 0.000000 0.000000 0.000000
# 4 0.000000 0.000000 0.000000 0.037546 0.000000 0.000000
# 5 0.000000 0.000000 0.000000 0.000000 0.031743 0.000000
# 6 0.000000 0.000000 0.000000 0.000000 0.000000 0.035952
#
#
# Mechanical properties :
#
#
# Convention : Reuss Voigt Hill
#
# Bulk Modulus (GPa) = 65.35737 71.79907 68.57822
# Shear Modulus (GPa) = 31.48051 33.00319 32.24185
#
# Velocity S-wave (km/s) = 4.06729 4.16449 4.11617
# Velocity P-wave (km/s) = 7.51012 7.80089 7.65689
#
# Compressibility (1/GPa) = 0.01530049
#
# Stress axis : x y z
#
# Youngs Moduli (GPa) = 80.48046 111.84389 94.98602
#
# Poissons Ratio (x) = 0.18617 0.22056
# Poissons Ratio (y) = 0.13396 0.40942
# Poissons Ratio (z) = 0.18687 0.48209
#
# Static dielectric constant tensor:
#      x y z
#    x 1.640150 0.000000 0.000000 
#    y 0.000000 1.656960 0.000000 
#    z 0.000000 0.000000 1.689700 
# 
# From -- ./inp_files/17717.got.cif
#   From: 2010.05.17/outbox.cif.g08.bks.cpg/sg39_9_cif.got.tgz:17717.got - 2010.06.03 18:22:40.
