data_PCOD9360795
_publ_section_title
;
Structure prediction by ZEFSAII (Michael W. Deem and Ramdas Pophale) SiO2 
 PCOD9360795
Probable space group: A B M 2
;
_chemical_formula_sum "Si O2"
_cell_formula_units_Z 64
_cell_length_a 24.430276
_cell_length_b 8.593667
_cell_length_c 15.567712
_cell_angle_alpha 90.000000
_cell_angle_beta 90.000000
_cell_angle_gamma 90.000000
_cell_volume 3268.373519
_symmetry_space_group_name_H-M "A B M 2"
_symmetry_group_IT_number 39
_symmetry_cell_setting 'orthorhombic'
loop_
_space_group_symop_operation_xyz
x,y,z
-x,-y,z
-x,1/2+y,z
x,1/2-y,z
x,1/2+y,1/2+z
-x,1/2-y,1/2+z
-x,y,1/2+z
x,-y,1/2+z
loop_
_atom_site_type_symbol
_atom_site_label
_atom_site_fract_x
_atom_site_fract_y
_atom_site_fract_z
Si Si1 0.443239 0.436448 0.483310
Si Si2 0.674779 0.434231 0.057980
Si Si3 0.441655 0.935391 0.289452
Si Si4 0.138739 0.937155 0.886833
Si Si5 0.327079 0.432790 0.237190
Si Si6 0.939199 0.062575 0.534674
Si Si7 0.060148 0.562916 0.732578
Si Si8 0.260836 0.566125 0.396196
O O1 0.500000 0.500000 0.521537
O O2 0.447037 0.250000 0.471536
O O3 0.388727 0.470597 0.536521
O O4 0.437412 0.515884 0.389853
O O5 0.678728 0.250000 0.073994
O O6 0.693101 0.525982 0.142186
O O7 0.709882 0.480000 0.975272
O O8 0.440060 0.750000 0.281162
O O9 0.500000 0.000000 0.258477
O O10 0.389761 0.010766 0.243718
O O11 0.143572 0.750000 0.886085
O O12 0.104947 0.987076 0.801940
O O13 0.198441 0.011616 0.888766
O O14 0.103896 0.990576 0.969109
O O15 0.323871 0.250000 0.254320
O O16 0.292977 0.521457 0.309716
O O17 0.938677 0.250000 0.528265
O O18 0.927429 0.017669 0.634004
O O19 0.000000 0.000000 0.514423
O O20 0.057631 0.750000 0.734796
O O21 0.000000 0.500000 0.754970
O O22 0.264059 0.750000 0.410372
#
# Coordination Sequence:
#
# PCOD9360795 Si02
#       8
#     8   8   8   8   8   8   8   8
#     4  10  20  35  60  90 124 159 198 248 310 373
#     4  11  24  43  66  92 123 162 208 257 313 376
#     4  11  21  36  61  91 125 161 203 251 310 374
#     4  11  23  40  62  89 122 163 207 256 309 365
#     4  12  25  43  66  92 124 163 208 258 313 374
#     4  10  20  37  60  91 127 163 204 250 304 367
#     4   9  20  37  60  89 125 163 200 245 300 358
#     4  12  26  45  66  90 122 164 212 263 316 371
#
# _framework density 19.581606000000001
#
# number of rings (size 3 to 8) (size 9 to 14) (size 15 to 20)
#    0.000    1.250    1.250    6.000    0.000    5.500 
#    0.000    5.000    0.000    0.000    0.000    0.000 
#    0.000    0.000    0.000    0.000    0.000    0.000 
#
# Total GULP energy -179000.583987 kJ/mol
# GULP energy per Si atom -5593.768250 kJ/mol
# Density = 1.953704 g / cm^3
# Si number density = 19.581606 Si / 1000 Ang^3
#
#
#
# Elastic Constant Matrix: (Units=GPa)
#
#
# Indices 1 2 3 4 5 6 
#
# 1 108.1617 1.8274 37.5626 0.0000 0.0000 0.0000
# 2 1.8274 43.0395 -12.3181 0.0000 0.0000 0.0000
# 3 37.5626 -12.3181 64.6768 0.0000 0.0000 0.0000
# 4 0.0000 0.0000 0.0000 28.6402 0.0000 0.0000
# 5 0.0000 0.0000 0.0000 0.0000 -121.6328 0.0000
# 6 0.0000 0.0000 0.0000 0.0000 0.0000 35.5867
#
#
#
# Elastic Compliance Matrix: (Units=1/GPa)
#
#
# Indices 1 2 3 4 5 6 
#
# 1 0.011853 -0.002616 -0.007382 0.000000 0.000000 0.000000
# 2 -0.002616 0.025151 0.006310 0.000000 0.000000 0.000000
# 3 -0.007382 0.006310 0.020951 0.000000 0.000000 0.000000
# 4 0.000000 0.000000 0.000000 0.034916 0.000000 0.000000
# 5 0.000000 0.000000 0.000000 0.000000 -0.008221 0.000000
# 6 0.000000 0.000000 0.000000 0.000000 0.000000 0.028100
#
#
# Mechanical properties :
#
#
# Convention : Reuss Voigt Hill
#
# Bulk Modulus (GPa) = 19.77157 30.00244 24.88700
# Shear Modulus (GPa) = 36.49969 1.10590 18.80279
#
# Velocity S-wave (km/s) = 4.32207 0.75232 3.10212
# Velocity P-wave (km/s) = 5.91827 4.01368 5.05646
#
# Compressibility (1/GPa) = 0.05057766
#
# Stress axis : x y z
#
# Youngs Moduli (GPa) = 84.36404 39.75919 47.73107
#
# Poissons Ratio (x) = 0.10402 0.35237
# Poissons Ratio (y) = 0.22071 -0.30117
# Poissons Ratio (z) = 0.62281 -0.25087
#
# Static dielectric constant tensor:
#      x y z
#    x 1.663480 0.000000 0.000000 
#    y 0.000000 1.654690 0.000000 
#    z 0.000000 0.000000 1.695750 
# 
# From -- ./inp_files/10660.got.cif
#   From: 2010.05.17/outbox.cif.g08.bks.cpg/sg39_6_cif.got.tgz:10660.got - 2010.06.03 18:22:40.
