data_PCOD9360373
_publ_section_title
;
Structure prediction by ZEFSAII (Michael W. Deem and Ramdas Pophale) SiO2 
 PCOD9360373
Probable space group: A B M 2
;
_chemical_formula_sum "Si O2"
_cell_formula_units_Z 60
_cell_length_a 23.864664
_cell_length_b 24.007384
_cell_length_c 5.270888
_cell_angle_alpha 90.000000
_cell_angle_beta 90.000000
_cell_angle_gamma 90.000000
_cell_volume 3019.840125
_symmetry_space_group_name_H-M "A B M 2"
_symmetry_group_IT_number 39
_symmetry_cell_setting 'orthorhombic'
loop_
_space_group_symop_operation_xyz
x,y,z
-x,-y,z
-x,1/2+y,z
x,1/2-y,z
x,1/2+y,1/2+z
-x,1/2-y,1/2+z
-x,y,1/2+z
x,-y,1/2+z
loop_
_atom_site_type_symbol
_atom_site_label
_atom_site_fract_x
_atom_site_fract_y
_atom_site_fract_z
Si Si1 0.159766 0.817391 0.529950
Si Si2 0.595101 0.481790 0.425006
Si Si3 0.464271 0.750000 0.433282
Si Si4 0.723046 0.528011 0.457432
Si Si5 0.968337 0.682368 0.900578
Si Si6 0.222834 0.648230 0.018658
Si Si7 0.616627 0.146673 0.317919
Si Si8 0.666808 0.812641 0.306482
O O1 0.163653 0.750000 0.561852
O O2 0.095852 0.831815 0.457885
O O3 0.197950 0.835538 0.290716
O O4 0.177389 0.846926 0.792798
O O5 0.566067 0.488766 0.691971
O O6 0.655704 0.514977 0.450749
O O7 0.601824 0.417059 0.365390
O O8 0.488574 0.750000 0.715517
O O9 0.429056 0.806490 0.385656
O O10 0.744128 0.512312 0.179325
O O11 0.744442 0.589164 0.525050
O O12 0.970519 0.750000 0.895886
O O13 0.008160 0.663240 0.130163
O O14 0.271275 0.688905 0.919073
O O15 0.632153 0.155762 0.024332
O O16 0.664699 0.159566 0.529229
O O17 0.645097 0.750000 0.283287
#
# Coordination Sequence:
#
# PCOD9360373 Si02
#       8
#     8   8   4   8   8   8   8   8
#     4  11  22  36  50  80 124 166 202 241 309 370
#     4  10  20  36  59  87 115 153 199 245 289 332
#     4  12  26  46  70  96 126 158 200 256 314 354
#     4  10  19  35  52  77 106 149 195 237 283 332
#     4   9  17  31  52  73 101 150 209 262 300 349
#     4  12  23  34  53  81 123 163 192 239 298 362
#     4  12  23  42  64  92 122 159 203 249 295 360
#     4  12  21  35  55  86 123 160 202 230 281 364
#
# _framework density 19.868601999999999
#
# number of rings (size 3 to 8) (size 9 to 14) (size 15 to 20)
#    0.000    1.067    1.333    8.400    0.000    2.133 
#    0.000    0.000    0.000    2.400    0.000    0.000 
#    0.000   37.333    0.000    0.000    0.000    0.000 
#
# Total GULP energy -167463.694288 kJ/mol
# GULP energy per Si atom -5582.123143 kJ/mol
# Density = 1.982338 g / cm^3
# Si number density = 19.868602 Si / 1000 Ang^3
#
#
#
# Elastic Constant Matrix: (Units=GPa)
#
#
# Indices 1 2 3 4 5 6 
#
# 1 45.7845 7.8753 -23.0425 0.0000 0.0000 0.0000
# 2 7.8753 92.5313 -8.7971 0.0000 0.0000 0.0000
# 3 -23.0425 -8.7971 68.6635 0.0000 0.0000 0.0000
# 4 0.0000 0.0000 0.0000 27.8943 0.0000 0.0000
# 5 0.0000 0.0000 0.0000 0.0000 11.7627 0.0000
# 6 0.0000 0.0000 0.0000 0.0000 0.0000 3.8665
#
#
#
# Elastic Compliance Matrix: (Units=1/GPa)
#
#
# Indices 1 2 3 4 5 6 
#
# 1 0.026464 -0.001425 0.008698 0.000000 0.000000 0.000000
# 2 -0.001425 0.011017 0.000933 0.000000 0.000000 0.000000
# 3 0.008698 0.000933 0.017602 0.000000 0.000000 0.000000
# 4 0.000000 0.000000 0.000000 0.035850 0.000000 0.000000
# 5 0.000000 0.000000 0.000000 0.000000 0.085014 0.000000
# 6 0.000000 0.000000 0.000000 0.000000 0.000000 0.258634
#
#
# Mechanical properties :
#
#
# Convention : Reuss Voigt Hill
#
# Bulk Modulus (GPa) = 13.98670 17.67229 15.82949
# Shear Modulus (GPa) = 11.31219 24.10094 17.70657
#
# Velocity S-wave (km/s) = 2.38869 3.48662 2.98851
# Velocity P-wave (km/s) = 3.82919 5.01224 4.46011
#
# Compressibility (1/GPa) = 0.07149651
#
# Stress axis : x y z
#
# Youngs Moduli (GPa) = 37.78660 90.76724 56.81036
#
# Poissons Ratio (x) = 0.12938 -0.49416
# Poissons Ratio (y) = 0.05386 -0.05301
# Poissons Ratio (z) = -0.32869 -0.08470
#
# Static dielectric constant tensor:
#      x y z
#    x 1.762150 0.000000 0.000000 
#    y 0.000000 1.701630 0.000000 
#    z 0.000000 0.000000 1.759450 
# 
# From -- ./inp_files/1128.got.cif
#   From: 2010.05.17/outbox.cif.g08.bks.cpg/sg39_1_cif.got.tgz:1128.got - 2010.06.03 18:22:40.
