data_PCOD9360825
_publ_section_title
;
Structure prediction by ZEFSAII (Michael W. Deem and Ramdas Pophale) SiO2 
 PCOD9360825
Probable space group: A B M 2
;
_chemical_formula_sum "Si O2"
_cell_formula_units_Z 64
_cell_length_a 11.054930
_cell_length_b 25.183416
_cell_length_c 12.167896
_cell_angle_alpha 90.000000
_cell_angle_beta 90.000000
_cell_angle_gamma 90.000000
_cell_volume 3387.553210
_symmetry_space_group_name_H-M "A B M 2"
_symmetry_group_IT_number 39
_symmetry_cell_setting 'orthorhombic'
loop_
_space_group_symop_operation_xyz
x,y,z
-x,-y,z
-x,1/2+y,z
x,1/2-y,z
x,1/2+y,1/2+z
-x,1/2-y,1/2+z
-x,y,1/2+z
x,-y,1/2+z
loop_
_atom_site_type_symbol
_atom_site_label
_atom_site_fract_x
_atom_site_fract_y
_atom_site_fract_z
Si Si1 0.365755 0.475773 0.337930
Si Si2 0.196689 0.187979 0.227119
Si Si3 0.331159 0.591632 0.614907
Si Si4 0.209010 0.948716 0.222873
Si Si5 0.101153 0.465722 0.055295
Si Si6 0.233866 0.187389 0.487142
Si Si7 0.395034 0.905113 0.047703
Si Si8 0.041032 0.134980 0.649280
O O1 0.500000 0.500000 0.339918
O O2 0.350056 0.440683 0.228390
O O3 0.262643 0.520235 0.325360
O O4 0.351258 0.440047 0.444923
O O5 0.220256 0.250000 0.204810
O O6 0.277787 0.148466 0.153114
O O7 0.218154 0.177980 0.356795
O O8 0.057309 0.173422 0.202117
O O9 0.234869 0.559802 0.540580
O O10 0.461635 0.593520 0.559255
O O11 0.325303 0.929779 0.151971
O O12 0.126536 0.896563 0.235921
O O13 0.133545 0.991661 0.151680
O O14 0.000000 0.500000 0.985968
O O15 0.031084 0.412596 0.090847
O O16 0.244248 0.250000 0.505042
O O17 0.348985 0.154341 0.528263
O O18 0.123695 0.164050 0.559271
#
# Coordination Sequence:
#
# PCOD9360825 Si02
#       8
#     8   8   8   8   8   8   8   8
#     4  11  21  33  53  80 115 153 186 230 285 348
#     4  10  20  38  62  85 112 153 200 254 309 353
#     4  10  20  36  56  83 112 151 198 242 288 358
#     4   9  19  35  52  80 118 152 187 234 286 354
#     4   8  16  31  53  75 111 145 177 228 283 337
#     4  10  21  38  60  84 114 152 199 252 306 358
#     4  11  22  36  56  85 114 154 199 238 292 360
#     4   9  18  36  59  82 112 149 197 244 293 359
#
# _framework density 18.892692
#
# number of rings (size 3 to 8) (size 9 to 14) (size 15 to 20)
#    0.000    2.250    2.500    0.375    3.500    0.500 
#    2.250    0.000    0.000    0.000    0.000    0.000 
#    0.000    0.000    0.000    0.000    0.000    0.000 
#
# Total GULP energy -178324.444688 kJ/mol
# GULP energy per Si atom -5572.638896 kJ/mol
# Density = 1.884969 g / cm^3
# Si number density = 18.892692 Si / 1000 Ang^3
#
#
#
# Elastic Constant Matrix: (Units=GPa)
#
#
# Indices 1 2 3 4 5 6 
#
# 1 116.4354 43.1304 30.2481 0.0000 0.0000 0.0000
# 2 43.1304 113.5469 44.7484 0.0000 0.0000 0.0000
# 3 30.2481 44.7484 53.0865 0.0000 0.0000 0.0000
# 4 0.0000 0.0000 0.0000 -35.7515 0.0000 0.0000
# 5 0.0000 0.0000 0.0000 0.0000 10.9654 0.0000
# 6 0.0000 0.0000 0.0000 0.0000 0.0000 24.3050
#
#
#
# Elastic Compliance Matrix: (Units=1/GPa)
#
#
# Indices 1 2 3 4 5 6 
#
# 1 0.010515 -0.002445 -0.003930 0.000000 0.000000 0.000000
# 2 -0.002445 0.013757 -0.010203 0.000000 0.000000 0.000000
# 3 -0.003930 -0.010203 0.029677 0.000000 0.000000 0.000000
# 4 0.000000 0.000000 0.000000 -0.027971 0.000000 0.000000
# 5 0.000000 0.000000 0.000000 0.000000 0.091196 0.000000
# 6 0.000000 0.000000 0.000000 0.000000 0.000000 0.041144
#
#
# Mechanical properties :
#
#
# Convention : Reuss Voigt Hill
#
# Bulk Modulus (GPa) = 48.09478 57.70252 52.89865
# Shear Modulus (GPa) = 25.20105 10.89990 18.05048
#
# Velocity S-wave (km/s) = 3.65623 2.40456 3.09434
# Velocity P-wave (km/s) = 6.58302 6.19013 6.38959
#
# Compressibility (1/GPa) = 0.02079228
#
# Stress axis : x y z
#
# Youngs Moduli (GPa) = 95.09983 72.69252 33.69645
#
# Poissons Ratio (x) = 0.17775 0.13244
# Poissons Ratio (y) = 0.23255 0.34379
# Poissons Ratio (z) = 0.37377 0.74165
#
# Static dielectric constant tensor:
#      x y z
#    x 1.707980 0.000000 0.000000 
#    y 0.000000 1.639670 0.000000 
#    z 0.000000 0.000000 1.659000 
# 
# From -- ./inp_files/6101.got.cif
#   From: 2010.05.17/outbox.cif.g08.bks.cpg/sg39_4_cif.got.tgz:6101.got - 2010.06.03 18:22:40.
