data_PCOD9360309
_publ_section_title
;
Structure prediction by ZEFSAII (Michael W. Deem and Ramdas Pophale) SiO2 
 PCOD9360309
Probable space group: A B M 2
;
_chemical_formula_sum "Si O2"
_cell_formula_units_Z 60
_cell_length_a 6.481687
_cell_length_b 26.159128
_cell_length_c 19.805681
_cell_angle_alpha 90.000000
_cell_angle_beta 90.000000
_cell_angle_gamma 90.000000
_cell_volume 3358.157785
_symmetry_space_group_name_H-M "A B M 2"
_symmetry_group_IT_number 39
_symmetry_cell_setting 'orthorhombic'
loop_
_space_group_symop_operation_xyz
x,y,z
-x,-y,z
-x,1/2+y,z
x,1/2-y,z
x,1/2+y,1/2+z
-x,1/2-y,1/2+z
-x,y,1/2+z
x,-y,1/2+z
loop_
_atom_site_type_symbol
_atom_site_label
_atom_site_fract_x
_atom_site_fract_y
_atom_site_fract_z
Si Si1 0.898168 0.374991 0.405660
Si Si2 0.379784 0.950052 0.130362
Si Si3 0.198939 0.810282 0.809441
Si Si4 0.506691 0.807748 0.934958
Si Si5 0.461770 0.559127 0.374147
Si Si6 0.000000 0.000000 0.211438
Si Si7 0.722920 0.393249 0.995271
Si Si8 0.304067 0.908222 0.742001
O O1 0.717871 0.338635 0.432569
O O2 0.775143 0.423255 0.375526
O O3 0.024919 0.340909 0.352238
O O4 0.049443 0.394434 0.464066
O O5 0.306030 0.915214 0.069031
O O6 0.541216 0.922027 0.180699
O O7 0.500000 0.000000 0.103194
O O8 0.180602 0.971485 0.169730
O O9 0.151600 0.750000 0.795276
O O10 0.393371 0.809340 0.861681
O O11 0.234451 0.848705 0.746152
O O12 0.544972 0.750000 0.953152
O O13 0.354735 0.835302 0.987170
O O14 0.500000 0.500000 0.365414
O O15 0.576276 0.576509 0.442478
O O16 0.568900 0.585490 0.310854
O O17 0.125027 0.047952 0.244939
#
# Coordination Sequence:
#
# PCOD9360309 Si02
#       8
#     8   8   8   8   8   4   8   8
#     4  10  19  34  55  88 119 147 193 239 291 345
#     4  10  23  41  58  81 116 161 194 235 291 356
#     4  10  20  36  59  87 117 151 194 242 293 348
#     4   9  18  35  58  84 115 150 186 238 295 344
#     4  11  22  34  57  87 121 152 188 245 298 347
#     4  10  24  38  62  82 118 160 200 238 290 364
#     4  10  21  37  56  85 116 150 196 240 287 353
#     4  11  22  39  59  88 119 155 199 240 299 349
#
# _framework density 17.86694
#
# number of rings (size 3 to 8) (size 9 to 14) (size 15 to 20)
#    0.000    1.867    4.000    2.000    3.733    6.400 
#    0.000    0.667    0.000    0.800    0.000    0.000 
#    0.000    0.000    0.000    0.000    0.000    0.000 
#
# Total GULP energy -167116.342968 kJ/mol
# GULP energy per Si atom -5570.544766 kJ/mol
# Density = 1.782627 g / cm^3
# Si number density = 17.866940 Si / 1000 Ang^3
#
#
#
# Elastic Constant Matrix: (Units=GPa)
#
#
# Indices 1 2 3 4 5 6 
#
# 1 102.5603 32.8802 24.6534 0.0000 0.0000 0.0000
# 2 32.8802 136.6121 36.0192 0.0000 0.0000 0.0000
# 3 24.6534 36.0192 56.4736 0.0000 0.0000 0.0000
# 4 0.0000 0.0000 0.0000 19.7192 0.0000 0.0000
# 5 0.0000 0.0000 0.0000 0.0000 8.9573 0.0000
# 6 0.0000 0.0000 0.0000 0.0000 0.0000 22.5597
#
#
#
# Elastic Compliance Matrix: (Units=1/GPa)
#
#
# Indices 1 2 3 4 5 6 
#
# 1 0.011210 -0.001692 -0.003814 0.000000 0.000000 0.000000
# 2 -0.001692 0.009055 -0.005037 0.000000 0.000000 0.000000
# 3 -0.003814 -0.005037 0.022585 0.000000 0.000000 0.000000
# 4 0.000000 0.000000 0.000000 0.050712 0.000000 0.000000
# 5 0.000000 0.000000 0.000000 0.000000 0.111641 0.000000
# 6 0.000000 0.000000 0.000000 0.000000 0.000000 0.044327
#
#
# Mechanical properties :
#
#
# Convention : Reuss Voigt Hill
#
# Bulk Modulus (GPa) = 45.94866 53.63909 49.79388
# Shear Modulus (GPa) = 17.99397 23.72012 20.85705
#
# Velocity S-wave (km/s) = 3.17694 3.64758 3.42036
# Velocity P-wave (km/s) = 6.26341 6.91566 6.59760
#
# Compressibility (1/GPa) = 0.02176342
#
# Stress axis : x y z
#
# Youngs Moduli (GPa) = 89.20788 110.43252 44.27730
#
# Poissons Ratio (x) = 0.18689 0.16888
# Poissons Ratio (y) = 0.15097 0.22301
# Poissons Ratio (z) = 0.34026 0.55622
#
# Static dielectric constant tensor:
#      x y z
#    x 1.645180 0.000000 0.000000 
#    y 0.000000 1.684760 0.000000 
#    z 0.000000 0.000000 1.593350 
# 
# From -- ./inp_files/11157.got.cif
#   From: 2010.05.17/outbox.cif.g08.bks.cpg/sg39_6_cif.got.tgz:11157.got - 2010.06.03 18:22:40.
