data_PCOD9360012
_publ_section_title
;
Structure prediction by ZEFSAII (Michael W. Deem and Ramdas Pophale) SiO2 
 PCOD9360012
Probable space group: A B M 2
;
_chemical_formula_sum "Si O2"
_cell_formula_units_Z 60
_cell_length_a 9.613427
_cell_length_b 20.234435
_cell_length_c 15.144971
_cell_angle_alpha 90.000000
_cell_angle_beta 90.000000
_cell_angle_gamma 90.000000
_cell_volume 2946.034043
_symmetry_space_group_name_H-M "A B M 2"
_symmetry_group_IT_number 39
_symmetry_cell_setting 'orthorhombic'
loop_
_space_group_symop_operation_xyz
x,y,z
-x,-y,z
-x,1/2+y,z
x,1/2-y,z
x,1/2+y,1/2+z
-x,1/2-y,1/2+z
-x,y,1/2+z
x,-y,1/2+z
loop_
_atom_site_type_symbol
_atom_site_label
_atom_site_fract_x
_atom_site_fract_y
_atom_site_fract_z
Si Si1 0.823439 0.390359 0.033400
Si Si2 0.592466 0.250000 0.615825
Si Si3 0.653129 0.648854 0.956519
Si Si4 0.020819 0.327564 0.694943
Si Si5 0.340578 0.022951 0.070606
Si Si6 0.036715 0.673190 0.399769
Si Si7 0.287681 0.133046 0.209798
Si Si8 0.364604 0.828092 0.892500
O O1 0.878505 0.363484 0.126865
O O2 0.766188 0.463696 0.051091
O O3 0.696470 0.350919 0.987162
O O4 0.949212 0.374115 0.964813
O O5 0.605511 0.193158 0.538729
O O6 0.600836 0.309603 0.689456
O O7 0.669465 0.574803 0.990948
O O8 0.802384 0.672872 0.925597
O O9 0.527580 0.655556 0.888173
O O10 0.050077 0.250000 0.688675
O O11 0.032065 0.347164 0.797303
O O12 0.858622 0.338964 0.671912
O O13 0.311149 0.064342 0.160159
O O14 0.500000 0.000000 0.074806
O O15 0.985064 0.750000 0.407830
O O16 0.285531 0.131860 0.315730
O O17 0.341419 0.750000 0.883389
#
# Coordination Sequence:
#
# PCOD9360012 Si02
#       8
#     8   4   8   8   8   8   8   8
#     4  12  25  44  70  99 142 188 231 292 348 428
#     4  10  18  38  66  98 128 176 230 288 352 402
#     4  11  23  42  70  97 140 185 230 289 355 420
#     4  11  23  42  68 109 142 172 233 302 367 414
#     4  11  26  48  64  96 142 191 241 277 348 430
#     4  11  23  43  69 107 140 176 229 302 364 414
#     4  11  23  42  71  99 140 186 232 292 358 431
#     4  12  22  43  72 109 134 179 244 300 355 416
#
# _framework density 20.366363
#
# number of rings (size 3 to 8) (size 9 to 14) (size 15 to 20)
#    0.000    0.800    5.333    2.800    0.000    3.200 
#    4.800    1.333    0.000    0.000    0.000    0.000 
#    0.000    0.000    0.000    0.000    0.000    0.000 
#
# Total GULP energy -167010.297183 kJ/mol
# GULP energy per Si atom -5567.009906 kJ/mol
# Density = 2.032001 g / cm^3
# Si number density = 20.366363 Si / 1000 Ang^3
#
#
#
# Elastic Constant Matrix: (Units=GPa)
#
#
# Indices 1 2 3 4 5 6 
#
# 1 101.8804 46.0343 43.0911 0.0000 0.0000 0.0000
# 2 46.0343 132.7927 70.2235 0.0000 0.0000 0.0000
# 3 43.0911 70.2235 111.9110 0.0000 0.0000 0.0000
# 4 0.0000 0.0000 0.0000 12.2477 0.0000 0.0000
# 5 0.0000 0.0000 0.0000 0.0000 24.8068 0.0000
# 6 0.0000 0.0000 0.0000 0.0000 0.0000 -18.7727
#
#
#
# Elastic Compliance Matrix: (Units=1/GPa)
#
#
# Indices 1 2 3 4 5 6 
#
# 1 0.012312 -0.002636 -0.003087 0.000000 0.000000 0.000000
# 2 -0.002636 0.011835 -0.006411 0.000000 0.000000 0.000000
# 3 -0.003087 -0.006411 0.014147 0.000000 0.000000 0.000000
# 4 0.000000 0.000000 0.000000 0.081648 0.000000 0.000000
# 5 0.000000 0.000000 0.000000 0.000000 0.040312 0.000000
# 6 0.000000 0.000000 0.000000 0.000000 0.000000 -0.053269
#
#
# Mechanical properties :
#
#
# Convention : Reuss Voigt Hill
#
# Bulk Modulus (GPa) = 71.29481 73.92022 72.60751
# Shear Modulus (GPa) = 36.78425 16.13871 26.46148
#
# Velocity S-wave (km/s) = 4.25447 2.81805 3.60845
# Velocity P-wave (km/s) = 7.69520 6.85292 7.28624
#
# Compressibility (1/GPa) = 0.01402627
#
# Stress axis : x y z
#
# Youngs Moduli (GPa) = 81.22187 84.49744 70.68494
#
# Poissons Ratio (x) = 0.22271 0.21819
# Poissons Ratio (y) = 0.21408 0.45318
# Poissons Ratio (z) = 0.25071 0.54174
#
# Static dielectric constant tensor:
#      x y z
#    x 1.777300 0.000000 0.000000 
#    y 0.000000 1.750460 0.000000 
#    z 0.000000 0.000000 1.783830 
# 
# From -- ./inp_files/11818.got.cif
#   From: 2010.05.17/outbox.cif.g08.bks.cpg/sg39_6_cif.got.tgz:11818.got - 2010.06.03 18:22:40.
