data_PCOD9360416
_publ_section_title
;
Structure prediction by ZEFSAII (Michael W. Deem and Ramdas Pophale) SiO2 
 PCOD9360416
Probable space group: A B M 2
;
_chemical_formula_sum "Si O2"
_cell_formula_units_Z 56
_cell_length_a 11.484246
_cell_length_b 15.562714
_cell_length_c 15.003608
_cell_angle_alpha 90.000000
_cell_angle_beta 90.000000
_cell_angle_gamma 90.000000
_cell_volume 2681.535384
_symmetry_space_group_name_H-M "A B M 2"
_symmetry_group_IT_number 39
_symmetry_cell_setting 'orthorhombic'
loop_
_space_group_symop_operation_xyz
x,y,z
-x,-y,z
-x,1/2+y,z
x,1/2-y,z
x,1/2+y,1/2+z
-x,1/2-y,1/2+z
-x,y,1/2+z
x,-y,1/2+z
loop_
_atom_site_type_symbol
_atom_site_label
_atom_site_fract_x
_atom_site_fract_y
_atom_site_fract_z
Si Si1 0.673204 0.849986 0.412100
Si Si2 0.856948 0.655379 0.174410
Si Si3 0.835699 0.456792 0.144423
Si Si4 0.038007 0.402004 0.814389
Si Si5 0.587490 0.847424 0.233100
Si Si6 0.920494 0.148433 0.978832
Si Si7 0.575443 0.424203 0.082855
O O1 0.687460 0.750000 0.388633
O O2 0.602203 0.889690 0.330281
O O3 0.804156 0.884145 0.425965
O O4 0.606135 0.858093 0.504854
O O5 0.879697 0.750000 0.129659
O O6 0.871639 0.557262 0.138631
O O7 0.720332 0.656170 0.198334
O O8 0.941185 0.652098 0.260294
O O9 0.858221 0.414164 0.242087
O O10 0.699985 0.452774 0.120607
O O11 0.906763 0.400662 0.072076
O O12 0.000000 0.500000 0.825683
O O13 0.032607 0.366818 0.915580
O O14 0.542539 0.750000 0.241862
O O15 0.503994 0.892194 0.163324
O O16 0.906599 0.250000 0.993771
O O17 0.500000 0.500000 0.039791
#
# Coordination Sequence:
#
# PCOD9360416 Si02
#       7
#     8   8   8   8   8   8   8
#     4   9  19  36  59  87 115 157 215 263 309 381
#     4  10  19  37  64  90 117 166 218 261 319 387
#     4  10  23  40  61  96 132 167 217 271 326 390
#     4  10  21  37  61  90 121 159 210 269 314 383
#     4  10  19  35  62  87 119 165 215 263 318 391
#     4  10  20  38  64  90 122 166 213 261 327 398
#     4  11  21  36  58  91 128 168 208 264 328 386
#
# _framework density 20.883558000000001
#
# number of rings (size 3 to 8) (size 9 to 14) (size 15 to 20)
#    0.000    2.000    2.857    0.857    0.000    4.000 
#    0.000    0.000    3.143    3.429    0.000    0.000 
#    0.000    0.000    0.000    0.000    0.000    0.000 
#
# Total GULP energy -155906.795819 kJ/mol
# GULP energy per Si atom -5568.099851 kJ/mol
# Density = 2.083603 g / cm^3
# Si number density = 20.883558 Si / 1000 Ang^3
#
#
#
# Elastic Constant Matrix: (Units=GPa)
#
#
# Indices 1 2 3 4 5 6 
#
# 1 83.1322 12.3292 23.7516 0.0000 0.0000 0.0000
# 2 12.3292 103.9907 30.2239 0.0000 0.0000 0.0000
# 3 23.7516 30.2239 88.7911 0.0000 0.0000 0.0000
# 4 0.0000 0.0000 0.0000 24.9302 0.0000 0.0000
# 5 0.0000 0.0000 0.0000 0.0000 33.2686 0.0000
# 6 0.0000 0.0000 0.0000 0.0000 0.0000 6.2050
#
#
#
# Elastic Compliance Matrix: (Units=1/GPa)
#
#
# Indices 1 2 3 4 5 6 
#
# 1 0.013057 -0.000591 -0.003291 0.000000 0.000000 0.000000
# 2 -0.000591 0.010699 -0.003484 0.000000 0.000000 0.000000
# 3 -0.003291 -0.003484 0.013329 0.000000 0.000000 0.000000
# 4 0.000000 0.000000 0.000000 0.040112 0.000000 0.000000
# 5 0.000000 0.000000 0.000000 0.000000 0.030058 0.000000
# 6 0.000000 0.000000 0.000000 0.000000 0.000000 0.161161
#
#
# Mechanical properties :
#
#
# Convention : Reuss Voigt Hill
#
# Bulk Modulus (GPa) = 44.73945 45.39149 45.06547
# Shear Modulus (GPa) = 17.20579 26.85470 22.03025
#
# Velocity S-wave (km/s) = 2.87347 3.58987 3.25146
# Velocity P-wave (km/s) = 5.69902 6.24224 5.97681
#
# Compressibility (1/GPa) = 0.02235164
#
# Stress axis : x y z
#
# Youngs Moduli (GPa) = 76.58640 93.46811 75.02634
#
# Poissons Ratio (x) = 0.05528 0.24695
# Poissons Ratio (y) = 0.04530 0.26136
# Poissons Ratio (z) = 0.25208 0.32561
#
# Static dielectric constant tensor:
#      x y z
#    x 1.749230 0.000000 0.000000 
#    y 0.000000 1.790540 0.000000 
#    z 0.000000 0.000000 1.825960 
# 
# From -- ./inp_files/9272.got.cif
#   From: 2010.05.17/outbox.cif.g08.bks.cpg/sg39_5_cif.got.tgz:9272.got - 2010.06.03 18:22:40.
