data_PCOD9360891
_publ_section_title
;
Structure prediction by ZEFSAII (Michael W. Deem and Ramdas Pophale) SiO2 
 PCOD9360891
Probable space group: A B M 2
;
_chemical_formula_sum "Si O2"
_cell_formula_units_Z 64
_cell_length_a 20.997319
_cell_length_b 8.693050
_cell_length_c 18.771621
_cell_angle_alpha 90.000000
_cell_angle_beta 90.000000
_cell_angle_gamma 90.000000
_cell_volume 3426.397946
_symmetry_space_group_name_H-M "A B M 2"
_symmetry_group_IT_number 39
_symmetry_cell_setting 'orthorhombic'
loop_
_space_group_symop_operation_xyz
x,y,z
-x,-y,z
-x,1/2+y,z
x,1/2-y,z
x,1/2+y,1/2+z
-x,1/2-y,1/2+z
-x,y,1/2+z
x,-y,1/2+z
loop_
_atom_site_type_symbol
_atom_site_label
_atom_site_fract_x
_atom_site_fract_y
_atom_site_fract_z
Si Si1 0.930566 0.933714 0.672910
Si Si2 0.188718 0.934798 0.928287
Si Si3 0.931235 0.434463 0.830008
Si Si4 0.186252 0.067274 0.085559
Si Si5 0.693888 0.934717 0.671172
Si Si6 0.309298 0.064187 0.329485
Si Si7 0.568388 0.564655 0.420612
Si Si8 0.431561 0.564739 0.085508
O O1 0.933100 0.750000 0.674014
O O2 0.916054 0.995373 0.752504
O O3 0.876411 0.991661 0.619903
O O4 0.000000 0.000000 0.653603
O O5 0.190362 0.750000 0.940316
O O6 0.124059 0.971804 0.885824
O O7 0.248707 0.974184 0.878504
O O8 0.191964 0.018033 0.003572
O O9 0.935145 0.250000 0.822889
O O10 0.000000 0.500000 0.851769
O O11 0.181961 0.250000 0.092401
O O12 0.247441 0.006504 0.128349
O O13 0.698277 0.750000 0.666889
O O14 0.627399 0.983498 0.634342
O O15 0.695547 0.988273 0.752566
O O16 0.310126 0.250000 0.321201
O O17 0.373607 0.016400 0.370465
O O18 0.500000 0.500000 0.397998
O O19 0.565923 0.750000 0.419692
O O20 0.579354 0.516999 0.503030
O O21 0.500000 0.500000 0.108294
O O22 0.434666 0.750000 0.086803
#
# Coordination Sequence:
#
# PCOD9360891 Si02
#       8
#     8   8   8   8   8   8   8   8
#     4  11  22  39  63  89 120 155 193 236 284 339
#     4  10  22  40  60  82 112 150 191 237 287 338
#     4  10  20  36  60  88 119 154 191 233 283 338
#     4  12  25  40  60  86 116 151 194 240 288 343
#     4  11  23  39  59  84 116 152 193 239 288 342
#     4  10  21  38  59  82 112 149 190 236 286 340
#     4   9  18  34  56  80 109 146 186 231 283 338
#     4   9  19  36  58  83 112 149 190 234 285 340
#
# _framework density 18.678507
#
# number of rings (size 3 to 8) (size 9 to 14) (size 15 to 20)
#    0.000    1.750    0.000    5.250    0.000    7.000 
#    0.000    6.250    0.000    0.000    0.000    0.000 
#    0.000    0.000    0.000    0.000    0.000    0.000 
#
# Total GULP energy -178859.522037 kJ/mol
# GULP energy per Si atom -5589.360064 kJ/mol
# Density = 1.863599 g / cm^3
# Si number density = 18.678507 Si / 1000 Ang^3
#
#
#
# Elastic Constant Matrix: (Units=GPa)
#
#
# Indices 1 2 3 4 5 6 
#
# 1 155.8711 65.5967 112.2480 0.0000 0.0000 0.0000
# 2 65.5967 74.5666 62.0658 0.0000 0.0000 0.0000
# 3 112.2480 62.0658 132.1493 0.0000 0.0000 0.0000
# 4 0.0000 0.0000 0.0000 36.8205 0.0000 0.0000
# 5 0.0000 0.0000 0.0000 0.0000 39.7003 0.0000
# 6 0.0000 0.0000 0.0000 0.0000 0.0000 28.8599
#
#
#
# Elastic Compliance Matrix: (Units=1/GPa)
#
#
# Indices 1 2 3 4 5 6 
#
# 1 0.017582 -0.004985 -0.012593 0.000000 0.000000 0.000000
# 2 -0.004985 0.023432 -0.006771 0.000000 0.000000 0.000000
# 3 -0.012593 -0.006771 0.021444 0.000000 0.000000 0.000000
# 4 0.000000 0.000000 0.000000 0.027159 0.000000 0.000000
# 5 0.000000 0.000000 0.000000 0.000000 0.025189 0.000000
# 6 0.000000 0.000000 0.000000 0.000000 0.000000 0.034650
#
#
# Mechanical properties :
#
#
# Convention : Reuss Voigt Hill
#
# Bulk Modulus (GPa) = 72.67432 93.60088 83.13760
# Shear Modulus (GPa) = 24.66215 29.25455 26.95835
#
# Velocity S-wave (km/s) = 3.63760 3.96184 3.80318
# Velocity P-wave (km/s) = 7.52564 8.43496 7.99324
#
# Compressibility (1/GPa) = 0.01376002
#
# Stress axis : x y z
#
# Youngs Moduli (GPa) = 56.87584 42.67658 46.63414
#
# Poissons Ratio (x) = 0.21276 0.58726
# Poissons Ratio (y) = 0.28355 0.31574
# Poissons Ratio (z) = 0.71623 0.28895
#
# Static dielectric constant tensor:
#      x y z
#    x 1.625870 0.000000 0.000000 
#    y 0.000000 1.632450 0.000000 
#    z 0.000000 0.000000 1.614080 
# 
# From -- ./inp_files/13237.got.cif
#   From: 2010.05.17/outbox.cif.g08.bks.cpg/sg39_7_cif.got.tgz:13237.got - 2010.06.03 18:22:40.
