data_PCOD9360510
_publ_section_title
;
Structure prediction by ZEFSAII (Michael W. Deem and Ramdas Pophale) SiO2 
 PCOD9360510
Probable space group: A B M 2
;
_chemical_formula_sum "Si O2"
_cell_formula_units_Z 44
_cell_length_a 15.348797
_cell_length_b 7.700348
_cell_length_c 19.065980
_cell_angle_alpha 90.000000
_cell_angle_beta 90.000000
_cell_angle_gamma 90.000000
_cell_volume 2253.428735
_symmetry_space_group_name_H-M "A B M 2"
_symmetry_group_IT_number 39
_symmetry_cell_setting 'orthorhombic'
loop_
_space_group_symop_operation_xyz
x,y,z
-x,-y,z
-x,1/2+y,z
x,1/2-y,z
x,1/2+y,1/2+z
-x,1/2-y,1/2+z
-x,y,1/2+z
x,-y,1/2+z
loop_
_atom_site_type_symbol
_atom_site_label
_atom_site_fract_x
_atom_site_fract_y
_atom_site_fract_z
Si Si1 0.388009 0.750000 0.579411
Si Si2 0.379146 0.041640 0.690459
Si Si3 0.170375 0.451932 0.676899
Si Si4 0.099756 0.451480 0.327089
Si Si5 0.599719 0.250000 0.418982
Si Si6 0.192262 0.750000 0.411537
Si Si7 0.500000 0.500000 0.316532
Si Si8 0.177376 0.250000 0.070288
O O1 0.407468 0.576583 0.624424
O O2 0.426178 0.750000 0.500972
O O3 0.282968 0.750000 0.571540
O O4 0.400749 0.250000 0.687405
O O5 0.274103 0.031327 0.693612
O O6 0.425240 0.957080 0.758340
O O7 0.152987 0.250000 0.661799
O O8 0.118923 0.511925 0.745447
O O9 0.149395 0.579330 0.612827
O O10 0.115753 0.250000 0.342512
O O11 0.160513 0.580632 0.370448
O O12 0.000000 0.500000 0.342143
O O13 0.703644 0.250000 0.415499
O O14 0.559823 0.402412 0.372720
O O15 0.152429 0.750000 0.489398
#
# Coordination Sequence:
#
# PCOD9360510 Si02
#       8
#     4   8   8   8   4   4   4   4
#     4   9  21  41  62  86 121 169 213 263 320 391
#     4  10  21  39  64  91 122 167 219 265 321 376
#     4  10  19  38  67  96 124 166 216 270 315 383
#     4  12  23  40  69  99 131 171 217 261 323 386
#     4  11  25  45  60  93 135 169 211 276 324 371
#     4  11  24  46  66  93 138 172 211 271 320 392
#     4  12  22  40  60  88 128 162 216 270 316 366
#     4   9  20  38  64  92 126 164 217 260 322 382
#
# _framework density 19.525801000000001
#
# number of rings (size 3 to 8) (size 9 to 14) (size 15 to 20)
#    0.000    1.455    3.636    1.636    0.000    1.455 
#    6.545    2.727    0.000    0.000    0.000    0.000 
#    0.000    0.000    0.000    0.000    0.000    0.000 
#
# Total GULP energy -122621.657572 kJ/mol
# GULP energy per Si atom -5573.711708 kJ/mol
# Density = 1.948136 g / cm^3
# Si number density = 19.525801 Si / 1000 Ang^3
#
#
#
# Elastic Constant Matrix: (Units=GPa)
#
#
# Indices 1 2 3 4 5 6 
#
# 1 51.6226 33.8783 17.0341 0.0000 0.0000 0.0000
# 2 33.8783 153.2819 68.4482 0.0000 0.0000 0.0000
# 3 17.0341 68.4482 168.7804 0.0000 0.0000 0.0000
# 4 0.0000 0.0000 0.0000 29.4962 0.0000 0.0000
# 5 0.0000 0.0000 0.0000 0.0000 -12.0300 0.0000
# 6 0.0000 0.0000 0.0000 0.0000 0.0000 6.2942
#
#
#
# Elastic Compliance Matrix: (Units=1/GPa)
#
#
# Indices 1 2 3 4 5 6 
#
# 1 0.022671 -0.004871 -0.000313 0.000000 0.000000 0.000000
# 2 -0.004871 0.009013 -0.003164 0.000000 0.000000 0.000000
# 3 -0.000313 -0.003164 0.007239 0.000000 0.000000 0.000000
# 4 0.000000 0.000000 0.000000 0.033903 0.000000 0.000000
# 5 0.000000 0.000000 0.000000 0.000000 -0.083125 0.000000
# 6 0.000000 0.000000 0.000000 0.000000 0.000000 0.158877
#
#
# Mechanical properties :
#
#
# Convention : Reuss Voigt Hill
#
# Bulk Modulus (GPa) = 44.98614 68.04511 56.51562
# Shear Modulus (GPa) = 28.95468 21.70702 25.33085
#
# Velocity S-wave (km/s) = 3.85501 3.33785 3.60571
# Velocity P-wave (km/s) = 6.55013 7.05546 6.80748
#
# Compressibility (1/GPa) = 0.02222907
#
# Stress axis : x y z
#
# Youngs Moduli (GPa) = 44.10859 110.94704 138.13249
#
# Poissons Ratio (x) = 0.54045 0.04318
# Poissons Ratio (y) = 0.21486 0.43701
# Poissons Ratio (z) = 0.01379 0.35100
#
# Static dielectric constant tensor:
#      x y z
#    x 1.682450 0.000000 0.000000 
#    y 0.000000 1.698120 0.000000 
#    z 0.000000 0.000000 1.649720 
# 
# From -- ./inp_files/12626.got.cif
#   From: 2010.05.17/outbox.cif.g08.bks.cpg/sg39_7_cif.got.tgz:12626.got - 2010.06.03 18:22:40.
