data_PCOD9360610
_publ_section_title
;
Structure prediction by ZEFSAII (Michael W. Deem and Ramdas Pophale) SiO2 
 PCOD9360610
Probable space group: A B M 2
;
_chemical_formula_sum "Si O2"
_cell_formula_units_Z 56
_cell_length_a 20.565324
_cell_length_b 9.179337
_cell_length_c 14.891164
_cell_angle_alpha 90.000000
_cell_angle_beta 90.000000
_cell_angle_gamma 90.000000
_cell_volume 2811.094964
_symmetry_space_group_name_H-M "A B M 2"
_symmetry_group_IT_number 39
_symmetry_cell_setting 'orthorhombic'
loop_
_space_group_symop_operation_xyz
x,y,z
-x,-y,z
-x,1/2+y,z
x,1/2-y,z
x,1/2+y,1/2+z
-x,1/2-y,1/2+z
-x,y,1/2+z
x,-y,1/2+z
loop_
_atom_site_type_symbol
_atom_site_label
_atom_site_fract_x
_atom_site_fract_y
_atom_site_fract_z
Si Si1 0.569946 0.574878 0.811920
Si Si2 0.332147 0.078074 0.966842
Si Si3 0.937557 0.414170 0.914739
Si Si4 0.063225 0.585365 0.699842
Si Si5 0.671217 0.424504 0.679099
Si Si6 0.803153 0.415570 0.169482
Si Si7 0.796614 0.085514 0.954236
O O1 0.500000 0.500000 0.807872
O O2 0.565246 0.750000 0.801158
O O3 0.605274 0.543347 0.907041
O O4 0.616827 0.505628 0.736863
O O5 0.320056 0.250000 0.959582
O O6 0.268578 0.997608 0.928852
O O7 0.340195 0.046053 0.072643
O O8 0.936149 0.250000 0.953175
O O9 0.944726 0.403273 0.807497
O O10 0.866520 0.482599 0.930774
O O11 0.000000 0.500000 0.949341
O O12 0.067880 0.750000 0.663606
O O13 0.128871 0.495525 0.685272
O O14 0.000000 0.500000 0.665173
O O15 0.670026 0.250000 0.692889
O O16 0.741948 0.490612 0.702852
O O17 0.802840 0.250000 0.205398
O O18 0.795298 0.406599 0.061999
O O19 0.795689 0.250000 0.916366
#
# Coordination Sequence:
#
# PCOD9360610 Si02
#       7
#     8   8   8   8   8   8   8
#     4  11  24  42  63  93 124 156 197 237 287 349
#     4   9  21  40  61  88 121 155 196 241 289 346
#     4   9  19  34  50  73 103 140 185 231 281 337
#     4  10  20  34  51  74 106 145 190 238 290 346
#     4  10  21  40  63  89 122 159 198 243 292 346
#     4  10  20  35  55  81 112 146 187 236 289 346
#     4   9  19  35  55  80 109 143 186 232 285 343
#
# _framework density 19.921064999999999
#
# number of rings (size 3 to 8) (size 9 to 14) (size 15 to 20)
#    0.000    2.286    0.000    1.714    2.000    4.571 
#    0.000    2.857    0.000    0.000    0.000    0.000 
#    0.000    0.000    0.000    0.000    0.000    0.000 
#
# Total GULP energy -156312.376101 kJ/mol
# GULP energy per Si atom -5582.584861 kJ/mol
# Density = 1.987572 g / cm^3
# Si number density = 19.921065 Si / 1000 Ang^3
#
#
#
# Elastic Constant Matrix: (Units=GPa)
#
#
# Indices 1 2 3 4 5 6 
#
# 1 211.5002 99.7048 41.4532 0.0000 0.0000 0.0000
# 2 99.7048 114.1866 40.9550 0.0000 0.0000 0.0000
# 3 41.4532 40.9550 48.7008 0.0000 0.0000 0.0000
# 4 0.0000 0.0000 0.0000 9.8774 0.0000 0.0000
# 5 0.0000 0.0000 0.0000 0.0000 40.3204 0.0000
# 6 0.0000 0.0000 0.0000 0.0000 0.0000 38.3610
#
#
#
# Elastic Compliance Matrix: (Units=1/GPa)
#
#
# Indices 1 2 3 4 5 6 
#
# 1 0.008098 -0.006585 -0.001355 0.000000 0.000000 0.000000
# 2 -0.006585 0.017894 -0.009443 0.000000 0.000000 0.000000
# 3 -0.001355 -0.009443 0.029629 0.000000 0.000000 0.000000
# 4 0.000000 0.000000 0.000000 0.101242 0.000000 0.000000
# 5 0.000000 0.000000 0.000000 0.000000 0.024801 0.000000
# 6 0.000000 0.000000 0.000000 0.000000 0.000000 0.026068
#
#
# Mechanical properties :
#
#
# Convention : Reuss Voigt Hill
#
# Bulk Modulus (GPa) = 47.95280 82.06818 65.01049
# Shear Modulus (GPa) = 20.04405 30.53005 25.28705
#
# Velocity S-wave (km/s) = 3.17547 3.91903 3.56668
# Velocity P-wave (km/s) = 6.12931 7.85904 7.04744
#
# Compressibility (1/GPa) = 0.02085384
#
# Stress axis : x y z
#
# Youngs Moduli (GPa) = 123.48785 55.88356 33.75114
#
# Poissons Ratio (x) = 0.36798 0.04574
# Poissons Ratio (y) = 0.81315 0.31873
# Poissons Ratio (z) = 0.16736 0.52773
#
# Static dielectric constant tensor:
#      x y z
#    x 1.669160 0.000000 0.000000 
#    y 0.000000 1.708200 0.000000 
#    z 0.000000 0.000000 1.728860 
# 
# From -- ./inp_files/10385.got.cif
#   From: 2010.05.17/outbox.cif.g08.bks.cpg/sg39_6_cif.got.tgz:10385.got - 2010.06.03 18:22:40.
