data_PCOD9360332
_publ_section_title
;
Structure prediction by ZEFSAII (Michael W. Deem and Ramdas Pophale) SiO2 
 PCOD9360332
Probable space group: A B M 2
;
_chemical_formula_sum "Si O2"
_cell_formula_units_Z 64
_cell_length_a 20.147699
_cell_length_b 8.829986
_cell_length_c 20.674955
_cell_angle_alpha 90.000000
_cell_angle_beta 90.000000
_cell_angle_gamma 90.000000
_cell_volume 3678.155129
_symmetry_space_group_name_H-M "A B M 2"
_symmetry_group_IT_number 39
_symmetry_cell_setting 'orthorhombic'
loop_
_space_group_symop_operation_xyz
x,y,z
-x,-y,z
-x,1/2+y,z
x,1/2-y,z
x,1/2+y,1/2+z
-x,1/2-y,1/2+z
-x,y,1/2+z
x,-y,1/2+z
loop_
_atom_site_type_symbol
_atom_site_label
_atom_site_fract_x
_atom_site_fract_y
_atom_site_fract_z
Si Si1 0.572826 0.567156 0.902320
Si Si2 0.335227 0.931737 0.519466
Si Si3 0.682926 0.566728 0.797934
Si Si4 0.303176 0.568815 0.151770
Si Si5 0.816492 0.068359 0.483902
Si Si6 0.071767 0.068519 0.235252
Si Si7 0.849393 0.068582 0.117804
Si Si8 0.821952 0.931396 0.346280
O O1 0.500000 0.500000 0.896403
O O2 0.568967 0.750000 0.903178
O O3 0.621333 0.524241 0.843236
O O4 0.609546 0.517458 0.968422
O O5 0.337138 0.750000 0.522631
O O6 0.261723 0.972878 0.493120
O O7 0.341000 0.996812 0.591331
O O8 0.689936 0.750000 0.800448
O O9 0.674177 0.521600 0.723111
O O10 0.750702 0.496114 0.824717
O O11 0.308742 0.750000 0.147193
O O12 0.225099 0.530400 0.143212
O O13 0.821459 0.250000 0.484006
O O14 0.853506 0.999511 0.545942
O O15 0.839288 0.001396 0.415811
O O16 0.068104 0.250000 0.231006
O O17 0.124084 0.028556 0.291697
O O18 0.099303 0.001870 0.168069
O O19 0.000000 0.000000 0.249405
O O20 0.855590 0.250000 0.116034
O O21 0.818433 0.750000 0.351175
#
# Coordination Sequence:
#
# PCOD9360332 Si02
#       8
#     8   8   8   8   8   8   8   8
#     4  10  21  37  55  78 109 149 190 231 282 342
#     4   9  18  33  53  77 108 142 178 226 277 331
#     4  10  19  36  57  80 111 148 188 229 285 341
#     4   9  18  31  54  83 109 139 178 227 276 329
#     4  10  19  34  57  83 114 147 183 232 286 335
#     4  11  24  40  58  83 116 154 192 234 285 343
#     4  10  19  34  57  85 114 145 185 231 280 338
#     4  11  22  35  56  87 116 145 190 241 286 336
#
# _framework density 17.400027999999999
#
# number of rings (size 3 to 8) (size 9 to 14) (size 15 to 20)
#    0.000    2.000    2.500    1.500    0.000    4.000 
#    0.000    1.250    0.000    4.500    0.000    0.000 
#    0.000    0.000    0.000    0.000    0.000    0.000 
#
# Total GULP energy -178629.189222 kJ/mol
# GULP energy per Si atom -5582.162163 kJ/mol
# Density = 1.736043 g / cm^3
# Si number density = 17.400028 Si / 1000 Ang^3
#
#
#
# Elastic Constant Matrix: (Units=GPa)
#
#
# Indices 1 2 3 4 5 6 
#
# 1 98.3635 35.6584 64.0549 0.0000 0.0000 0.0000
# 2 35.6584 31.6756 44.1553 0.0000 0.0000 0.0000
# 3 64.0549 44.1553 162.1848 0.0000 0.0000 0.0000
# 4 0.0000 0.0000 0.0000 31.9482 0.0000 0.0000
# 5 0.0000 0.0000 0.0000 0.0000 25.6137 0.0000
# 6 0.0000 0.0000 0.0000 0.0000 0.0000 27.4129
#
#
#
# Elastic Compliance Matrix: (Units=1/GPa)
#
#
# Indices 1 2 3 4 5 6 
#
# 1 0.017801 -0.016502 -0.002538 0.000000 0.000000 0.000000
# 2 -0.016502 0.066176 -0.011499 0.000000 0.000000 0.000000
# 3 -0.002538 -0.011499 0.010299 0.000000 0.000000 0.000000
# 4 0.000000 0.000000 0.000000 0.031301 0.000000 0.000000
# 5 0.000000 0.000000 0.000000 0.000000 0.039042 0.000000
# 6 0.000000 0.000000 0.000000 0.000000 0.000000 0.036479
#
#
# Mechanical properties :
#
#
# Convention : Reuss Voigt Hill
#
# Bulk Modulus (GPa) = 30.12171 64.44013 47.28092
# Shear Modulus (GPa) = 18.29877 26.88531 22.59204
#
# Velocity S-wave (km/s) = 3.24644 3.93508 3.60723
# Velocity P-wave (km/s) = 5.60369 7.60009 6.67693
#
# Compressibility (1/GPa) = 0.03319865
#
# Stress axis : x y z
#
# Youngs Moduli (GPa) = 56.17597 15.11111 97.09729
#
# Poissons Ratio (x) = 0.24936 0.24643
# Poissons Ratio (y) = 0.92699 1.11657
# Poissons Ratio (z) = 0.14257 0.17377
#
# Static dielectric constant tensor:
#      x y z
#    x 1.565500 0.000000 0.000000 
#    y 0.000000 1.583070 0.000000 
#    z 0.000000 0.000000 1.592340 
# 
# From -- ./inp_files/13095.got.cif
#   From: 2010.05.17/outbox.cif.g08.bks.cpg/sg39_7_cif.got.tgz:13095.got - 2010.06.03 18:22:40.
