data_PCOD9360261
_publ_section_title
;
Structure prediction by ZEFSAII (Michael W. Deem and Ramdas Pophale) SiO2 
 PCOD9360261
Probable space group: A B M 2
;
_chemical_formula_sum "Si O2"
_cell_formula_units_Z 64
_cell_length_a 24.446440
_cell_length_b 8.806159
_cell_length_c 15.826061
_cell_angle_alpha 90.000000
_cell_angle_beta 90.000000
_cell_angle_gamma 90.000000
_cell_volume 3407.022347
_symmetry_space_group_name_H-M "A B M 2"
_symmetry_group_IT_number 39
_symmetry_cell_setting 'orthorhombic'
loop_
_space_group_symop_operation_xyz
x,y,z
-x,-y,z
-x,1/2+y,z
x,1/2-y,z
x,1/2+y,1/2+z
-x,1/2-y,1/2+z
-x,y,1/2+z
x,-y,1/2+z
loop_
_atom_site_type_symbol
_atom_site_label
_atom_site_fract_x
_atom_site_fract_y
_atom_site_fract_z
Si Si1 0.744168 0.068069 0.660740
Si Si2 0.323530 0.066745 0.814722
Si Si3 0.135329 0.932594 0.154302
Si Si4 0.556819 0.431352 0.257790
Si Si5 0.557140 0.568999 0.557663
Si Si6 0.060355 0.567294 0.994591
Si Si7 0.670454 0.932867 0.002406
Si Si8 0.060317 0.567305 0.314132
O O1 0.744117 0.250000 0.662135
O O2 0.709135 0.016999 0.579003
O O3 0.714179 0.006098 0.743841
O O4 0.805611 0.008091 0.655207
O O5 0.321542 0.250000 0.805217
O O6 0.386798 0.018825 0.800819
O O7 0.307001 0.026838 0.910043
O O8 0.141782 0.750000 0.154481
O O9 0.100648 0.973262 0.237784
O O10 0.100777 0.973528 0.070825
O O11 0.500000 0.500000 0.290172
O O12 0.553191 0.250000 0.265278
O O13 0.561504 0.469234 0.157916
O O14 0.500000 0.500000 0.526503
O O15 0.556103 0.750000 0.549550
O O16 0.610307 0.501152 0.513890
O O17 0.056636 0.750000 0.989019
O O18 0.078515 0.499952 0.904357
O O19 0.000000 0.500000 0.011267
O O20 0.665728 0.750000 0.005689
O O21 0.056666 0.750000 0.319853
O O22 0.000000 0.500000 0.297483
#
# Coordination Sequence:
#
# PCOD9360261 Si02
#       8
#     8   8   8   8   8   8   8   8
#     4  11  24  40  59  84 112 146 192 243 287 330
#     4  10  21  40  61  81 111 150 188 229 285 344
#     4  10  23  40  59  82 114 156 195 233 282 337
#     4   9  18  32  54  81 108 143 179 220 275 334
#     4  10  19  33  56  84 113 147 183 225 281 340
#     4  10  20  36  59  89 122 156 191 232 281 333
#     4  10  22  39  59  83 112 146 186 234 286 341
#     4  10  20  36  59  88 120 154 189 230 281 333
#
# _framework density 18.784731000000001
#
# number of rings (size 3 to 8) (size 9 to 14) (size 15 to 20)
#    0.000    2.000    1.250    2.625    0.000    5.500 
#    0.000    5.000    0.000    0.000    0.000    0.000 
#    0.000    0.000    0.000    0.000    0.000    0.000 
#
# Total GULP energy -178745.143771 kJ/mol
# GULP energy per Si atom -5585.785743 kJ/mol
# Density = 1.874198 g / cm^3
# Si number density = 18.784731 Si / 1000 Ang^3
#
#
#
# Elastic Constant Matrix: (Units=GPa)
#
#
# Indices 1 2 3 4 5 6 
#
# 1 140.5970 44.3570 108.4485 0.0000 0.0000 0.0000
# 2 44.3570 30.9025 53.5764 0.0000 0.0000 0.0000
# 3 108.4485 53.5764 164.4000 0.0000 0.0000 0.0000
# 4 0.0000 0.0000 0.0000 21.5957 0.0000 0.0000
# 5 0.0000 0.0000 0.0000 0.0000 -5.6732 0.0000
# 6 0.0000 0.0000 0.0000 0.0000 0.0000 36.8033
#
#
#
# Elastic Compliance Matrix: (Units=1/GPa)
#
#
# Indices 1 2 3 4 5 6 
#
# 1 0.015870 -0.010643 -0.007000 0.000000 0.000000 0.000000
# 2 -0.010643 0.081528 -0.019549 0.000000 0.000000 0.000000
# 3 -0.007000 -0.019549 0.017071 0.000000 0.000000 0.000000
# 4 0.000000 0.000000 0.000000 0.046306 0.000000 0.000000
# 5 0.000000 0.000000 0.000000 0.000000 -0.176268 0.000000
# 6 0.000000 0.000000 0.000000 0.000000 0.000000 0.027171
#
#
# Mechanical properties :
#
#
# Convention : Reuss Voigt Hill
#
# Bulk Modulus (GPa) = 24.94643 83.18480 54.06562
# Shear Modulus (GPa) = 50.28992 19.17968 34.73480
#
# Velocity S-wave (km/s) = 5.17975 3.19881 4.30478
# Velocity P-wave (km/s) = 7.00586 7.61725 7.31795
#
# Compressibility (1/GPa) = 0.04008589
#
# Stress axis : x y z
#
# Youngs Moduli (GPa) = 63.01230 12.26572 58.57750
#
# Poissons Ratio (x) = 0.13054 0.41007
# Poissons Ratio (y) = 0.67061 1.14511
# Poissons Ratio (z) = 0.44112 0.23978
#
# Static dielectric constant tensor:
#      x y z
#    x 1.613060 0.000000 0.000000 
#    y 0.000000 1.632100 0.000000 
#    z 0.000000 0.000000 1.664070 
# 
# From -- ./inp_files/10612.got.cif
#   From: 2010.05.17/outbox.cif.g08.bks.cpg/sg39_6_cif.got.tgz:10612.got - 2010.06.03 18:22:40.
