data_PCOD9360028
_publ_section_title
;
Structure prediction by ZEFSAII (Michael W. Deem and Ramdas Pophale) SiO2 
 PCOD9360028
Probable space group: A B M 2
;
_chemical_formula_sum "Si O2"
_cell_formula_units_Z 64
_cell_length_a 14.849306
_cell_length_b 7.787655
_cell_length_c 32.604370
_cell_angle_alpha 90.000000
_cell_angle_beta 90.000000
_cell_angle_gamma 90.000000
_cell_volume 3770.410823
_symmetry_space_group_name_H-M "A B M 2"
_symmetry_group_IT_number 39
_symmetry_cell_setting 'orthorhombic'
loop_
_space_group_symop_operation_xyz
x,y,z
-x,-y,z
-x,1/2+y,z
x,1/2-y,z
x,1/2+y,1/2+z
-x,1/2-y,1/2+z
-x,y,1/2+z
x,-y,1/2+z
loop_
_atom_site_type_symbol
_atom_site_label
_atom_site_fract_x
_atom_site_fract_y
_atom_site_fract_z
Si Si1 0.787210 0.956077 0.538840
Si Si2 0.212180 0.539411 0.199203
Si Si3 0.105960 0.456469 0.868513
Si Si4 0.599700 0.543623 0.571223
Si Si5 0.400165 0.456126 0.665570
Si Si6 0.894223 0.957223 0.778998
Si Si7 0.105281 0.545854 0.457660
Si Si8 0.895254 0.456498 0.118339
O O1 0.784776 0.750000 0.542466
O O2 0.684885 0.018991 0.545134
O O3 0.846899 0.021561 0.577089
O O4 0.834170 0.993519 0.495869
O O5 0.210977 0.750000 0.199838
O O6 0.315213 0.483988 0.192044
O O7 0.164679 0.479767 0.240856
O O8 0.155108 0.483671 0.159410
O O9 0.117105 0.250000 0.868309
O O10 0.138037 0.520386 0.823980
O O11 0.137572 0.522606 0.912999
O O12 0.000000 0.500000 0.868534
O O13 0.500000 0.500000 0.555916
O O14 0.604699 0.750000 0.572967
O O15 0.607838 0.479845 0.618411
O O16 0.500000 0.500000 0.680726
O O17 0.394027 0.250000 0.663672
O O18 0.888496 0.750000 0.779379
O O19 0.000000 0.000000 0.773624
O O20 0.108385 0.750000 0.455263
O O21 0.000000 0.500000 0.464055
O O22 0.887168 0.250000 0.118140
O O23 0.000000 0.500000 0.118843
#
# Coordination Sequence:
#
# PCOD9360028 Si02
#       8
#     8   8   8   8   8   8   8   8
#     4  10  19  31  45  62  87 117 146 176 214 257
#     4   9  16  28  45  62  84 115 144 169 207 255
#     4   8  15  27  42  61  84 109 141 180 217 249
#     4   9  17  30  47  64  84 111 142 180 220 257
#     4   9  16  29  46  63  83 110 141 176 215 252
#     4   9  16  27  44  64  86 114 145 175 209 252
#     4  10  19  30  44  63  88 116 147 183 218 255
#     4  10  19  30  41  57  85 118 146 171 200 241
#
# _framework density 16.974278999999999
#
# number of rings (size 3 to 8) (size 9 to 14) (size 15 to 20)
#    0.000    2.750    1.250    1.125    0.000    2.500 
#    0.000    1.250    0.000    0.000    0.000    0.875 
#    0.000    4.000    0.000    0.000    0.000    0.000 
#
# Total GULP energy -178269.574998 kJ/mol
# GULP energy per Si atom -5570.924219 kJ/mol
# Density = 1.693564 g / cm^3
# Si number density = 16.974279 Si / 1000 Ang^3
#
#
#
# Elastic Constant Matrix: (Units=GPa)
#
#
# Indices 1 2 3 4 5 6 
#
# 1 141.5994 4.8290 95.2786 0.0000 0.0000 0.0000
# 2 4.8290 21.5957 8.5277 0.0000 0.0000 0.0000
# 3 95.2786 8.5277 171.3098 0.0000 0.0000 0.0000
# 4 0.0000 0.0000 0.0000 8.4476 0.0000 0.0000
# 5 0.0000 0.0000 0.0000 0.0000 8.9827 0.0000
# 6 0.0000 0.0000 0.0000 0.0000 0.0000 19.4725
#
#
#
# Elastic Compliance Matrix: (Units=1/GPa)
#
#
# Indices 1 2 3 4 5 6 
#
# 1 0.011286 -0.000046 -0.006275 0.000000 0.000000 0.000000
# 2 -0.000046 0.047234 -0.002326 0.000000 0.000000 0.000000
# 3 -0.006275 -0.002326 0.009443 0.000000 0.000000 0.000000
# 4 0.000000 0.000000 0.000000 0.118377 0.000000 0.000000
# 5 0.000000 0.000000 0.000000 0.000000 0.111326 0.000000
# 6 0.000000 0.000000 0.000000 0.000000 0.000000 0.051354
#
#
# Mechanical properties :
#
#
# Convention : Reuss Voigt Hill
#
# Bulk Modulus (GPa) = 19.73539 61.30840 40.52189
# Shear Modulus (GPa) = 13.04792 22.43852 17.74322
#
# Velocity S-wave (km/s) = 2.77553 3.63976 3.23662
# Velocity P-wave (km/s) = 4.68223 7.33898 6.15564
#
# Compressibility (1/GPa) = 0.05067040
#
# Stress axis : x y z
#
# Youngs Moduli (GPa) = 88.60722 21.17109 105.89915
#
# Poissons Ratio (x) = 0.00097 0.66447
# Poissons Ratio (y) = 0.00407 0.24630
# Poissons Ratio (z) = 0.55597 0.04924
#
# Static dielectric constant tensor:
#      x y z
#    x 1.521200 0.000000 0.000000 
#    y 0.000000 1.624870 0.000000 
#    z 0.000000 0.000000 1.611740 
# 
# From -- ./inp_files/17949.got.cif
#   From: 2010.05.17/outbox.cif.g08.bks.cpg/sg39_9_cif.got.tgz:17949.got - 2010.06.03 18:22:40.
