data_PCOD9360729
_publ_section_title
;
Structure prediction by ZEFSAII (Michael W. Deem and Ramdas Pophale) SiO2 
 PCOD9360729
Probable space group: A B M 2
;
_chemical_formula_sum "Si O2"
_cell_formula_units_Z 64
_cell_length_a 9.774733
_cell_length_b 31.961772
_cell_length_c 9.796099
_cell_angle_alpha 90.000000
_cell_angle_beta 90.000000
_cell_angle_gamma 90.000000
_cell_volume 3060.475576
_symmetry_space_group_name_H-M "A B M 2"
_symmetry_group_IT_number 39
_symmetry_cell_setting 'orthorhombic'
loop_
_space_group_symop_operation_xyz
x,y,z
-x,-y,z
-x,1/2+y,z
x,1/2-y,z
x,1/2+y,1/2+z
-x,1/2-y,1/2+z
-x,y,1/2+z
x,-y,1/2+z
loop_
_atom_site_type_symbol
_atom_site_label
_atom_site_fract_x
_atom_site_fract_y
_atom_site_fract_z
Si Si1 0.159885 0.579514 0.729530
Si Si2 0.681780 0.703073 0.563757
Si Si3 0.387710 0.859664 0.294699
Si Si4 0.644393 0.205425 0.513928
Si Si5 0.291036 0.333795 0.281102
Si Si6 0.344984 0.988091 0.593892
Si Si7 0.001803 0.949995 0.977322
Si Si8 0.270362 0.549268 0.312342
O O1 0.196141 0.627715 0.742007
O O2 0.287304 0.553881 0.664697
O O3 0.037247 0.570661 0.621562
O O4 0.128039 0.563148 0.882327
O O5 0.727804 0.750000 0.603087
O O6 0.685612 0.666353 0.674617
O O7 0.519316 0.706817 0.532677
O O8 0.747029 0.686919 0.424144
O O9 0.331068 0.836467 0.428998
O O10 0.551216 0.850975 0.288581
O O11 0.356608 0.908562 0.293552
O O12 0.684185 0.250000 0.448958
O O13 0.708631 0.200105 0.661742
O O14 0.332186 0.980652 0.431699
O O15 0.500000 0.000000 0.626400
O O16 0.259210 0.024544 0.669734
O O17 0.874250 0.939176 0.878105
O O18 0.000000 0.000000 0.995450
#
# Coordination Sequence:
#
# PCOD9360729 Si02
#       8
#     8   8   8   8   8   8   8   8
#     4  11  24  40  61  85 114 158 204 253 307 340
#     4   9  18  32  54  85 120 158 193 232 293 366
#     4  10  20  35  55  87 126 158 193 243 297 367
#     4   9  16  30  54  84 121 158 190 230 291 364
#     4  10  20  35  56  87 124 154 194 246 299 364
#     4  11  23  39  58  84 119 156 196 239 311 379
#     4  11  23  42  62  82 110 155 211 263 290 342
#     4  11  24  38  58  83 115 157 199 248 303 350
#
# _framework density 20.911783
#
# number of rings (size 3 to 8) (size 9 to 14) (size 15 to 20)
#    0.000    1.750    1.250    3.750    1.750    7.000 
#    0.000    0.000    0.000    0.000    0.000   15.750 
#    0.000    0.000    0.000    0.000    0.000    0.000 
#
# Total GULP energy -178577.915163 kJ/mol
# GULP energy per Si atom -5580.559849 kJ/mol
# Density = 2.086419 g / cm^3
# Si number density = 20.911783 Si / 1000 Ang^3
#
#
#
# Elastic Constant Matrix: (Units=GPa)
#
#
# Indices 1 2 3 4 5 6 
#
# 1 26.2444 5.3753 12.3741 0.0000 0.0000 0.0000
# 2 5.3753 122.6791 48.5894 0.0000 0.0000 0.0000
# 3 12.3741 48.5894 126.4171 0.0000 0.0000 0.0000
# 4 0.0000 0.0000 0.0000 150.2605 0.0000 0.0000
# 5 0.0000 0.0000 0.0000 0.0000 18.0154 0.0000
# 6 0.0000 0.0000 0.0000 0.0000 0.0000 7.1260
#
#
#
# Elastic Compliance Matrix: (Units=1/GPa)
#
#
# Indices 1 2 3 4 5 6 
#
# 1 0.039953 -0.000238 -0.003819 0.000000 0.000000 0.000000
# 2 -0.000238 0.009616 -0.003673 0.000000 0.000000 0.000000
# 3 -0.003819 -0.003673 0.009696 0.000000 0.000000 0.000000
# 4 0.000000 0.000000 0.000000 0.006655 0.000000 0.000000
# 5 0.000000 0.000000 0.000000 0.000000 0.055508 0.000000
# 6 0.000000 0.000000 0.000000 0.000000 0.000000 0.140332
#
#
# Mechanical properties :
#
#
# Convention : Reuss Voigt Hill
#
# Bulk Modulus (GPa) = 22.82836 45.33536 34.08186
# Shear Modulus (GPa) = 17.13372 49.01383 33.07378
#
# Velocity S-wave (km/s) = 2.86551 4.84657 3.98123
# Velocity P-wave (km/s) = 4.67850 7.28323 6.12102
#
# Compressibility (1/GPa) = 0.04380516
#
# Stress axis : x y z
#
# Youngs Moduli (GPa) = 25.02947 103.98803 103.13667
#
# Poissons Ratio (x) = 0.02474 0.39391
# Poissons Ratio (y) = 0.00595 0.37881
# Poissons Ratio (z) = 0.09559 0.38194
#
# Static dielectric constant tensor:
#      x y z
#    x 1.805060 0.000000 0.000000 
#    y 0.000000 1.687290 0.000000 
#    z 0.000000 0.000000 1.790980 
# 
# From -- ./inp_files/2919.got.cif
#   From: 2010.05.17/outbox.cif.g08.bks.cpg/sg39_2_cif.got.tgz:2919.got - 2010.06.03 18:22:40.
