data_PCOD9360317
_publ_section_title
;
Structure prediction by ZEFSAII (Michael W. Deem and Ramdas Pophale) SiO2 
 PCOD9360317
Probable space group: A B M 2
;
_chemical_formula_sum "Si O2"
_cell_formula_units_Z 64
_cell_length_a 20.256705
_cell_length_b 8.805705
_cell_length_c 20.626797
_cell_angle_alpha 90.000000
_cell_angle_beta 90.000000
_cell_angle_gamma 90.000000
_cell_volume 3679.296014
_symmetry_space_group_name_H-M "A B M 2"
_symmetry_group_IT_number 39
_symmetry_cell_setting 'orthorhombic'
loop_
_space_group_symop_operation_xyz
x,y,z
-x,-y,z
-x,1/2+y,z
x,1/2-y,z
x,1/2+y,1/2+z
-x,1/2-y,1/2+z
-x,y,1/2+z
x,-y,1/2+z
loop_
_atom_site_type_symbol
_atom_site_label
_atom_site_fract_x
_atom_site_fract_y
_atom_site_fract_z
Si Si1 0.830089 0.566669 0.920670
Si Si2 0.072588 0.433044 0.807193
Si Si3 0.312823 0.569034 0.889699
Si Si4 0.802267 0.431302 0.563518
Si Si5 0.179164 0.067224 0.701144
Si Si6 0.676201 0.933070 0.752389
Si Si7 0.428477 0.432003 0.640164
Si Si8 0.651735 0.068099 0.523769
O O1 0.820422 0.750000 0.916909
O O2 0.890149 0.525272 0.873982
O O3 0.762570 0.490817 0.896225
O O4 0.838348 0.526962 0.996291
O O5 0.068675 0.250000 0.805148
O O6 0.120667 0.483289 0.748723
O O7 0.000000 0.500000 0.802712
O O8 0.314122 0.750000 0.892421
O O9 0.338904 0.508857 0.821109
O O10 0.350502 0.500054 0.951707
O O11 0.806685 0.250000 0.571451
O O12 0.827638 0.509615 0.628108
O O13 0.725021 0.469464 0.551574
O O14 0.179542 0.250000 0.701024
O O15 0.250629 0.018524 0.728868
O O16 0.677098 0.750000 0.760264
O O17 0.623399 0.971594 0.697001
O O18 0.500000 0.500000 0.654211
O O19 0.431717 0.250000 0.635788
O O20 0.400779 0.499013 0.573016
O O21 0.646292 0.250000 0.520878
#
# Coordination Sequence:
#
# PCOD9360317 Si02
#       8
#     8   8   8   8   8   8   8   8
#     4   9  18  36  55  76 109 148 182 224 285 339
#     4  10  21  37  56  77 108 148 188 230 283 341
#     4  11  21  32  55  88 115 141 186 240 282 331
#     4   9  18  31  54  83 109 137 177 230 276 323
#     4  10  19  34  56  80 110 146 183 230 280 332
#     4  10  20  37  58  81 114 153 189 231 285 339
#     4  11  23  39  60  85 116 153 191 233 283 344
#     4  10  20  36  57  82 115 150 185 230 284 337
#
# _framework density 17.394631
#
# number of rings (size 3 to 8) (size 9 to 14) (size 15 to 20)
#    0.000    2.000    2.500    2.625    0.000    4.500 
#    0.000    1.250    0.000    4.500    0.000    0.000 
#    0.000    0.000    0.000    0.000    0.000    0.000 
#
# Total GULP energy -178621.076976 kJ/mol
# GULP energy per Si atom -5581.908655 kJ/mol
# Density = 1.735504 g / cm^3
# Si number density = 17.394631 Si / 1000 Ang^3
#
#
#
# Elastic Constant Matrix: (Units=GPa)
#
#
# Indices 1 2 3 4 5 6 
#
# 1 105.6118 38.7789 70.0233 0.0000 0.0000 0.0000
# 2 38.7789 36.1143 46.9038 0.0000 0.0000 0.0000
# 3 70.0233 46.9038 156.1965 0.0000 0.0000 0.0000
# 4 0.0000 0.0000 0.0000 32.4132 0.0000 0.0000
# 5 0.0000 0.0000 0.0000 0.0000 24.6139 0.0000
# 6 0.0000 0.0000 0.0000 0.0000 0.0000 26.2276
#
#
#
# Elastic Compliance Matrix: (Units=1/GPa)
#
#
# Indices 1 2 3 4 5 6 
#
# 1 0.016690 -0.013449 -0.003444 0.000000 0.000000 0.000000
# 2 -0.013449 0.056231 -0.010856 0.000000 0.000000 0.000000
# 3 -0.003444 -0.010856 0.011206 0.000000 0.000000 0.000000
# 4 0.000000 0.000000 0.000000 0.030852 0.000000 0.000000
# 5 0.000000 0.000000 0.000000 0.000000 0.040627 0.000000
# 6 0.000000 0.000000 0.000000 0.000000 0.000000 0.038128
#
#
# Mechanical properties :
#
#
# Convention : Reuss Voigt Hill
#
# Bulk Modulus (GPa) = 34.92946 67.70386 51.31666
# Shear Modulus (GPa) = 19.32184 26.13205 22.72694
#
# Velocity S-wave (km/s) = 3.33647 3.88016 3.61854
# Velocity P-wave (km/s) = 5.91328 7.68642 6.85740
#
# Compressibility (1/GPa) = 0.02862913
#
# Stress axis : x y z
#
# Youngs Moduli (GPa) = 59.91552 17.78384 89.23846
#
# Poissons Ratio (x) = 0.23918 0.30731
# Poissons Ratio (y) = 0.80581 0.96878
# Poissons Ratio (z) = 0.20633 0.19306
#
# Static dielectric constant tensor:
#      x y z
#    x 1.569250 0.000000 0.000000 
#    y 0.000000 1.584030 0.000000 
#    z 0.000000 0.000000 1.590390 
# 
# From -- ./inp_files/13196.got.cif
#   From: 2010.05.17/outbox.cif.g08.bks.cpg/sg39_7_cif.got.tgz:13196.got - 2010.06.03 18:22:40.
