data_PCOD9360710
_publ_section_title
;
Structure prediction by ZEFSAII (Michael W. Deem and Ramdas Pophale) SiO2 
 PCOD9360710
Probable space group: A B M 2
;
_chemical_formula_sum "Si O2"
_cell_formula_units_Z 56
_cell_length_a 20.134381
_cell_length_b 8.769673
_cell_length_c 16.050495
_cell_angle_alpha 90.000000
_cell_angle_beta 90.000000
_cell_angle_gamma 90.000000
_cell_volume 2834.066999
_symmetry_space_group_name_H-M "A B M 2"
_symmetry_group_IT_number 39
_symmetry_cell_setting 'orthorhombic'
loop_
_space_group_symop_operation_xyz
x,y,z
-x,-y,z
-x,1/2+y,z
x,1/2-y,z
x,1/2+y,1/2+z
-x,1/2-y,1/2+z
-x,y,1/2+z
x,-y,1/2+z
loop_
_atom_site_type_symbol
_atom_site_label
_atom_site_fract_x
_atom_site_fract_y
_atom_site_fract_z
Si Si1 0.568544 0.073747 0.784440
Si Si2 0.708640 0.928299 0.033758
Si Si3 0.157563 0.931639 0.982123
Si Si4 0.709737 0.431499 0.730375
Si Si5 0.926837 0.566981 0.132984
Si Si6 0.848737 0.563909 0.297703
Si Si7 0.430455 0.426612 0.485936
O O1 0.566709 0.250000 0.758164
O O2 0.637617 0.002984 0.752861
O O3 0.570129 0.067694 0.884969
O O4 0.500000 0.000000 0.755519
O O5 0.714883 0.750000 0.012272
O O6 0.764685 0.024666 0.986875
O O7 0.634408 0.985058 0.016336
O O8 0.721861 0.945231 0.132259
O O9 0.150363 0.750000 0.990401
O O10 0.131283 0.980189 0.891009
O O11 0.119611 0.012048 0.057520
O O12 0.706098 0.250000 0.750270
O O13 0.773885 0.491922 0.778475
O O14 0.929043 0.750000 0.132443
O O15 0.895565 0.516277 0.221590
O O16 0.000000 0.500000 0.122926
O O17 0.847021 0.750000 0.296063
O O18 0.500000 0.500000 0.514022
O O19 0.427068 0.250000 0.511173
#
# Coordination Sequence:
#
# PCOD9360710 Si02
#       7
#     8   8   8   8   8   8   8
#     4   9  18  33  53  74 103 144 191 243 298 355
#     4  11  21  35  57  84 118 157 199 248 305 363
#     4  11  22  39  65  95 125 161 206 251 300 358
#     4   9  17  33  56  80 108 149 195 241 295 352
#     4  11  23  43  67  93 127 162 199 245 300 360
#     4   9  19  38  64  89 119 161 204 247 300 357
#     4  10  20  35  54  77 109 149 199 253 309 366
#
# _framework density 19.759589999999999
#
# number of rings (size 3 to 8) (size 9 to 14) (size 15 to 20)
#    0.000    2.000    1.429    2.571    0.000    4.000 
#    0.000    7.143    0.000    0.000    0.000    0.000 
#    0.000    0.000    0.000    0.000    0.000    0.000 
#
# Total GULP energy -156333.216786 kJ/mol
# GULP energy per Si atom -5583.329171 kJ/mol
# Density = 1.971462 g / cm^3
# Si number density = 19.759590 Si / 1000 Ang^3
#
#
#
# Elastic Constant Matrix: (Units=GPa)
#
#
# Indices 1 2 3 4 5 6 
#
# 1 112.5311 16.3219 45.8796 0.0000 0.0000 0.0000
# 2 16.3219 45.1276 30.5852 0.0000 0.0000 0.0000
# 3 45.8796 30.5852 72.2775 0.0000 0.0000 0.0000
# 4 0.0000 0.0000 0.0000 18.1795 0.0000 0.0000
# 5 0.0000 0.0000 0.0000 0.0000 13.2648 0.0000
# 6 0.0000 0.0000 0.0000 0.0000 0.0000 30.9678
#
#
#
# Elastic Compliance Matrix: (Units=1/GPa)
#
#
# Indices 1 2 3 4 5 6 
#
# 1 0.012032 0.001156 -0.008127 0.000000 0.000000 0.000000
# 2 0.001156 0.031181 -0.013929 0.000000 0.000000 0.000000
# 3 -0.008127 -0.013929 0.024888 0.000000 0.000000 0.000000
# 4 0.000000 0.000000 0.000000 0.055007 0.000000 0.000000
# 5 0.000000 0.000000 0.000000 0.000000 0.075387 0.000000
# 6 0.000000 0.000000 0.000000 0.000000 0.000000 0.032292
#
#
# Mechanical properties :
#
#
# Convention : Reuss Voigt Hill
#
# Bulk Modulus (GPa) = 38.01845 46.16775 42.09310
# Shear Modulus (GPa) = 17.77118 21.62572 19.69845
#
# Velocity S-wave (km/s) = 3.00220 3.31182 3.16081
# Velocity P-wave (km/s) = 5.59463 6.16763 5.88811
#
# Compressibility (1/GPa) = 0.02630302
#
# Stress axis : x y z
#
# Youngs Moduli (GPa) = 83.11084 32.07044 40.17937
#
# Poissons Ratio (x) = -0.03708 0.32653
# Poissons Ratio (y) = -0.09609 0.55965
# Poissons Ratio (z) = 0.67543 0.44670
#
# Static dielectric constant tensor:
#      x y z
#    x 1.692670 0.000000 0.000000 
#    y 0.000000 1.684390 0.000000 
#    z 0.000000 0.000000 1.698770 
# 
# From -- ./inp_files/10327.got.cif
#   From: 2010.05.17/outbox.cif.g08.bks.cpg/sg39_6_cif.got.tgz:10327.got - 2010.06.03 18:22:40.
