data_PCOD9360868
_publ_section_title
;
Structure prediction by ZEFSAII (Michael W. Deem and Ramdas Pophale) SiO2 
 PCOD9360868
Probable space group: A B M 2
;
_chemical_formula_sum "Si O2"
_cell_formula_units_Z 40
_cell_length_a 4.877367
_cell_length_b 23.473584
_cell_length_c 14.700716
_cell_angle_alpha 90.000000
_cell_angle_beta 90.000000
_cell_angle_gamma 90.000000
_cell_volume 1683.074449
_symmetry_space_group_name_H-M "A B M 2"
_symmetry_group_IT_number 39
_symmetry_cell_setting 'orthorhombic'
loop_
_space_group_symop_operation_xyz
x,y,z
-x,-y,z
-x,1/2+y,z
x,1/2-y,z
x,1/2+y,1/2+z
-x,1/2-y,1/2+z
-x,y,1/2+z
x,-y,1/2+z
loop_
_atom_site_type_symbol
_atom_site_label
_atom_site_fract_x
_atom_site_fract_y
_atom_site_fract_z
Si Si1 0.120316 0.250000 0.058331
Si Si2 0.079061 0.637627 0.868060
Si Si3 0.642605 0.250000 0.951195
Si Si4 0.353172 0.443603 0.673354
Si Si5 0.122754 0.366320 0.162932
Si Si6 0.398528 0.558798 0.380529
O O1 0.171525 0.309221 0.107712
O O2 0.317736 0.250000 0.968203
O O3 0.790661 0.250000 0.048296
O O4 0.222189 0.694179 0.906724
O O5 0.005321 0.649831 0.762883
O O6 0.320921 0.592185 0.868742
O O7 0.823050 0.605223 0.916137
O O8 0.500000 0.500000 0.636039
O O9 0.585914 0.396026 0.672799
O O10 0.282615 0.457337 0.779544
O O11 0.089615 0.414636 0.627351
O O12 0.500000 0.500000 0.426035
#
# Coordination Sequence:
#
# PCOD9360868 Si02
#       6
#     4   8   4   8   8   8
#     4  12  25  40  57  80 116 158 200 246 291 340
#     4  10  20  36  59  85 114 150 193 237 286 348
#     4  12  25  40  57  80 116 158 200 246 291 340
#     4   9  17  31  56  89 117 141 180 237 292 343
#     4  10  20  36  59  85 114 150 193 237 286 348
#     4   9  17  31  56  89 117 141 180 237 292 343
#
# _framework density 23.766031999999999
#
# number of rings (size 3 to 8) (size 9 to 14) (size 15 to 20)
#    0.000    2.000    0.000    4.200    0.000    4.800 
#    0.000    8.000    0.000   18.000    0.000    0.000 
#    0.000    0.000    0.000    0.000    0.000    0.000 
#
# Total GULP energy -111551.859254 kJ/mol
# GULP energy per Si atom -5577.592963 kJ/mol
# Density = 2.371194 g / cm^3
# Si number density = 23.766032 Si / 1000 Ang^3
#
#
#
# Elastic Constant Matrix: (Units=GPa)
#
#
# Indices 1 2 3 4 5 6 
#
# 1 108.7028 9.0157 3.4960 0.0000 0.0000 0.0000
# 2 9.0157 130.8772 28.8981 0.0000 0.0000 0.0000
# 3 3.4960 28.8981 38.8823 0.0000 0.0000 0.0000
# 4 0.0000 0.0000 0.0000 35.3633 0.0000 0.0000
# 5 0.0000 0.0000 0.0000 0.0000 19.6599 0.0000
# 6 0.0000 0.0000 0.0000 0.0000 0.0000 33.9079
#
#
#
# Elastic Compliance Matrix: (Units=1/GPa)
#
#
# Indices 1 2 3 4 5 6 
#
# 1 0.009258 -0.000543 -0.000429 0.000000 0.000000 0.000000
# 2 -0.000543 0.009173 -0.006768 0.000000 0.000000 0.000000
# 3 -0.000429 -0.006768 0.030788 0.000000 0.000000 0.000000
# 4 0.000000 0.000000 0.000000 0.028278 0.000000 0.000000
# 5 0.000000 0.000000 0.000000 0.000000 0.050865 0.000000
# 6 0.000000 0.000000 0.000000 0.000000 0.000000 0.029492
#
#
# Mechanical properties :
#
#
# Convention : Reuss Voigt Hill
#
# Bulk Modulus (GPa) = 29.64034 40.14245 34.89140
# Shear Modulus (GPa) = 27.08858 33.58972 30.33915
#
# Velocity S-wave (km/s) = 3.37976 3.76353 3.57680
# Velocity P-wave (km/s) = 5.26585 5.98439 5.63658
#
# Compressibility (1/GPa) = 0.03373780
#
# Stress axis : x y z
#
# Youngs Moduli (GPa) = 108.01205 109.01967 32.48059
#
# Poissons Ratio (x) = 0.05921 0.01393
# Poissons Ratio (y) = 0.05866 0.21984
# Poissons Ratio (z) = 0.04632 0.73789
#
# Static dielectric constant tensor:
#      x y z
#    x 1.864920 0.000000 0.000000 
#    y 0.000000 1.926930 0.000000 
#    z 0.000000 0.000000 2.039200 
# 
# From -- ./inp_files/10908.got.cif
#   From: 2010.05.17/outbox.cif.g08.bks.cpg/sg39_6_cif.got.tgz:10908.got - 2010.06.03 18:22:40.
