data_PCOD9360166
_publ_section_title
;
Structure prediction by ZEFSAII (Michael W. Deem and Ramdas Pophale) SiO2 
 PCOD9360166
Probable space group: A B M 2
;
_chemical_formula_sum "Si O2"
_cell_formula_units_Z 48
_cell_length_a 5.026127
_cell_length_b 17.711070
_cell_length_c 28.059571
_cell_angle_alpha 90.000000
_cell_angle_beta 90.000000
_cell_angle_gamma 90.000000
_cell_volume 2497.809336
_symmetry_space_group_name_H-M "A B M 2"
_symmetry_group_IT_number 39
_symmetry_cell_setting 'orthorhombic'
loop_
_space_group_symop_operation_xyz
x,y,z
-x,-y,z
-x,1/2+y,z
x,1/2-y,z
x,1/2+y,1/2+z
-x,1/2-y,1/2+z
-x,y,1/2+z
x,-y,1/2+z
loop_
_atom_site_type_symbol
_atom_site_label
_atom_site_fract_x
_atom_site_fract_y
_atom_site_fract_z
Si Si1 0.255391 0.052928 0.809780
Si Si2 0.894185 0.336163 0.118470
Si Si3 0.105812 0.663837 0.393718
Si Si4 0.374233 0.836648 0.553941
Si Si5 0.625764 0.663352 0.458248
Si Si6 0.744609 0.947072 0.702409
O O1 0.171677 0.117110 0.846658
O O2 0.322166 0.080844 0.756094
O O3 0.500000 0.000000 0.826260
O O4 0.000000 0.000000 0.806288
O O5 0.977207 0.250000 0.130277
O O6 0.620349 0.333432 0.089632
O O7 0.828323 0.382890 0.165531
O O8 0.122572 0.368774 0.083042
O O9 0.022790 0.750000 0.381912
O O10 0.379648 0.666568 0.422556
O O11 0.877426 0.631226 0.429146
O O12 0.292326 0.750000 0.540556
O O13 0.499998 0.872316 0.506094
O O14 0.707673 0.750000 0.471633
O O15 0.500000 0.000000 0.685929
O O16 0.000000 0.000000 0.705901
#
# Coordination Sequence:
#
# PCOD9360166 Si02
#       6
#     8   8   8   8   8   8
#     4  10  21  37  55  75 104 143 180 217 271 330
#     4  10  19  32  54  81 105 135 178 223 262 306
#     4  10  19  32  54  81 105 135 178 223 262 306
#     4   9  17  30  50  78 109 137 169 212 262 316
#     4   9  17  30  50  78 109 137 169 212 262 316
#     4  10  21  37  55  75 104 143 180 217 271 330
#
# _framework density 19.216840000000001
#
# number of rings (size 3 to 8) (size 9 to 14) (size 15 to 20)
#    0.000    2.333    0.000    3.000    0.000    4.667 
#    0.000    0.000    0.000   27.000    0.000    0.000 
#    0.000    0.000    0.000    0.000    0.000    0.000 
#
# Total GULP energy -133681.226504 kJ/mol
# GULP energy per Si atom -5570.051104 kJ/mol
# Density = 1.917310 g / cm^3
# Si number density = 19.216840 Si / 1000 Ang^3
#
#
#
# Elastic Constant Matrix: (Units=GPa)
#
#
# Indices 1 2 3 4 5 6 
#
# 1 119.7291 15.3586 18.8234 0.0000 0.0000 0.0000
# 2 15.3586 41.7996 53.7815 0.0000 0.0000 0.0000
# 3 18.8234 53.7815 109.9074 0.0000 0.0000 0.0000
# 4 0.0000 0.0000 0.0000 65.3818 0.0000 0.0000
# 5 0.0000 0.0000 0.0000 0.0000 38.6007 0.0000
# 6 0.0000 0.0000 0.0000 0.0000 0.0000 19.6683
#
#
#
# Elastic Compliance Matrix: (Units=1/GPa)
#
#
# Indices 1 2 3 4 5 6 
#
# 1 0.008767 -0.003481 0.000202 0.000000 0.000000 0.000000
# 2 -0.003481 0.065972 -0.031686 0.000000 0.000000 0.000000
# 3 0.000202 -0.031686 0.024569 0.000000 0.000000 0.000000
# 4 0.000000 0.000000 0.000000 0.015295 0.000000 0.000000
# 5 0.000000 0.000000 0.000000 0.000000 0.025906 0.000000
# 6 0.000000 0.000000 0.000000 0.000000 0.000000 0.050843
#
#
# Mechanical properties :
#
#
# Convention : Reuss Voigt Hill
#
# Bulk Modulus (GPa) = 34.03993 49.70700 41.87347
# Shear Modulus (GPa) = 18.44512 36.96167 27.70340
#
# Velocity S-wave (km/s) = 3.10149 4.39042 3.80099
# Velocity P-wave (km/s) = 5.52971 7.18495 6.41098
#
# Compressibility (1/GPa) = 0.02937726
#
# Stress axis : x y z
#
# Youngs Moduli (GPa) = 114.06419 15.15806 40.70174
#
# Poissons Ratio (x) = 0.05277 -0.00822
# Poissons Ratio (y) = 0.39708 1.28967
# Poissons Ratio (z) = -0.02304 0.48030
#
# Static dielectric constant tensor:
#      x y z
#    x 1.658810 0.000000 0.000000 
#    y 0.000000 1.693240 0.000000 
#    z 0.000000 0.000000 1.716800 
# 
# From -- ./inp_files/11043.got.cif
#   From: 2010.05.17/outbox.cif.g08.bks.cpg/sg39_6_cif.got.tgz:11043.got - 2010.06.03 18:22:40.
