data_PCOD9360035
_publ_section_title
;
Structure prediction by ZEFSAII (Michael W. Deem and Ramdas Pophale) SiO2 
 PCOD9360035
Probable space group: A B M 2
;
_chemical_formula_sum "Si O2"
_cell_formula_units_Z 64
_cell_length_a 21.474619
_cell_length_b 9.605815
_cell_length_c 14.312343
_cell_angle_alpha 90.000000
_cell_angle_beta 90.000000
_cell_angle_gamma 90.000000
_cell_volume 2952.367537
_symmetry_space_group_name_H-M "A B M 2"
_symmetry_group_IT_number 39
_symmetry_cell_setting 'orthorhombic'
loop_
_space_group_symop_operation_xyz
x,y,z
-x,-y,z
-x,1/2+y,z
x,1/2-y,z
x,1/2+y,1/2+z
-x,1/2-y,1/2+z
-x,y,1/2+z
x,-y,1/2+z
loop_
_atom_site_type_symbol
_atom_site_label
_atom_site_fract_x
_atom_site_fract_y
_atom_site_fract_z
Si Si1 0.442296 0.590202 0.076970
Si Si2 0.559344 0.410258 0.849372
Si Si3 0.055832 0.593647 0.627012
Si Si4 0.183106 0.908290 0.367575
Si Si5 0.941733 0.408667 0.849239
Si Si6 0.305535 0.589961 0.083050
Si Si7 0.191636 0.906271 0.590493
Si Si8 0.300667 0.588591 0.855242
O O1 0.500000 0.500000 0.108612
O O2 0.448391 0.750000 0.106677
O O3 0.374513 0.537097 0.106699
O O4 0.442366 0.589873 0.963327
O O5 0.500000 0.500000 0.819035
O O6 0.552883 0.250000 0.819090
O O7 0.629751 0.457895 0.825318
O O8 0.055642 0.750000 0.585747
O O9 0.047895 0.606091 0.738069
O O10 0.124194 0.530456 0.612148
O O11 0.000000 0.500000 0.591148
O O12 0.174878 0.750000 0.330860
O O13 0.194318 0.895689 0.478623
O O14 0.121860 0.003845 0.358671
O O15 0.243706 0.988524 0.328921
O O16 0.937754 0.250000 0.887471
O O17 0.000000 0.500000 0.884723
O O18 0.299532 0.750000 0.113415
O O19 0.250253 0.495879 0.119891
O O20 0.301766 0.590911 0.969365
O O21 0.192958 0.750000 0.630917
O O22 0.291187 0.750000 0.826251
#
# Coordination Sequence:
#
# PCOD9360035 Si02
#       8
#     8   8   8   8   8   8   8   8
#     4   8  13  20  30  47  73 106 144 180 213 253
#     4   8  13  20  31  48  73 107 145 182 217 256
#     4   9  19  35  52  69  89 115 147 181 218 261
#     4  10  19  30  46  69  95 120 148 184 223 264
#     4  10  20  35  53  69  89 117 147 181 219 262
#     4   8  14  24  37  55  81 113 147 181 218 260
#     4   9  18  31  46  67  93 118 147 183 221 262
#     4   8  14  25  38  54  81 116 150 182 219 262
#
# _framework density 21.677519
#
# number of rings (size 3 to 8) (size 9 to 14) (size 15 to 20)
#    0.000    3.250    0.000    2.250    0.000    3.000 
#    0.000    6.250    0.000    0.000    0.000    0.000 
#    0.000    1.000    0.000    8.500    0.000   14.625 
#
# Total GULP energy -178531.170995 kJ/mol
# GULP energy per Si atom -5579.099094 kJ/mol
# Density = 2.162818 g / cm^3
# Si number density = 21.677519 Si / 1000 Ang^3
#
#
#
# Elastic Constant Matrix: (Units=GPa)
#
#
# Indices 1 2 3 4 5 6 
#
# 1 259.4922 132.7668 -1.0744 0.0000 0.0000 0.0000
# 2 132.7668 128.1120 4.0539 0.0000 0.0000 0.0000
# 3 -1.0744 4.0539 56.5930 0.0000 0.0000 0.0000
# 4 0.0000 0.0000 0.0000 3.2823 0.0000 0.0000
# 5 0.0000 0.0000 0.0000 0.0000 41.8252 0.0000
# 6 0.0000 0.0000 0.0000 0.0000 0.0000 38.8109
#
#
#
# Elastic Compliance Matrix: (Units=1/GPa)
#
#
# Indices 1 2 3 4 5 6 
#
# 1 0.008237 -0.008560 0.000770 0.000000 0.000000 0.000000
# 2 -0.008560 0.016720 -0.001360 0.000000 0.000000 0.000000
# 3 0.000770 -0.001360 0.017782 0.000000 0.000000 0.000000
# 4 0.000000 0.000000 0.000000 0.304667 0.000000 0.000000
# 5 0.000000 0.000000 0.000000 0.000000 0.023909 0.000000
# 6 0.000000 0.000000 0.000000 0.000000 0.000000 0.025766
#
#
# Mechanical properties :
#
#
# Convention : Reuss Voigt Hill
#
# Bulk Modulus (GPa) = 40.92174 79.52111 60.22143
# Shear Modulus (GPa) = 11.80558 37.34707 24.57632
#
# Velocity S-wave (km/s) = 2.33620 4.15522 3.37073
# Velocity P-wave (km/s) = 5.11816 7.73204 6.55668
#
# Compressibility (1/GPa) = 0.02443689
#
# Stress axis : x y z
#
# Youngs Moduli (GPa) = 121.40848 59.80852 56.23645
#
# Poissons Ratio (x) = 0.51198 -0.04328
# Poissons Ratio (y) = 1.03929 0.07649
# Poissons Ratio (z) = -0.09343 0.08135
#
# Static dielectric constant tensor:
#      x y z
#    x 1.773790 0.000000 0.000000 
#    y 0.000000 1.775640 0.000000 
#    z 0.000000 0.000000 1.837670 
# 
# From -- ./inp_files/13139.got.cif
#   From: 2010.05.17/outbox.cif.g08.bks.cpg/sg39_7_cif.got.tgz:13139.got - 2010.06.03 18:22:40.
