data_PCOD9360745
_publ_section_title
;
Structure prediction by ZEFSAII (Michael W. Deem and Ramdas Pophale) SiO2 
 PCOD9360745
Probable space group: A B M 2
;
_chemical_formula_sum "Si O2"
_cell_formula_units_Z 64
_cell_length_a 24.609491
_cell_length_b 8.650063
_cell_length_c 15.803940
_cell_angle_alpha 90.000000
_cell_angle_beta 90.000000
_cell_angle_gamma 90.000000
_cell_volume 3364.242353
_symmetry_space_group_name_H-M "A B M 2"
_symmetry_group_IT_number 39
_symmetry_cell_setting 'orthorhombic'
loop_
_space_group_symop_operation_xyz
x,y,z
-x,-y,z
-x,1/2+y,z
x,1/2-y,z
x,1/2+y,1/2+z
-x,1/2-y,1/2+z
-x,y,1/2+z
x,-y,1/2+z
loop_
_atom_site_type_symbol
_atom_site_label
_atom_site_fract_x
_atom_site_fract_y
_atom_site_fract_z
Si Si1 0.439692 0.564387 0.706790
Si Si2 0.559958 0.063681 0.900404
Si Si3 0.170383 0.434239 0.899527
Si Si4 0.056324 0.434072 0.148742
Si Si5 0.832380 0.064244 0.211224
Si Si6 0.759151 0.563291 0.552535
Si Si7 0.633925 0.437215 0.057194
Si Si8 0.942804 0.065443 0.957773
O O1 0.500000 0.500000 0.688527
O O2 0.441024 0.750000 0.702581
O O3 0.426014 0.517810 0.803837
O O4 0.397748 0.500266 0.638520
O O5 0.557574 0.250000 0.902038
O O6 0.500000 0.000000 0.919696
O O7 0.602370 0.013343 0.971930
O O8 0.166929 0.250000 0.909784
O O9 0.209442 0.501631 0.970897
O O10 0.110223 0.503503 0.910953
O O11 0.189809 0.469428 0.804535
O O12 0.052849 0.250000 0.141837
O O13 0.109475 0.484663 0.199031
O O14 0.061871 0.506513 0.054762
O O15 0.000000 0.500000 0.185160
O O16 0.840173 0.250000 0.204618
O O17 0.792266 0.015082 0.136218
O O18 0.759977 0.750000 0.549761
O O19 0.696621 0.512809 0.555524
O O20 0.632796 0.250000 0.060236
O O21 0.943949 0.250000 0.956873
O O22 0.000000 0.000000 0.924330
#
# Coordination Sequence:
#
# PCOD9360745 Si02
#       8
#     8   8   8   8   8   8   8   8
#     4  10  20  35  56  84 117 152 187 232 285 336
#     4   9  19  35  55  82 117 151 187 231 281 339
#     4  11  23  39  60  86 114 149 195 243 290 344
#     4  11  21  35  59  88 117 150 188 233 288 349
#     4  10  22  40  60  83 115 153 192 239 293 348
#     4  10  22  41  61  81 113 155 194 240 293 342
#     4  10  21  37  58  84 114 152 196 237 285 340
#     4  11  21  36  59  86 117 150 185 231 291 350
#
# _framework density 19.023599999999998
#
# number of rings (size 3 to 8) (size 9 to 14) (size 15 to 20)
#    0.000    1.750    1.250    4.125    0.000    5.000 
#    0.000    0.000    0.000    0.000    0.000    0.000 
#    0.000    0.000    0.000    0.000    0.000    0.000 
#
# Total GULP energy -178803.024179 kJ/mol
# GULP energy per Si atom -5587.594506 kJ/mol
# Density = 1.898030 g / cm^3
# Si number density = 19.023600 Si / 1000 Ang^3
#
#
#
# Elastic Constant Matrix: (Units=GPa)
#
#
# Indices 1 2 3 4 5 6 
#
# 1 165.7490 40.8618 107.2199 0.0000 0.0000 0.0000
# 2 40.8618 39.8063 43.9222 0.0000 0.0000 0.0000
# 3 107.2199 43.9222 142.9246 0.0000 0.0000 0.0000
# 4 0.0000 0.0000 0.0000 19.3119 0.0000 0.0000
# 5 0.0000 0.0000 0.0000 0.0000 -10.7123 0.0000
# 6 0.0000 0.0000 0.0000 0.0000 0.0000 27.2648
#
#
#
# Elastic Compliance Matrix: (Units=1/GPa)
#
#
# Indices 1 2 3 4 5 6 
#
# 1 0.012058 -0.003626 -0.007931 0.000000 0.000000 0.000000
# 2 -0.003626 0.039101 -0.009296 0.000000 0.000000 0.000000
# 3 -0.007931 -0.009296 0.015803 0.000000 0.000000 0.000000
# 4 0.000000 0.000000 0.000000 0.051781 0.000000 0.000000
# 5 0.000000 0.000000 0.000000 0.000000 -0.093350 0.000000
# 6 0.000000 0.000000 0.000000 0.000000 0.000000 0.036677
#
#
# Mechanical properties :
#
#
# Convention : Reuss Voigt Hill
#
# Bulk Modulus (GPa) = 39.59515 81.38752 60.49133
# Shear Modulus (GPa) = 44.56522 17.60462 31.08492
#
# Velocity S-wave (km/s) = 4.84532 3.04535 4.04669
# Velocity P-wave (km/s) = 7.22231 7.43242 7.32812
#
# Compressibility (1/GPa) = 0.02525562
#
# Stress axis : x y z
#
# Youngs Moduli (GPa) = 82.93480 25.57476 63.27840
#
# Poissons Ratio (x) = 0.09274 0.50187
# Poissons Ratio (y) = 0.30074 0.58822
# Poissons Ratio (z) = 0.65776 0.23774
#
# Static dielectric constant tensor:
#      x y z
#    x 1.631990 0.000000 0.000000 
#    y 0.000000 1.642730 0.000000 
#    z 0.000000 0.000000 1.673960 
# 
# From -- ./inp_files/10560.got.cif
#   From: 2010.05.17/outbox.cif.g08.bks.cpg/sg39_6_cif.got.tgz:10560.got - 2010.06.03 18:22:40.
