data_PCOD9360090
_publ_section_title
;
Structure prediction by ZEFSAII (Michael W. Deem and Ramdas Pophale) SiO2 
 PCOD9360090
Probable space group: A B M 2
;
_chemical_formula_sum "Si O2"
_cell_formula_units_Z 60
_cell_length_a 11.899131
_cell_length_b 21.613028
_cell_length_c 13.912304
_cell_angle_alpha 90.000000
_cell_angle_beta 90.000000
_cell_angle_gamma 90.000000
_cell_volume 3577.914192
_symmetry_space_group_name_H-M "A B M 2"
_symmetry_group_IT_number 39
_symmetry_cell_setting 'orthorhombic'
loop_
_space_group_symop_operation_xyz
x,y,z
-x,-y,z
-x,1/2+y,z
x,1/2-y,z
x,1/2+y,1/2+z
-x,1/2-y,1/2+z
-x,y,1/2+z
x,-y,1/2+z
loop_
_atom_site_type_symbol
_atom_site_label
_atom_site_fract_x
_atom_site_fract_y
_atom_site_fract_z
Si Si1 0.386655 0.540746 0.727490
Si Si2 0.386654 0.540746 0.944862
Si Si3 0.183840 0.055873 0.949750
Si Si4 0.315208 0.181203 0.948927
Si Si5 0.684792 0.181203 0.223424
Si Si6 0.000000 0.500000 0.086176
Si Si7 0.816159 0.055873 0.222602
Si Si8 0.500000 0.366209 0.586176
O O1 0.500000 0.500000 0.728879
O O2 0.371699 0.566104 0.836176
O O3 0.282696 0.495091 0.707058
O O4 0.413449 0.591586 0.647618
O O5 0.500000 0.500000 0.943473
O O6 0.282696 0.495091 0.965294
O O7 0.413449 0.591586 0.024734
O O8 0.233043 0.123971 0.969777
O O9 0.154673 0.052902 0.836176
O O10 0.080308 0.040052 0.017538
O O11 0.267498 0.250000 0.964649
O O12 0.344759 0.175458 0.836176
O O13 0.425921 0.172310 0.012177
O O14 0.732502 0.250000 0.207703
O O15 0.766957 0.123971 0.202575
O O16 0.574080 0.172310 0.160174
O O17 0.919692 0.459948 0.154813
#
# Coordination Sequence:
#
# PCOD9360090 Si02
#       8
#     8   8   8   8   8   4   8   8
#     4  10  19  31  51  80 110 136 164 208 267 316
#     4  10  19  31  51  80 110 136 164 208 267 316
#     4  10  21  36  53  76 105 135 169 211 262 310
#     4  10  21  35  50  72 105 142 175 207 250 309
#     4  10  21  35  50  72 105 142 175 207 250 309
#     4  12  22  36  56  82  96 128 170 232 260 306
#     4  10  21  36  53  76 105 135 169 211 262 310
#     4  12  18  28  50  82 107 139 168 212 244 311
#
# _framework density 16.769545999999998
#
# number of rings (size 3 to 8) (size 9 to 14) (size 15 to 20)
#    0.000    1.600    2.667    3.600    0.000    0.000 
#    0.000    0.667    0.000    0.000    0.000    0.000 
#    0.000    0.000    0.000    0.000    0.000    0.000 
#
# Total GULP energy -167425.591020 kJ/mol
# GULP energy per Si atom -5580.853034 kJ/mol
# Density = 1.673138 g / cm^3
# Si number density = 16.769546 Si / 1000 Ang^3
#
#
#
# Elastic Constant Matrix: (Units=GPa)
#
#
# Indices 1 2 3 4 5 6 
#
# 1 103.1139 49.7289 59.6819 0.0000 0.0000 0.0000
# 2 49.7289 105.3227 58.9165 0.0000 0.0000 0.0000
# 3 59.6819 58.9165 93.6015 0.0000 0.0000 0.0000
# 4 0.0000 0.0000 0.0000 -12.9470 0.0000 0.0000
# 5 0.0000 0.0000 0.0000 0.0000 28.3918 0.0000
# 6 0.0000 0.0000 0.0000 0.0000 0.0000 3.0752
#
#
#
# Elastic Compliance Matrix: (Units=1/GPa)
#
#
# Indices 1 2 3 4 5 6 
#
# 1 0.015900 -0.002834 -0.008354 0.000000 0.000000 0.000000
# 2 -0.002834 0.015160 -0.007735 0.000000 0.000000 0.000000
# 3 -0.008354 -0.007735 0.020879 0.000000 0.000000 0.000000
# 4 0.000000 0.000000 0.000000 -0.077238 0.000000 0.000000
# 5 0.000000 0.000000 0.000000 0.000000 0.035221 0.000000
# 6 0.000000 0.000000 0.000000 0.000000 0.000000 0.325177
#
#
# Mechanical properties :
#
#
# Convention : Reuss Voigt Hill
#
# Bulk Modulus (GPa) = 70.96150 70.96585 70.96368
# Shear Modulus (GPa) = 13.23997 12.61807 12.92902
#
# Velocity S-wave (km/s) = 2.81290 2.74604 2.77967
# Velocity P-wave (km/s) = 7.27718 7.24324 7.26023
#
# Compressibility (1/GPa) = 0.01409215
#
# Stress axis : x y z
#
# Youngs Moduli (GPa) = 62.89189 65.96447 47.89437
#
# Poissons Ratio (x) = 0.18695 0.40013
# Poissons Ratio (y) = 0.17824 0.37047
# Poissons Ratio (z) = 0.52543 0.51024
#
# Static dielectric constant tensor:
#      x y z
#    x 1.533140 0.000000 0.000000 
#    y 0.000000 1.572300 0.000000 
#    z 0.000000 0.000000 1.605330 
# 
# From -- ./inp_files/9531.got.cif
#   From: 2010.05.17/outbox.cif.g08.bks.cpg/sg39_5_cif.got.tgz:9531.got - 2010.06.03 18:22:40.
