data_PCOD9360611
_publ_section_title
;
Structure prediction by ZEFSAII (Michael W. Deem and Ramdas Pophale) SiO2 
 PCOD9360611
Probable space group: A B M 2
;
_chemical_formula_sum "Si O2"
_cell_formula_units_Z 56
_cell_length_a 16.068173
_cell_length_b 8.543781
_cell_length_c 20.699511
_cell_angle_alpha 90.000000
_cell_angle_beta 90.000000
_cell_angle_gamma 90.000000
_cell_volume 2841.689958
_symmetry_space_group_name_H-M "A B M 2"
_symmetry_group_IT_number 39
_symmetry_cell_setting 'orthorhombic'
loop_
_space_group_symop_operation_xyz
x,y,z
-x,-y,z
-x,1/2+y,z
x,1/2-y,z
x,1/2+y,1/2+z
-x,1/2-y,1/2+z
-x,y,1/2+z
x,-y,1/2+z
loop_
_atom_site_type_symbol
_atom_site_label
_atom_site_fract_x
_atom_site_fract_y
_atom_site_fract_z
Si Si1 0.915913 0.936999 0.520460
Si Si2 0.130929 0.564826 0.382121
Si Si3 0.267978 0.937789 0.064216
Si Si4 0.911937 0.064365 0.743884
Si Si5 0.309218 0.939318 0.921698
Si Si6 0.730773 0.438018 0.701079
Si Si7 0.590253 0.561872 0.301412
O O1 0.918676 0.750000 0.515414
O O2 0.829547 0.980493 0.554804
O O3 0.909977 0.009765 0.448927
O O4 0.000000 0.000000 0.552158
O O5 0.121244 0.750000 0.373862
O O6 0.095687 0.477753 0.319714
O O7 0.227231 0.517093 0.391372
O O8 0.273205 0.750000 0.070186
O O9 0.298009 0.015265 0.129750
O O10 0.312924 0.983288 0.997137
O O11 0.913448 0.250000 0.735913
O O12 0.825155 0.002292 0.713482
O O13 0.000000 0.000000 0.719218
O O14 0.296981 0.750000 0.919436
O O15 0.385035 0.980751 0.874965
O O16 0.734471 0.250000 0.706434
O O17 0.664402 0.493961 0.754289
O O18 0.500000 0.500000 0.283471
O O19 0.588887 0.750000 0.297787
#
# Coordination Sequence:
#
# PCOD9360611 Si02
#       7
#     8   8   8   8   8   8   8
#     4  10  20  34  51  75 110 152 196 244 294 344
#     4  11  20  31  52  82 112 147 192 244 293 342
#     4   9  20  36  58  82 111 153 193 237 287 343
#     4  11  22  37  54  78 114 158 200 243 294 344
#     4   9  18  38  61  83 116 152 187 233 293 348
#     4  10  22  40  60  82 119 161 192 239 294 346
#     4  10  21  40  65  92 118 151 192 238 295 351
#
# _framework density 19.706582999999998
#
# number of rings (size 3 to 8) (size 9 to 14) (size 15 to 20)
#    0.000    2.000    1.429    3.429    0.000    5.714 
#    0.000    3.571    0.000    3.429    0.000    0.000 
#    0.000    0.000    0.000    0.000    0.000    0.000 
#
# Total GULP energy -156320.323531 kJ/mol
# GULP energy per Si atom -5582.868698 kJ/mol
# Density = 1.966173 g / cm^3
# Si number density = 19.706583 Si / 1000 Ang^3
#
#
#
# Elastic Constant Matrix: (Units=GPa)
#
#
# Indices 1 2 3 4 5 6 
#
# 1 103.9812 20.7142 53.6012 0.0000 0.0000 0.0000
# 2 20.7142 17.4850 7.2891 0.0000 0.0000 0.0000
# 3 53.6012 7.2891 109.2795 0.0000 0.0000 0.0000
# 4 0.0000 0.0000 0.0000 20.7925 0.0000 0.0000
# 5 0.0000 0.0000 0.0000 0.0000 -8.7903 0.0000
# 6 0.0000 0.0000 0.0000 0.0000 0.0000 28.0072
#
#
#
# Elastic Compliance Matrix: (Units=1/GPa)
#
#
# Indices 1 2 3 4 5 6 
#
# 1 0.016554 -0.016690 -0.007006 0.000000 0.000000 0.000000
# 2 -0.016690 0.075655 0.003140 0.000000 0.000000 0.000000
# 3 -0.007006 0.003140 0.012378 0.000000 0.000000 0.000000
# 4 0.000000 0.000000 0.000000 0.048094 0.000000 0.000000
# 5 0.000000 0.000000 0.000000 0.000000 -0.113761 0.000000
# 6 0.000000 0.000000 0.000000 0.000000 0.000000 0.035705
#
#
# Mechanical properties :
#
#
# Convention : Reuss Voigt Hill
#
# Bulk Modulus (GPa) = 15.75436 43.77274 29.76355
# Shear Modulus (GPa) = 36.52423 17.94463 27.23443
#
# Velocity S-wave (km/s) = 4.30979 3.02087 3.72155
# Velocity P-wave (km/s) = 5.72516 5.86754 5.79679
#
# Compressibility (1/GPa) = 0.06347447
#
# Stress axis : x y z
#
# Youngs Moduli (GPa) = 60.40967 13.21783 80.78891
#
# Poissons Ratio (x) = 0.22061 0.56603
# Poissons Ratio (y) = 1.00825 -0.25369
# Poissons Ratio (z) = 0.42324 -0.04151
#
# Static dielectric constant tensor:
#      x y z
#    x 1.715010 0.000000 0.000000 
#    y 0.000000 1.671560 0.000000 
#    z 0.000000 0.000000 1.689510 
# 
# From -- ./inp_files/14736.got.cif
#   From: 2010.05.17/outbox.cif.g08.bks.cpg/sg39_8_cif.got.tgz:14736.got - 2010.06.03 18:22:40.
