data_PCOD9360898
_publ_section_title
;
Structure prediction by ZEFSAII (Michael W. Deem and Ramdas Pophale) SiO2 
 PCOD9360898
Probable space group: A B M 2
;
_chemical_formula_sum "Si O2"
_cell_formula_units_Z 64
_cell_length_a 14.362284
_cell_length_b 15.349640
_cell_length_c 12.743397
_cell_angle_alpha 90.000000
_cell_angle_beta 90.000000
_cell_angle_gamma 90.000000
_cell_volume 2809.356914
_symmetry_space_group_name_H-M "A B M 2"
_symmetry_group_IT_number 39
_symmetry_cell_setting 'orthorhombic'
loop_
_space_group_symop_operation_xyz
x,y,z
-x,-y,z
-x,1/2+y,z
x,1/2-y,z
x,1/2+y,1/2+z
-x,1/2-y,1/2+z
-x,y,1/2+z
x,-y,1/2+z
loop_
_atom_site_type_symbol
_atom_site_label
_atom_site_fract_x
_atom_site_fract_y
_atom_site_fract_z
Si Si1 0.856814 0.653107 0.775280
Si Si2 0.170897 0.148449 0.162936
Si Si3 0.471150 0.094970 0.260588
Si Si4 0.040585 0.355764 0.978954
Si Si5 0.344532 0.116422 0.836218
Si Si6 0.284794 0.416660 0.355677
Si Si7 0.625450 0.651792 0.070060
Si Si8 0.167300 0.355103 0.540966
O O1 0.898719 0.750000 0.756298
O O2 0.914787 0.610786 0.870221
O O3 0.752291 0.662913 0.816974
O O4 0.845019 0.611903 0.660353
O O5 0.149322 0.250000 0.185052
O O6 0.203476 0.108007 0.273045
O O7 0.264942 0.143810 0.093600
O O8 0.090957 0.112422 0.085951
O O9 0.571463 0.140225 0.258694
O O10 0.382546 0.131362 0.325588
O O11 0.430072 0.087294 0.144348
O O12 0.500000 0.000000 0.303440
O O13 0.055954 0.250000 0.978499
O O14 0.931455 0.371526 0.985499
O O15 0.310933 0.016441 0.836429
O O16 0.387757 0.137160 0.948732
O O17 0.248196 0.397784 0.471830
O O18 0.597793 0.750000 0.100526
O O19 0.183026 0.250000 0.543787
#
# Coordination Sequence:
#
# PCOD9360898 Si02
#       8
#     8   8   8   8   8   8   8   8
#     4  10  21  39  60  86 118 155 205 256 319 385
#     4   9  17  34  61  85 112 155 209 266 308 365
#     4   9  22  40  59  86 118 166 212 254 308 379
#     4   9  18  35  62  89 115 158 211 263 322 382
#     4  11  22  39  62  86 126 167 201 251 321 386
#     4  10  22  38  58  87 125 162 208 252 316 382
#     4  10  20  36  61  90 116 155 211 264 310 362
#     4  10  22  37  61  93 124 162 207 269 325 375
#
# _framework density 22.781015
#
# number of rings (size 3 to 8) (size 9 to 14) (size 15 to 20)
#    0.000    2.250    1.250    0.750    1.750    7.000 
#    0.000    1.875    0.000    0.000    0.000    0.000 
#    0.000    0.000    0.000    0.000    0.000    0.000 
#
# Total GULP energy -178524.312935 kJ/mol
# GULP energy per Si atom -5578.884779 kJ/mol
# Density = 2.272916 g / cm^3
# Si number density = 22.781015 Si / 1000 Ang^3
#
#
#
# Elastic Constant Matrix: (Units=GPa)
#
#
# Indices 1 2 3 4 5 6 
#
# 1 95.3683 14.3316 47.7313 0.0000 0.0000 0.0000
# 2 14.3316 41.7501 6.0224 0.0000 0.0000 0.0000
# 3 47.7313 6.0224 116.1465 0.0000 0.0000 0.0000
# 4 0.0000 0.0000 0.0000 22.7487 0.0000 0.0000
# 5 0.0000 0.0000 0.0000 0.0000 30.5124 0.0000
# 6 0.0000 0.0000 0.0000 0.0000 0.0000 25.4469
#
#
#
# Elastic Compliance Matrix: (Units=1/GPa)
#
#
# Indices 1 2 3 4 5 6 
#
# 1 0.013820 -0.003954 -0.005474 0.000000 0.000000 0.000000
# 2 -0.003954 0.025264 0.000315 0.000000 0.000000 0.000000
# 3 -0.005474 0.000315 0.010843 0.000000 0.000000 0.000000
# 4 0.000000 0.000000 0.000000 0.043959 0.000000 0.000000
# 5 0.000000 0.000000 0.000000 0.000000 0.032774 0.000000
# 6 0.000000 0.000000 0.000000 0.000000 0.000000 0.039297
#
#
# Mechanical properties :
#
#
# Convention : Reuss Voigt Hill
#
# Bulk Modulus (GPa) = 31.54585 43.27062 37.40823
# Shear Modulus (GPa) = 25.67392 28.08691 26.88041
#
# Velocity S-wave (km/s) = 3.36071 3.51509 3.43876
# Velocity P-wave (km/s) = 5.37928 5.95902 5.67655
#
# Compressibility (1/GPa) = 0.03169989
#
# Stress axis : x y z
#
# Youngs Moduli (GPa) = 72.36023 39.58204 92.22389
#
# Poissons Ratio (x) = 0.15652 0.50486
# Poissons Ratio (y) = 0.28613 -0.02906
# Poissons Ratio (z) = 0.39612 -0.01247
#
# Static dielectric constant tensor:
#      x y z
#    x 1.842940 0.000000 0.000000 
#    y 0.000000 1.939720 0.000000 
#    z 0.000000 0.000000 1.848390 
# 
# From -- ./inp_files/6636.got.cif
#   From: 2010.05.17/outbox.cif.g08.bks.cpg/sg39_4_cif.got.tgz:6636.got - 2010.06.03 18:22:40.
