data_PCOD9360760
_publ_section_title
;
Structure prediction by ZEFSAII (Michael W. Deem and Ramdas Pophale) SiO2 
 PCOD9360760
Probable space group: A B M 2
;
_chemical_formula_sum "Si O2"
_cell_formula_units_Z 60
_cell_length_a 17.369529
_cell_length_b 9.473449
_cell_length_c 19.534918
_cell_angle_alpha 90.000000
_cell_angle_beta 90.000000
_cell_angle_gamma 90.000000
_cell_volume 3214.458003
_symmetry_space_group_name_H-M "A B M 2"
_symmetry_group_IT_number 39
_symmetry_cell_setting 'orthorhombic'
loop_
_space_group_symop_operation_xyz
x,y,z
-x,-y,z
-x,1/2+y,z
x,1/2-y,z
x,1/2+y,1/2+z
-x,1/2-y,1/2+z
-x,y,1/2+z
x,-y,1/2+z
loop_
_atom_site_type_symbol
_atom_site_label
_atom_site_fract_x
_atom_site_fract_y
_atom_site_fract_z
Si Si1 0.290945 0.420634 0.026430
Si Si2 0.073918 0.915678 0.350396
Si Si3 0.120494 0.416081 0.000485
Si Si4 0.705653 0.418562 0.679905
Si Si5 0.421521 0.917053 0.264042
Si Si6 0.000000 0.000000 0.616384
Si Si7 0.855737 0.089993 0.206474
Si Si8 0.423752 0.583995 0.427615
O O1 0.286412 0.250000 0.020589
O O2 0.320979 0.448292 0.102338
O O3 0.204007 0.477014 0.019340
O O4 0.349331 0.469638 0.968379
O O5 0.055321 0.750000 0.356838
O O6 0.096010 0.972209 0.425736
O O7 0.133855 0.927163 0.288381
O O8 0.000000 0.000000 0.326776
O O9 0.130866 0.250000 0.989400
O O10 0.058607 0.428894 0.061391
O O11 0.703007 0.250000 0.692442
O O12 0.650738 0.505964 0.729705
O O13 0.793145 0.475313 0.684157
O O14 0.425838 0.750000 0.246976
O O15 0.413097 0.928717 0.346172
O O16 0.500000 0.000000 0.244975
O O17 0.062166 0.074437 0.666926
O O18 0.827939 0.250000 0.193207
O O19 0.500000 0.500000 0.447477
O O20 0.434027 0.750000 0.442978
#
# Coordination Sequence:
#
# PCOD9360760 Si02
#       8
#     8   8   8   8   8   4   8   8
#     4   9  19  36  58  84 112 150 196 237 287 347
#     4  10  21  37  57  80 109 146 194 244 293 351
#     4  10  20  35  57  82 111 151 195 240 291 350
#     4  11  23  39  60  86 120 157 196 242 295 353
#     4  10  21  39  64  91 122 156 196 241 290 351
#     4  12  20  36  62  80 120 156 198 244 298 356
#     4  11  24  38  57  86 117 153 197 248 301 352
#     4   9  19  37  63  88 116 152 192 235 286 345
#
# _framework density 18.665666999999999
#
# number of rings (size 3 to 8) (size 9 to 14) (size 15 to 20)
#    0.000    1.867    2.667    1.200    1.867    2.133 
#    0.000    2.667    0.000    0.000    0.000    0.000 
#    0.000    0.000    0.000    0.000    0.000    0.000 
#
# Total GULP energy -167118.075528 kJ/mol
# GULP energy per Si atom -5570.602518 kJ/mol
# Density = 1.862318 g / cm^3
# Si number density = 18.665667 Si / 1000 Ang^3
#
#
#
# Elastic Constant Matrix: (Units=GPa)
#
#
# Indices 1 2 3 4 5 6 
#
# 1 108.8262 39.2897 32.7277 0.0000 0.0000 0.0000
# 2 39.2897 64.6297 31.9043 0.0000 0.0000 0.0000
# 3 32.7277 31.9043 70.3961 0.0000 0.0000 0.0000
# 4 0.0000 0.0000 0.0000 15.6926 0.0000 0.0000
# 5 0.0000 0.0000 0.0000 0.0000 29.0291 0.0000
# 6 0.0000 0.0000 0.0000 0.0000 0.0000 30.6903
#
#
#
# Elastic Compliance Matrix: (Units=1/GPa)
#
#
# Indices 1 2 3 4 5 6 
#
# 1 0.012242 -0.005968 -0.002987 0.000000 0.000000 0.000000
# 2 -0.005968 0.022841 -0.007577 0.000000 0.000000 0.000000
# 3 -0.002987 -0.007577 0.019028 0.000000 0.000000 0.000000
# 4 0.000000 0.000000 0.000000 0.063724 0.000000 0.000000
# 5 0.000000 0.000000 0.000000 0.000000 0.034448 0.000000
# 6 0.000000 0.000000 0.000000 0.000000 0.000000 0.032584
#
#
# Mechanical properties :
#
#
# Convention : Reuss Voigt Hill
#
# Bulk Modulus (GPa) = 47.51182 50.18839 48.85011
# Shear Modulus (GPa) = 22.22752 24.41108 23.31930
#
# Velocity S-wave (km/s) = 3.45458 3.62028 3.53840
# Velocity P-wave (km/s) = 6.43595 6.66496 6.55146
#
# Compressibility (1/GPa) = 0.02104739
#
# Stress axis : x y z
#
# Youngs Moduli (GPa) = 81.68840 43.78057 52.55398
#
# Poissons Ratio (x) = 0.26126 0.15696
# Poissons Ratio (y) = 0.48748 0.39823
# Poissons Ratio (z) = 0.24398 0.33175
#
# Static dielectric constant tensor:
#      x y z
#    x 1.646530 0.000000 0.000000 
#    y 0.000000 1.630730 0.000000 
#    z 0.000000 0.000000 1.675280 
# 
# From -- ./inp_files/12938.got.cif
#   From: 2010.05.17/outbox.cif.g08.bks.cpg/sg39_7_cif.got.tgz:12938.got - 2010.06.03 18:22:40.
