data_PCOD9360541
_publ_section_title
;
Structure prediction by ZEFSAII (Michael W. Deem and Ramdas Pophale) SiO2 
 PCOD9360541
Probable space group: A B M 2
;
_chemical_formula_sum "Si O2"
_cell_formula_units_Z 64
_cell_length_a 14.525883
_cell_length_b 8.701389
_cell_length_c 31.966303
_cell_angle_alpha 90.000000
_cell_angle_beta 90.000000
_cell_angle_gamma 90.000000
_cell_volume 4040.392329
_symmetry_space_group_name_H-M "A B M 2"
_symmetry_group_IT_number 39
_symmetry_cell_setting 'orthorhombic'
loop_
_space_group_symop_operation_xyz
x,y,z
-x,-y,z
-x,1/2+y,z
x,1/2-y,z
x,1/2+y,1/2+z
-x,1/2-y,1/2+z
-x,y,1/2+z
x,-y,1/2+z
loop_
_atom_site_type_symbol
_atom_site_label
_atom_site_fract_x
_atom_site_fract_y
_atom_site_fract_z
Si Si1 0.401456 0.933645 0.698980
Si Si2 0.103455 0.433609 0.404437
Si Si3 0.401238 0.566228 0.105479
Si Si4 0.783424 0.434427 0.573172
Si Si5 0.896155 0.434543 0.811299
Si Si6 0.896624 0.433791 0.490382
Si Si7 0.897338 0.065776 0.151246
Si Si8 0.780880 0.933824 0.734777
O O1 0.405515 0.750000 0.696218
O O2 0.500000 0.000000 0.712923
O O3 0.384890 0.002211 0.652486
O O4 0.317713 0.988062 0.727704
O O5 0.100328 0.250000 0.408586
O O6 0.140641 0.470986 0.358198
O O7 0.144559 0.504339 0.446643
O O8 0.000000 0.500000 0.403714
O O9 0.500000 0.500000 0.091922
O O10 0.404111 0.750000 0.107162
O O11 0.317041 0.508410 0.077537
O O12 0.775980 0.250000 0.575465
O O13 0.835097 0.476051 0.530247
O O14 0.843630 0.493992 0.612120
O O15 0.900388 0.250000 0.807206
O O16 0.832929 0.505298 0.775531
O O17 0.000000 0.500000 0.807523
O O18 0.903630 0.250000 0.488188
O O19 0.000000 0.500000 0.495481
O O20 0.900058 0.250000 0.146559
O O21 0.842925 0.029610 0.193961
O O22 0.000000 0.000000 0.153218
O O23 0.770295 0.750000 0.736637
#
# Coordination Sequence:
#
# PCOD9360541 Si02
#       8
#     8   8   8   8   8   8   8   8
#     4  11  21  35  55  75 100 130 166 211 255 298
#     4   9  17  30  49  71  97 129 167 209 253 297
#     4  11  21  35  54  75  99 129 167 210 255 299
#     4  11  22  35  51  73 100 133 171 209 251 298
#     4  10  20  33  50  74 102 135 172 210 253 300
#     4  10  20  32  49  73 101 133 170 208 250 299
#     4  11  23  35  48  67  98 136 174 208 243 292
#     4  11  22  35  51  74 101 133 173 209 250 299
#
# _framework density 15.840045999999999
#
# number of rings (size 3 to 8) (size 9 to 14) (size 15 to 20)
#    0.000    1.500    1.250    6.750    0.000    7.000 
#    0.000    0.000    0.000    0.000    0.000    0.875 
#    0.000    2.000    0.000    0.000    0.000    0.000 
#
# Total GULP energy -178683.364368 kJ/mol
# GULP energy per Si atom -5583.855136 kJ/mol
# Density = 1.580399 g / cm^3
# Si number density = 15.840046 Si / 1000 Ang^3
#
#
#
# Elastic Constant Matrix: (Units=GPa)
#
#
# Indices 1 2 3 4 5 6 
#
# 1 115.5730 52.3081 70.2583 0.0000 0.0000 0.0000
# 2 52.3081 95.0962 64.9066 0.0000 0.0000 0.0000
# 3 70.2583 64.9066 142.8283 0.0000 0.0000 0.0000
# 4 0.0000 0.0000 0.0000 25.1872 0.0000 0.0000
# 5 0.0000 0.0000 0.0000 0.0000 5.7595 0.0000
# 6 0.0000 0.0000 0.0000 0.0000 0.0000 27.1703
#
#
#
# Elastic Compliance Matrix: (Units=1/GPa)
#
#
# Indices 1 2 3 4 5 6 
#
# 1 0.013390 -0.004160 -0.004696 0.000000 0.000000 0.000000
# 2 -0.004160 0.016536 -0.005468 0.000000 0.000000 0.000000
# 3 -0.004696 -0.005468 0.011797 0.000000 0.000000 0.000000
# 4 0.000000 0.000000 0.000000 0.039703 0.000000 0.000000
# 5 0.000000 0.000000 0.000000 0.000000 0.173625 0.000000
# 6 0.000000 0.000000 0.000000 0.000000 0.000000 0.036805
#
#
# Mechanical properties :
#
#
# Convention : Reuss Voigt Hill
#
# Bulk Modulus (GPa) = 76.48895 80.93816 78.71355
# Shear Modulus (GPa) = 15.39109 22.69170 19.04139
#
# Velocity S-wave (km/s) = 3.12052 3.78901 3.47090
# Velocity P-wave (km/s) = 7.83433 8.38751 8.11563
#
# Compressibility (1/GPa) = 0.01307378
#
# Stress axis : x y z
#
# Youngs Moduli (GPa) = 74.68092 60.47313 84.77004
#
# Poissons Ratio (x) = 0.25157 0.39811
# Poissons Ratio (y) = 0.31067 0.46356
# Poissons Ratio (z) = 0.35073 0.33069
#
# Static dielectric constant tensor:
#      x y z
#    x 1.509340 0.000000 0.000000 
#    y 0.000000 1.529350 0.000000 
#    z 0.000000 0.000000 1.537660 
# 
# From -- ./inp_files/17995.got.cif
#   From: 2010.05.17/outbox.cif.g08.bks.cpg/sg39_9_cif.got.tgz:17995.got - 2010.06.03 18:22:40.
