data_PCOD9360482
_publ_section_title
;
Structure prediction by ZEFSAII (Michael W. Deem and Ramdas Pophale) SiO2 
 PCOD9360482
Probable space group: A B M 2
;
_chemical_formula_sum "Si O2"
_cell_formula_units_Z 48
_cell_length_a 4.884332
_cell_length_b 16.129391
_cell_length_c 25.703318
_cell_angle_alpha 90.000000
_cell_angle_beta 90.000000
_cell_angle_gamma 90.000000
_cell_volume 2024.940822
_symmetry_space_group_name_H-M "A B M 2"
_symmetry_group_IT_number 39
_symmetry_cell_setting 'orthorhombic'
loop_
_space_group_symop_operation_xyz
x,y,z
-x,-y,z
-x,1/2+y,z
x,1/2-y,z
x,1/2+y,1/2+z
-x,1/2-y,1/2+z
-x,y,1/2+z
x,-y,1/2+z
loop_
_atom_site_type_symbol
_atom_site_label
_atom_site_fract_x
_atom_site_fract_y
_atom_site_fract_z
Si Si1 0.624561 0.344853 0.427090
Si Si2 0.397607 0.346544 0.593426
Si Si3 0.879908 0.091385 0.869028
Si Si4 0.614086 0.149804 0.762655
Si Si5 0.901913 0.093876 0.532717
Si Si6 0.885381 0.350752 0.198918
O O1 0.536214 0.250000 0.432287
O O2 0.167034 0.353358 0.548903
O O3 0.860565 0.351578 0.383168
O O4 0.765697 0.375912 0.479547
O O5 0.476015 0.250000 0.601121
O O6 0.246923 0.379251 0.645169
O O7 0.666941 0.394883 0.576163
O O8 0.735696 0.112913 0.814878
O O9 0.640690 0.102694 0.911489
O O10 0.000000 0.000000 0.869342
O O11 0.620346 0.250000 0.767697
O O12 0.809299 0.125624 0.714257
O O13 0.310043 0.124409 0.746774
O O14 0.000000 0.000000 0.528433
O O15 0.882533 0.250000 0.195909
#
# Coordination Sequence:
#
# PCOD9360482 Si02
#       6
#     8   8   8   8   8   8
#     4  12  25  45  70  96 125 172 226 272 321 393
#     4  11  22  42  69  99 131 174 225 271 318 387
#     4  12  26  43  65  98 135 171 213 274 339 391
#     4  10  19  37  62  92 127 171 220 267 316 382
#     4  12  26  44  66  98 136 172 212 272 338 392
#     4   9  19  35  62  93 126 168 220 270 314 369
#
# _framework density 23.704398000000001
#
# number of rings (size 3 to 8) (size 9 to 14) (size 15 to 20)
#    0.000    1.000    0.000    7.500    0.000    5.333 
#    0.000    5.000    0.000    0.000    0.000    0.000 
#    0.000    0.000    0.000    0.000    0.000    0.000 
#
# Total GULP energy -134518.736025 kJ/mol
# GULP energy per Si atom -5604.947334 kJ/mol
# Density = 2.365045 g / cm^3
# Si number density = 23.704398 Si / 1000 Ang^3
#
#
#
# Elastic Constant Matrix: (Units=GPa)
#
#
# Indices 1 2 3 4 5 6 
#
# 1 106.2033 8.1033 4.8100 0.0000 0.0000 0.0000
# 2 8.1033 63.6847 18.0828 0.0000 0.0000 0.0000
# 3 4.8100 18.0828 74.4303 0.0000 0.0000 0.0000
# 4 0.0000 0.0000 0.0000 61.0711 0.0000 0.0000
# 5 0.0000 0.0000 0.0000 0.0000 39.0822 0.0000
# 6 0.0000 0.0000 0.0000 0.0000 0.0000-1138.4064
#
#
#
# Elastic Compliance Matrix: (Units=1/GPa)
#
#
# Indices 1 2 3 4 5 6 
#
# 1 0.009516 -0.001113 -0.000345 0.000000 0.000000 0.000000
# 2 -0.001113 0.016996 -0.004057 0.000000 0.000000 0.000000
# 3 -0.000345 -0.004057 0.014443 0.000000 0.000000 0.000000
# 4 0.000000 0.000000 0.000000 0.016374 0.000000 0.000000
# 5 0.000000 0.000000 0.000000 0.000000 0.025587 0.000000
# 6 0.000000 0.000000 0.000000 0.000000 0.000000 -0.000878
#
#
# Mechanical properties :
#
#
# Convention : Reuss Voigt Hill
#
# Bulk Modulus (GPa) = 33.41566 34.03449 33.72507
# Shear Modulus (GPa) = 48.52303 -193.42913 -72.45305
#
# Velocity S-wave (km/s) = 4.52929 -9.04310 -5.53458
# Velocity P-wave (km/s) = 6.44050 9.72871 5.15596
#
# Compressibility (1/GPa) = 0.02992609
#
# Stress axis : x y z
#
# Youngs Moduli (GPa) = 105.08135 58.83739 69.23595
#
# Poissons Ratio (x) = 0.06549 0.02386
# Poissons Ratio (y) = 0.11696 0.28091
# Poissons Ratio (z) = 0.03621 0.23872
#
# Static dielectric constant tensor:
#      x y z
#    x 1.841950 0.000000 0.000000 
#    y 0.000000 1.860830 0.000000 
#    z 0.000000 0.000000 1.926480 
# 
# From -- ./inp_files/13497.got.cif
#   From: 2010.05.17/outbox.cif.g08.bks.cpg/sg39_7_cif.got.tgz:13497.got - 2010.06.03 18:22:40.
