data_PCOD9360465
_publ_section_title
;
Structure prediction by ZEFSAII (Michael W. Deem and Ramdas Pophale) SiO2 
 PCOD9360465
Probable space group: A B M 2
;
_chemical_formula_sum "Si O2"
_cell_formula_units_Z 64
_cell_length_a 15.859879
_cell_length_b 19.077910
_cell_length_c 10.470067
_cell_angle_alpha 90.000000
_cell_angle_beta 90.000000
_cell_angle_gamma 90.000000
_cell_volume 3167.963186
_symmetry_space_group_name_H-M "A B M 2"
_symmetry_group_IT_number 39
_symmetry_cell_setting 'orthorhombic'
loop_
_space_group_symop_operation_xyz
x,y,z
-x,-y,z
-x,1/2+y,z
x,1/2-y,z
x,1/2+y,1/2+z
-x,1/2-y,1/2+z
-x,y,1/2+z
x,-y,1/2+z
loop_
_atom_site_type_symbol
_atom_site_label
_atom_site_fract_x
_atom_site_fract_y
_atom_site_fract_z
Si Si1 0.812519 0.598694 0.578880
Si Si2 0.238464 0.329337 0.067993
Si Si3 0.407235 0.403725 0.983874
Si Si4 0.115733 0.330213 0.825804
Si Si5 0.962831 0.929919 0.402456
Si Si6 0.816282 0.959971 0.223525
Si Si7 0.327878 0.051214 0.417026
Si Si8 0.482188 0.917186 0.747640
O O1 0.829429 0.640712 0.707794
O O2 0.893486 0.609843 0.488444
O O3 0.813004 0.516115 0.612355
O O4 0.722125 0.604503 0.509612
O O5 0.245322 0.250000 0.115364
O O6 0.207557 0.383481 0.174293
O O7 0.326719 0.356889 0.013511
O O8 0.172070 0.331611 0.952633
O O9 0.376353 0.485798 0.983147
O O10 0.447968 0.388647 0.845862
O O11 0.471647 0.392591 0.102128
O O12 0.090073 0.250000 0.799941
O O13 0.035898 0.379517 0.853097
O O14 0.907615 0.959123 0.285532
O O15 0.000000 0.000000 0.468263
O O16 0.746410 0.980788 0.328531
O O17 0.393575 0.088808 0.322917
O O18 0.500000 0.000000 0.739744
#
# Coordination Sequence:
#
# PCOD9360465 Si02
#       8
#     8   8   8   8   8   8   8   8
#     4  11  22  37  63  90 122 159 208 259 315 376
#     4  11  24  42  63  87 122 170 213 255 318 387
#     4  11  21  37  62  93 131 162 207 260 319 380
#     4  11  26  43  60  87 127 168 207 258 320 381
#     4  11  24  37  61  94 120 158 208 259 309 375
#     4  11  21  38  64  92 118 160 207 264 313 370
#     4  10  19  36  63  92 124 156 204 260 320 372
#     4  10  20  34  60  98 127 158 199 262 321 375
#
# _framework density 20.202255000000001
#
# number of rings (size 3 to 8) (size 9 to 14) (size 15 to 20)
#    0.000    1.250    3.750    2.625    3.500    4.000 
#    0.000    2.500    0.000    0.000    0.000    0.000 
#    0.000    0.000    0.000    0.000    0.000    0.000 
#
# Total GULP energy -178721.784806 kJ/mol
# GULP energy per Si atom -5585.055775 kJ/mol
# Density = 2.015627 g / cm^3
# Si number density = 20.202255 Si / 1000 Ang^3
#
#
#
# Elastic Constant Matrix: (Units=GPa)
#
#
# Indices 1 2 3 4 5 6 
#
# 1 69.0131 2.0298 14.2433 0.0000 0.0000 0.0000
# 2 2.0298 57.4187 6.4892 0.0000 0.0000 0.0000
# 3 14.2433 6.4892 73.4078 0.0000 0.0000 0.0000
# 4 0.0000 0.0000 0.0000 20.5452 0.0000 0.0000
# 5 0.0000 0.0000 0.0000 0.0000 22.7967 0.0000
# 6 0.0000 0.0000 0.0000 0.0000 0.0000 15.6182
#
#
#
# Elastic Compliance Matrix: (Units=1/GPa)
#
#
# Indices 1 2 3 4 5 6 
#
# 1 0.015097 -0.000205 -0.002911 0.000000 0.000000 0.000000
# 2 -0.000205 0.017594 -0.001516 0.000000 0.000000 0.000000
# 3 -0.002911 -0.001516 0.014321 0.000000 0.000000 0.000000
# 4 0.000000 0.000000 0.000000 0.048673 0.000000 0.000000
# 5 0.000000 0.000000 0.000000 0.000000 0.043866 0.000000
# 6 0.000000 0.000000 0.000000 0.000000 0.000000 0.064028
#
#
# Mechanical properties :
#
#
# Convention : Reuss Voigt Hill
#
# Bulk Modulus (GPa) = 26.49025 27.26270 26.87648
# Shear Modulus (GPa) = 22.18025 23.59717 22.88871
#
# Velocity S-wave (km/s) = 3.31707 3.42138 3.36963
# Velocity P-wave (km/s) = 5.27367 5.39740 5.33589
#
# Compressibility (1/GPa) = 0.03774973
#
# Stress axis : x y z
#
# Youngs Moduli (GPa) = 66.23907 56.83614 69.82574
#
# Poissons Ratio (x) = 0.01163 0.20327
# Poissons Ratio (y) = 0.01356 0.10583
# Poissons Ratio (z) = 0.19283 0.08614
#
# Static dielectric constant tensor:
#      x y z
#    x 1.739270 0.000000 0.000000 
#    y 0.000000 1.708360 0.000000 
#    z 0.000000 0.000000 1.749380 
# 
# From -- ./inp_files/6623.got.cif
#   From: 2010.05.17/outbox.cif.g08.bks.cpg/sg39_4_cif.got.tgz:6623.got - 2010.06.03 18:22:40.
