data_PCOD9360806
_publ_section_title
;
Structure prediction by ZEFSAII (Michael W. Deem and Ramdas Pophale) SiO2 
 PCOD9360806
Probable space group: A B M 2
;
_chemical_formula_sum "Si O2"
_cell_formula_units_Z 64
_cell_length_a 24.271920
_cell_length_b 8.586924
_cell_length_c 15.780578
_cell_angle_alpha 90.000000
_cell_angle_beta 90.000000
_cell_angle_gamma 90.000000
_cell_volume 3289.005936
_symmetry_space_group_name_H-M "A B M 2"
_symmetry_group_IT_number 39
_symmetry_cell_setting 'orthorhombic'
loop_
_space_group_symop_operation_xyz
x,y,z
-x,-y,z
-x,1/2+y,z
x,1/2-y,z
x,1/2+y,1/2+z
-x,1/2-y,1/2+z
-x,y,1/2+z
x,-y,1/2+z
loop_
_atom_site_type_symbol
_atom_site_label
_atom_site_fract_x
_atom_site_fract_y
_atom_site_fract_z
Si Si1 0.246851 0.936775 0.589070
Si Si2 0.061660 0.434972 0.506210
Si Si3 0.869993 0.935587 0.164648
Si Si4 0.124420 0.566902 0.345306
Si Si5 0.561578 0.563546 0.499604
Si Si6 0.239919 0.564559 0.900801
Si Si7 0.638192 0.560276 0.344624
Si Si8 0.631215 0.062534 0.654902
O O1 0.245442 0.750000 0.572408
O O2 0.194381 0.973080 0.647424
O O3 0.305327 0.973732 0.631433
O O4 0.241232 0.025958 0.500527
O O5 0.061557 0.250000 0.516552
O O6 0.096719 0.510240 0.582267
O O7 0.089706 0.479039 0.417083
O O8 0.000000 0.500000 0.508407
O O9 0.874680 0.750000 0.174296
O O10 0.890252 0.016422 0.250243
O O11 0.116667 0.750000 0.357004
O O12 0.188109 0.521440 0.360427
O O13 0.500000 0.500000 0.494844
O O14 0.560193 0.750000 0.497024
O O15 0.598463 0.507149 0.420065
O O16 0.591464 0.510679 0.585474
O O17 0.233478 0.750000 0.887574
O O18 0.298750 0.514491 0.862966
O O19 0.637954 0.750000 0.345435
O O20 0.620236 0.510378 0.251035
O O21 0.625438 0.250000 0.651264
#
# Coordination Sequence:
#
# PCOD9360806 Si02
#       8
#     8   8   8   8   8   8   8   8
#     4  10  20  35  61  93 129 163 200 247 308 372
#     4  12  26  46  69  95 126 167 214 265 318 374
#     4  11  23  42  67  97 131 169 209 257 314 375
#     4  12  25  42  64  96 132 169 213 261 311 374
#     4  11  23  41  60  84 115 154 203 254 304 362
#     4  11  20  36  63  92 126 166 204 250 310 372
#     4   9  20  38  61  88 121 158 198 246 303 364
#     4  10  20  38  62  89 121 159 197 244 302 362
#
# _framework density 19.458766000000001
#
# number of rings (size 3 to 8) (size 9 to 14) (size 15 to 20)
#    0.000    1.250    2.500    4.125    0.000    3.500 
#    0.000    7.500    0.000    0.000    0.000    0.000 
#    0.000    0.000    0.000    0.000    0.000    0.000 
#
# Total GULP energy -178961.275834 kJ/mol
# GULP energy per Si atom -5592.539870 kJ/mol
# Density = 1.941448 g / cm^3
# Si number density = 19.458766 Si / 1000 Ang^3
#
#
#
# Elastic Constant Matrix: (Units=GPa)
#
#
# Indices 1 2 3 4 5 6 
#
# 1 81.0910 5.2647 -1.4477 0.0000 0.0000 0.0000
# 2 5.2647 29.2009 -3.9787 0.0000 0.0000 0.0000
# 3 -1.4477 -3.9787 79.7758 0.0000 0.0000 0.0000
# 4 0.0000 0.0000 0.0000 26.8358 0.0000 0.0000
# 5 0.0000 0.0000 0.0000 0.0000 -2.8421 0.0000
# 6 0.0000 0.0000 0.0000 0.0000 0.0000 17.5425
#
#
#
# Elastic Compliance Matrix: (Units=1/GPa)
#
#
# Indices 1 2 3 4 5 6 
#
# 1 0.012479 -0.002234 0.000115 0.000000 0.000000 0.000000
# 2 -0.002234 0.034880 0.001699 0.000000 0.000000 0.000000
# 3 0.000115 0.001699 0.012622 0.000000 0.000000 0.000000
# 4 0.000000 0.000000 0.000000 0.037264 0.000000 0.000000
# 5 0.000000 0.000000 0.000000 0.000000 -0.351856 0.000000
# 6 0.000000 0.000000 0.000000 0.000000 0.000000 0.057004
#
#
# Mechanical properties :
#
#
# Convention : Reuss Voigt Hill
#
# Bulk Modulus (GPa) = 16.90890 21.08270 18.99580
# Shear Modulus (GPa) = -28.24004 20.98921 -3.62542
#
# Velocity S-wave (km/s) = -3.81369 3.28784 -1.36644
# Velocity P-wave (km/s) = 3.26862 5.02706 2.70069
#
# Compressibility (1/GPa) = 0.05914046
#
# Stress axis : x y z
#
# Youngs Moduli (GPa) = 80.13504 28.66984 79.22707
#
# Poissons Ratio (x) = 0.06405 -0.00911
# Poissons Ratio (y) = 0.17904 -0.13461
# Poissons Ratio (z) = -0.00922 -0.04871
#
# Static dielectric constant tensor:
#      x y z
#    x 1.656330 0.000000 0.000000 
#    y 0.000000 1.659390 0.000000 
#    z 0.000000 0.000000 1.667140 
# 
# From -- ./inp_files/10631.got.cif
#   From: 2010.05.17/outbox.cif.g08.bks.cpg/sg39_6_cif.got.tgz:10631.got - 2010.06.03 18:22:40.
