data_PCOD9360986
_publ_section_title
;
Structure prediction by ZEFSAII (Michael W. Deem and Ramdas Pophale) SiO2 
 PCOD9360986
Probable space group: A B M 2
;
_chemical_formula_sum "Si O2"
_cell_formula_units_Z 64
_cell_length_a 8.759870
_cell_length_b 16.129331
_cell_length_c 23.959059
_cell_angle_alpha 90.000000
_cell_angle_beta 90.000000
_cell_angle_gamma 90.000000
_cell_volume 3385.195638
_symmetry_space_group_name_H-M "A B M 2"
_symmetry_group_IT_number 39
_symmetry_cell_setting 'orthorhombic'
loop_
_space_group_symop_operation_xyz
x,y,z
-x,-y,z
-x,1/2+y,z
x,1/2-y,z
x,1/2+y,1/2+z
-x,1/2-y,1/2+z
-x,y,1/2+z
x,-y,1/2+z
loop_
_atom_site_type_symbol
_atom_site_label
_atom_site_fract_x
_atom_site_fract_y
_atom_site_fract_z
Si Si1 0.815901 0.496421 0.422270
Si Si2 0.819499 0.843229 0.841378
Si Si3 0.680571 0.495875 0.043831
Si Si4 0.104789 0.417565 0.131965
Si Si5 0.332071 0.103508 0.726535
Si Si6 0.802320 0.657148 0.607556
Si Si7 0.814363 0.155871 0.849450
Si Si8 0.315872 0.403997 0.233288
O O1 0.775454 0.419129 0.381964
O O2 0.735187 0.486607 0.481428
O O3 0.774094 0.583607 0.393064
O O4 0.000000 0.500000 0.430117
O O5 0.782462 0.750000 0.861947
O O6 0.743020 0.855557 0.780953
O O7 0.003640 0.848917 0.837466
O O8 0.500000 0.500000 0.049975
O O9 0.768490 0.555214 0.087307
O O10 0.733984 0.404937 0.062576
O O11 0.191280 0.384228 0.186143
O O12 0.000000 0.500000 0.144266
O O13 0.984610 0.353361 0.107303
O O14 0.251118 0.130244 0.669495
O O15 0.511453 0.122606 0.720340
O O16 0.315916 0.004457 0.734996
O O17 0.754162 0.750000 0.596983
O O18 0.779933 0.250000 0.867693
O O19 0.731124 0.134459 0.791922
#
# Coordination Sequence:
#
# PCOD9360986 Si02
#       8
#     8   8   8   8   8   8   8   8
#     4  10  21  39  62  85 117 160 203 250 301 346
#     4  10  21  38  61  89 119 157 202 247 293 355
#     4  11  23  42  64  88 117 159 202 243 305 372
#     4  10  20  37  62  84 115 155 198 243 290 356
#     4  11  21  35  58  90 126 160 195 240 305 364
#     4  11  23  39  63  93 120 154 201 253 300 354
#     4  10  22  37  59  89 120 156 206 249 290 352
#     4  11  21  34  58  89 123 162 196 241 301 364
#
# _framework density 18.905850999999998
#
# number of rings (size 3 to 8) (size 9 to 14) (size 15 to 20)
#    0.000    1.500    3.750    3.000    0.000    4.000 
#    0.000    5.625    0.000    0.000    0.000    0.000 
#    0.000    0.000    0.000    0.000    0.000    0.000 
#
# Total GULP energy -178730.124054 kJ/mol
# GULP energy per Si atom -5585.316377 kJ/mol
# Density = 1.886282 g / cm^3
# Si number density = 18.905851 Si / 1000 Ang^3
#
#
#
# Elastic Constant Matrix: (Units=GPa)
#
#
# Indices 1 2 3 4 5 6 
#
# 1 68.5009 3.0072 18.0223 0.0000 0.0000 0.0000
# 2 3.0072 58.5780 -15.2843 0.0000 0.0000 0.0000
# 3 18.0223 -15.2843 34.4515 0.0000 0.0000 0.0000
# 4 0.0000 0.0000 0.0000 7.4916 0.0000 0.0000
# 5 0.0000 0.0000 0.0000 0.0000 55.3049 0.0000
# 6 0.0000 0.0000 0.0000 0.0000 0.0000 8.5264
#
#
#
# Elastic Compliance Matrix: (Units=1/GPa)
#
#
# Indices 1 2 3 4 5 6 
#
# 1 0.017626 -0.003744 -0.010881 0.000000 0.000000 0.000000
# 2 -0.003744 0.020101 0.010877 0.000000 0.000000 0.000000
# 3 -0.010881 0.010877 0.039544 0.000000 0.000000 0.000000
# 4 0.000000 0.000000 0.000000 0.133484 0.000000 0.000000
# 5 0.000000 0.000000 0.000000 0.000000 0.018082 0.000000
# 6 0.000000 0.000000 0.000000 0.000000 0.000000 0.117283
#
#
# Mechanical properties :
#
#
# Convention : Reuss Voigt Hill
#
# Bulk Modulus (GPa) = 14.33214 19.22452 16.77833
# Shear Modulus (GPa) = 13.26701 24.65023 18.95862
#
# Velocity S-wave (km/s) = 2.65191 3.61479 3.17012
# Velocity P-wave (km/s) = 4.11997 5.25480 4.72160
#
# Compressibility (1/GPa) = 0.06977326
#
# Stress axis : x y z
#
# Youngs Moduli (GPa) = 56.73579 49.74773 25.28831
#
# Poissons Ratio (x) = 0.18626 0.27517
# Poissons Ratio (y) = 0.21242 -0.27505
# Poissons Ratio (z) = 0.61736 -0.54108
#
# Static dielectric constant tensor:
#      x y z
#    x 1.650620 0.000000 0.000000 
#    y 0.000000 1.689040 0.000000 
#    z 0.000000 0.000000 1.615080 
# 
# From -- ./inp_files/14217.got.cif
#   From: 2010.05.17/outbox.cif.g08.bks.cpg/sg39_8_cif.got.tgz:14217.got - 2010.06.03 18:22:40.
