data_PCOD9360064
_publ_section_title
;
Structure prediction by ZEFSAII (Michael W. Deem and Ramdas Pophale) SiO2 
 PCOD9360064
Probable space group: A B M 2
;
_chemical_formula_sum "Si O2"
_cell_formula_units_Z 40
_cell_length_a 9.290148
_cell_length_b 8.226482
_cell_length_c 27.713018
_cell_angle_alpha 90.000000
_cell_angle_beta 90.000000
_cell_angle_gamma 90.000000
_cell_volume 2117.973922
_symmetry_space_group_name_H-M "A B M 2"
_symmetry_group_IT_number 39
_symmetry_cell_setting 'orthorhombic'
loop_
_space_group_symop_operation_xyz
x,y,z
-x,-y,z
-x,1/2+y,z
x,1/2-y,z
x,1/2+y,1/2+z
-x,1/2-y,1/2+z
-x,y,1/2+z
x,-y,1/2+z
loop_
_atom_site_type_symbol
_atom_site_label
_atom_site_fract_x
_atom_site_fract_y
_atom_site_fract_z
Si Si1 0.165597 0.943699 0.438880
Si Si2 0.834023 0.946647 0.127219
Si Si3 0.167196 0.944501 0.836083
Si Si4 0.664165 0.553238 0.032878
Si Si5 0.832894 0.553729 0.232242
O O1 0.164775 0.750000 0.440269
O O2 0.254176 0.005795 0.484797
O O3 0.228321 0.994515 0.386796
O O4 0.000000 0.000000 0.442223
O O5 0.831590 0.750000 0.127045
O O6 0.743710 0.004989 0.081450
O O7 0.776232 0.001879 0.179982
O O8 0.000000 0.000000 0.122660
O O9 0.170410 0.750000 0.837068
O O10 0.228850 0.001634 0.784146
O O11 0.000000 0.000000 0.836259
O O12 0.500000 0.500000 0.032529
O O13 0.670322 0.750000 0.032825
O O14 0.827692 0.750000 0.232516
O O15 0.000000 0.500000 0.232222
#
# Coordination Sequence:
#
# PCOD9360064 Si02
#       5
#     8   8   8   8   8
#     4  10  19  31  48  72  97 123 155 193 232 275
#     4   9  17  31  50  73  97 122 153 192 232 275
#     4   9  15  24  41  67  95 124 152 184 227 273
#     4  10  22  36  50  68  93 124 159 196 236 278
#     4   8  14  24  41  66  95 121 148 183 226 271
#
# _framework density 18.885973
#
# number of rings (size 3 to 8) (size 9 to 14) (size 15 to 20)
#    0.000    2.800    0.000    3.000    0.000    3.200 
#    0.000    0.000    0.000    1.200    0.000    5.600 
#    0.000    0.000    0.000    0.000    0.000    0.000 
#
# Total GULP energy -111357.097271 kJ/mol
# GULP energy per Si atom -5567.854864 kJ/mol
# Density = 1.884299 g / cm^3
# Si number density = 18.885973 Si / 1000 Ang^3
#
#
#
# Elastic Constant Matrix: (Units=GPa)
#
#
# Indices 1 2 3 4 5 6 
#
# 1 50.3700 2.8767 71.2186 0.0000 0.0000 0.0000
# 2 2.8767 17.9692 23.7463 0.0000 0.0000 0.0000
# 3 71.2186 23.7463 263.8347 0.0000 0.0000 0.0000
# 4 0.0000 0.0000 0.0000 28.3098 0.0000 0.0000
# 5 0.0000 0.0000 0.0000 0.0000 -4.4840 0.0000
# 6 0.0000 0.0000 0.0000 0.0000 0.0000 17.9315
#
#
#
# Elastic Compliance Matrix: (Units=1/GPa)
#
#
# Indices 1 2 3 4 5 6 
#
# 1 0.032941 0.007352 -0.009554 0.000000 0.000000 0.000000
# 2 0.007352 0.064804 -0.007817 0.000000 0.000000 0.000000
# 3 -0.009554 -0.007817 0.007073 0.000000 0.000000 0.000000
# 4 0.000000 0.000000 0.000000 0.035323 0.000000 0.000000
# 5 0.000000 0.000000 0.000000 0.000000 -0.223015 0.000000
# 6 0.000000 0.000000 0.000000 0.000000 0.000000 0.055768
#
#
# Mechanical properties :
#
#
# Convention : Reuss Voigt Hill
#
# Bulk Modulus (GPa) = 11.79526 58.65078 35.22302
# Shear Modulus (GPa) = 235.93237 23.97361 129.95299
#
# Velocity S-wave (km/s) = 11.18910 3.56671 8.30413
# Velocity P-wave (km/s) = 13.16005 6.93430 10.51835
#
# Compressibility (1/GPa) = 0.08477979
#
# Stress axis : x y z
#
# Youngs Moduli (GPa) = 30.35697 15.43110 141.38801
#
# Poissons Ratio (x) = -0.11344 1.35079
# Poissons Ratio (y) = -0.22317 1.10525
# Poissons Ratio (z) = 0.29002 0.12063
#
# Static dielectric constant tensor:
#      x y z
#    x 1.605280 0.000000 0.000000 
#    y 0.000000 1.658980 0.000000 
#    z 0.000000 0.000000 1.758160 
# 
# From -- ./inp_files/16735.got.cif
#   From: 2010.05.17/outbox.cif.g08.bks.cpg/sg39_9_cif.got.tgz:16735.got - 2010.06.03 18:22:40.
