data_PCOD9360363
_publ_section_title
;
Structure prediction by ZEFSAII (Michael W. Deem and Ramdas Pophale) SiO2 
 PCOD9360363
Probable space group: A B M 2
;
_chemical_formula_sum "Si O2"
_cell_formula_units_Z 64
_cell_length_a 8.162054
_cell_length_b 18.154103
_cell_length_c 22.478118
_cell_angle_alpha 90.000000
_cell_angle_beta 90.000000
_cell_angle_gamma 90.000000
_cell_volume 3330.689942
_symmetry_space_group_name_H-M "A B M 2"
_symmetry_group_IT_number 39
_symmetry_cell_setting 'orthorhombic'
loop_
_space_group_symop_operation_xyz
x,y,z
-x,-y,z
-x,1/2+y,z
x,1/2-y,z
x,1/2+y,1/2+z
-x,1/2-y,1/2+z
-x,y,1/2+z
x,-y,1/2+z
loop_
_atom_site_type_symbol
_atom_site_label
_atom_site_fract_x
_atom_site_fract_y
_atom_site_fract_z
Si Si1 0.885798 0.838549 0.707910
Si Si2 0.252689 0.162370 0.214207
Si Si3 0.581532 0.838374 0.788175
Si Si4 0.579369 0.335343 0.019843
Si Si5 0.380408 0.561850 0.609582
Si Si6 0.151044 0.552533 0.507482
Si Si7 0.064654 0.834857 0.074083
Si Si8 0.575310 0.080306 0.412707
O O1 0.863456 0.750000 0.703891
O O2 0.727862 0.864978 0.744318
O O3 0.897355 0.866260 0.639898
O O4 0.066132 0.851200 0.735929
O O5 0.261411 0.250000 0.197659
O O6 0.402007 0.148939 0.259605
O O7 0.284949 0.108182 0.158940
O O8 0.598711 0.750000 0.795533
O O9 0.596986 0.877682 0.851202
O O10 0.527499 0.250000 0.018544
O O11 0.482258 0.379118 0.070834
O O12 0.769729 0.337836 0.036229
O O13 0.541132 0.374064 0.957455
O O14 0.500000 0.500000 0.635955
O O15 0.267666 0.521445 0.559974
O O16 0.257853 0.570146 0.450111
O O17 0.000000 0.500000 0.994187
O O18 0.076126 0.624254 0.538619
O O19 0.016840 0.750000 0.082513
O O20 0.500000 0.000000 0.402533
#
# Coordination Sequence:
#
# PCOD9360363 Si02
#       8
#     8   8   8   8   8   8   8   8
#     4   9  18  36  61  95 125 151 196 250 311 368
#     4  10  20  38  64  91 124 161 201 254 310 363
#     4  10  22  41  66  90 120 163 211 263 306 357
#     4  10  20  36  61  90 118 154 206 254 306 367
#     4  11  21  34  58  88 125 163 196 242 303 379
#     4  11  22  38  58  84 120 160 197 244 306 370
#     4  10  19  34  60  93 124 150 187 250 311 369
#     4  11  24  43  61  81 119 166 209 257 304 368
#
# _framework density 19.215236999999998
#
# number of rings (size 3 to 8) (size 9 to 14) (size 15 to 20)
#    0.000    1.750    1.250    4.500    0.000    5.000 
#    4.500    0.000    0.000    0.000    0.000    0.000 
#    0.000    0.000    0.000    0.000    0.000    0.000 
#
# Total GULP energy -178679.512792 kJ/mol
# GULP energy per Si atom -5583.734775 kJ/mol
# Density = 1.917150 g / cm^3
# Si number density = 19.215237 Si / 1000 Ang^3
#
#
#
# Elastic Constant Matrix: (Units=GPa)
#
#
# Indices 1 2 3 4 5 6 
#
# 1 111.9366 29.1053 51.7811 0.0000 0.0000 0.0000
# 2 29.1053 63.0925 36.6029 0.0000 0.0000 0.0000
# 3 51.7811 36.6029 97.4436 0.0000 0.0000 0.0000
# 4 0.0000 0.0000 0.0000 19.3850 0.0000 0.0000
# 5 0.0000 0.0000 0.0000 0.0000 13.5793 0.0000
# 6 0.0000 0.0000 0.0000 0.0000 0.0000 27.6263
#
#
#
# Elastic Compliance Matrix: (Units=1/GPa)
#
#
# Indices 1 2 3 4 5 6 
#
# 1 0.012117 -0.002371 -0.005548 0.000000 0.000000 0.000000
# 2 -0.002371 0.020730 -0.006527 0.000000 0.000000 0.000000
# 3 -0.005548 -0.006527 0.015662 0.000000 0.000000 0.000000
# 4 0.000000 0.000000 0.000000 0.051586 0.000000 0.000000
# 5 0.000000 0.000000 0.000000 0.000000 0.073641 0.000000
# 6 0.000000 0.000000 0.000000 0.000000 0.000000 0.036197
#
#
# Mechanical properties :
#
#
# Convention : Reuss Voigt Hill
#
# Bulk Modulus (GPa) = 50.97602 56.38347 53.67974
# Shear Modulus (GPa) = 20.37781 22.45036 21.41408
#
# Velocity S-wave (km/s) = 3.26007 3.42184 3.34193
# Velocity P-wave (km/s) = 6.38414 6.70960 6.54890
#
# Compressibility (1/GPa) = 0.01961707
#
# Stress axis : x y z
#
# Youngs Moduli (GPa) = 82.53131 48.23918 63.84722
#
# Poissons Ratio (x) = 0.11436 0.35424
# Poissons Ratio (y) = 0.19566 0.41673
# Poissons Ratio (z) = 0.45790 0.31486
#
# Static dielectric constant tensor:
#      x y z
#    x 1.702300 0.000000 0.000000 
#    y 0.000000 1.682210 0.000000 
#    z 0.000000 0.000000 1.634340 
# 
# From -- ./inp_files/14202.got.cif
#   From: 2010.05.17/outbox.cif.g08.bks.cpg/sg39_8_cif.got.tgz:14202.got - 2010.06.03 18:22:40.
