data_PCOD9360271
_publ_section_title
;
Structure prediction by ZEFSAII (Michael W. Deem and Ramdas Pophale) SiO2 
 PCOD9360271
Probable space group: A B M 2
;
_chemical_formula_sum "Si O2"
_cell_formula_units_Z 32
_cell_length_a 8.142604
_cell_length_b 12.088150
_cell_length_c 13.119040
_cell_angle_alpha 90.000000
_cell_angle_beta 90.000000
_cell_angle_gamma 90.000000
_cell_volume 1291.294231
_symmetry_space_group_name_H-M "A B M 2"
_symmetry_group_IT_number 39
_symmetry_cell_setting 'orthorhombic'
loop_
_space_group_symop_operation_xyz
x,y,z
-x,-y,z
-x,1/2+y,z
x,1/2-y,z
x,1/2+y,1/2+z
-x,1/2-y,1/2+z
-x,y,1/2+z
x,-y,1/2+z
loop_
_atom_site_type_symbol
_atom_site_label
_atom_site_fract_x
_atom_site_fract_y
_atom_site_fract_z
Si Si1 0.920362 0.625130 0.009710
Si Si2 0.744195 0.412207 0.307325
Si Si3 0.679085 0.477090 0.104445
Si Si4 0.372305 0.127895 0.382333
O O1 0.981935 0.750000 0.034848
O O2 0.759502 0.594998 0.076480
O O3 0.000000 0.500000 0.022212
O O4 0.871458 0.629305 0.890279
O O5 0.769366 0.399100 0.187114
O O6 0.736442 0.544637 0.317805
O O7 0.562971 0.376157 0.347464
O O8 0.500000 0.500000 0.149767
O O9 0.647669 0.413975 0.998202
O O10 0.309878 0.250000 0.373052
#
# Coordination Sequence:
#
# PCOD9360271 Si02
#       4
#     8   8   8   8
#     4  11  26  48  70  97 140 189 237 287 343 415
#     4  10  21  39  61  95 132 172 221 275 338 410
#     4  11  21  41  66 102 136 170 225 283 355 411
#     4  10  19  33  57  93 131 166 207 267 336 400
#
# _framework density 24.781338999999999
#
# number of rings (size 3 to 8) (size 9 to 14) (size 15 to 20)
#    0.000    1.500    7.500    0.750    0.000    8.000 
#    0.000    2.500    0.000    0.000    0.000    0.000 
#    0.000    0.000    0.000    0.000    0.000    0.000 
#
# Total GULP energy -89197.998322 kJ/mol
# GULP energy per Si atom -5574.874895 kJ/mol
# Density = 2.472494 g / cm^3
# Si number density = 24.781339 Si / 1000 Ang^3
#
#
#
# Elastic Constant Matrix: (Units=GPa)
#
#
# Indices 1 2 3 4 5 6 
#
# 1 41.8701 36.8743 3.8859 0.0000 0.0000 0.0000
# 2 36.8743 212.5105 24.4304 0.0000 0.0000 0.0000
# 3 3.8859 24.4304 144.7244 0.0000 0.0000 0.0000
# 4 0.0000 0.0000 0.0000 -0.4808 0.0000 0.0000
# 5 0.0000 0.0000 0.0000 0.0000 14.3808 0.0000
# 6 0.0000 0.0000 0.0000 0.0000 0.0000 -1.0285
#
#
#
# Elastic Compliance Matrix: (Units=1/GPa)
#
#
# Indices 1 2 3 4 5 6 
#
# 1 0.028192 -0.004900 0.000070 0.000000 0.000000 0.000000
# 2 -0.004900 0.005650 -0.000822 0.000000 0.000000 0.000000
# 3 0.000070 -0.000822 0.007047 0.000000 0.000000 0.000000
# 4 0.000000 0.000000 0.000000 -2.079706 0.000000 0.000000
# 5 0.000000 0.000000 0.000000 0.000000 0.069537 0.000000
# 6 0.000000 0.000000 0.000000 0.000000 0.000000 -0.972280
#
#
# Mechanical properties :
#
#
# Convention : Reuss Voigt Hill
#
# Bulk Modulus (GPa) = 33.80072 58.83179 46.31625
# Shear Modulus (GPa) = -1.71210 24.83525 11.56158
#
# Velocity S-wave (km/s) = -0.83209 3.16915 2.16231
# Velocity P-wave (km/s) = 3.57016 6.09781 4.99646
#
# Compressibility (1/GPa) = 0.02958517
#
# Stress axis : x y z
#
# Youngs Moduli (GPa) = 35.47089 176.97876 141.91230
#
# Poissons Ratio (x) = 0.86718 -0.00996
# Poissons Ratio (y) = 0.17380 0.11669
# Poissons Ratio (z) = -0.00249 0.14552
#
# Static dielectric constant tensor:
#      x y z
#    x 2.195200 0.000000 0.000000 
#    y 0.000000 1.951900 0.000000 
#    z 0.000000 0.000000 1.961920 
# 
# From -- ./inp_files/7838.got.cif
#   From: 2010.05.17/outbox.cif.g08.bks.cpg/sg39_4_cif.got.tgz:7838.got - 2010.06.03 18:22:40.
