data_PCOD9360705
_publ_section_title
;
Structure prediction by ZEFSAII (Michael W. Deem and Ramdas Pophale) SiO2 
 PCOD9360705
Probable space group: A B M 2
;
_chemical_formula_sum "Si O2"
_cell_formula_units_Z 64
_cell_length_a 18.685249
_cell_length_b 18.233227
_cell_length_c 8.140761
_cell_angle_alpha 90.000000
_cell_angle_beta 90.000000
_cell_angle_gamma 90.000000
_cell_volume 2773.495294
_symmetry_space_group_name_H-M "A B M 2"
_symmetry_group_IT_number 39
_symmetry_cell_setting 'orthorhombic'
loop_
_space_group_symop_operation_xyz
x,y,z
-x,-y,z
-x,1/2+y,z
x,1/2-y,z
x,1/2+y,1/2+z
-x,1/2-y,1/2+z
-x,y,1/2+z
x,-y,1/2+z
loop_
_atom_site_type_symbol
_atom_site_label
_atom_site_fract_x
_atom_site_fract_y
_atom_site_fract_z
Si Si1 0.277574 0.592554 0.013120
Si Si2 0.755201 0.165509 0.485187
Si Si3 0.660986 0.442605 0.653547
Si Si4 0.155335 0.335369 0.332440
Si Si5 0.589793 0.665948 0.619331
Si Si6 0.517539 0.420606 0.825912
Si Si7 0.023394 0.160787 0.126166
Si Si8 0.110637 0.839252 0.301358
O O1 0.300719 0.518804 0.106965
O O2 0.308809 0.579562 0.830783
O O3 0.197520 0.618260 0.969316
O O4 0.325384 0.655129 0.098213
O O5 0.736263 0.250000 0.453707
O O6 0.687594 0.115169 0.518439
O O7 0.800035 0.164638 0.658647
O O8 0.809265 0.135707 0.345221
O O9 0.576288 0.437769 0.683320
O O10 0.151957 0.250000 0.386274
O O11 0.076959 0.360364 0.274392
O O12 0.571683 0.750000 0.645850
O O13 0.553676 0.615832 0.756369
O O14 0.553954 0.634872 0.452813
O O15 0.500000 0.500000 0.897588
O O16 0.022821 0.250000 0.127109
O O17 0.062726 0.139547 0.959816
O O18 0.941710 0.137367 0.154741
O O19 0.115921 0.750000 0.299002
#
# Coordination Sequence:
#
# PCOD9360705 Si02
#       8
#     8   8   8   8   8   8   8   8
#     4  10  20  35  53  75 101 133 174 211 257 311
#     4   8  15  29  49  73  98 128 170 216 254 298
#     4  10  21  34  56  74  99 137 173 209 256 318
#     4   8  14  27  48  71  96 126 166 211 250 299
#     4  11  23  37  58  84 109 139 179 224 266 314
#     4  11  22  38  58  80 111 144 177 217 270 328
#     4   8  13  22  40  66  93 124 157 197 253 304
#     4   8  13  23  41  66  96 124 158 204 252 303
#
# _framework density 23.075575000000001
#
# number of rings (size 3 to 8) (size 9 to 14) (size 15 to 20)
#    0.000    2.750    1.250    2.625    1.750    3.500 
#    0.000    1.250    0.000    3.750    0.000    5.250 
#    0.000    0.000    0.000    0.000    0.000    0.000 
#
# Total GULP energy -178675.144258 kJ/mol
# GULP energy per Si atom -5583.598258 kJ/mol
# Density = 2.302305 g / cm^3
# Si number density = 23.075575 Si / 1000 Ang^3
#
#
#
# Elastic Constant Matrix: (Units=GPa)
#
#
# Indices 1 2 3 4 5 6 
#
# 1 105.3979 13.5251 20.0945 0.0000 0.0000 0.0000
# 2 13.5251 75.5618 4.4890 0.0000 0.0000 0.0000
# 3 20.0945 4.4890 65.9122 0.0000 0.0000 0.0000
# 4 0.0000 0.0000 0.0000 1.3234 0.0000 0.0000
# 5 0.0000 0.0000 0.0000 0.0000 39.4677 0.0000
# 6 0.0000 0.0000 0.0000 0.0000 0.0000 14.4203
#
#
#
# Elastic Compliance Matrix: (Units=1/GPa)
#
#
# Indices 1 2 3 4 5 6 
#
# 1 0.010277 -0.001660 -0.003020 0.000000 0.000000 0.000000
# 2 -0.001660 0.013556 -0.000417 0.000000 0.000000 0.000000
# 3 -0.003020 -0.000417 0.016121 0.000000 0.000000 0.000000
# 4 0.000000 0.000000 0.000000 0.755634 0.000000 0.000000
# 5 0.000000 0.000000 0.000000 0.000000 0.025337 0.000000
# 6 0.000000 0.000000 0.000000 0.000000 0.000000 0.069347
#
#
# Mechanical properties :
#
#
# Convention : Reuss Voigt Hill
#
# Bulk Modulus (GPa) = 33.60301 35.89879 34.75090
# Shear Modulus (GPa) = 5.49218 24.95984 15.22601
#
# Velocity S-wave (km/s) = 1.54443 3.29242 2.57151
# Velocity P-wave (km/s) = 4.21593 5.48126 4.88970
#
# Compressibility (1/GPa) = 0.02975924
#
# Stress axis : x y z
#
# Youngs Moduli (GPa) = 97.30800 73.76744 62.03168
#
# Poissons Ratio (x) = 0.12246 0.18733
# Poissons Ratio (y) = 0.16154 0.02588
# Poissons Ratio (z) = 0.29387 0.03077
#
# Static dielectric constant tensor:
#      x y z
#    x 2.130540 0.000000 0.000000 
#    y 0.000000 1.808540 0.000000 
#    z 0.000000 0.000000 1.936330 
# 
# From -- ./inp_files/4020.got.cif
#   From: 2010.05.17/outbox.cif.g08.bks.cpg/sg39_3_cif.got.tgz:4020.got - 2010.06.03 18:22:40.
