data_PCOD9360168
_publ_section_title
;
Structure prediction by ZEFSAII (Michael W. Deem and Ramdas Pophale) SiO2 
 PCOD9360168
Probable space group: A B M 2
;
_chemical_formula_sum "Si O2"
_cell_formula_units_Z 64
_cell_length_a 19.807491
_cell_length_b 8.790301
_cell_length_c 20.928255
_cell_angle_alpha 90.000000
_cell_angle_beta 90.000000
_cell_angle_gamma 90.000000
_cell_volume 3643.898172
_symmetry_space_group_name_H-M "A B M 2"
_symmetry_group_IT_number 39
_symmetry_cell_setting 'orthorhombic'
loop_
_space_group_symop_operation_xyz
x,y,z
-x,-y,z
-x,1/2+y,z
x,1/2-y,z
x,1/2+y,1/2+z
-x,1/2-y,1/2+z
-x,y,1/2+z
x,-y,1/2+z
loop_
_atom_site_type_symbol
_atom_site_label
_atom_site_fract_x
_atom_site_fract_y
_atom_site_fract_z
Si Si1 0.288457 0.932080 0.773400
Si Si2 0.928108 0.433050 0.342696
Si Si3 0.215020 0.068538 0.895476
Si Si4 0.570888 0.932380 0.214598
Si Si5 0.571892 0.933050 0.572625
Si Si6 0.284980 0.431462 0.519846
Si Si7 0.211543 0.567920 0.641922
Si Si8 0.070887 0.932380 0.700723
O O1 0.281742 0.750000 0.782832
O O2 0.366773 0.967988 0.760714
O O3 0.250000 0.970557 0.707661
O O4 0.255508 0.015339 0.832893
O O5 0.932388 0.250000 0.339646
O O6 0.863424 0.477143 0.385058
O O7 0.916596 0.497154 0.271017
O O8 0.000000 0.500000 0.364605
O O9 0.216480 0.250000 0.899813
O O10 0.249999 0.000000 0.957661
O O11 0.566462 0.750000 0.207774
O O12 0.500000 0.000000 0.237456
O O13 0.583404 0.002846 0.144304
O O14 0.567612 0.750000 0.575675
O O15 0.636576 0.977143 0.530263
O O16 0.500000 0.000000 0.550716
O O17 0.283520 0.250000 0.515509
O O18 0.244492 0.484660 0.582429
O O19 0.218259 0.750000 0.632490
O O20 0.133227 0.532013 0.654607
O O21 0.066462 0.750000 0.707547
O O22 0.000000 0.000000 0.677865
#
# Coordination Sequence:
#
# PCOD9360168 Si02
#       8
#     8   8   8   8   8   8   8   8
#     4  10  20  36  58  83 113 148 185 228 281 333
#     4  10  20  34  55  83 111 144 185 229 277 333
#     4  11  24  39  58  84 115 150 190 235 281 335
#     4  10  19  32  54  83 114 148 184 230 281 331
#     4  10  20  34  55  83 111 144 185 229 277 333
#     4  11  24  39  58  84 115 150 190 235 281 335
#     4  10  20  36  58  83 113 148 185 228 281 333
#     4  10  19  32  54  83 114 148 184 230 281 331
#
# _framework density 17.563607999999999
#
# number of rings (size 3 to 8) (size 9 to 14) (size 15 to 20)
#    0.000    1.750    2.500    3.750    0.000    5.500 
#    0.000    1.250    0.000    0.000    0.000    0.000 
#    0.000    0.000    0.000    0.000    0.000    0.000 
#
# Total GULP energy -178665.216361 kJ/mol
# GULP energy per Si atom -5583.288011 kJ/mol
# Density = 1.752363 g / cm^3
# Si number density = 17.563608 Si / 1000 Ang^3
#
#
#
# Elastic Constant Matrix: (Units=GPa)
#
#
# Indices 1 2 3 4 5 6 
#
# 1 183.2858 64.4511 79.3906 0.0000 0.0000 0.0000
# 2 64.4511 58.8548 38.9601 0.0000 0.0000 0.0000
# 3 79.3906 38.9601 94.7958 0.0000 0.0000 0.0000
# 4 0.0000 0.0000 0.0000 30.2888 0.0000 0.0000
# 5 0.0000 0.0000 0.0000 0.0000 25.6776 0.0000
# 6 0.0000 0.0000 0.0000 0.0000 0.0000 29.3672
#
#
#
# Elastic Compliance Matrix: (Units=1/GPa)
#
#
# Indices 1 2 3 4 5 6 
#
# 1 0.010734 -0.007973 -0.005713 0.000000 0.000000 0.000000
# 2 -0.007973 0.029263 -0.005350 0.000000 0.000000 0.000000
# 3 -0.005713 -0.005350 0.017532 0.000000 0.000000 0.000000
# 4 0.000000 0.000000 0.000000 0.033016 0.000000 0.000000
# 5 0.000000 0.000000 0.000000 0.000000 0.038944 0.000000
# 6 0.000000 0.000000 0.000000 0.000000 0.000000 0.034052
#
#
# Mechanical properties :
#
#
# Convention : Reuss Voigt Hill
#
# Bulk Modulus (GPa) = 51.39123 78.06000 64.72561
# Shear Modulus (GPa) = 24.02703 27.34234 25.68469
#
# Velocity S-wave (km/s) = 3.70266 3.94986 3.82826
# Velocity P-wave (km/s) = 6.89951 8.08347 7.51484
#
# Compressibility (1/GPa) = 0.01945857
#
# Stress axis : x y z
#
# Youngs Moduli (GPa) = 93.16011 34.17228 57.03807
#
# Poissons Ratio (x) = 0.27246 0.32585
# Poissons Ratio (y) = 0.74277 0.30513
# Poissons Ratio (z) = 0.53222 0.18281
#
# Static dielectric constant tensor:
#      x y z
#    x 1.626660 0.000000 0.000000 
#    y 0.000000 1.589900 0.000000 
#    z 0.000000 0.000000 1.552710 
# 
# From -- ./inp_files/13216.got.cif
#   From: 2010.05.17/outbox.cif.g08.bks.cpg/sg39_7_cif.got.tgz:13216.got - 2010.06.03 18:22:40.
