data_PCOD9360289
_publ_section_title
;
Structure prediction by ZEFSAII (Michael W. Deem and Ramdas Pophale) SiO2 
 PCOD9360289
Probable space group: A B M 2
;
_chemical_formula_sum "Si O2"
_cell_formula_units_Z 64
_cell_length_a 14.621157
_cell_length_b 8.820373
_cell_length_c 31.935065
_cell_angle_alpha 90.000000
_cell_angle_beta 90.000000
_cell_angle_gamma 90.000000
_cell_volume 4118.475589
_symmetry_space_group_name_H-M "A B M 2"
_symmetry_group_IT_number 39
_symmetry_cell_setting 'orthorhombic'
loop_
_space_group_symop_operation_xyz
x,y,z
-x,-y,z
-x,1/2+y,z
x,1/2-y,z
x,1/2+y,1/2+z
-x,1/2-y,1/2+z
-x,y,1/2+z
x,-y,1/2+z
loop_
_atom_site_type_symbol
_atom_site_label
_atom_site_fract_x
_atom_site_fract_y
_atom_site_fract_z
Si Si1 0.289130 0.067332 0.082840
Si Si2 0.602059 0.931254 0.505877
Si Si3 0.097851 0.931802 0.717276
Si Si4 0.096961 0.067917 0.118823
Si Si5 0.397882 0.931411 0.912776
Si Si6 0.283988 0.068337 0.744533
Si Si7 0.601267 0.432047 0.667725
Si Si8 0.398103 0.068646 0.827579
O O1 0.289961 0.250000 0.078493
O O2 0.185191 0.018321 0.092543
O O3 0.349251 0.030286 0.123912
O O4 0.333850 0.994284 0.042186
O O5 0.594282 0.750000 0.509020
O O6 0.639365 0.967531 0.459085
O O7 0.500000 0.000000 0.510128
O O8 0.097044 0.750000 0.720594
O O9 0.111560 0.971564 0.667905
O O10 0.182390 0.000964 0.742326
O O11 0.000000 0.000000 0.729778
O O12 0.091924 0.250000 0.116800
O O13 0.000000 0.000000 0.105459
O O14 0.401764 0.750000 0.908320
O O15 0.500000 0.000000 0.913686
O O16 0.356763 0.003215 0.870826
O O17 0.280811 0.250000 0.740361
O O18 0.336365 0.031206 0.787563
O O19 0.340574 0.998707 0.705958
O O20 0.500000 0.500000 0.668394
O O21 0.597935 0.250000 0.671460
O O22 0.406415 0.250000 0.830939
O O23 0.500000 0.000000 0.821990
#
# Coordination Sequence:
#
# PCOD9360289 Si02
#       8
#     8   8   8   8   8   8   8   8
#     4  10  20  34  49  69  97 128 164 200 239 287
#     4  10  20  32  48  72  98 128 164 200 241 288
#     4  10  19  34  53  73  97 126 162 206 248 290
#     4   9  18  33  50  71  94 122 159 201 243 284
#     4   9  17  30  48  69  94 123 159 200 243 288
#     4  11  22  34  49  72  98 130 167 202 243 292
#     4  11  22  35  47  65  96 133 170 203 236 284
#     4  10  20  32  48  71  98 128 165 202 241 289
#
# _framework density 15.539731
#
# number of rings (size 3 to 8) (size 9 to 14) (size 15 to 20)
#    0.000    2.000    1.250    3.750    0.000    7.500 
#    0.000    0.000    0.000    0.000    0.000    0.875 
#    0.000    4.000    0.000    0.000    0.000    0.000 
#
# Total GULP energy -178524.491059 kJ/mol
# GULP energy per Si atom -5578.890346 kJ/mol
# Density = 1.550436 g / cm^3
# Si number density = 15.539731 Si / 1000 Ang^3
#
#
#
# Elastic Constant Matrix: (Units=GPa)
#
#
# Indices 1 2 3 4 5 6 
#
# 1 122.4418 43.9414 73.2755 0.0000 0.0000 0.0000
# 2 43.9414 52.2070 58.1419 0.0000 0.0000 0.0000
# 3 73.2755 58.1419 143.1782 0.0000 0.0000 0.0000
# 4 0.0000 0.0000 0.0000 24.9644 0.0000 0.0000
# 5 0.0000 0.0000 0.0000 0.0000 4.7842 0.0000
# 6 0.0000 0.0000 0.0000 0.0000 0.0000 26.9798
#
#
#
# Elastic Compliance Matrix: (Units=1/GPa)
#
#
# Indices 1 2 3 4 5 6 
#
# 1 0.012836 -0.006368 -0.003984 0.000000 0.000000 0.000000
# 2 -0.006368 0.038128 -0.012224 0.000000 0.000000 0.000000
# 3 -0.003984 -0.012224 0.013987 0.000000 0.000000 0.000000
# 4 0.000000 0.000000 0.000000 0.040057 0.000000 0.000000
# 5 0.000000 0.000000 0.000000 0.000000 0.209023 0.000000
# 6 0.000000 0.000000 0.000000 0.000000 0.000000 0.037065
#
#
# Mechanical properties :
#
#
# Convention : Reuss Voigt Hill
#
# Bulk Modulus (GPa) = 50.50397 74.28276 62.39337
# Shear Modulus (GPa) = 12.41166 20.84354 16.62760
#
# Velocity S-wave (km/s) = 2.82920 3.66636 3.27464
# Velocity P-wave (km/s) = 6.57594 8.11348 7.38483
#
# Compressibility (1/GPa) = 0.01980042
#
# Stress axis : x y z
#
# Youngs Moduli (GPa) = 77.90407 26.22762 71.49488
#
# Poissons Ratio (x) = 0.16701 0.28481
# Poissons Ratio (y) = 0.49606 0.87396
# Poissons Ratio (z) = 0.31034 0.32061
#
# Static dielectric constant tensor:
#      x y z
#    x 1.500940 0.000000 0.000000 
#    y 0.000000 1.520730 0.000000 
#    z 0.000000 0.000000 1.527610 
# 
# From -- ./inp_files/17944.got.cif
#   From: 2010.05.17/outbox.cif.g08.bks.cpg/sg39_9_cif.got.tgz:17944.got - 2010.06.03 18:22:40.
