data_PCOD9360299
_publ_section_title
;
Structure prediction by ZEFSAII (Michael W. Deem and Ramdas Pophale) SiO2 
 PCOD9360299
Probable space group: A B M 2
;
_chemical_formula_sum "Si O2"
_cell_formula_units_Z 64
_cell_length_a 14.917515
_cell_length_b 8.784595
_cell_length_c 25.010237
_cell_angle_alpha 90.000000
_cell_angle_beta 90.000000
_cell_angle_gamma 90.000000
_cell_volume 3277.449693
_symmetry_space_group_name_H-M "A B M 2"
_symmetry_group_IT_number 39
_symmetry_cell_setting 'orthorhombic'
loop_
_space_group_symop_operation_xyz
x,y,z
-x,-y,z
-x,1/2+y,z
x,1/2-y,z
x,1/2+y,1/2+z
-x,1/2-y,1/2+z
-x,y,1/2+z
x,-y,1/2+z
loop_
_atom_site_type_symbol
_atom_site_label
_atom_site_fract_x
_atom_site_fract_y
_atom_site_fract_z
Si Si1 0.586155 0.070830 0.455430
Si Si2 0.335404 0.928812 0.854574
Si Si3 0.907183 0.071067 0.270291
Si Si4 0.705989 0.432843 0.243194
Si Si5 0.150656 0.430519 0.890720
Si Si6 0.399843 0.932941 0.642752
Si Si7 0.731352 0.930419 0.045140
Si Si8 0.091863 0.931142 0.002847
O O1 0.574502 0.250000 0.447482
O O2 0.673757 0.047985 0.491293
O O3 0.500000 0.000000 0.484251
O O4 0.596931 0.985669 0.399464
O O5 0.342919 0.750000 0.845140
O O6 0.339202 0.018662 0.799066
O O7 0.239588 0.972829 0.879936
O O8 0.910070 0.250000 0.259329
O O9 0.810986 0.015055 0.247356
O O10 0.902385 0.053027 0.334915
O O11 0.000000 0.000000 0.250555
O O12 0.705737 0.250000 0.238793
O O13 0.650670 0.506538 0.195353
O O14 0.171784 0.250000 0.896925
O O15 0.105579 0.491832 0.944366
O O16 0.406777 0.750000 0.644129
O O17 0.334592 0.974518 0.593334
O O18 0.500000 0.000000 0.638191
O O19 0.751750 0.750000 0.050044
O O20 0.822777 0.022497 0.038523
O O21 0.085984 0.750000 0.997012
O O22 0.000000 0.000000 0.025373
#
# Coordination Sequence:
#
# PCOD9360299 Si02
#       8
#     8   8   8   8   8   8   8   8
#     4  11  22  37  59  87 123 162 199 247 306 375
#     4  11  21  35  57  88 123 162 205 251 307 370
#     4   9  19  33  54  84 120 161 203 245 296 355
#     4  10  22  41  62  88 123 163 205 257 311 364
#     4  10  19  34  54  82 123 166 207 251 301 361
#     4  11  24  44  70  97 120 155 203 257 313 372
#     4  10  23  43  65  89 124 161 201 255 312 368
#     4  12  24  37  59  89 124 166 211 256 307 366
#
# _framework density 19.527379
#
# number of rings (size 3 to 8) (size 9 to 14) (size 15 to 20)
#    0.000    1.500    1.250    5.250    0.000    6.000 
#    0.000    3.125    0.000    1.500    0.000    0.000 
#    0.000    0.000    0.000    0.000    0.000    0.000 
#
# Total GULP energy -178739.444519 kJ/mol
# GULP energy per Si atom -5585.607641 kJ/mol
# Density = 1.948293 g / cm^3
# Si number density = 19.527379 Si / 1000 Ang^3
#
#
#
# Elastic Constant Matrix: (Units=GPa)
#
#
# Indices 1 2 3 4 5 6 
#
# 1 121.8410 54.5223 40.9289 0.0000 0.0000 0.0000
# 2 54.5223 71.3913 25.8847 0.0000 0.0000 0.0000
# 3 40.9289 25.8847 84.7761 0.0000 0.0000 0.0000
# 4 0.0000 0.0000 0.0000 20.0468 0.0000 0.0000
# 5 0.0000 0.0000 0.0000 0.0000 -2.3166 0.0000
# 6 0.0000 0.0000 0.0000 0.0000 0.0000 34.6022
#
#
#
# Elastic Compliance Matrix: (Units=1/GPa)
#
#
# Indices 1 2 3 4 5 6 
#
# 1 0.013466 -0.008914 -0.003780 0.000000 0.000000 0.000000
# 2 -0.008914 0.021651 -0.002307 0.000000 0.000000 0.000000
# 3 -0.003780 -0.002307 0.014325 0.000000 0.000000 0.000000
# 4 0.000000 0.000000 0.000000 0.049883 0.000000 0.000000
# 5 0.000000 0.000000 0.000000 0.000000 -0.431669 0.000000
# 6 0.000000 0.000000 0.000000 0.000000 0.000000 0.028900
#
#
# Mechanical properties :
#
#
# Convention : Reuss Voigt Hill
#
# Bulk Modulus (GPa) = 51.43759 57.85334 54.64547
# Shear Modulus (GPa) = -18.72920 20.91132 1.09106
#
# Velocity S-wave (km/s) = -3.10033 3.27597 0.74830
# Velocity P-wave (km/s) = 3.68542 6.63328 5.36576
#
# Compressibility (1/GPa) = 0.01944103
#
# Stress axis : x y z
#
# Youngs Moduli (GPa) = 74.26244 46.18657 69.80795
#
# Poissons Ratio (x) = 0.41169 0.26384
# Poissons Ratio (y) = 0.66194 0.16108
# Poissons Ratio (z) = 0.28068 0.10657
#
# Static dielectric constant tensor:
#      x y z
#    x 2.394470 0.000000 0.000000 
#    y 0.000000 1.654270 0.000000 
#    z 0.000000 0.000000 1.685010 
# 
# From -- ./inp_files/16202.got.cif
#   From: 2010.05.17/outbox.cif.g08.bks.cpg/sg39_9_cif.got.tgz:16202.got - 2010.06.03 18:22:40.
