data_PCOD9360326
_publ_section_title
;
Structure prediction by ZEFSAII (Michael W. Deem and Ramdas Pophale) SiO2 
 PCOD9360326
Probable space group: A B M 2
;
_chemical_formula_sum "Si O2"
_cell_formula_units_Z 56
_cell_length_a 24.441370
_cell_length_b 8.495890
_cell_length_c 14.741480
_cell_angle_alpha 90.000000
_cell_angle_beta 90.000000
_cell_angle_gamma 90.000000
_cell_volume 3061.085879
_symmetry_space_group_name_H-M "A B M 2"
_symmetry_group_IT_number 39
_symmetry_cell_setting 'orthorhombic'
loop_
_space_group_symop_operation_xyz
x,y,z
-x,-y,z
-x,1/2+y,z
x,1/2-y,z
x,1/2+y,1/2+z
-x,1/2-y,1/2+z
-x,y,1/2+z
x,-y,1/2+z
loop_
_atom_site_type_symbol
_atom_site_label
_atom_site_fract_x
_atom_site_fract_y
_atom_site_fract_z
Si Si1 0.860535 0.937998 0.437890
Si Si2 0.438516 0.561238 0.943328
Si Si3 0.059892 0.436805 0.087201
Si Si4 0.941919 0.936675 0.789508
Si Si5 0.647638 0.439025 0.300449
Si Si6 0.265765 0.059675 0.442347
Si Si7 0.351499 0.558577 0.092451
O O1 0.862307 0.750000 0.424726
O O2 0.797343 0.988467 0.442416
O O3 0.893116 0.982449 0.528608
O O4 0.893379 0.020456 0.356971
O O5 0.500000 0.500000 0.944546
O O6 0.438463 0.750000 0.941113
O O7 0.404505 0.500478 0.856742
O O8 0.404120 0.510607 0.032653
O O9 0.061537 0.250000 0.074349
O O10 0.066369 0.480623 0.192651
O O11 0.000000 0.500000 0.059509
O O12 0.946013 0.750000 0.776259
O O13 0.000000 0.000000 0.826529
O O14 0.646530 0.250000 0.300485
O O15 0.700484 0.495857 0.356653
O O16 0.648157 0.495697 0.196231
O O17 0.267895 0.250000 0.439135
O O18 0.298792 0.009996 0.532921
O O19 0.351346 0.750000 0.094851
#
# Coordination Sequence:
#
# PCOD9360326 Si02
#       7
#     8   8   8   8   8   8   8
#     4  11  22  37  57  82 112 147 185 227 278 332
#     4  10  20  36  55  79 112 144 179 221 267 317
#     4  11  22  38  58  82 111 143 182 227 279 339
#     4  11  22  38  58  81 110 144 183 228 279 334
#     4  10  19  34  57  82 108 141 181 221 266 318
#     4   9  20  38  56  77 108 143 179 222 269 316
#     4   8  17  35  56  77 105 142 178 216 263 314
#
# _framework density 18.294163000000001
#
# number of rings (size 3 to 8) (size 9 to 14) (size 15 to 20)
#    0.000    2.000    0.000    6.000    0.000    2.857 
#    0.000   10.000    0.000    0.000    0.000    0.000 
#    0.000    0.000    0.000    0.000    0.000    0.000 
#
# Total GULP energy -156359.403821 kJ/mol
# GULP energy per Si atom -5584.264422 kJ/mol
# Density = 1.825252 g / cm^3
# Si number density = 18.294163 Si / 1000 Ang^3
#
#
#
# Elastic Constant Matrix: (Units=GPa)
#
#
# Indices 1 2 3 4 5 6 
#
# 1 176.4731 17.2286 80.8387 0.0000 0.0000 0.0000
# 2 17.2286 36.3272 3.6697 0.0000 0.0000 0.0000
# 3 80.8387 3.6697 142.6643 0.0000 0.0000 0.0000
# 4 0.0000 0.0000 0.0000 29.1571 0.0000 0.0000
# 5 0.0000 0.0000 0.0000 0.0000 12.6903 0.0000
# 6 0.0000 0.0000 0.0000 0.0000 0.0000 28.0016
#
#
#
# Elastic Compliance Matrix: (Units=1/GPa)
#
#
# Indices 1 2 3 4 5 6 
#
# 1 0.008043 -0.003363 -0.004471 0.000000 0.000000 0.000000
# 2 -0.003363 0.029005 0.001159 0.000000 0.000000 0.000000
# 3 -0.004471 0.001159 0.009513 0.000000 0.000000 0.000000
# 4 0.000000 0.000000 0.000000 0.034297 0.000000 0.000000
# 5 0.000000 0.000000 0.000000 0.000000 0.078800 0.000000
# 6 0.000000 0.000000 0.000000 0.000000 0.000000 0.035712
#
#
# Mechanical properties :
#
#
# Convention : Reuss Voigt Hill
#
# Bulk Modulus (GPa) = 30.10906 62.10430 46.10668
# Shear Modulus (GPa) = 22.74895 30.88497 26.81696
#
# Velocity S-wave (km/s) = 3.53017 4.11328 3.83283
# Velocity P-wave (km/s) = 5.75414 7.52197 6.69665
#
# Compressibility (1/GPa) = 0.03321260
#
# Stress axis : x y z
#
# Youngs Moduli (GPa) = 124.33296 34.47646 105.11908
#
# Poissons Ratio (x) = 0.11594 0.46998
# Poissons Ratio (y) = 0.41811 -0.12187
# Poissons Ratio (z) = 0.55588 -0.03997
#
# Static dielectric constant tensor:
#      x y z
#    x 1.605270 0.000000 0.000000 
#    y 0.000000 1.620030 0.000000 
#    z 0.000000 0.000000 1.620590 
# 
# From -- ./inp_files/10344.got.cif
#   From: 2010.05.17/outbox.cif.g08.bks.cpg/sg39_6_cif.got.tgz:10344.got - 2010.06.03 18:22:40.
