data_PCOD9360775
_publ_section_title
;
Structure prediction by ZEFSAII (Michael W. Deem and Ramdas Pophale) SiO2 
 PCOD9360775
Probable space group: A B M 2
;
_chemical_formula_sum "Si O2"
_cell_formula_units_Z 48
_cell_length_a 14.967369
_cell_length_b 14.105804
_cell_length_c 10.591287
_cell_angle_alpha 90.000000
_cell_angle_beta 90.000000
_cell_angle_gamma 90.000000
_cell_volume 2236.104252
_symmetry_space_group_name_H-M "A B M 2"
_symmetry_group_IT_number 39
_symmetry_cell_setting 'orthorhombic'
loop_
_space_group_symop_operation_xyz
x,y,z
-x,-y,z
-x,1/2+y,z
x,1/2-y,z
x,1/2+y,1/2+z
-x,1/2-y,1/2+z
-x,y,1/2+z
x,-y,1/2+z
loop_
_atom_site_type_symbol
_atom_site_label
_atom_site_fract_x
_atom_site_fract_y
_atom_site_fract_z
Si Si1 0.797550 0.353332 0.449360
Si Si2 0.067291 0.857471 0.213402
Si Si3 0.882068 0.061502 0.686841
Si Si4 0.595043 0.850460 0.702573
Si Si5 0.297074 0.512709 0.822823
Si Si6 0.463243 0.394646 0.428622
O O1 0.754976 0.250000 0.460854
O O2 0.863081 0.354676 0.328830
O O3 0.858406 0.374660 0.568357
O O4 0.726623 0.437173 0.432515
O O5 0.065558 0.750000 0.159093
O O6 0.967582 0.890412 0.252855
O O7 0.097768 0.953120 0.139861
O O8 0.795032 0.054983 0.773485
O O9 0.646532 0.750000 0.707054
O O10 0.655925 0.943830 0.719197
O O11 0.544947 0.853169 0.568412
O O12 0.527060 0.852383 0.820848
O O13 0.364945 0.592087 0.869419
O O14 0.500000 0.500000 0.447337
#
# Coordination Sequence:
#
# PCOD9360775 Si02
#       6
#     8   8   8   8   8   8
#     4  10  20  36  58  84 114 151 194 238 290 349
#     4   9  20  37  56  80 110 148 194 240 288 343
#     4  10  20  35  58  83 113 150 193 241 291 346
#     4  11  22  39  61  86 115 149 193 242 292 349
#     4  10  21  37  57  83 115 151 189 234 292 353
#     4  10  21  39  61  85 115 152 191 235 292 354
#
# _framework density 21.465904999999999
#
# number of rings (size 3 to 8) (size 9 to 14) (size 15 to 20)
#    0.000    2.000    0.000    4.000    0.000    7.333 
#    0.000    6.667    0.000    6.000    0.000    0.000 
#    0.000    0.000    0.000    0.000    0.000    0.000 
#
# Total GULP energy -133817.792958 kJ/mol
# GULP energy per Si atom -5575.741373 kJ/mol
# Density = 2.141705 g / cm^3
# Si number density = 21.465905 Si / 1000 Ang^3
#
#
#
# Elastic Constant Matrix: (Units=GPa)
#
#
# Indices 1 2 3 4 5 6 
#
# 1 67.6587 -11.1637 -0.7621 0.0000 0.0000 0.0000
# 2 -11.1637 71.4668 10.1292 0.0000 0.0000 0.0000
# 3 -0.7621 10.1292 52.7141 0.0000 0.0000 0.0000
# 4 0.0000 0.0000 0.0000 -19.4006 0.0000 0.0000
# 5 0.0000 0.0000 0.0000 0.0000 9.8030 0.0000
# 6 0.0000 0.0000 0.0000 0.0000 0.0000 1.9655
#
#
#
# Elastic Compliance Matrix: (Units=1/GPa)
#
#
# Indices 1 2 3 4 5 6 
#
# 1 0.015174 0.002405 -0.000243 0.000000 0.000000 0.000000
# 2 0.002405 0.014765 -0.002802 0.000000 0.000000 0.000000
# 3 -0.000243 -0.002802 0.019505 0.000000 0.000000 0.000000
# 4 0.000000 0.000000 0.000000 -0.051545 0.000000 0.000000
# 5 0.000000 0.000000 0.000000 0.000000 0.102009 0.000000
# 6 0.000000 0.000000 0.000000 0.000000 0.000000 0.508786
#
#
# Mechanical properties :
#
#
# Convention : Reuss Voigt Hill
#
# Bulk Modulus (GPa) = 20.76243 20.91624 20.83933
# Shear Modulus (GPa) = 7.98682 11.38266 9.68474
#
# Velocity S-wave (km/s) = 1.93100 2.30525 2.12638
# Velocity P-wave (km/s) = 3.82949 4.10496 3.96961
#
# Compressibility (1/GPa) = 0.04816392
#
# Stress axis : x y z
#
# Youngs Moduli (GPa) = 65.90170 67.72610 51.26829
#
# Poissons Ratio (x) = -0.16286 0.01244
# Poissons Ratio (y) = -0.15848 0.14368
# Poissons Ratio (z) = 0.01599 0.18980
#
# Static dielectric constant tensor:
#      x y z
#    x 1.813660 0.000000 0.000000 
#    y 0.000000 1.887490 0.000000 
#    z 0.000000 0.000000 1.766510 
# 
# From -- ./inp_files/6397.got.cif
#   From: 2010.05.17/outbox.cif.g08.bks.cpg/sg39_4_cif.got.tgz:6397.got - 2010.06.03 18:22:40.
