data_PCOD9360929
_publ_section_title
;
Structure prediction by ZEFSAII (Michael W. Deem and Ramdas Pophale) SiO2 
 PCOD9360929
Probable space group: A B M 2
;
_chemical_formula_sum "Si O2"
_cell_formula_units_Z 64
_cell_length_a 20.311140
_cell_length_b 14.715489
_cell_length_c 11.177312
_cell_angle_alpha 90.000000
_cell_angle_beta 90.000000
_cell_angle_gamma 90.000000
_cell_volume 3340.768422
_symmetry_space_group_name_H-M "A B M 2"
_symmetry_group_IT_number 39
_symmetry_cell_setting 'orthorhombic'
loop_
_space_group_symop_operation_xyz
x,y,z
-x,-y,z
-x,1/2+y,z
x,1/2-y,z
x,1/2+y,1/2+z
-x,1/2-y,1/2+z
-x,y,1/2+z
x,-y,1/2+z
loop_
_atom_site_type_symbol
_atom_site_label
_atom_site_fract_x
_atom_site_fract_y
_atom_site_fract_z
Si Si1 0.799581 0.354890 0.980760
Si Si2 0.945946 0.647692 0.462815
Si Si3 0.514957 0.644476 0.812592
Si Si4 0.409024 0.478405 0.244487
Si Si5 0.720352 0.521353 0.885154
Si Si6 0.378440 0.354507 0.024640
Si Si7 0.977613 0.898346 0.726613
Si Si8 0.175432 0.647193 0.259942
O O1 0.791090 0.250000 0.936808
O O2 0.872891 0.393765 0.948704
O O3 0.745841 0.425814 0.935696
O O4 0.798353 0.352471 0.124229
O O5 0.929072 0.750000 0.498554
O O6 0.985605 0.616506 0.582092
O O7 0.982694 0.648959 0.335564
O O8 0.503223 0.750000 0.775267
O O9 0.553400 0.574220 0.724202
O O10 0.449483 0.585065 0.838986
O O11 0.565299 0.647678 0.923131
O O12 0.336087 0.500696 0.288164
O O13 0.406752 0.412499 0.132490
O O14 0.684140 0.589134 0.977210
O O15 0.781941 0.575800 0.832462
O O16 0.362206 0.250000 0.054959
O O17 0.901230 0.878744 0.751796
O O18 0.000000 0.000000 0.746770
O O19 0.181459 0.750000 0.308033
#
# Coordination Sequence:
#
# PCOD9360929 Si02
#       8
#     8   8   8   8   8   8   8   8
#     4   9  20  37  56  79 113 151 188 235 286 337
#     4  10  20  37  57  81 113 149 189 237 292 347
#     4   9  20  38  58  80 109 145 180 217 271 337
#     4  10  21  35  57  85 112 140 180 231 278 323
#     4  11  21  36  57  82 109 146 192 230 274 335
#     4  10  21  38  58  82 113 145 180 231 283 325
#     4  11  21  35  58  86 113 145 188 240 293 345
#     4  10  21  39  58  78 110 153 193 229 276 341
#
# _framework density 19.157271000000001
#
# number of rings (size 3 to 8) (size 9 to 14) (size 15 to 20)
#    0.000    2.000    0.000    4.500    0.000    6.500 
#    0.000    1.875    0.000    3.750    0.000    0.000 
#    0.000    0.000    0.000    0.000    0.000    0.000 
#
# Total GULP energy -178141.631487 kJ/mol
# GULP energy per Si atom -5566.925984 kJ/mol
# Density = 1.911367 g / cm^3
# Si number density = 19.157271 Si / 1000 Ang^3
#
#
#
# Elastic Constant Matrix: (Units=GPa)
#
#
# Indices 1 2 3 4 5 6 
#
# 1 37.1426 27.1174 10.7118 0.0000 0.0000 0.0000
# 2 27.1174 144.9760 29.9461 0.0000 0.0000 0.0000
# 3 10.7118 29.9461 40.7860 0.0000 0.0000 0.0000
# 4 0.0000 0.0000 0.0000 29.7172 0.0000 0.0000
# 5 0.0000 0.0000 0.0000 0.0000 10.5076 0.0000
# 6 0.0000 0.0000 0.0000 0.0000 0.0000 19.7352
#
#
#
# Elastic Compliance Matrix: (Units=1/GPa)
#
#
# Indices 1 2 3 4 5 6 
#
# 1 0.031933 -0.004999 -0.004716 0.000000 0.000000 0.000000
# 2 -0.004999 0.008913 -0.005232 0.000000 0.000000 0.000000
# 3 -0.004716 -0.005232 0.029598 0.000000 0.000000 0.000000
# 4 0.000000 0.000000 0.000000 0.033651 0.000000 0.000000
# 5 0.000000 0.000000 0.000000 0.000000 0.095170 0.000000
# 6 0.000000 0.000000 0.000000 0.000000 0.000000 0.050671
#
#
# Mechanical properties :
#
#
# Convention : Reuss Voigt Hill
#
# Bulk Modulus (GPa) = 24.66038 39.82833 32.24436
# Shear Modulus (GPa) = 17.04472 22.33395 19.68933
#
# Velocity S-wave (km/s) = 2.98606 3.41812 3.20937
# Velocity P-wave (km/s) = 4.97889 6.03435 5.53185
#
# Compressibility (1/GPa) = 0.04055087
#
# Stress axis : x y z
#
# Youngs Moduli (GPa) = 31.31551 112.19160 33.78601
#
# Poissons Ratio (x) = 0.56082 0.15935
# Poissons Ratio (y) = 0.15654 0.17675
# Poissons Ratio (z) = 0.14770 0.58693
#
# Static dielectric constant tensor:
#      x y z
#    x 1.697730 0.000000 0.000000 
#    y 0.000000 1.685110 0.000000 
#    z 0.000000 0.000000 1.698920 
# 
# From -- ./inp_files/6875.got.cif
#   From: 2010.05.17/outbox.cif.g08.bks.cpg/sg39_4_cif.got.tgz:6875.got - 2010.06.03 18:22:40.
