data_PCOD9360162
_publ_section_title
;
Structure prediction by ZEFSAII (Michael W. Deem and Ramdas Pophale) SiO2 
 PCOD9360162
Probable space group: A B M 2
;
_chemical_formula_sum "Si O2"
_cell_formula_units_Z 64
_cell_length_a 15.064545
_cell_length_b 8.362199
_cell_length_c 25.611213
_cell_angle_alpha 90.000000
_cell_angle_beta 90.000000
_cell_angle_gamma 90.000000
_cell_volume 3226.314244
_symmetry_space_group_name_H-M "A B M 2"
_symmetry_group_IT_number 39
_symmetry_cell_setting 'orthorhombic'
loop_
_space_group_symop_operation_xyz
x,y,z
-x,-y,z
-x,1/2+y,z
x,1/2-y,z
x,1/2+y,1/2+z
-x,1/2-y,1/2+z
-x,y,1/2+z
x,-y,1/2+z
loop_
_atom_site_type_symbol
_atom_site_label
_atom_site_fract_x
_atom_site_fract_y
_atom_site_fract_z
Si Si1 0.341150 0.561608 0.123890
Si Si2 0.905038 0.060002 0.541624
Si Si3 0.723352 0.558581 0.815108
Si Si4 0.904079 0.059548 0.773532
Si Si5 0.398010 0.558342 0.910403
Si Si6 0.288571 0.056345 0.512190
Si Si7 0.409127 0.942825 0.227917
Si Si8 0.847482 0.443412 0.657349
O O1 0.360580 0.750000 0.119030
O O2 0.334801 0.494576 0.065649
O O3 0.402929 0.491444 0.168980
O O4 0.244171 0.535944 0.148652
O O5 0.902002 0.250000 0.536976
O O6 0.899637 0.019625 0.603753
O O7 0.815001 0.993641 0.515082
O O8 0.000000 0.000000 0.521204
O O9 0.722727 0.750000 0.816701
O O10 0.824017 0.501110 0.809611
O O11 0.663645 0.496507 0.862491
O O12 0.673373 0.503080 0.762418
O O13 0.902665 0.250000 0.773682
O O14 0.888774 0.007654 0.712812
O O15 0.000000 0.000000 0.790817
O O16 0.500000 0.500000 0.907597
O O17 0.400706 0.750000 0.910896
O O18 0.345856 0.502993 0.962654
O O19 0.289354 0.250000 0.513179
O O20 0.408001 0.750000 0.226395
O O21 0.500000 0.000000 0.253223
O O22 0.833134 0.250000 0.658301
#
# Coordination Sequence:
#
# PCOD9360162 Si02
#       8
#     8   8   8   8   8   8   8   8
#     4   9  17  33  54  79 114 154 190 233 287 342
#     4  10  19  32  53  84 121 159 200 239 285 342
#     4  11  23  41  62  86 116 153 197 246 297 349
#     4  11  22  36  57  86 121 159 198 241 291 349
#     4  11  24  43  66  91 115 149 197 247 299 354
#     4   9  20  38  60  84 115 152 194 242 293 345
#     4  10  21  34  53  82 114 149 188 230 286 349
#     4   9  18  31  50  80 116 157 198 236 280 336
#
# _framework density 19.836877999999999
#
# number of rings (size 3 to 8) (size 9 to 14) (size 15 to 20)
#    0.000    2.000    1.250    2.250    0.000    5.000 
#    0.000    0.625    0.000    3.000    0.000    0.000 
#    0.000    0.000    0.000    0.000    0.000    0.000 
#
# Total GULP energy -178494.753378 kJ/mol
# GULP energy per Si atom -5577.961043 kJ/mol
# Density = 1.979173 g / cm^3
# Si number density = 19.836878 Si / 1000 Ang^3
#
#
#
# Elastic Constant Matrix: (Units=GPa)
#
#
# Indices 1 2 3 4 5 6 
#
# 1 154.4705 26.3515 79.0105 0.0000 0.0000 0.0000
# 2 26.3515 18.6052 25.4479 0.0000 0.0000 0.0000
# 3 79.0105 25.4479 124.2462 0.0000 0.0000 0.0000
# 4 0.0000 0.0000 0.0000 21.6251 0.0000 0.0000
# 5 0.0000 0.0000 0.0000 0.0000 21.0482 0.0000
# 6 0.0000 0.0000 0.0000 0.0000 0.0000 31.2521
#
#
#
# Elastic Compliance Matrix: (Units=1/GPa)
#
#
# Indices 1 2 3 4 5 6 
#
# 1 0.010362 -0.007867 -0.004978 0.000000 0.000000 0.000000
# 2 -0.007867 0.080639 -0.011513 0.000000 0.000000 0.000000
# 3 -0.004978 -0.011513 0.013572 0.000000 0.000000 0.000000
# 4 0.000000 0.000000 0.000000 0.046242 0.000000 0.000000
# 5 0.000000 0.000000 0.000000 0.000000 0.047510 0.000000
# 6 0.000000 0.000000 0.000000 0.000000 0.000000 0.031998
#
#
# Mechanical properties :
#
#
# Convention : Reuss Voigt Hill
#
# Bulk Modulus (GPa) = 17.90317 62.10462 40.00390
# Shear Modulus (GPa) = 16.79767 25.88589 21.34178
#
# Velocity S-wave (km/s) = 2.91312 3.61631 3.28359
# Velocity P-wave (km/s) = 4.51219 6.98660 5.88100
#
# Compressibility (1/GPa) = 0.05585602
#
# Stress axis : x y z
#
# Youngs Moduli (GPa) = 96.50560 12.40091 73.67954
#
# Poissons Ratio (x) = 0.09756 0.36678
# Poissons Ratio (y) = 0.75926 0.84829
# Poissons Ratio (z) = 0.48041 0.14278
#
# Static dielectric constant tensor:
#      x y z
#    x 1.690480 0.000000 0.000000 
#    y 0.000000 1.676560 0.000000 
#    z 0.000000 0.000000 1.734290 
# 
# From -- ./inp_files/16188.got.cif
#   From: 2010.05.17/outbox.cif.g08.bks.cpg/sg39_9_cif.got.tgz:16188.got - 2010.06.03 18:22:40.
