data_PCOD9360296
_publ_section_title
;
Structure prediction by ZEFSAII (Michael W. Deem and Ramdas Pophale) SiO2 
 PCOD9360296
Probable space group: A B M 2
;
_chemical_formula_sum "Si O2"
_cell_formula_units_Z 56
_cell_length_a 14.795697
_cell_length_b 8.825679
_cell_length_c 25.758380
_cell_angle_alpha 90.000000
_cell_angle_beta 90.000000
_cell_angle_gamma 90.000000
_cell_volume 3363.582640
_symmetry_space_group_name_H-M "A B M 2"
_symmetry_group_IT_number 39
_symmetry_cell_setting 'orthorhombic'
loop_
_space_group_symop_operation_xyz
x,y,z
-x,-y,z
-x,1/2+y,z
x,1/2-y,z
x,1/2+y,1/2+z
-x,1/2-y,1/2+z
-x,y,1/2+z
x,-y,1/2+z
loop_
_atom_site_type_symbol
_atom_site_label
_atom_site_fract_x
_atom_site_fract_y
_atom_site_fract_z
Si Si1 0.210577 0.432440 0.530010
Si Si2 0.098311 0.069242 0.816945
Si Si3 0.779891 0.068828 0.728530
Si Si4 0.405465 0.068462 0.568773
Si Si5 0.100233 0.568056 0.626789
Si Si6 0.098459 0.930903 0.438424
Si Si7 0.595599 0.431614 0.190633
O O1 0.205250 0.250000 0.531459
O O2 0.314879 0.478265 0.539016
O O3 0.151232 0.499212 0.577096
O O4 0.170456 0.495057 0.476669
O O5 0.095197 0.250000 0.809893
O O6 0.117134 0.037642 0.877704
O O7 0.171244 0.996942 0.778994
O O8 0.000000 0.000000 0.804778
O O9 0.773445 0.250000 0.731718
O O10 0.841685 0.031237 0.678237
O O11 0.681411 0.998060 0.720169
O O12 0.411971 0.250000 0.566577
O O13 0.394145 0.026007 0.629551
O O14 0.500000 0.000000 0.550022
O O15 0.095071 0.750000 0.621816
O O16 0.000000 0.500000 0.630802
O O17 0.095807 0.750000 0.445767
O O18 0.000000 0.000000 0.450609
O O19 0.500000 0.500000 0.208294
O O20 0.594010 0.250000 0.194273
#
# Coordination Sequence:
#
# PCOD9360296 Si02
#       7
#     8   8   8   8   8   8   8
#     4  11  21  35  54  78 107 140 176 217 266 316
#     4  10  21  37  57  79 106 140 181 225 269 318
#     4  11  22  35  54  80 108 142 180 219 269 320
#     4   9  19  33  52  77 105 139 175 215 260 312
#     4  11  23  35  49  73 107 143 175 212 260 317
#     4  10  21  37  56  79 105 140 181 223 267 314
#     4  10  19  34  54  78 109 142 179 221 265 319
#
# _framework density 16.648914000000001
#
# number of rings (size 3 to 8) (size 9 to 14) (size 15 to 20)
#    0.000    1.714    1.429    3.429    0.000    6.286 
#    0.000    0.000    0.000    0.857    0.000    2.000 
#    0.000    0.000    0.000    0.000    0.000    0.000 
#
# Total GULP energy -156407.396018 kJ/mol
# GULP energy per Si atom -5585.978429 kJ/mol
# Density = 1.661102 g / cm^3
# Si number density = 16.648914 Si / 1000 Ang^3
#
#
#
# Elastic Constant Matrix: (Units=GPa)
#
#
# Indices 1 2 3 4 5 6 
#
# 1 187.6544 66.5823 84.8845 0.0000 0.0000 0.0000
# 2 66.5823 62.3718 47.7542 0.0000 0.0000 0.0000
# 3 84.8845 47.7542 78.3737 0.0000 0.0000 0.0000
# 4 0.0000 0.0000 0.0000 26.3070 0.0000 0.0000
# 5 0.0000 0.0000 0.0000 0.0000 20.7026 0.0000
# 6 0.0000 0.0000 0.0000 0.0000 0.0000 33.5448
#
#
#
# Elastic Compliance Matrix: (Units=1/GPa)
#
#
# Indices 1 2 3 4 5 6 
#
# 1 0.011226 -0.005014 -0.009103 0.000000 0.000000 0.000000
# 2 -0.005014 0.032292 -0.014246 0.000000 0.000000 0.000000
# 3 -0.009103 -0.014246 0.031299 0.000000 0.000000 0.000000
# 4 0.000000 0.000000 0.000000 0.038013 0.000000 0.000000
# 5 0.000000 0.000000 0.000000 0.000000 0.048303 0.000000
# 6 0.000000 0.000000 0.000000 0.000000 0.000000 0.029811
#
#
# Mechanical properties :
#
#
# Convention : Reuss Voigt Hill
#
# Bulk Modulus (GPa) = 55.27537 80.76021 68.01779
# Shear Modulus (GPa) = 19.70827 24.72281 22.21554
#
# Velocity S-wave (km/s) = 3.44431 3.85769 3.65684
# Velocity P-wave (km/s) = 7.00645 8.27378 7.66635
#
# Compressibility (1/GPa) = 0.01809124
#
# Stress axis : x y z
#
# Youngs Moduli (GPa) = 89.08106 30.96715 31.94950
#
# Poissons Ratio (x) = 0.15526 0.29085
# Poissons Ratio (y) = 0.44662 0.45515
# Poissons Ratio (z) = 0.81094 0.44116
#
# Static dielectric constant tensor:
#      x y z
#    x 1.540400 0.000000 0.000000 
#    y 0.000000 1.554800 0.000000 
#    z 0.000000 0.000000 1.543960 
# 
# From -- ./inp_files/14726.got.cif
#   From: 2010.05.17/outbox.cif.g08.bks.cpg/sg39_8_cif.got.tgz:14726.got - 2010.06.03 18:22:40.
