data_PCOD9360311
_publ_section_title
;
Structure prediction by ZEFSAII (Michael W. Deem and Ramdas Pophale) SiO2 
 PCOD9360311
Probable space group: A B M 2
;
_chemical_formula_sum "Si O2"
_cell_formula_units_Z 64
_cell_length_a 14.476419
_cell_length_b 16.100884
_cell_length_c 14.567900
_cell_angle_alpha 90.000000
_cell_angle_beta 90.000000
_cell_angle_gamma 90.000000
_cell_volume 3395.531920
_symmetry_space_group_name_H-M "A B M 2"
_symmetry_group_IT_number 39
_symmetry_cell_setting 'orthorhombic'
loop_
_space_group_symop_operation_xyz
x,y,z
-x,-y,z
-x,1/2+y,z
x,1/2-y,z
x,1/2+y,1/2+z
-x,1/2-y,1/2+z
-x,y,1/2+z
x,-y,1/2+z
loop_
_atom_site_type_symbol
_atom_site_label
_atom_site_fract_x
_atom_site_fract_y
_atom_site_fract_z
Si Si1 0.052928 0.588855 0.382080
Si Si2 0.918158 0.435098 0.184025
Si Si3 0.889672 0.844505 0.491158
Si Si4 0.389672 0.155495 0.118701
Si Si5 0.418158 0.435098 0.925833
Si Si6 0.227394 0.504255 0.947149
Si Si7 0.272606 0.504255 0.662709
Si Si8 0.552928 0.911145 0.727779
O O1 0.057633 0.615041 0.275989
O O2 0.153560 0.566899 0.421683
O O3 0.000000 0.500000 0.382275
O O4 0.990279 0.647020 0.444511
O O5 0.899167 0.379784 0.094759
O O6 0.825507 0.487086 0.209399
O O7 0.000000 0.500000 0.162172
O O8 0.858040 0.750000 0.491053
O O9 0.821159 0.906463 0.436142
O O10 0.358041 0.250000 0.118805
O O11 0.321159 0.093537 0.173716
O O12 0.490279 0.147020 0.165348
O O13 0.399167 0.120216 0.015099
O O14 0.500000 0.500000 0.947686
O O15 0.325506 0.487086 0.900459
O O16 0.442366 0.384958 0.833869
O O17 0.250000 0.500000 0.054929
O O18 0.346440 0.433101 0.688175
O O19 0.500000 0.000000 0.727585
#
# Coordination Sequence:
#
# PCOD9360311 Si02
#       8
#     8   8   8   8   8   8   8   8
#     4   9  18  33  55  78 102 139 181 219 262 317
#     4  10  19  34  56  77 103 144 188 221 257 321
#     4  10  20  34  53  81 113 138 170 225 282 322
#     4  10  20  34  53  81 113 138 170 225 282 322
#     4  10  19  34  56  77 103 144 188 221 257 321
#     4   9  17  33  55  76 103 140 184 219 256 317
#     4   9  17  33  55  76 103 140 184 219 256 317
#     4   9  18  33  55  78 102 139 181 219 262 317
#
# _framework density 18.848298
#
# number of rings (size 3 to 8) (size 9 to 14) (size 15 to 20)
#    0.000    2.500    0.000    4.500    0.000    1.000 
#    0.000   11.250    0.000   27.000    0.000    0.000 
#    0.000    0.000    0.000    0.000    0.000    0.000 
#
# Total GULP energy -178340.211008 kJ/mol
# GULP energy per Si atom -5573.131594 kJ/mol
# Density = 1.880540 g / cm^3
# Si number density = 18.848298 Si / 1000 Ang^3
#
#
#
# Elastic Constant Matrix: (Units=GPa)
#
#
# Indices 1 2 3 4 5 6 
#
# 1 111.4990 28.7168 3.9418 0.0000 0.0000 0.0000
# 2 28.7168 80.5819 12.7571 0.0000 0.0000 0.0000
# 3 3.9418 12.7571 75.6815 0.0000 0.0000 0.0000
# 4 0.0000 0.0000 0.0000 1.8493 0.0000 0.0000
# 5 0.0000 0.0000 0.0000 0.0000 23.8473 0.0000
# 6 0.0000 0.0000 0.0000 0.0000 0.0000 10.1297
#
#
#
# Elastic Compliance Matrix: (Units=1/GPa)
#
#
# Indices 1 2 3 4 5 6 
#
# 1 0.009876 -0.003532 0.000081 0.000000 0.000000 0.000000
# 2 -0.003532 0.014013 -0.002178 0.000000 0.000000 0.000000
# 3 0.000081 -0.002178 0.013576 0.000000 0.000000 0.000000
# 4 0.000000 0.000000 0.000000 0.540754 0.000000 0.000000
# 5 0.000000 0.000000 0.000000 0.000000 0.041934 0.000000
# 6 0.000000 0.000000 0.000000 0.000000 0.000000 0.098720
#
#
# Mechanical properties :
#
#
# Convention : Reuss Voigt Hill
#
# Bulk Modulus (GPa) = 38.15847 39.84376 39.00111
# Shear Modulus (GPa) = 6.76712 21.98834 14.37773
#
# Velocity S-wave (km/s) = 1.89687 3.41925 2.76490
# Velocity P-wave (km/s) = 5.00864 6.06411 5.56147
#
# Compressibility (1/GPa) = 0.02620650
#
# Stress axis : x y z
#
# Youngs Moduli (GPa) = 101.26024 71.36070 73.65825
#
# Poissons Ratio (x) = 0.25206 -0.00597
# Poissons Ratio (y) = 0.35767 0.16044
# Poissons Ratio (z) = -0.00821 0.15543
#
# Static dielectric constant tensor:
#      x y z
#    x 1.699630 0.000000 0.000000 
#    y 0.000000 1.621680 0.000000 
#    z 0.000000 0.000000 1.688520 
# 
# From -- ./inp_files/9909.got.cif
#   From: 2010.05.17/outbox.cif.g08.bks.cpg/sg39_5_cif.got.tgz:9909.got - 2010.06.03 18:22:40.
