data_PCOD9360159
_publ_section_title
;
Structure prediction by ZEFSAII (Michael W. Deem and Ramdas Pophale) SiO2 
 PCOD9360159
Probable space group: A B M 2
;
_chemical_formula_sum "Si O2"
_cell_formula_units_Z 64
_cell_length_a 14.668968
_cell_length_b 9.176258
_cell_length_c 24.753620
_cell_angle_alpha 90.000000
_cell_angle_beta 90.000000
_cell_angle_gamma 90.000000
_cell_volume 3331.991590
_symmetry_space_group_name_H-M "A B M 2"
_symmetry_group_IT_number 39
_symmetry_cell_setting 'orthorhombic'
loop_
_space_group_symop_operation_xyz
x,y,z
-x,-y,z
-x,1/2+y,z
x,1/2-y,z
x,1/2+y,1/2+z
-x,1/2-y,1/2+z
-x,y,1/2+z
x,-y,1/2+z
loop_
_atom_site_type_symbol
_atom_site_label
_atom_site_fract_x
_atom_site_fract_y
_atom_site_fract_z
Si Si1 0.346634 0.584532 0.712820
Si Si2 0.704110 0.921764 0.819150
Si Si3 0.909486 0.076949 0.294131
Si Si4 0.094107 0.075195 0.060018
Si Si5 0.866890 0.415779 0.685499
Si Si6 0.271941 0.421181 0.518915
Si Si7 0.583494 0.082252 0.111539
Si Si8 0.401282 0.423513 0.931980
O O1 0.380336 0.750000 0.715434
O O2 0.342767 0.512003 0.771398
O O3 0.242192 0.587007 0.691868
O O4 0.399863 0.491672 0.668936
O O5 0.702590 0.750000 0.804752
O O6 0.811873 0.963544 0.821095
O O7 0.650163 0.940985 0.874612
O O8 0.919831 0.250000 0.297191
O O9 0.900634 0.024504 0.231784
O O10 0.000000 0.000000 0.316819
O O11 0.092312 0.250000 0.053487
O O12 0.108165 0.045066 0.124303
O O13 0.177434 0.004645 0.027509
O O14 0.000000 0.000000 0.043572
O O15 0.900135 0.250000 0.696486
O O16 0.258987 0.250000 0.505887
O O17 0.326712 0.429046 0.575400
O O18 0.336227 0.500053 0.475676
O O19 0.559566 0.250000 0.117739
O O20 0.500000 0.000000 0.083311
O O21 0.500000 0.500000 0.931183
O O22 0.410955 0.250000 0.942776
#
# Coordination Sequence:
#
# PCOD9360159 Si02
#       8
#     8   8   8   8   8   8   8   8
#     4  10  19  34  57  86 121 158 196 243 298 354
#     4   9  21  40  60  85 119 159 200 245 301 360
#     4  10  19  32  53  82 118 158 200 243 290 349
#     4  11  22  37  58  87 124 163 205 250 299 360
#     4   9  18  32  52  81 117 160 202 241 287 345
#     4  11  24  42  64  90 120 157 202 252 307 362
#     4  11  23  37  57  85 119 157 196 241 298 365
#     4  11  24  44  69  92 117 152 200 255 310 367
#
# _framework density 19.207732
#
# number of rings (size 3 to 8) (size 9 to 14) (size 15 to 20)
#    0.000    1.750    1.250    3.000    0.000    7.000 
#    0.000    1.875    0.000    1.500    0.000    0.000 
#    0.000    0.000    0.000    0.000    0.000    0.000 
#
# Total GULP energy -178754.505802 kJ/mol
# GULP energy per Si atom -5586.078306 kJ/mol
# Density = 1.916401 g / cm^3
# Si number density = 19.207732 Si / 1000 Ang^3
#
#
#
# Elastic Constant Matrix: (Units=GPa)
#
#
# Indices 1 2 3 4 5 6 
#
# 1 135.4327 77.2511 46.2542 0.0000 0.0000 0.0000
# 2 77.2511 133.7049 63.9887 0.0000 0.0000 0.0000
# 3 46.2542 63.9887 71.7251 0.0000 0.0000 0.0000
# 4 0.0000 0.0000 0.0000 23.4573 0.0000 0.0000
# 5 0.0000 0.0000 0.0000 0.0000 16.5927 0.0000
# 6 0.0000 0.0000 0.0000 0.0000 0.0000 35.7578
#
#
#
# Elastic Compliance Matrix: (Units=1/GPa)
#
#
# Indices 1 2 3 4 5 6 
#
# 1 0.011274 -0.005295 -0.002546 0.000000 0.000000 0.000000
# 2 -0.005295 0.015539 -0.010448 0.000000 0.000000 0.000000
# 3 -0.002546 -0.010448 0.024905 0.000000 0.000000 0.000000
# 4 0.000000 0.000000 0.000000 0.042631 0.000000 0.000000
# 5 0.000000 0.000000 0.000000 0.000000 0.060268 0.000000
# 6 0.000000 0.000000 0.000000 0.000000 0.000000 0.027966
#
#
# Mechanical properties :
#
#
# Convention : Reuss Voigt Hill
#
# Bulk Modulus (GPa) = 66.05469 79.53897 72.79683
# Shear Modulus (GPa) = 22.30085 25.38613 23.84349
#
# Velocity S-wave (km/s) = 3.41109 3.63941 3.52710
# Velocity P-wave (km/s) = 7.06954 7.69157 7.38710
#
# Compressibility (1/GPa) = 0.01513897
#
# Stress axis : x y z
#
# Youngs Moduli (GPa) = 88.70240 64.35541 40.15215
#
# Poissons Ratio (x) = 0.34076 0.10224
# Poissons Ratio (y) = 0.46968 0.41951
# Poissons Ratio (z) = 0.22586 0.67239
#
# Static dielectric constant tensor:
#      x y z
#    x 1.696140 0.000000 0.000000 
#    y 0.000000 1.654170 0.000000 
#    z 0.000000 0.000000 1.640940 
# 
# From -- ./inp_files/16181.got.cif
#   From: 2010.05.17/outbox.cif.g08.bks.cpg/sg39_9_cif.got.tgz:16181.got - 2010.06.03 18:22:40.
