data_PCOD9360201
_publ_section_title
;
Structure prediction by ZEFSAII (Michael W. Deem and Ramdas Pophale) SiO2 
 PCOD9360201
Probable space group: A B M 2
;
_chemical_formula_sum "Si O2"
_cell_formula_units_Z 64
_cell_length_a 7.672899
_cell_length_b 17.935925
_cell_length_c 22.355658
_cell_angle_alpha 90.000000
_cell_angle_beta 90.000000
_cell_angle_gamma 90.000000
_cell_volume 3076.597748
_symmetry_space_group_name_H-M "A B M 2"
_symmetry_group_IT_number 39
_symmetry_cell_setting 'orthorhombic'
loop_
_space_group_symop_operation_xyz
x,y,z
-x,-y,z
-x,1/2+y,z
x,1/2-y,z
x,1/2+y,1/2+z
-x,1/2-y,1/2+z
-x,y,1/2+z
x,-y,1/2+z
loop_
_atom_site_type_symbol
_atom_site_label
_atom_site_fract_x
_atom_site_fract_y
_atom_site_fract_z
Si Si1 0.081863 0.840556 0.677480
Si Si2 0.530470 0.588940 0.178439
Si Si3 0.472104 0.833265 0.797994
Si Si4 0.956451 0.587930 0.057570
Si Si5 0.056266 0.166940 0.305378
Si Si6 0.549524 0.087044 0.421464
Si Si7 0.463337 0.588485 0.549652
Si Si8 0.037226 0.412684 0.927143
O O1 0.109137 0.750000 0.676409
O O2 0.265508 0.886041 0.677642
O O3 0.989000 0.867395 0.616727
O O4 0.987965 0.859897 0.740520
O O5 0.500000 0.500000 0.181000
O O6 0.459286 0.624608 0.239310
O O7 0.462970 0.616131 0.113212
O O8 0.544041 0.750000 0.799478
O O9 0.262834 0.828690 0.793437
O O10 0.499696 0.873507 0.860575
O O11 0.746331 0.596738 0.052677
O O12 0.000000 0.500000 0.064618
O O13 0.027907 0.613906 0.992668
O O14 0.987517 0.250000 0.316211
O O15 0.031794 0.121796 0.365934
O O16 0.475261 0.117308 0.484877
O O17 0.755986 0.096023 0.425862
O O18 0.500000 0.000000 0.417090
O O19 0.500000 0.500000 0.548190
O O20 0.000000 0.500000 0.925958
#
# Coordination Sequence:
#
# PCOD9360201 Si02
#       8
#     8   8   8   8   8   8   8   8
#     4   9  18  34  54  77 104 138 175 213 260 315
#     4   9  16  30  53  78 100 129 173 213 252 306
#     4  10  20  34  51  74 104 138 171 210 258 309
#     4   9  18  32  51  78 103 129 169 216 258 304
#     4   9  19  35  53  72 102 140 174 209 256 311
#     4  10  19  33  53  75 102 134 168 211 257 306
#     4   8  16  31  51  74  99 129 164 208 256 303
#     4  10  20  33  52  78 104 133 171 214 259 306
#
# _framework density 20.802199000000002
#
# number of rings (size 3 to 8) (size 9 to 14) (size 15 to 20)
#    0.000    2.750    0.000    2.250    0.000    3.500 
#    0.000    9.375    0.000    0.000    0.000   14.000 
#    0.000    0.000    0.000    0.000    0.000    0.000 
#
# Total GULP energy -178153.981194 kJ/mol
# GULP energy per Si atom -5567.311912 kJ/mol
# Density = 2.075485 g / cm^3
# Si number density = 20.802199 Si / 1000 Ang^3
#
#
#
# Elastic Constant Matrix: (Units=GPa)
#
#
# Indices 1 2 3 4 5 6 
#
# 1 36.9704 3.5731 10.5966 0.0000 0.0000 0.0000
# 2 3.5731 68.4806 85.9096 0.0000 0.0000 0.0000
# 3 10.5966 85.9096 288.6933 0.0000 0.0000 0.0000
# 4 0.0000 0.0000 0.0000 -11.0981 0.0000 0.0000
# 5 0.0000 0.0000 0.0000 0.0000 30.2922 0.0000
# 6 0.0000 0.0000 0.0000 0.0000 0.0000 8.4723
#
#
#
# Elastic Compliance Matrix: (Units=1/GPa)
#
#
# Indices 1 2 3 4 5 6 
#
# 1 0.027339 -0.000267 -0.000924 0.000000 0.000000 0.000000
# 2 -0.000267 0.023304 -0.006925 0.000000 0.000000 0.000000
# 3 -0.000924 -0.006925 0.005559 0.000000 0.000000 0.000000
# 4 0.000000 0.000000 0.000000 -0.090105 0.000000 0.000000
# 5 0.000000 0.000000 0.000000 0.000000 0.033012 0.000000
# 6 0.000000 0.000000 0.000000 0.000000 0.000000 0.118031
#
#
# Mechanical properties :
#
#
# Convention : Reuss Voigt Hill
#
# Bulk Modulus (GPa) = 25.01923 66.03365 45.52644
# Shear Modulus (GPa) = 34.08417 25.13761 29.61089
#
# Velocity S-wave (km/s) = 4.05222 3.47999 3.77696
# Velocity P-wave (km/s) = 5.82643 6.92529 6.39949
#
# Compressibility (1/GPa) = 0.03996926
#
# Stress axis : x y z
#
# Youngs Moduli (GPa) = 36.57736 42.91075 179.90264
#
# Poissons Ratio (x) = 0.01148 0.16622
# Poissons Ratio (y) = 0.00978 1.24584
# Poissons Ratio (z) = 0.03379 0.29716
#
# Static dielectric constant tensor:
#      x y z
#    x 1.786260 0.000000 0.000000 
#    y 0.000000 1.701230 0.000000 
#    z 0.000000 0.000000 1.852980 
# 
# From -- ./inp_files/14193.got.cif
#   From: 2010.05.17/outbox.cif.g08.bks.cpg/sg39_8_cif.got.tgz:14193.got - 2010.06.03 18:22:40.
