data_PCOD9360182
_publ_section_title
;
Structure prediction by ZEFSAII (Michael W. Deem and Ramdas Pophale) SiO2 
 PCOD9360182
Probable space group: A B M 2
;
_chemical_formula_sum "Si O2"
_cell_formula_units_Z 64
_cell_length_a 11.216623
_cell_length_b 16.046875
_cell_length_c 18.845435
_cell_angle_alpha 90.000000
_cell_angle_beta 90.000000
_cell_angle_gamma 90.000000
_cell_volume 3392.022772
_symmetry_space_group_name_H-M "A B M 2"
_symmetry_group_IT_number 39
_symmetry_cell_setting 'orthorhombic'
loop_
_space_group_symop_operation_xyz
x,y,z
-x,-y,z
-x,1/2+y,z
x,1/2-y,z
x,1/2+y,1/2+z
-x,1/2-y,1/2+z
-x,y,1/2+z
x,-y,1/2+z
loop_
_atom_site_type_symbol
_atom_site_label
_atom_site_fract_x
_atom_site_fract_y
_atom_site_fract_z
Si Si1 0.876592 0.154979 0.247030
Si Si2 0.347349 0.592495 0.683715
Si Si3 0.500815 0.346778 0.552124
Si Si4 0.698617 0.098742 0.148601
Si Si5 0.462703 0.654981 0.278154
Si Si6 0.142802 0.007688 0.863302
Si Si7 0.846064 0.159026 0.775278
Si Si8 0.607842 0.064149 0.415934
O O1 0.835312 0.250000 0.265072
O O2 0.830640 0.128187 0.168833
O O3 0.848243 0.080726 0.303231
O O4 0.018190 0.158175 0.251069
O O5 0.420931 0.636905 0.622232
O O6 0.318100 0.499268 0.660561
O O7 0.429859 0.594995 0.753995
O O8 0.232428 0.642659 0.706239
O O9 0.494460 0.250000 0.534871
O O10 0.368749 0.377339 0.576317
O O11 0.566621 0.395571 0.489808
O O12 0.630524 0.143497 0.214235
O O13 0.505771 0.750000 0.279415
O O14 0.404784 0.630134 0.352038
O O15 0.255979 0.028754 0.914740
O O16 0.171267 0.918493 0.827919
O O17 0.000000 0.000000 0.885874
O O18 0.817834 0.250000 0.806643
O O19 0.500000 0.000000 0.400865
#
# Coordination Sequence:
#
# PCOD9360182 Si02
#       8
#     8   8   8   8   8   8   8   8
#     4  10  19  32  56  89 121 154 198 252 308 367
#     4  11  20  35  56  84 119 158 192 251 310 372
#     4  11  24  39  57  82 116 157 205 258 313 367
#     4  11  19  34  57  84 116 154 197 249 309 364
#     4  11  20  31  54  86 114 147 193 244 301 359
#     4  10  21  38  61  89 126 157 201 252 314 371
#     4  10  19  33  56  90 123 154 196 252 309 368
#     4  12  23  38  58  84 116 160 202 254 306 374
#
# _framework density 18.867796999999999
#
# number of rings (size 3 to 8) (size 9 to 14) (size 15 to 20)
#    0.000    1.250    2.500    7.125    0.000    0.500 
#    0.000    0.625    5.500    0.000    0.000    0.000 
#    0.000    0.000    0.000    0.000    0.000    0.000 
#
# Total GULP energy -178310.788884 kJ/mol
# GULP energy per Si atom -5572.212153 kJ/mol
# Density = 1.882485 g / cm^3
# Si number density = 18.867797 Si / 1000 Ang^3
#
#
#
# Elastic Constant Matrix: (Units=GPa)
#
#
# Indices 1 2 3 4 5 6 
#
# 1 65.7301 34.2260 34.1721 0.0000 0.0000 0.0000
# 2 34.2260 122.8899 15.6323 0.0000 0.0000 0.0000
# 3 34.1721 15.6323 69.7884 0.0000 0.0000 0.0000
# 4 0.0000 0.0000 0.0000 9.6420 0.0000 0.0000
# 5 0.0000 0.0000 0.0000 0.0000 27.0816 0.0000
# 6 0.0000 0.0000 0.0000 0.0000 0.0000 21.7408
#
#
#
# Elastic Compliance Matrix: (Units=1/GPa)
#
#
# Indices 1 2 3 4 5 6 
#
# 1 0.023211 -0.005166 -0.010208 0.000000 0.000000 0.000000
# 2 -0.005166 0.009526 0.000396 0.000000 0.000000 0.000000
# 3 -0.010208 0.000396 0.019239 0.000000 0.000000 0.000000
# 4 0.000000 0.000000 0.000000 0.103713 0.000000 0.000000
# 5 0.000000 0.000000 0.000000 0.000000 0.036926 0.000000
# 6 0.000000 0.000000 0.000000 0.000000 0.000000 0.045997
#
#
# Mechanical properties :
#
#
# Convention : Reuss Voigt Hill
#
# Bulk Modulus (GPa) = 45.41553 47.38546 46.40050
# Shear Modulus (GPa) = 18.12212 23.31807 20.72010
#
# Velocity S-wave (km/s) = 3.10252 3.51930 3.31746
# Velocity P-wave (km/s) = 6.07921 6.45624 6.27056
#
# Compressibility (1/GPa) = 0.02201890
#
# Stress axis : x y z
#
# Youngs Moduli (GPa) = 43.08376 104.97844 51.97835
#
# Poissons Ratio (x) = 0.54230 0.53060
# Poissons Ratio (y) = 0.22256 -0.02057
# Poissons Ratio (z) = 0.43980 -0.04155
#
# Static dielectric constant tensor:
#      x y z
#    x 1.772810 0.000000 0.000000 
#    y 0.000000 1.685860 0.000000 
#    z 0.000000 0.000000 1.642250 
# 
# From -- ./inp_files/12383.got.cif
#   From: 2010.05.17/outbox.cif.g08.bks.cpg/sg39_7_cif.got.tgz:12383.got - 2010.06.03 18:22:40.
