data_PCOD9360612
_publ_section_title
;
Structure prediction by ZEFSAII (Michael W. Deem and Ramdas Pophale) SiO2 
 PCOD9360612
Probable space group: A B M 2
;
_chemical_formula_sum "Si O2"
_cell_formula_units_Z 64
_cell_length_a 21.843448
_cell_length_b 9.279407
_cell_length_c 14.556847
_cell_angle_alpha 90.000000
_cell_angle_beta 90.000000
_cell_angle_gamma 90.000000
_cell_volume 2950.589102
_symmetry_space_group_name_H-M "A B M 2"
_symmetry_group_IT_number 39
_symmetry_cell_setting 'orthorhombic'
loop_
_space_group_symop_operation_xyz
x,y,z
-x,-y,z
-x,1/2+y,z
x,1/2-y,z
x,1/2+y,1/2+z
-x,1/2-y,1/2+z
-x,y,1/2+z
x,-y,1/2+z
loop_
_atom_site_type_symbol
_atom_site_label
_atom_site_fract_x
_atom_site_fract_y
_atom_site_fract_z
Si Si1 0.818764 0.411806 0.151640
Si Si2 0.684039 0.424686 0.143960
Si Si3 0.438225 0.417763 0.154141
Si Si4 0.056750 0.410805 0.394545
Si Si5 0.440789 0.585856 0.428958
Si Si6 0.190178 0.414780 0.430919
Si Si7 0.058028 0.410118 0.176202
Si Si8 0.691581 0.575786 0.944521
O O1 0.833135 0.250000 0.184825
O O2 0.751049 0.453972 0.187617
O O3 0.810300 0.405316 0.041427
O O4 0.876381 0.513687 0.167039
O O5 0.677987 0.250000 0.137330
O O6 0.622592 0.495699 0.183898
O O7 0.688192 0.500129 0.044104
O O8 0.500000 0.500000 0.182541
O O9 0.436915 0.250000 0.182232
O O10 0.439329 0.417732 0.041346
O O11 0.058967 0.250000 0.435757
O O12 0.123858 0.477301 0.406534
O O13 0.047853 0.397016 0.285563
O O14 0.000000 0.500000 0.431416
O O15 0.500000 0.500000 0.398879
O O16 0.448022 0.750000 0.400038
O O17 0.373320 0.536386 0.398851
O O18 0.194993 0.250000 0.394748
O O19 0.247114 0.511509 0.401379
O O20 0.059722 0.250000 0.135722
O O21 0.000000 0.500000 0.140567
O O22 0.694119 0.750000 0.952258
#
# Coordination Sequence:
#
# PCOD9360612 Si02
#       8
#     8   8   8   8   8   8   8   8
#     4   9  18  31  47  68  94 122 151 186 227 271
#     4   9  16  26  39  56  82 116 149 184 227 269
#     4   9  15  22  33  51  77 111 150 188 224 267
#     4   9  19  35  52  70  91 117 150 185 224 269
#     4   8  14  21  30  47  73 106 143 179 212 252
#     4   9  18  32  48  67  92 120 150 185 225 269
#     4  10  20  34  52  70  91 119 149 185 225 269
#     4   9  16  25  37  57  84 113 147 184 222 266
#
# _framework density 21.690584000000001
#
# number of rings (size 3 to 8) (size 9 to 14) (size 15 to 20)
#    0.000    3.000    0.000    3.000    0.000    7.500 
#    0.000    1.250    0.000    0.000    0.000    0.000 
#    0.000    1.000    0.000    6.500    0.000   13.750 
#
# Total GULP energy -178411.888378 kJ/mol
# GULP energy per Si atom -5575.371512 kJ/mol
# Density = 2.164122 g / cm^3
# Si number density = 21.690584 Si / 1000 Ang^3
#
#
#
# Elastic Constant Matrix: (Units=GPa)
#
#
# Indices 1 2 3 4 5 6 
#
# 1 271.9715 133.9722 4.2726 0.0000 0.0000 0.0000
# 2 133.9722 124.5011 6.5817 0.0000 0.0000 0.0000
# 3 4.2726 6.5817 50.1906 0.0000 0.0000 0.0000
# 4 0.0000 0.0000 0.0000 1.5192 0.0000 0.0000
# 5 0.0000 0.0000 0.0000 0.0000 37.5575 0.0000
# 6 0.0000 0.0000 0.0000 0.0000 0.0000 42.0132
#
#
#
# Elastic Compliance Matrix: (Units=1/GPa)
#
#
# Indices 1 2 3 4 5 6 
#
# 1 0.007834 -0.008453 0.000442 0.000000 0.000000 0.000000
# 2 -0.008453 0.017210 -0.001537 0.000000 0.000000 0.000000
# 3 0.000442 -0.001537 0.020088 0.000000 0.000000 0.000000
# 4 0.000000 0.000000 0.000000 0.658250 0.000000 0.000000
# 5 0.000000 0.000000 0.000000 0.000000 0.026626 0.000000
# 6 0.000000 0.000000 0.000000 0.000000 0.000000 0.023802
#
#
# Mechanical properties :
#
#
# Convention : Reuss Voigt Hill
#
# Bulk Modulus (GPa) = 38.41128 81.81290 60.11209
# Shear Modulus (GPa) = 6.39726 36.34042 21.36884
#
# Velocity S-wave (km/s) = 1.71922 4.09761 3.14214
# Velocity P-wave (km/s) = 4.65705 7.75804 6.39826
#
# Compressibility (1/GPa) = 0.02603402
#
# Stress axis : x y z
#
# Youngs Moduli (GPa) = 127.64935 58.10698 49.78090
#
# Poissons Ratio (x) = 0.49119 -0.02198
# Poissons Ratio (y) = 1.07905 0.07652
# Poissons Ratio (z) = -0.05637 0.08932
#
# Static dielectric constant tensor:
#      x y z
#    x 1.818170 0.000000 0.000000 
#    y 0.000000 1.744530 0.000000 
#    z 0.000000 0.000000 1.837650 
# 
# From -- ./inp_files/15045.got.cif
#   From: 2010.05.17/outbox.cif.g08.bks.cpg/sg39_8_cif.got.tgz:15045.got - 2010.06.03 18:22:40.
