data_PCOD9360638
_publ_section_title
;
Structure prediction by ZEFSAII (Michael W. Deem and Ramdas Pophale) SiO2 
 PCOD9360638
Probable space group: A B M 2
;
_chemical_formula_sum "Si O2"
_cell_formula_units_Z 48
_cell_length_a 16.735024
_cell_length_b 8.952110
_cell_length_c 18.463398
_cell_angle_alpha 90.000000
_cell_angle_beta 90.000000
_cell_angle_gamma 90.000000
_cell_volume 2766.071367
_symmetry_space_group_name_H-M "A B M 2"
_symmetry_group_IT_number 39
_symmetry_cell_setting 'orthorhombic'
loop_
_space_group_symop_operation_xyz
x,y,z
-x,-y,z
-x,1/2+y,z
x,1/2-y,z
x,1/2+y,1/2+z
-x,1/2-y,1/2+z
-x,y,1/2+z
x,-y,1/2+z
loop_
_atom_site_type_symbol
_atom_site_label
_atom_site_fract_x
_atom_site_fract_y
_atom_site_fract_z
Si Si1 0.081705 0.927349 0.412620
Si Si2 0.328888 0.920532 0.879676
Si Si3 0.584621 0.430160 0.737529
Si Si4 0.166795 0.578516 0.783068
Si Si5 0.738014 0.928128 0.659897
Si Si6 0.241845 0.573704 0.504836
O O1 0.073040 0.750000 0.405522
O O2 0.156795 0.956114 0.465606
O O3 0.103386 0.998481 0.334768
O O4 0.000000 0.000000 0.439781
O O5 0.343387 0.750000 0.903836
O O6 0.395897 0.966928 0.821930
O O7 0.248234 0.919218 0.830929
O O8 0.309732 0.024604 0.947414
O O9 0.500000 0.500000 0.716981
O O10 0.585477 0.250000 0.730982
O O11 0.656204 0.499184 0.690300
O O12 0.144774 0.750000 0.767736
O O13 0.190968 0.491062 0.710813
O O14 0.733887 0.750000 0.665777
O O15 0.750695 0.981099 0.578070
O O16 0.247312 0.750000 0.519913
#
# Coordination Sequence:
#
# PCOD9360638 Si02
#       6
#     8   8   8   8   8   8
#     4  10  20  34  54  79 106 137 174 217 264 312
#     4   8  16  31  51  74  99 130 167 207 252 304
#     4  10  20  35  55  79 107 137 173 217 264 311
#     4   9  17  32  53  75 101 132 170 212 253 303
#     4  11  21  34  54  78 106 140 178 216 261 316
#     4  10  20  34  53  77 105 138 177 217 260 312
#
# _framework density 17.353131000000001
#
# number of rings (size 3 to 8) (size 9 to 14) (size 15 to 20)
#    0.000    2.333    0.000    4.500    0.000    6.667 
#    0.000    1.667    0.000    4.000    0.000    0.000 
#    0.000    0.000    0.000    0.000    0.000    0.000 
#
# Total GULP energy -133846.171174 kJ/mol
# GULP energy per Si atom -5576.923799 kJ/mol
# Density = 1.731363 g / cm^3
# Si number density = 17.353131 Si / 1000 Ang^3
#
#
#
# Elastic Constant Matrix: (Units=GPa)
#
#
# Indices 1 2 3 4 5 6 
#
# 1 65.9419 46.6325 25.3319 0.0000 0.0000 0.0000
# 2 46.6325 121.1388 69.7686 0.0000 0.0000 0.0000
# 3 25.3319 69.7686 96.0774 0.0000 0.0000 0.0000
# 4 0.0000 0.0000 0.0000 31.1839 0.0000 0.0000
# 5 0.0000 0.0000 0.0000 0.0000 12.8667 0.0000
# 6 0.0000 0.0000 0.0000 0.0000 0.0000 25.8733
#
#
#
# Elastic Compliance Matrix: (Units=1/GPa)
#
#
# Indices 1 2 3 4 5 6 
#
# 1 0.020855 -0.008356 0.000569 0.000000 0.000000 0.000000
# 2 -0.008356 0.017538 -0.010532 0.000000 0.000000 0.000000
# 3 0.000569 -0.010532 0.017906 0.000000 0.000000 0.000000
# 4 0.000000 0.000000 0.000000 0.032068 0.000000 0.000000
# 5 0.000000 0.000000 0.000000 0.000000 0.077720 0.000000
# 6 0.000000 0.000000 0.000000 0.000000 0.000000 0.038650
#
#
# Mechanical properties :
#
#
# Convention : Reuss Voigt Hill
#
# Bulk Modulus (GPa) = 50.86136 62.95823 56.90979
# Shear Modulus (GPa) = 20.16709 23.41314 21.79011
#
# Velocity S-wave (km/s) = 3.41274 3.67715 3.54741
# Velocity P-wave (km/s) = 6.70092 7.37482 7.04593
#
# Compressibility (1/GPa) = 0.01966129
#
# Stress axis : x y z
#
# Youngs Moduli (GPa) = 47.94900 57.02054 55.84636
#
# Poissons Ratio (x) = 0.47647 -0.03179
# Poissons Ratio (y) = 0.40067 0.58818
# Poissons Ratio (z) = -0.02729 0.60054
#
# Static dielectric constant tensor:
#      x y z
#    x 1.595870 0.000000 0.000000 
#    y 0.000000 1.579310 0.000000 
#    z 0.000000 0.000000 1.577920 
# 
# From -- ./inp_files/12648.got.cif
#   From: 2010.05.17/outbox.cif.g08.bks.cpg/sg39_7_cif.got.tgz:12648.got - 2010.06.03 18:22:40.
