data_PCOD9360246
_publ_section_title
;
Structure prediction by ZEFSAII (Michael W. Deem and Ramdas Pophale) SiO2 
 PCOD9360246
Probable space group: A B M 2
;
_chemical_formula_sum "Si O2"
_cell_formula_units_Z 52
_cell_length_a 18.078277
_cell_length_b 15.017960
_cell_length_c 8.671515
_cell_angle_alpha 90.000000
_cell_angle_beta 90.000000
_cell_angle_gamma 90.000000
_cell_volume 2354.306271
_symmetry_space_group_name_H-M "A B M 2"
_symmetry_group_IT_number 39
_symmetry_cell_setting 'orthorhombic'
loop_
_space_group_symop_operation_xyz
x,y,z
-x,-y,z
-x,1/2+y,z
x,1/2-y,z
x,1/2+y,1/2+z
-x,1/2-y,1/2+z
-x,y,1/2+z
x,-y,1/2+z
loop_
_atom_site_type_symbol
_atom_site_label
_atom_site_fract_x
_atom_site_fract_y
_atom_site_fract_z
Si Si1 0.843343 0.105788 0.856450
Si Si2 0.611848 0.959131 0.806434
Si Si3 0.235554 0.346075 0.047458
Si Si4 0.295319 0.545951 0.040262
Si Si5 0.500000 0.500000 0.037443
Si Si6 0.981551 0.151310 0.054841
Si Si7 0.103219 0.909997 0.355720
O O1 0.808458 0.151853 0.708941
O O2 0.779390 0.092038 0.984103
O O3 0.868049 0.006584 0.809465
O O4 0.915012 0.148790 0.931781
O O5 0.647424 0.045248 0.894127
O O6 0.681122 0.918489 0.709718
O O7 0.547690 0.932406 0.929515
O O8 0.561804 0.968402 0.655273
O O9 0.274501 0.250000 0.032324
O O10 0.283154 0.437620 0.050461
O O11 0.174143 0.356432 0.914455
O O12 0.014760 0.250000 0.057878
O O13 0.943713 0.130175 0.216844
O O14 0.046435 0.086251 0.999688
#
# Coordination Sequence:
#
# PCOD9360246 Si02
#       7
#     8   8   8   8   4   8   8
#     4  11  23  38  57  81 110 151 193 237 287 344
#     4   9  16  31  53  88 121 147 189 231 281 320
#     4  11  22  38  57  83 115 153 194 238 290 344
#     4  10  19  33  55  83 120 155 183 240 279 344
#     4   8  16  28  54  90 122 146 182 240 276 312
#     4  12  24  39  57  79 108 143 189 245 292 345
#     4  11  24  41  58  78 106 148 192 243 295 341
#
# _framework density 22.087185999999999
#
# number of rings (size 3 to 8) (size 9 to 14) (size 15 to 20)
#    0.000    1.538    1.538    5.077    2.154    1.231 
#    0.000    0.000    0.000    0.000    0.000   17.231 
#    0.000    0.000    0.000    0.000    0.000    0.000 
#
# Total GULP energy -144798.113596 kJ/mol
# GULP energy per Si atom -5569.158215 kJ/mol
# Density = 2.203691 g / cm^3
# Si number density = 22.087186 Si / 1000 Ang^3
#
#
#
# Elastic Constant Matrix: (Units=GPa)
#
#
# Indices 1 2 3 4 5 6 
#
# 1 81.0216 -0.1177 21.4596 0.0000 0.0000 0.0000
# 2 -0.1177 72.2736 -1.1874 0.0000 0.0000 0.0000
# 3 21.4596 -1.1874 94.2887 0.0000 0.0000 0.0000
# 4 0.0000 0.0000 0.0000 -17.8753 0.0000 0.0000
# 5 0.0000 0.0000 0.0000 0.0000 51.2692 0.0000
# 6 0.0000 0.0000 0.0000 0.0000 0.0000 8.6705
#
#
#
# Elastic Compliance Matrix: (Units=1/GPa)
#
#
# Indices 1 2 3 4 5 6 
#
# 1 0.013134 -0.000028 -0.002990 0.000000 0.000000 0.000000
# 2 -0.000028 0.013839 0.000181 0.000000 0.000000 0.000000
# 3 -0.002990 0.000181 0.011288 0.000000 0.000000 0.000000
# 4 0.000000 0.000000 0.000000 -0.055943 0.000000 0.000000
# 5 0.000000 0.000000 0.000000 0.000000 0.019505 0.000000
# 6 0.000000 0.000000 0.000000 0.000000 0.000000 0.115333
#
#
# Mechanical properties :
#
#
# Convention : Reuss Voigt Hill
#
# Bulk Modulus (GPa) = 30.68581 31.98808 31.33695
# Shear Modulus (GPa) = 37.39911 23.57484 30.48698
#
# Velocity S-wave (km/s) = 4.11938 3.27058 3.71927
# Velocity P-wave (km/s) = 6.04557 5.36436 5.71512
#
# Compressibility (1/GPa) = 0.03258835
#
# Stress axis : x y z
#
# Youngs Moduli (GPa) = 76.13718 72.25830 88.58639
#
# Poissons Ratio (x) = 0.00200 0.26484
# Poissons Ratio (y) = 0.00211 -0.01600
# Poissons Ratio (z) = 0.22762 -0.01305
#
# Static dielectric constant tensor:
#      x y z
#    x 2.007780 0.000000 0.000000 
#    y 0.000000 1.808290 0.000000 
#    z 0.000000 0.000000 1.892260 
# 
# From -- ./inp_files/3783.got.cif
#   From: 2010.05.17/outbox.cif.g08.bks.cpg/sg39_2_cif.got.tgz:3783.got - 2010.06.03 18:22:40.
