data_PCOD9360507
_publ_section_title
;
Structure prediction by ZEFSAII (Michael W. Deem and Ramdas Pophale) SiO2 
 PCOD9360507
Probable space group: A B M 2
;
_chemical_formula_sum "Si O2"
_cell_formula_units_Z 64
_cell_length_a 8.832678
_cell_length_b 20.001928
_cell_length_c 16.568359
_cell_angle_alpha 90.000000
_cell_angle_beta 90.000000
_cell_angle_gamma 90.000000
_cell_volume 2927.141750
_symmetry_space_group_name_H-M "A B M 2"
_symmetry_group_IT_number 39
_symmetry_cell_setting 'orthorhombic'
loop_
_space_group_symop_operation_xyz
x,y,z
-x,-y,z
-x,1/2+y,z
x,1/2-y,z
x,1/2+y,1/2+z
-x,1/2-y,1/2+z
-x,y,1/2+z
x,-y,1/2+z
loop_
_atom_site_type_symbol
_atom_site_label
_atom_site_fract_x
_atom_site_fract_y
_atom_site_fract_z
Si Si1 0.910821 0.171608 0.537240
Si Si2 0.926894 0.320342 0.254019
Si Si3 0.060908 0.434650 0.641672
Si Si4 0.721787 0.823010 0.291450
Si Si5 0.521021 0.924370 0.769587
Si Si6 0.302132 0.173945 0.892329
Si Si7 0.376472 0.055330 0.584541
Si Si8 0.263618 0.324369 0.483905
O O1 0.893306 0.250000 0.564332
O O2 0.932247 0.110910 0.599827
O O3 0.081896 0.168799 0.499104
O O4 0.766668 0.157298 0.479889
O O5 0.884054 0.250000 0.213479
O O6 0.104953 0.323801 0.265131
O O7 0.870488 0.381660 0.202999
O O8 0.851784 0.320680 0.340603
O O9 0.195859 0.462270 0.584841
O O10 0.000000 0.500000 0.685149
O O11 0.657597 0.750000 0.267604
O O12 0.635288 0.885448 0.256136
O O13 0.715378 0.828533 0.388185
O O14 0.603244 0.878712 0.838443
O O15 0.585766 0.930908 0.678710
O O16 0.500000 0.000000 0.800086
O O17 0.368777 0.250000 0.893992
O O18 0.367405 0.121579 0.529343
O O19 0.500000 0.000000 0.557546
O O20 0.305295 0.250000 0.511821
#
# Coordination Sequence:
#
# PCOD9360507 Si02
#       8
#     8   8   8   8   8   8   8   8
#     4   9  18  38  64  92 122 150 200 258 304 358
#     4  10  20  36  63  92 118 155 202 253 310 365
#     4  11  23  39  62  89 123 164 202 248 307 367
#     4  10  21  39  61  89 123 156 202 257 310 366
#     4  11  24  40  57  90 125 167 203 246 305 367
#     4  10  19  38  65  92 121 154 200 256 307 358
#     4  10  23  41  60  84 126 165 201 249 299 368
#     4   9  18  37  65  90 113 157 205 250 303 360
#
# _framework density 21.864332999999998
#
# number of rings (size 3 to 8) (size 9 to 14) (size 15 to 20)
#    0.000    2.000    2.500    0.750    3.500    2.000 
#    6.750    0.625    0.000    0.000    0.000    0.000 
#    0.000    0.000    0.000    0.000    0.000    0.000 
#
# Total GULP energy -178262.286925 kJ/mol
# GULP energy per Si atom -5570.696466 kJ/mol
# Density = 2.181457 g / cm^3
# Si number density = 21.864333 Si / 1000 Ang^3
#
#
#
# Elastic Constant Matrix: (Units=GPa)
#
#
# Indices 1 2 3 4 5 6 
#
# 1 61.4392 41.5334 0.0367 0.0000 0.0000 0.0000
# 2 41.5334 149.8263 27.2851 0.0000 0.0000 0.0000
# 3 0.0367 27.2851 49.3119 0.0000 0.0000 0.0000
# 4 0.0000 0.0000 0.0000 28.4856 0.0000 0.0000
# 5 0.0000 0.0000 0.0000 0.0000 31.1795 0.0000
# 6 0.0000 0.0000 0.0000 0.0000 0.0000 -1.9186
#
#
#
# Elastic Compliance Matrix: (Units=1/GPa)
#
#
# Indices 1 2 3 4 5 6 
#
# 1 0.020556 -0.006334 0.003489 0.000000 0.000000 0.000000
# 2 -0.006334 0.009374 -0.005182 0.000000 0.000000 0.000000
# 3 0.003489 -0.005182 0.023144 0.000000 0.000000 0.000000
# 4 0.000000 0.000000 0.000000 0.035105 0.000000 0.000000
# 5 0.000000 0.000000 0.000000 0.000000 0.032072 0.000000
# 6 0.000000 0.000000 0.000000 0.000000 0.000000 -0.521206
#
#
# Mechanical properties :
#
#
# Convention : Reuss Voigt Hill
#
# Bulk Modulus (GPa) = 27.01202 44.25420 35.63311
# Shear Modulus (GPa) = -13.42061 24.33078 5.45508
#
# Velocity S-wave (km/s) = -2.48021 3.33949 1.58126
# Velocity P-wave (km/s) = 2.04432 5.92908 4.43470
#
# Compressibility (1/GPa) = 0.03702055
#
# Stress axis : x y z
#
# Youngs Moduli (GPa) = 48.64800 106.67943 43.20813
#
# Poissons Ratio (x) = 0.67568 -0.15077
# Poissons Ratio (y) = 0.30812 0.22391
# Poissons Ratio (z) = -0.16975 0.55282
#
# Static dielectric constant tensor:
#      x y z
#    x 1.857820 0.000000 0.000000 
#    y 0.000000 1.811520 0.000000 
#    z 0.000000 0.000000 1.821670 
# 
# From -- ./inp_files/11932.got.cif
#   From: 2010.05.17/outbox.cif.g08.bks.cpg/sg39_6_cif.got.tgz:11932.got - 2010.06.03 18:22:40.
