data_PCOD9360967
_publ_section_title
;
Structure prediction by ZEFSAII (Michael W. Deem and Ramdas Pophale) SiO2 
 PCOD9360967
Probable space group: A B M 2
;
_chemical_formula_sum "Si O2"
_cell_formula_units_Z 64
_cell_length_a 20.472338
_cell_length_b 18.729261
_cell_length_c 8.065324
_cell_angle_alpha 90.000000
_cell_angle_beta 90.000000
_cell_angle_gamma 90.000000
_cell_volume 3092.501390
_symmetry_space_group_name_H-M "A B M 2"
_symmetry_group_IT_number 39
_symmetry_cell_setting 'orthorhombic'
loop_
_space_group_symop_operation_xyz
x,y,z
-x,-y,z
-x,1/2+y,z
x,1/2-y,z
x,1/2+y,1/2+z
-x,1/2-y,1/2+z
-x,y,1/2+z
x,-y,1/2+z
loop_
_atom_site_type_symbol
_atom_site_label
_atom_site_fract_x
_atom_site_fract_y
_atom_site_fract_z
Si Si1 0.453341 0.666814 0.128490
Si Si2 0.669913 0.089001 0.027657
Si Si3 0.035623 0.425569 0.988333
Si Si4 0.299743 0.929153 0.416686
Si Si5 0.930559 0.831984 0.297286
Si Si6 0.166454 0.455465 0.797030
Si Si7 0.806162 0.893447 0.430950
Si Si8 0.590710 0.332236 0.513928
O O1 0.453838 0.750000 0.075405
O O2 0.400923 0.624380 0.017871
O O3 0.431188 0.665120 0.320022
O O4 0.527336 0.639636 0.110934
O O5 0.684062 0.084734 0.224118
O O6 0.730941 0.129936 0.944446
O O7 0.677349 0.008934 0.960096
O O8 0.067956 0.382926 0.138067
O O9 0.000000 0.500000 0.034902
O O10 0.093311 0.444031 0.860005
O O11 0.982416 0.371209 0.915638
O O12 0.221439 0.921018 0.418309
O O13 0.343201 0.876961 0.527422
O O14 0.948396 0.750000 0.262443
O O15 0.859292 0.836228 0.379122
O O16 0.174855 0.424965 0.612709
O O17 0.185405 0.538801 0.808692
O O18 0.602156 0.250000 0.559396
#
# Coordination Sequence:
#
# PCOD9360967 Si02
#       8
#     8   8   8   8   8   8   8   8
#     4   9  18  33  53  76 106 146 193 236 279 345
#     4   9  19  34  55  81 112 148 185 232 288 338
#     4  12  24  41  66  90 114 161 204 237 291 365
#     4   9  19  35  55  82 113 144 184 239 285 336
#     4  12  26  42  60  90 126 154 192 251 302 349
#     4  10  20  37  63  89 111 147 204 244 280 355
#     4  10  20  37  60  87 116 152 193 243 296 350
#     4   9  18  34  53  76 107 147 191 235 285 339
#
# _framework density 20.695221
#
# number of rings (size 3 to 8) (size 9 to 14) (size 15 to 20)
#    0.000    2.000    1.250    2.250    0.000    3.000 
#    0.000    6.250    0.000    1.500    0.000    0.000 
#    0.000    0.000    0.000    0.000    0.000    0.000 
#
# Total GULP energy -178655.712955 kJ/mol
# GULP energy per Si atom -5582.991030 kJ/mol
# Density = 2.064812 g / cm^3
# Si number density = 20.695221 Si / 1000 Ang^3
#
#
#
# Elastic Constant Matrix: (Units=GPa)
#
#
# Indices 1 2 3 4 5 6 
#
# 1 80.2602 24.6862 1.4864 0.0000 0.0000 0.0000
# 2 24.6862 65.1224 8.8378 0.0000 0.0000 0.0000
# 3 1.4864 8.8378 41.2000 0.0000 0.0000 0.0000
# 4 0.0000 0.0000 0.0000 11.7096 0.0000 0.0000
# 5 0.0000 0.0000 0.0000 0.0000 25.6944 0.0000
# 6 0.0000 0.0000 0.0000 0.0000 0.0000 29.2637
#
#
#
# Elastic Compliance Matrix: (Units=1/GPa)
#
#
# Indices 1 2 3 4 5 6 
#
# 1 0.014121 -0.005442 0.000658 0.000000 0.000000 0.000000
# 2 -0.005442 0.017914 -0.003646 0.000000 0.000000 0.000000
# 3 0.000658 -0.003646 0.025030 0.000000 0.000000 0.000000
# 4 0.000000 0.000000 0.000000 0.085400 0.000000 0.000000
# 5 0.000000 0.000000 0.000000 0.000000 0.038919 0.000000
# 6 0.000000 0.000000 0.000000 0.000000 0.000000 0.034172
#
#
# Mechanical properties :
#
#
# Convention : Reuss Voigt Hill
#
# Bulk Modulus (GPa) = 24.87326 28.51149 26.69238
# Shear Modulus (GPa) = 20.34023 23.43836 21.88930
#
# Velocity S-wave (km/s) = 3.13844 3.36899 3.25576
# Velocity P-wave (km/s) = 5.01777 5.37961 5.20184
#
# Compressibility (1/GPa) = 0.04020382
#
# Stress axis : x y z
#
# Youngs Moduli (GPa) = 70.81552 55.82363 39.95163
#
# Poissons Ratio (x) = 0.30381 -0.02629
# Poissons Ratio (y) = 0.38540 0.14568
# Poissons Ratio (z) = -0.04659 0.20355
#
# Static dielectric constant tensor:
#      x y z
#    x 1.787640 0.000000 0.000000 
#    y 0.000000 1.710200 0.000000 
#    z 0.000000 0.000000 1.786580 
# 
# From -- ./inp_files/4027.got.cif
#   From: 2010.05.17/outbox.cif.g08.bks.cpg/sg39_3_cif.got.tgz:4027.got - 2010.06.03 18:22:40.
