data_PCOD9360702
_publ_section_title
;
Structure prediction by ZEFSAII (Michael W. Deem and Ramdas Pophale) SiO2 
 PCOD9360702
Probable space group: A B M 2
;
_chemical_formula_sum "Si O2"
_cell_formula_units_Z 48
_cell_length_a 10.127460
_cell_length_b 14.791640
_cell_length_c 14.290679
_cell_angle_alpha 90.000000
_cell_angle_beta 90.000000
_cell_angle_gamma 90.000000
_cell_volume 2140.768615
_symmetry_space_group_name_H-M "A B M 2"
_symmetry_group_IT_number 39
_symmetry_cell_setting 'orthorhombic'
loop_
_space_group_symop_operation_xyz
x,y,z
-x,-y,z
-x,1/2+y,z
x,1/2-y,z
x,1/2+y,1/2+z
-x,1/2-y,1/2+z
-x,y,1/2+z
x,-y,1/2+z
loop_
_atom_site_type_symbol
_atom_site_label
_atom_site_fract_x
_atom_site_fract_y
_atom_site_fract_z
Si Si1 0.887936 0.066436 0.538230
Si Si2 0.527097 0.750000 0.765585
Si Si3 0.048301 0.750000 0.018803
Si Si4 0.328492 0.250000 0.564948
Si Si5 0.785812 0.250000 0.828255
Si Si6 0.872690 0.945545 0.262878
Si Si7 0.365341 0.951941 0.038226
Si Si8 0.625102 0.441188 0.265980
O O1 0.879212 0.058194 0.650510
O O2 0.949576 0.164888 0.519314
O O3 0.750250 0.020658 0.508431
O O4 0.000000 0.000000 0.502954
O O5 0.565808 0.750000 0.652915
O O6 0.371326 0.750000 0.795936
O O7 0.598443 0.840444 0.800112
O O8 0.148300 0.750000 0.931406
O O9 0.170568 0.750000 0.096322
O O10 0.352792 0.345830 0.511248
O O11 0.846852 0.342676 0.789433
O O12 0.752905 0.006673 0.297672
O O13 0.000000 0.000000 0.294653
O O14 0.364796 0.943028 0.152090
O O15 0.500000 0.000000 0.010740
O O16 0.500000 0.500000 0.291539
#
# Coordination Sequence:
#
# PCOD9360702 Si02
#       8
#     8   4   4   4   4   8   8   8
#     4  10  20  38  64  96 126 175 231 280 333 407
#     4  10  20  34  66  96 126 173 231 285 339 404
#     4  12  25  40  64  97 144 184 222 282 365 426
#     4  10  20  36  62  94 126 173 231 287 343 407
#     4  12  25  42  62  97 140 180 220 286 355 423
#     4  10  22  38  64  99 128 168 235 282 331 404
#     4   9  18  32  60  97 128 161 224 287 337 391
#     4   9  16  32  59  93 124 160 213 280 335 384
#
# _framework density 22.421852999999999
#
# number of rings (size 3 to 8) (size 9 to 14) (size 15 to 20)
#    0.000    2.000    3.333    0.500    4.667    2.000 
#    0.000    0.000    3.667    2.000    0.000    0.000 
#    0.000    0.000    0.000    0.000    0.000    0.000 
#
# Total GULP energy -133777.188079 kJ/mol
# GULP energy per Si atom -5574.049503 kJ/mol
# Density = 2.237082 g / cm^3
# Si number density = 22.421853 Si / 1000 Ang^3
#
#
#
# Elastic Constant Matrix: (Units=GPa)
#
#
# Indices 1 2 3 4 5 6 
#
# 1 237.7753 140.7438 27.5491 0.0000 0.0000 0.0000
# 2 140.7438 279.1104 20.2678 0.0000 0.0000 0.0000
# 3 27.5491 20.2678 87.6935 0.0000 0.0000 0.0000
# 4 0.0000 0.0000 0.0000 106.0375 0.0000 0.0000
# 5 0.0000 0.0000 0.0000 0.0000 -4.8715 0.0000
# 6 0.0000 0.0000 0.0000 0.0000 0.0000 72.6921
#
#
#
# Elastic Compliance Matrix: (Units=1/GPa)
#
#
# Indices 1 2 3 4 5 6 
#
# 1 0.006123 -0.002998 -0.001231 0.000000 0.000000 0.000000
# 2 -0.002998 0.005112 -0.000240 0.000000 0.000000 0.000000
# 3 -0.001231 -0.000240 0.011845 0.000000 0.000000 0.000000
# 4 0.000000 0.000000 0.000000 0.009431 0.000000 0.000000
# 5 0.000000 0.000000 0.000000 0.000000 -0.205275 0.000000
# 6 0.000000 0.000000 0.000000 0.000000 0.000000 0.013757
#
#
# Mechanical properties :
#
#
# Convention : Reuss Voigt Hill
#
# Bulk Modulus (GPa) = 70.70364 109.07783 89.89073
# Shear Modulus (GPa) = -34.39818 62.50618 14.05400
#
# Velocity S-wave (km/s) = -3.92105 5.28563 2.50631
# Velocity P-wave (km/s) = 3.33201 9.27384 6.96801
#
# Compressibility (1/GPa) = 0.01414354
#
# Stress axis : x y z
#
# Youngs Moduli (GPa) = 163.32134 195.61576 84.42149
#
# Poissons Ratio (x) = 0.58649 0.10389
# Poissons Ratio (y) = 0.48966 0.02023
# Poissons Ratio (z) = 0.20098 0.04687
#
# Static dielectric constant tensor:
#      x y z
#    x 1.877100 0.000000 0.000000 
#    y 0.000000 1.607920 0.000000 
#    z 0.000000 0.000000 1.923430 
# 
# From -- ./inp_files/11668.got.cif
#   From: 2010.05.17/outbox.cif.g08.bks.cpg/sg39_6_cif.got.tgz:11668.got - 2010.06.03 18:22:40.
