data_PCOD9360554
_publ_section_title
;
Structure prediction by ZEFSAII (Michael W. Deem and Ramdas Pophale) SiO2 
 PCOD9360554
Probable space group: A B M 2
;
_chemical_formula_sum "Si O2"
_cell_formula_units_Z 56
_cell_length_a 20.505391
_cell_length_b 9.421329
_cell_length_c 15.038252
_cell_angle_alpha 90.000000
_cell_angle_beta 90.000000
_cell_angle_gamma 90.000000
_cell_volume 2905.210352
_symmetry_space_group_name_H-M "A B M 2"
_symmetry_group_IT_number 39
_symmetry_cell_setting 'orthorhombic'
loop_
_space_group_symop_operation_xyz
x,y,z
-x,-y,z
-x,1/2+y,z
x,1/2-y,z
x,1/2+y,1/2+z
-x,1/2-y,1/2+z
-x,y,1/2+z
x,-y,1/2+z
loop_
_atom_site_type_symbol
_atom_site_label
_atom_site_fract_x
_atom_site_fract_y
_atom_site_fract_z
Si Si1 0.067935 0.580962 0.634620
Si Si2 0.830414 0.080059 0.479438
Si Si3 0.702849 0.587340 0.500697
Si Si4 0.439825 0.590564 0.045476
Si Si5 0.560542 0.408688 0.257703
Si Si6 0.688412 0.590445 0.287726
Si Si7 0.832538 0.578855 0.292132
O O1 0.056420 0.750000 0.637126
O O2 0.110369 0.550690 0.546560
O O3 0.112477 0.545153 0.720098
O O4 0.000000 0.500000 0.635133
O O5 0.823019 0.250000 0.470038
O O6 0.764448 0.011303 0.519510
O O7 0.841523 0.006126 0.383836
O O8 0.711097 0.750000 0.534626
O O9 0.632644 0.530293 0.531379
O O10 0.698105 0.595950 0.393960
O O11 0.500000 0.500000 0.009934
O O12 0.439727 0.750000 0.006893
O O13 0.448890 0.602086 0.151378
O O14 0.500000 0.500000 0.293151
O O15 0.561279 0.250000 0.295249
O O16 0.629178 0.486257 0.270178
O O17 0.672729 0.750000 0.255738
O O18 0.760039 0.546698 0.253874
O O19 0.832992 0.750000 0.309215
#
# Coordination Sequence:
#
# PCOD9360554 Si02
#       7
#     8   8   8   8   8   8   8
#     4  10  23  41  61  89 120 153 192 230 278 340
#     4  10  21  37  59  89 119 148 191 239 281 333
#     4   9  19  36  55  77 107 143 181 223 279 336
#     4   9  19  34  50  72 102 138 181 225 273 327
#     4  10  20  33  49  72 103 138 179 226 273 326
#     4   9  18  33  54  76 102 138 177 221 274 329
#     4   9  20  40  61  83 117 156 190 230 285 341
#
# _framework density 19.275714000000001
#
# number of rings (size 3 to 8) (size 9 to 14) (size 15 to 20)
#    0.000    2.571    0.000    1.714    2.000    6.286 
#    0.000    4.286    0.000    0.000    0.000    0.000 
#    0.000    0.000    0.000    0.000    0.000    0.000 
#
# Total GULP energy -156203.636289 kJ/mol
# GULP energy per Si atom -5578.701296 kJ/mol
# Density = 1.923184 g / cm^3
# Si number density = 19.275714 Si / 1000 Ang^3
#
#
#
# Elastic Constant Matrix: (Units=GPa)
#
#
# Indices 1 2 3 4 5 6 
#
# 1 204.7142 109.8437 50.0434 0.0000 0.0000 0.0000
# 2 109.8437 99.4301 40.1668 0.0000 0.0000 0.0000
# 3 50.0434 40.1668 55.4546 0.0000 0.0000 0.0000
# 4 0.0000 0.0000 0.0000 16.5682 0.0000 0.0000
# 5 0.0000 0.0000 0.0000 0.0000 38.0449 0.0000
# 6 0.0000 0.0000 0.0000 0.0000 0.0000 36.0171
#
#
#
# Elastic Compliance Matrix: (Units=1/GPa)
#
#
# Indices 1 2 3 4 5 6 
#
# 1 0.012114 -0.012676 -0.001751 0.000000 0.000000 0.000000
# 2 -0.012676 0.027481 -0.008466 0.000000 0.000000 0.000000
# 3 -0.001751 -0.008466 0.025745 0.000000 0.000000 0.000000
# 4 0.000000 0.000000 0.000000 0.060357 0.000000 0.000000
# 5 0.000000 0.000000 0.000000 0.000000 0.026285 0.000000
# 6 0.000000 0.000000 0.000000 0.000000 0.000000 0.027765
#
#
# Mechanical properties :
#
#
# Convention : Reuss Voigt Hill
#
# Bulk Modulus (GPa) = 51.13871 84.41187 67.77529
# Shear Modulus (GPa) = 21.54719 28.76239 25.15479
#
# Velocity S-wave (km/s) = 3.34704 3.86704 3.61640
# Velocity P-wave (km/s) = 6.44396 7.98909 7.25776
#
# Compressibility (1/GPa) = 0.01955466
#
# Stress axis : x y z
#
# Youngs Moduli (GPa) = 82.54696 36.38936 38.84281
#
# Poissons Ratio (x) = 0.46126 0.06801
# Poissons Ratio (y) = 1.04634 0.32884
# Poissons Ratio (z) = 0.14453 0.30807
#
# Static dielectric constant tensor:
#      x y z
#    x 1.666710 0.000000 0.000000 
#    y 0.000000 1.683600 0.000000 
#    z 0.000000 0.000000 1.685300 
# 
# From -- ./inp_files/10407.got.cif
#   From: 2010.05.17/outbox.cif.g08.bks.cpg/sg39_6_cif.got.tgz:10407.got - 2010.06.03 18:22:40.
