data_PCOD9360870
_publ_section_title
;
Structure prediction by ZEFSAII (Michael W. Deem and Ramdas Pophale) SiO2 
 PCOD9360870
Probable space group: A B M 2
;
_chemical_formula_sum "Si O2"
_cell_formula_units_Z 64
_cell_length_a 15.945151
_cell_length_b 8.327489
_cell_length_c 24.573470
_cell_angle_alpha 90.000000
_cell_angle_beta 90.000000
_cell_angle_gamma 90.000000
_cell_volume 3262.940776
_symmetry_space_group_name_H-M "A B M 2"
_symmetry_group_IT_number 39
_symmetry_cell_setting 'orthorhombic'
loop_
_space_group_symop_operation_xyz
x,y,z
-x,-y,z
-x,1/2+y,z
x,1/2-y,z
x,1/2+y,1/2+z
-x,1/2-y,1/2+z
-x,y,1/2+z
x,-y,1/2+z
loop_
_atom_site_type_symbol
_atom_site_label
_atom_site_fract_x
_atom_site_fract_y
_atom_site_fract_z
Si Si1 0.590965 0.058231 0.867360
Si Si2 0.845148 0.444178 0.750282
Si Si3 0.091803 0.057926 0.133010
Si Si4 0.408612 0.943721 0.133749
Si Si5 0.249303 0.055803 0.563098
Si Si6 0.652881 0.442488 0.251448
Si Si7 0.908780 0.443657 0.867216
Si Si8 0.250329 0.053597 0.438067
O O1 0.592120 0.250000 0.868093
O O2 0.667192 0.000059 0.905327
O O3 0.500000 0.000000 0.885679
O O4 0.608154 0.003049 0.805732
O O5 0.846074 0.250000 0.750438
O O6 0.888297 0.500781 0.694580
O O7 0.748851 0.498985 0.751367
O O8 0.890197 0.499999 0.805482
O O9 0.092618 0.250000 0.133643
O O10 0.166028 0.998818 0.094214
O O11 0.000000 0.000000 0.116053
O O12 0.407652 0.750000 0.133750
O O13 0.331959 0.999170 0.095792
O O14 0.390602 0.999139 0.195622
O O15 0.500000 0.000000 0.115688
O O16 0.250172 0.250000 0.563260
O O17 0.250444 0.001315 0.500589
O O18 0.652087 0.250000 0.251647
O O19 0.907640 0.250000 0.866801
O O20 0.833025 0.498053 0.905934
O O21 0.000000 0.500000 0.885182
O O22 0.250738 0.250000 0.437690
#
# Coordination Sequence:
#
# PCOD9360870 Si02
#       8
#     8   8   8   8   8   8   8   8
#     4  11  22  39  60  87 119 154 193 237 289 349
#     4  10  20  36  59  85 117 152 188 233 291 348
#     4  11  23  38  60  89 119 155 192 238 293 348
#     4  10  22  37  57  85 116 149 189 234 288 344
#     4  10  21  41  62  83 113 154 199 246 290 339
#     4  11  21  35  58  89 117 151 191 236 291 346
#     4  10  20  37  58  85 113 148 187 229 284 341
#     4   9  20  39  62  81 112 155 194 237 292 339
#
# _framework density 19.614208000000001
#
# number of rings (size 3 to 8) (size 9 to 14) (size 15 to 20)
#    0.000    1.750    2.500    1.875    0.000    4.500 
#    0.000    3.125    0.000    0.000    0.000    0.000 
#    0.000    0.000    0.000    0.000    0.000    0.000 
#
# Total GULP energy -178813.588008 kJ/mol
# GULP energy per Si atom -5587.924625 kJ/mol
# Density = 1.956956 g / cm^3
# Si number density = 19.614208 Si / 1000 Ang^3
#
#
#
# Elastic Constant Matrix: (Units=GPa)
#
#
# Indices 1 2 3 4 5 6 
#
# 1 204.0104 13.1720 97.6366 0.0000 0.0000 0.0000
# 2 13.1720 8.0496 20.9646 0.0000 0.0000 0.0000
# 3 97.6366 20.9646 167.7103 0.0000 0.0000 0.0000
# 4 0.0000 0.0000 0.0000 14.5243 0.0000 0.0000
# 5 0.0000 0.0000 0.0000 0.0000 3.1540 0.0000
# 6 0.0000 0.0000 0.0000 0.0000 0.0000 33.9124
#
#
#
# Elastic Compliance Matrix: (Units=1/GPa)
#
#
# Indices 1 2 3 4 5 6 
#
# 1 0.006803 -0.001212 -0.003809 0.000000 0.000000 0.000000
# 2 -0.001212 0.184413 -0.022347 0.000000 0.000000 0.000000
# 3 -0.003809 -0.022347 0.010974 0.000000 0.000000 0.000000
# 4 0.000000 0.000000 0.000000 0.068850 0.000000 0.000000
# 5 0.000000 0.000000 0.000000 0.000000 0.317063 0.000000
# 6 0.000000 0.000000 0.000000 0.000000 0.000000 0.029488
#
#
# Mechanical properties :
#
#
# Convention : Reuss Voigt Hill
#
# Bulk Modulus (GPa) = 6.78178 71.47963 39.13071
# Shear Modulus (GPa) = 6.93023 26.85127 16.89075
#
# Velocity S-wave (km/s) = 1.88174 3.70397 2.93772
# Velocity P-wave (km/s) = 2.86118 7.40368 5.61252
#
# Compressibility (1/GPa) = 0.14745385
#
# Stress axis : x y z
#
# Youngs Moduli (GPa) = 146.99668 5.42262 91.12740
#
# Poissons Ratio (x) = 0.00657 0.34710
# Poissons Ratio (y) = 0.17811 2.03643
# Poissons Ratio (z) = 0.55991 0.12118
#
# Static dielectric constant tensor:
#      x y z
#    x 1.662400 0.000000 0.000000 
#    y 0.000000 1.687120 0.000000 
#    z 0.000000 0.000000 1.684130 
# 
# From -- ./inp_files/16136.got.cif
#   From: 2010.05.17/outbox.cif.g08.bks.cpg/sg39_9_cif.got.tgz:16136.got - 2010.06.03 18:22:40.
