data_PCOD9360747
_publ_section_title
;
Structure prediction by ZEFSAII (Michael W. Deem and Ramdas Pophale) SiO2 
 PCOD9360747
Probable space group: A B M 2
;
_chemical_formula_sum "Si O2"
_cell_formula_units_Z 56
_cell_length_a 14.320796
_cell_length_b 8.521926
_cell_length_c 21.971848
_cell_angle_alpha 90.000000
_cell_angle_beta 90.000000
_cell_angle_gamma 90.000000
_cell_volume 2681.461111
_symmetry_space_group_name_H-M "A B M 2"
_symmetry_group_IT_number 39
_symmetry_cell_setting 'orthorhombic'
loop_
_space_group_symop_operation_xyz
x,y,z
-x,-y,z
-x,1/2+y,z
x,1/2-y,z
x,1/2+y,1/2+z
-x,1/2-y,1/2+z
-x,y,1/2+z
x,-y,1/2+z
loop_
_atom_site_type_symbol
_atom_site_label
_atom_site_fract_x
_atom_site_fract_y
_atom_site_fract_z
Si Si1 0.709027 0.937320 0.533590
Si Si2 0.294107 0.060189 0.666450
Si Si3 0.105947 0.061133 0.852354
Si Si4 0.605807 0.936495 0.914744
Si Si5 0.894210 0.939220 0.987343
Si Si6 0.605866 0.563300 0.286938
Si Si7 0.104333 0.938874 0.218740
O O1 0.701152 0.750000 0.529162
O O2 0.670325 0.987704 0.599746
O O3 0.658257 0.012125 0.475775
O O4 0.817663 0.985886 0.530771
O O5 0.299017 0.250000 0.670000
O O6 0.185171 0.013703 0.672788
O O7 0.346065 0.993063 0.725017
O O8 0.108750 0.250000 0.852388
O O9 0.140377 0.008893 0.786130
O O10 0.140189 0.012869 0.918891
O O11 0.000000 0.000000 0.852089
O O12 0.605042 0.750000 0.910950
O O13 0.500000 0.000000 0.918476
O O14 0.647623 0.999066 0.850746
O O15 0.893921 0.750000 0.991541
O O16 0.000000 0.000000 0.995972
O O17 0.500000 0.500000 0.285294
O O18 0.605657 0.750000 0.289869
O O19 0.098451 0.750000 0.219035
O O20 0.000000 0.000000 0.207724
#
# Coordination Sequence:
#
# PCOD9360747 Si02
#       7
#     8   8   8   8   8   8   8
#     4  11  24  41  60  90 128 168 214 260 313 372
#     4  10  23  41  61  88 127 170 209 256 310 368
#     4   8  15  28  48  75 104 139 189 243 300 356
#     4  11  23  43  70  97 126 160 201 253 314 376
#     4  10  20  35  56  84 118 164 211 261 317 372
#     4  11  23  42  69  99 127 159 201 251 308 373
#     4   9  18  34  55  81 115 158 204 250 304 357
#
# _framework density 20.884136000000002
#
# number of rings (size 3 to 8) (size 9 to 14) (size 15 to 20)
#    0.000    2.000    0.000    4.286    2.000    3.429 
#    0.000    1.429    0.000    0.000    0.000    0.000 
#    0.000    0.000    0.000    0.000    0.000    0.000 
#
# Total GULP energy -156280.763811 kJ/mol
# GULP energy per Si atom -5581.455850 kJ/mol
# Density = 2.083660 g / cm^3
# Si number density = 20.884136 Si / 1000 Ang^3
#
#
#
# Elastic Constant Matrix: (Units=GPa)
#
#
# Indices 1 2 3 4 5 6 
#
# 1 71.7232 20.4249 62.0466 0.0000 0.0000 0.0000
# 2 20.4249 73.5718 57.7105 0.0000 0.0000 0.0000
# 3 62.0466 57.7105 189.6974 0.0000 0.0000 0.0000
# 4 0.0000 0.0000 0.0000 20.9586 0.0000 0.0000
# 5 0.0000 0.0000 0.0000 0.0000 23.3427 0.0000
# 6 0.0000 0.0000 0.0000 0.0000 0.0000 27.7154
#
#
#
# Elastic Compliance Matrix: (Units=1/GPa)
#
#
# Indices 1 2 3 4 5 6 
#
# 1 0.019461 -0.000538 -0.006201 0.000000 0.000000 0.000000
# 2 -0.000538 0.017867 -0.005260 0.000000 0.000000 0.000000
# 3 -0.006201 -0.005260 0.008900 0.000000 0.000000 0.000000
# 4 0.000000 0.000000 0.000000 0.047713 0.000000 0.000000
# 5 0.000000 0.000000 0.000000 0.000000 0.042840 0.000000
# 6 0.000000 0.000000 0.000000 0.000000 0.000000 0.036081
#
#
# Mechanical properties :
#
#
# Convention : Reuss Voigt Hill
#
# Bulk Modulus (GPa) = 44.98545 68.37293 56.67919
# Shear Modulus (GPa) = 24.47739 27.39071 25.93405
#
# Velocity S-wave (km/s) = 3.42725 3.62547 3.52775
# Velocity P-wave (km/s) = 6.10316 7.09476 6.61756
#
# Compressibility (1/GPa) = 0.02222941
#
# Stress axis : x y z
#
# Youngs Moduli (GPa) = 51.38607 55.96824 112.35878
#
# Poissons Ratio (x) = 0.03012 0.69679
# Poissons Ratio (y) = 0.02765 0.59097
# Poissons Ratio (z) = 0.31867 0.29437
#
# Static dielectric constant tensor:
#      x y z
#    x 1.743960 0.000000 0.000000 
#    y 0.000000 1.733590 0.000000 
#    z 0.000000 0.000000 1.799960 
# 
# From -- ./inp_files/14781.got.cif
#   From: 2010.05.17/outbox.cif.g08.bks.cpg/sg39_8_cif.got.tgz:14781.got - 2010.06.03 18:22:40.
