data_PCOD9360813
_publ_section_title
;
Structure prediction by ZEFSAII (Michael W. Deem and Ramdas Pophale) SiO2 
 PCOD9360813
Probable space group: A B M 2
;
_chemical_formula_sum "Si O2"
_cell_formula_units_Z 40
_cell_length_a 13.302959
_cell_length_b 16.434546
_cell_length_c 8.137791
_cell_angle_alpha 90.000000
_cell_angle_beta 90.000000
_cell_angle_gamma 90.000000
_cell_volume 1779.149716
_symmetry_space_group_name_H-M "A B M 2"
_symmetry_group_IT_number 39
_symmetry_cell_setting 'orthorhombic'
loop_
_space_group_symop_operation_xyz
x,y,z
-x,-y,z
-x,1/2+y,z
x,1/2-y,z
x,1/2+y,1/2+z
-x,1/2-y,1/2+z
-x,y,1/2+z
x,-y,1/2+z
loop_
_atom_site_type_symbol
_atom_site_label
_atom_site_fract_x
_atom_site_fract_y
_atom_site_fract_z
Si Si1 0.383162 0.595840 0.782670
Si Si2 0.111029 0.000689 0.086466
Si Si3 0.798603 0.891764 0.840270
Si Si4 0.397653 0.594084 0.173120
Si Si5 0.169714 0.663058 0.675197
O O1 0.491958 0.624960 0.719653
O O2 0.383811 0.501359 0.723514
O O3 0.286648 0.643187 0.713364
O O4 0.382795 0.601028 0.979213
O O5 0.111647 0.079152 0.211259
O O6 0.139551 0.919257 0.181318
O O7 0.196778 0.026315 0.955937
O O8 0.000000 0.000000 0.013900
O O9 0.690378 0.865030 0.778521
O O10 0.843270 0.833411 0.976998
O O11 0.140907 0.750000 0.748766
#
# Coordination Sequence:
#
# PCOD9360813 Si02
#       5
#     8   8   8   8   8
#     4  11  20  32  60  87 135 160 224 255 317 366
#     4  10  21  38  67  92 121 169 221 264 313 384
#     4  10  20  35  65  89 124 160 220 263 307 383
#     4  11  19  34  58  98 116 176 217 269 290 377
#     4  10  23  41  60  91 134 166 199 271 334 374
#
# _framework density 22.482648999999999
#
# number of rings (size 3 to 8) (size 9 to 14) (size 15 to 20)
#    1.200    0.400    2.000    6.600    0.000    0.000 
#    0.000    6.000    0.000    0.000    0.000    0.000 
#    0.000    0.000    0.000    0.000    0.000    0.000 
#
# Total GULP energy -111345.981232 kJ/mol
# GULP energy per Si atom -5567.299062 kJ/mol
# Density = 2.243148 g / cm^3
# Si number density = 22.482649 Si / 1000 Ang^3
#
#
#
# Elastic Constant Matrix: (Units=GPa)
#
#
# Indices 1 2 3 4 5 6 
#
# 1 93.4461 0.2438 10.4295 0.0000 0.0000 0.0000
# 2 0.2438 55.7013 -5.1829 0.0000 0.0000 0.0000
# 3 10.4295 -5.1829 92.7388 0.0000 0.0000 0.0000
# 4 0.0000 0.0000 0.0000 4.2505 0.0000 0.0000
# 5 0.0000 0.0000 0.0000 0.0000 35.0818 0.0000
# 6 0.0000 0.0000 0.0000 0.0000 0.0000 -3.4510
#
#
#
# Elastic Compliance Matrix: (Units=1/GPa)
#
#
# Indices 1 2 3 4 5 6 
#
# 1 0.010839 -0.000162 -0.001228 0.000000 0.000000 0.000000
# 2 -0.000162 0.018049 0.001027 0.000000 0.000000 0.000000
# 3 -0.001228 0.001027 0.010978 0.000000 0.000000 0.000000
# 4 0.000000 0.000000 0.000000 0.235268 0.000000 0.000000
# 5 0.000000 0.000000 0.000000 0.000000 0.028505 0.000000
# 6 0.000000 0.000000 0.000000 0.000000 0.000000 -0.289770
#
#
# Mechanical properties :
#
#
# Convention : Reuss Voigt Hill
#
# Bulk Modulus (GPa) = 25.54871 28.09632 26.82252
# Shear Modulus (GPa) = 180.88122 22.93598 101.90860
#
# Velocity S-wave (km/s) = 8.97933 3.19747 6.73989
# Velocity P-wave (km/s) = 10.90380 5.11427 8.51612
#
# Compressibility (1/GPa) = 0.03914091
#
# Stress axis : x y z
#
# Youngs Moduli (GPa) = 92.26087 55.40419 91.08741
#
# Poissons Ratio (x) = 0.00896 0.11185
# Poissons Ratio (y) = 0.01492 -0.09354
# Poissons Ratio (z) = 0.11329 -0.05689
#
# Static dielectric constant tensor:
#      x y z
#    x 1.846390 0.000000 0.000000 
#    y 0.000000 1.951420 0.000000 
#    z 0.000000 0.000000 1.845290 
# 
# From -- ./inp_files/3147.got.cif
#   From: 2010.05.17/outbox.cif.g08.bks.cpg/sg39_2_cif.got.tgz:3147.got - 2010.06.03 18:22:40.
