data_PCOD9360349
_publ_section_title
;
Structure prediction by ZEFSAII (Michael W. Deem and Ramdas Pophale) SiO2 
 PCOD9360349
Probable space group: A B M 2
;
_chemical_formula_sum "Si O2"
_cell_formula_units_Z 64
_cell_length_a 24.613154
_cell_length_b 8.498074
_cell_length_c 15.509207
_cell_angle_alpha 90.000000
_cell_angle_beta 90.000000
_cell_angle_gamma 90.000000
_cell_volume 3243.974040
_symmetry_space_group_name_H-M "A B M 2"
_symmetry_group_IT_number 39
_symmetry_cell_setting 'orthorhombic'
loop_
_space_group_symop_operation_xyz
x,y,z
-x,-y,z
-x,1/2+y,z
x,1/2-y,z
x,1/2+y,1/2+z
-x,1/2-y,1/2+z
-x,y,1/2+z
x,-y,1/2+z
loop_
_atom_site_type_symbol
_atom_site_label
_atom_site_fract_x
_atom_site_fract_y
_atom_site_fract_z
Si Si1 0.763269 0.562784 0.974110
Si Si2 0.746928 0.565350 0.178809
Si Si3 0.560833 0.940489 0.810870
Si Si4 0.860373 0.060578 0.228637
Si Si5 0.059410 0.437762 0.579779
Si Si6 0.368263 0.063262 0.651506
Si Si7 0.643970 0.059752 0.458725
Si Si8 0.118735 0.059916 0.916934
O O1 0.763901 0.750000 0.955733
O O2 0.705474 0.500393 0.939948
O O3 0.820388 0.500461 0.940165
O O4 0.760822 0.543000 0.077280
O O5 0.738377 0.750000 0.193578
O O6 0.799338 0.504708 0.228998
O O7 0.690602 0.475427 0.192650
O O8 0.560891 0.750000 0.811526
O O9 0.586393 0.991633 0.719316
O O10 0.600357 0.993930 0.888453
O O11 0.500000 0.000000 0.822109
O O12 0.856090 0.250000 0.224073
O O13 0.894823 0.003191 0.146879
O O14 0.890448 0.019965 0.317397
O O15 0.058882 0.250000 0.584222
O O16 0.076889 0.490778 0.484750
O O17 0.000000 0.500000 0.601946
O O18 0.372894 0.250000 0.640760
O O19 0.370501 0.987130 0.556752
O O20 0.645840 0.250000 0.456119
O O21 0.117920 0.250000 0.925713
#
# Coordination Sequence:
#
# PCOD9360349 Si02
#       8
#     8   8   8   8   8   8   8   8
#     4   8  15  30  56  83 111 147 187 226 278 343
#     4  10  19  34  58  87 119 156 193 236 290 349
#     4  10  23  40  60  83 115 156 199 241 289 348
#     4  10  22  37  59  90 120 152 193 240 291 345
#     4  11  24  42  61  85 117 155 197 243 287 338
#     4  10  21  37  58  86 116 152 194 243 295 345
#     4   9  19  37  58  84 114 153 194 234 288 349
#     4  10  20  37  61  88 117 155 192 234 289 347
#
# _framework density 19.728888000000001
#
# number of rings (size 3 to 8) (size 9 to 14) (size 15 to 20)
#    0.000    2.250    1.250    1.875    1.750    3.500 
#    0.000    3.750    0.000    0.000    0.000    0.000 
#    0.000    0.000    0.000    0.000    0.000    0.000 
#
# Total GULP energy -178626.437447 kJ/mol
# GULP energy per Si atom -5582.076170 kJ/mol
# Density = 1.968398 g / cm^3
# Si number density = 19.728888 Si / 1000 Ang^3
#
#
#
# Elastic Constant Matrix: (Units=GPa)
#
#
# Indices 1 2 3 4 5 6 
#
# 1 66.9299 -2.7625 4.3239 0.0000 0.0000 0.0000
# 2 -2.7625 6.2003 7.5174 0.0000 0.0000 0.0000
# 3 4.3239 7.5174 31.1328 0.0000 0.0000 0.0000
# 4 0.0000 0.0000 0.0000 20.8764 0.0000 0.0000
# 5 0.0000 0.0000 0.0000 0.0000 22.3127 0.0000
# 6 0.0000 0.0000 0.0000 0.0000 0.0000 29.9545
#
#
#
# Elastic Compliance Matrix: (Units=1/GPa)
#
#
# Indices 1 2 3 4 5 6 
#
# 1 0.015867 0.013773 -0.005529 0.000000 0.000000 0.000000
# 2 0.013773 0.240000 -0.059864 0.000000 0.000000 0.000000
# 3 -0.005529 -0.059864 0.047343 0.000000 0.000000 0.000000
# 4 0.000000 0.000000 0.000000 0.047901 0.000000 0.000000
# 5 0.000000 0.000000 0.000000 0.000000 0.044817 0.000000
# 6 0.000000 0.000000 0.000000 0.000000 0.000000 0.033384
#
#
# Mechanical properties :
#
#
# Convention : Reuss Voigt Hill
#
# Bulk Modulus (GPa) = 5.00075 13.60229 9.30152
# Shear Modulus (GPa) = 8.34433 20.97435 14.65934
#
# Velocity S-wave (km/s) = 2.05881 3.26410 2.72883
# Velocity P-wave (km/s) = 2.86213 4.59515 3.82800
#
# Compressibility (1/GPa) = 0.19997007
#
# Stress axis : x y z
#
# Youngs Moduli (GPa) = 63.02513 4.16666 21.12237
#
# Poissons Ratio (x) = -0.05739 0.11679
# Poissons Ratio (y) = -0.86805 1.26446
# Poissons Ratio (z) = 0.34849 0.24943
#
# Static dielectric constant tensor:
#      x y z
#    x 1.678240 0.000000 0.000000 
#    y 0.000000 1.677690 0.000000 
#    z 0.000000 0.000000 1.700900 
# 
# From -- ./inp_files/10637.got.cif
#   From: 2010.05.17/outbox.cif.g08.bks.cpg/sg39_6_cif.got.tgz:10637.got - 2010.06.03 18:22:40.
