data_PCOD9360573
_publ_section_title
;
Structure prediction by ZEFSAII (Michael W. Deem and Ramdas Pophale) SiO2 
 PCOD9360573
Probable space group: A B M 2
;
_chemical_formula_sum "Si O2"
_cell_formula_units_Z 56
_cell_length_a 16.021665
_cell_length_b 8.092934
_cell_length_c 20.828313
_cell_angle_alpha 90.000000
_cell_angle_beta 90.000000
_cell_angle_gamma 90.000000
_cell_volume 2700.646498
_symmetry_space_group_name_H-M "A B M 2"
_symmetry_group_IT_number 39
_symmetry_cell_setting 'orthorhombic'
loop_
_space_group_symop_operation_xyz
x,y,z
-x,-y,z
-x,1/2+y,z
x,1/2-y,z
x,1/2+y,1/2+z
-x,1/2-y,1/2+z
-x,y,1/2+z
x,-y,1/2+z
loop_
_atom_site_type_symbol
_atom_site_label
_atom_site_fract_x
_atom_site_fract_y
_atom_site_fract_z
Si Si1 0.181502 0.948158 0.929600
Si Si2 0.410771 0.448773 0.607451
Si Si3 0.770968 0.943133 0.292125
Si Si4 0.907301 0.049956 0.053062
Si Si5 0.589774 0.560890 0.824957
Si Si6 0.231983 0.553990 0.152359
Si Si7 0.626658 0.947373 0.463358
O O1 0.170169 0.750000 0.923736
O O2 0.186660 0.013787 0.856939
O O3 0.273409 0.970620 0.960225
O O4 0.115463 0.011255 0.981254
O O5 0.500000 0.500000 0.635048
O O6 0.408691 0.250000 0.607964
O O7 0.326128 0.511386 0.640970
O O8 0.405273 0.501727 0.532674
O O9 0.790379 0.750000 0.287519
O O10 0.671111 0.962256 0.302330
O O11 0.794074 0.025515 0.225409
O O12 0.903119 0.250000 0.052068
O O13 0.836381 0.988697 0.102314
O O14 0.000000 0.000000 0.071897
O O15 0.500000 0.500000 0.801585
O O16 0.602300 0.750000 0.805904
O O17 0.590409 0.542398 0.902401
O O18 0.236948 0.750000 0.140672
O O19 0.610915 0.750000 0.455010
#
# Coordination Sequence:
#
# PCOD9360573 Si02
#       7
#     8   8   8   8   8   8   8
#     4   8  15  33  59  82 107 144 184 225 283 345
#     4  10  20  33  52  78 111 154 196 237 286 340
#     4  10  21  37  59  82 110 150 194 238 288 346
#     4  10  20  38  64  90 115 148 189 236 290 348
#     4  11  21  33  50  76 110 149 195 243 291 341
#     4  10  21  39  59  81 117 160 195 234 290 348
#     4   9  16  31  53  77 107 145 189 235 289 342
#
# _framework density 20.735776000000001
#
# number of rings (size 3 to 8) (size 9 to 14) (size 15 to 20)
#    0.000    2.286    1.429    3.000    0.000    3.429 
#    0.000    5.714    0.000    3.429    0.000    0.000 
#    0.000    0.000    0.000    0.000    0.000    0.000 
#
# Total GULP energy -156288.747632 kJ/mol
# GULP energy per Si atom -5581.740987 kJ/mol
# Density = 2.068858 g / cm^3
# Si number density = 20.735776 Si / 1000 Ang^3
#
#
#
# Elastic Constant Matrix: (Units=GPa)
#
#
# Indices 1 2 3 4 5 6 
#
# 1 99.5377 8.9080 57.8987 0.0000 0.0000 0.0000
# 2 8.9080 14.9455 -2.8119 0.0000 0.0000 0.0000
# 3 57.8987 -2.8119 116.3805 0.0000 0.0000 0.0000
# 4 0.0000 0.0000 0.0000 15.9270 0.0000 0.0000
# 5 0.0000 0.0000 0.0000 0.0000 -6.6153 0.0000
# 6 0.0000 0.0000 0.0000 0.0000 0.0000 20.8606
#
#
#
# Elastic Compliance Matrix: (Units=1/GPa)
#
#
# Indices 1 2 3 4 5 6 
#
# 1 0.015725 -0.010894 -0.008086 0.000000 0.000000 0.000000
# 2 -0.010894 0.074763 0.007226 0.000000 0.000000 0.000000
# 3 -0.008086 0.007226 0.012790 0.000000 0.000000 0.000000
# 4 0.000000 0.000000 0.000000 0.062786 0.000000 0.000000
# 5 0.000000 0.000000 0.000000 0.000000 -0.151165 0.000000
# 6 0.000000 0.000000 0.000000 0.000000 0.000000 0.047937
#
#
# Mechanical properties :
#
#
# Convention : Reuss Voigt Hill
#
# Bulk Modulus (GPa) = 12.53616 39.87256 26.20436
# Shear Modulus (GPa) = 44.27341 17.15906 30.71624
#
# Velocity S-wave (km/s) = 4.62575 2.87977 3.85296
# Velocity P-wave (km/s) = 5.88123 5.50709 5.69723
#
# Compressibility (1/GPa) = 0.07976922
#
# Stress axis : x y z
#
# Youngs Moduli (GPa) = 63.59291 13.37565 78.18602
#
# Poissons Ratio (x) = 0.14572 0.63224
# Poissons Ratio (y) = 0.69279 -0.56498
# Poissons Ratio (z) = 0.51423 -0.09665
#
# Static dielectric constant tensor:
#      x y z
#    x 1.741710 0.000000 0.000000 
#    y 0.000000 1.737690 0.000000 
#    z 0.000000 0.000000 1.766130 
# 
# From -- ./inp_files/14751.got.cif
#   From: 2010.05.17/outbox.cif.g08.bks.cpg/sg39_8_cif.got.tgz:14751.got - 2010.06.03 18:22:40.
