data_PCOD9360122
_publ_section_title
;
Structure prediction by ZEFSAII (Michael W. Deem and Ramdas Pophale) SiO2 
 PCOD9360122
Probable space group: A B M 2
;
_chemical_formula_sum "Si O2"
_cell_formula_units_Z 64
_cell_length_a 22.127089
_cell_length_b 9.051312
_cell_length_c 15.384756
_cell_angle_alpha 90.000000
_cell_angle_beta 90.000000
_cell_angle_gamma 90.000000
_cell_volume 3081.246411
_symmetry_space_group_name_H-M "A B M 2"
_symmetry_group_IT_number 39
_symmetry_cell_setting 'orthorhombic'
loop_
_space_group_symop_operation_xyz
x,y,z
-x,-y,z
-x,1/2+y,z
x,1/2-y,z
x,1/2+y,1/2+z
-x,1/2-y,1/2+z
-x,y,1/2+z
x,-y,1/2+z
loop_
_atom_site_type_symbol
_atom_site_label
_atom_site_fract_x
_atom_site_fract_y
_atom_site_fract_z
Si Si1 0.181847 0.923240 0.040400
Si Si2 0.320329 0.920481 0.344199
Si Si3 0.310919 0.578949 0.018207
Si Si4 0.189408 0.070672 0.850344
Si Si5 0.556219 0.077065 0.098818
Si Si6 0.938669 0.078929 0.544822
Si Si7 0.060168 0.920378 0.331928
Si Si8 0.440465 0.924688 0.785513
O O1 0.167801 0.750000 0.042273
O O2 0.250373 0.943123 0.075812
O O3 0.123913 0.007950 0.076953
O O4 0.188013 0.980613 0.940673
O O5 0.334753 0.750000 0.324815
O O6 0.254054 0.956586 0.305496
O O7 0.310635 0.951971 0.445959
O O8 0.376682 0.021806 0.321796
O O9 0.304499 0.750000 0.983738
O O10 0.377043 0.572124 0.059290
O O11 0.187090 0.250000 0.867472
O O12 0.127005 0.029989 0.802711
O O13 0.542097 0.250000 0.114237
O O14 0.500000 0.000000 0.049088
O O15 0.560588 0.984473 0.187241
O O16 0.940732 0.250000 0.567136
O O17 0.938091 0.067957 0.438219
O O18 0.000000 0.000000 0.574105
O O19 0.054068 0.750000 0.309159
O O20 0.000000 0.000000 0.301186
O O21 0.446266 0.750000 0.791067
O O22 0.500000 0.000000 0.826717
#
# Coordination Sequence:
#
# PCOD9360122 Si02
#       8
#     8   8   8   8   8   8   8   8
#     4   9  15  24  38  57  83 116 151 188 231 275
#     4  10  19  32  51  73  98 129 163 199 240 285
#     4   9  19  33  49  71 100 131 162 198 239 286
#     4   8  15  26  38  55  83 118 153 188 227 273
#     4  10  20  36  55  74  97 125 158 195 237 284
#     4   9  15  22  32  49  75 110 150 189 228 273
#     4   8  13  20  30  47  73 107 146 183 219 261
#     4  11  22  37  55  74  97 124 157 196 239 287
#
# _framework density 20.770817000000001
#
# number of rings (size 3 to 8) (size 9 to 14) (size 15 to 20)
#    0.000    2.750    0.000    4.125    0.000    5.500 
#    0.000    1.250    0.000    0.000    0.000    0.000 
#    0.000    1.000    0.000    6.000    0.000   13.250 
#
# Total GULP energy -178201.250674 kJ/mol
# GULP energy per Si atom -5568.789084 kJ/mol
# Density = 2.072354 g / cm^3
# Si number density = 20.770817 Si / 1000 Ang^3
#
#
#
# Elastic Constant Matrix: (Units=GPa)
#
#
# Indices 1 2 3 4 5 6 
#
# 1 234.8346 96.9420 11.5505 0.0000 0.0000 0.0000
# 2 96.9420 113.2172 8.2184 0.0000 0.0000 0.0000
# 3 11.5505 8.2184 13.4364 0.0000 0.0000 0.0000
# 4 0.0000 0.0000 0.0000 7.6207 0.0000 0.0000
# 5 0.0000 0.0000 0.0000 0.0000 80.4660 0.0000
# 6 0.0000 0.0000 0.0000 0.0000 0.0000 35.1378
#
#
#
# Elastic Compliance Matrix: (Units=1/GPa)
#
#
# Indices 1 2 3 4 5 6 
#
# 1 0.006656 -0.005529 -0.002340 0.000000 0.000000 0.000000
# 2 -0.005529 0.013836 -0.003710 0.000000 0.000000 0.000000
# 3 -0.002340 -0.003710 0.078705 0.000000 0.000000 0.000000
# 4 0.000000 0.000000 0.000000 0.131222 0.000000 0.000000
# 5 0.000000 0.000000 0.000000 0.000000 0.012428 0.000000
# 6 0.000000 0.000000 0.000000 0.000000 0.000000 0.028459
#
#
# Mechanical properties :
#
#
# Convention : Reuss Voigt Hill
#
# Bulk Modulus (GPa) = 13.15100 66.10111 39.62605
# Shear Modulus (GPa) = 15.63427 40.96338 28.29882
#
# Velocity S-wave (km/s) = 2.74652 4.44572 3.69512
# Velocity P-wave (km/s) = 4.05007 7.63189 6.10937
#
# Compressibility (1/GPa) = 0.07603987
#
# Stress axis : x y z
#
# Youngs Moduli (GPa) = 150.24163 72.27357 12.70564
#
# Poissons Ratio (x) = 0.39962 0.02973
# Poissons Ratio (y) = 0.83073 0.04714
# Poissons Ratio (z) = 0.35153 0.26812
#
# Static dielectric constant tensor:
#      x y z
#    x 1.868900 0.000000 0.000000 
#    y 0.000000 1.702040 0.000000 
#    z 0.000000 0.000000 1.804830 
# 
# From -- ./inp_files/15078.got.cif
#   From: 2010.05.17/outbox.cif.g08.bks.cpg/sg39_8_cif.got.tgz:15078.got - 2010.06.03 18:22:40.
