data_PCOD9360493
_publ_section_title
;
Structure prediction by ZEFSAII (Michael W. Deem and Ramdas Pophale) SiO2 
 PCOD9360493
Probable space group: A B M 2
;
_chemical_formula_sum "Si O2"
_cell_formula_units_Z 56
_cell_length_a 8.669218
_cell_length_b 13.938820
_cell_length_c 18.892190
_cell_angle_alpha 90.000000
_cell_angle_beta 90.000000
_cell_angle_gamma 90.000000
_cell_volume 2282.907099
_symmetry_space_group_name_H-M "A B M 2"
_symmetry_group_IT_number 39
_symmetry_cell_setting 'orthorhombic'
loop_
_space_group_symop_operation_xyz
x,y,z
-x,-y,z
-x,1/2+y,z
x,1/2-y,z
x,1/2+y,1/2+z
-x,1/2-y,1/2+z
-x,y,1/2+z
x,-y,1/2+z
loop_
_atom_site_type_symbol
_atom_site_label
_atom_site_fract_x
_atom_site_fract_y
_atom_site_fract_z
Si Si1 0.737662 0.633450 0.559840
Si Si2 0.247608 0.051603 0.863782
Si Si3 0.926122 0.144795 0.860599
Si Si4 0.325588 0.474915 0.704251
Si Si5 0.590951 0.366408 0.489984
Si Si6 0.074209 0.106186 0.201161
Si Si7 0.071197 0.642429 0.540500
O O1 0.742482 0.750000 0.561987
O O2 0.729172 0.590307 0.639054
O O3 0.574629 0.605753 0.523110
O O4 0.899825 0.599966 0.522423
O O5 0.286467 0.068361 0.781304
O O6 0.092955 0.109265 0.888174
O O7 0.197577 0.940112 0.869875
O O8 0.384065 0.088503 0.912809
O O9 0.876221 0.250000 0.885088
O O10 0.959669 0.151353 0.776081
O O11 0.500000 0.500000 0.696614
O O12 0.252343 0.580456 0.702129
O O13 0.589897 0.250000 0.487576
O O14 0.753749 0.396478 0.528936
O O15 0.046936 0.149501 0.125387
O O16 0.000000 0.000000 0.203263
O O17 0.075700 0.750000 0.511397
#
# Coordination Sequence:
#
# PCOD9360493 Si02
#       7
#     8   8   8   8   8   8   8
#     4  10  21  40  66  99 134 172 224 280 335 402
#     4  10  21  41  62  95 135 176 228 274 340 412
#     4  10  19  37  67  98 129 168 223 283 332 404
#     4  11  22  39  62  92 132 169 220 276 333 403
#     4  10  22  41  65  96 138 181 225 275 338 412
#     4  11  18  36  60  98 132 160 216 274 334 404
#     4  10  20  37  65  97 130 173 217 270 343 409
#
# _framework density 24.530125999999999
#
# number of rings (size 3 to 8) (size 9 to 14) (size 15 to 20)
#    0.000    1.714    4.286    1.714    0.000    2.286 
#    2.571    9.286    0.000    3.429    0.000    5.000 
#    0.000    0.000    0.000    0.000    0.000    0.000 
#
# Total GULP energy -156366.945254 kJ/mol
# GULP energy per Si atom -5584.533759 kJ/mol
# Density = 2.447429 g / cm^3
# Si number density = 24.530126 Si / 1000 Ang^3
#
#
#
# Elastic Constant Matrix: (Units=GPa)
#
#
# Indices 1 2 3 4 5 6 
#
# 1 186.9068 26.0480 37.1288 0.0000 0.0000 0.0000
# 2 26.0480 102.2612 13.4314 0.0000 0.0000 0.0000
# 3 37.1288 13.4314 132.4912 0.0000 0.0000 0.0000
# 4 0.0000 0.0000 0.0000 27.0050 0.0000 0.0000
# 5 0.0000 0.0000 0.0000 0.0000 41.0553 0.0000
# 6 0.0000 0.0000 0.0000 0.0000 0.0000 11.0394
#
#
#
# Elastic Compliance Matrix: (Units=1/GPa)
#
#
# Indices 1 2 3 4 5 6 
#
# 1 0.005828 -0.001287 -0.001503 0.000000 0.000000 0.000000
# 2 -0.001287 0.010195 -0.000673 0.000000 0.000000 0.000000
# 3 -0.001503 -0.000673 0.008037 0.000000 0.000000 0.000000
# 4 0.000000 0.000000 0.000000 0.037030 0.000000 0.000000
# 5 0.000000 0.000000 0.000000 0.000000 0.024357 0.000000
# 6 0.000000 0.000000 0.000000 0.000000 0.000000 0.090585
#
#
# Mechanical properties :
#
#
# Convention : Reuss Voigt Hill
#
# Bulk Modulus (GPa) = 58.36091 63.87506 61.11799
# Shear Modulus (GPa) = 26.50134 38.82335 32.66235
#
# Velocity S-wave (km/s) = 3.29045 3.98261 3.65296
# Velocity P-wave (km/s) = 6.18702 6.87344 6.53924
#
# Compressibility (1/GPa) = 0.01713476
#
# Stress axis : x y z
#
# Youngs Moduli (GPa) = 171.58045 98.08614 124.42437
#
# Poissons Ratio (x) = 0.12625 0.18698
# Poissons Ratio (y) = 0.22085 0.08372
# Poissons Ratio (z) = 0.25785 0.06599
#
# Static dielectric constant tensor:
#      x y z
#    x 2.083440 0.000000 0.000000 
#    y 0.000000 1.939890 0.000000 
#    z 0.000000 0.000000 2.014450 
# 
# From -- ./inp_files/14084.got.cif
#   From: 2010.05.17/outbox.cif.g08.bks.cpg/sg39_8_cif.got.tgz:14084.got - 2010.06.03 18:22:40.
