data_PCOD9360094
_publ_section_title
;
Structure prediction by ZEFSAII (Michael W. Deem and Ramdas Pophale) SiO2 
 PCOD9360094
Probable space group: A B M 2
;
_chemical_formula_sum "Si O2"
_cell_formula_units_Z 64
_cell_length_a 15.132846
_cell_length_b 8.168465
_cell_length_c 25.642347
_cell_angle_alpha 90.000000
_cell_angle_beta 90.000000
_cell_angle_gamma 90.000000
_cell_volume 3169.704949
_symmetry_space_group_name_H-M "A B M 2"
_symmetry_group_IT_number 39
_symmetry_cell_setting 'orthorhombic'
loop_
_space_group_symop_operation_xyz
x,y,z
-x,-y,z
-x,1/2+y,z
x,1/2-y,z
x,1/2+y,1/2+z
-x,1/2-y,1/2+z
-x,y,1/2+z
x,-y,1/2+z
loop_
_atom_site_type_symbol
_atom_site_label
_atom_site_fract_x
_atom_site_fract_y
_atom_site_fract_z
Si Si1 0.658891 0.440707 0.367850
Si Si2 0.846297 0.054784 0.835784
Si Si3 0.408408 0.052858 0.764465
Si Si4 0.276962 0.949880 0.176439
Si Si5 0.095613 0.053927 0.722052
Si Si6 0.397649 0.945035 0.080610
Si Si7 0.095567 0.055537 0.450612
Si Si8 0.289089 0.946122 0.479709
O O1 0.635127 0.250000 0.374248
O O2 0.755447 0.455758 0.341794
O O3 0.598022 0.516191 0.323118
O O4 0.669004 0.512878 0.425388
O O5 0.828945 0.250000 0.837824
O O6 0.898011 0.009555 0.888951
O O7 0.890459 0.013723 0.780785
O O8 0.405114 0.250000 0.766966
O O9 0.328084 0.998304 0.728683
O O10 0.500000 0.000000 0.739500
O O11 0.276932 0.750000 0.174332
O O12 0.175772 0.001493 0.184580
O O13 0.335543 0.008682 0.127878
O O14 0.099071 0.250000 0.725769
O O15 0.000000 0.000000 0.702841
O O16 0.399807 0.750000 0.084971
O O17 0.500000 0.000000 0.081874
O O18 0.346195 0.991203 0.027815
O O19 0.099529 0.250000 0.453887
O O20 0.184804 0.990333 0.478085
O O21 0.000000 0.000000 0.470958
O O22 0.294126 0.750000 0.478897
#
# Coordination Sequence:
#
# PCOD9360094 Si02
#       8
#     8   8   8   8   8   8   8   8
#     4   9  18  34  55  78 115 157 190 231 288 342
#     4  10  19  31  51  82 117 156 199 237 280 335
#     4  10  19  34  54  81 111 147 185 228 286 346
#     4   9  20  39  61  81 112 151 191 237 293 345
#     4  11  21  36  56  82 116 154 194 237 286 345
#     4  11  23  42  66  89 112 148 195 247 299 352
#     4  10  20  34  54  84 121 160 200 242 287 344
#     4  10  21  38  60  87 116 153 197 243 293 349
#
# _framework density 20.191154000000001
#
# number of rings (size 3 to 8) (size 9 to 14) (size 15 to 20)
#    0.000    2.000    1.250    2.625    0.000    4.000 
#    0.000    5.000    0.000    1.500    0.000    0.000 
#    0.000    0.000    0.000    0.000    0.000    0.000 
#
# Total GULP energy -178487.494100 kJ/mol
# GULP energy per Si atom -5577.734191 kJ/mol
# Density = 2.014520 g / cm^3
# Si number density = 20.191154 Si / 1000 Ang^3
#
#
#
# Elastic Constant Matrix: (Units=GPa)
#
#
# Indices 1 2 3 4 5 6 
#
# 1 162.4674 12.5116 79.5006 0.0000 0.0000 0.0000
# 2 12.5116 30.9650 12.9434 0.0000 0.0000 0.0000
# 3 79.5006 12.9434 121.1625 0.0000 0.0000 0.0000
# 4 0.0000 0.0000 0.0000 154.9114 0.0000 0.0000
# 5 0.0000 0.0000 0.0000 0.0000 16.6881 0.0000
# 6 0.0000 0.0000 0.0000 0.0000 0.0000 29.1803
#
#
#
# Elastic Compliance Matrix: (Units=1/GPa)
#
#
# Indices 1 2 3 4 5 6 
#
# 1 0.009111 -0.001238 -0.005846 0.000000 0.000000 0.000000
# 2 -0.001238 0.033972 -0.002817 0.000000 0.000000 0.000000
# 3 -0.005846 -0.002817 0.012390 0.000000 0.000000 0.000000
# 4 0.000000 0.000000 0.000000 0.006455 0.000000 0.000000
# 5 0.000000 0.000000 0.000000 0.000000 0.059923 0.000000
# 6 0.000000 0.000000 0.000000 0.000000 0.000000 0.034270
#
#
# Mechanical properties :
#
#
# Convention : Reuss Voigt Hill
#
# Bulk Modulus (GPa) = 28.03326 58.27845 43.15586
# Shear Modulus (GPa) = 26.62221 54.13193 40.37707
#
# Velocity S-wave (km/s) = 3.63507 5.18343 4.47670
# Velocity P-wave (km/s) = 5.61537 8.04673 6.93838
#
# Compressibility (1/GPa) = 0.03567191
#
# Stress axis : x y z
#
# Youngs Moduli (GPa) = 109.75725 29.43587 80.70951
#
# Poissons Ratio (x) = 0.03643 0.47182
# Poissons Ratio (y) = 0.13585 0.22736
# Poissons Ratio (z) = 0.64164 0.08292
#
# Static dielectric constant tensor:
#      x y z
#    x 1.755120 0.000000 0.000000 
#    y 0.000000 1.472700 0.000000 
#    z 0.000000 0.000000 1.743920 
# 
# From -- ./inp_files/16232.got.cif
#   From: 2010.05.17/outbox.cif.g08.bks.cpg/sg39_9_cif.got.tgz:16232.got - 2010.06.03 18:22:40.
