data_PCOD9360364
_publ_section_title
;
Structure prediction by ZEFSAII (Michael W. Deem and Ramdas Pophale) SiO2 
 PCOD9360364
Probable space group: A B M 2
;
_chemical_formula_sum "Si O2"
_cell_formula_units_Z 64
_cell_length_a 11.185613
_cell_length_b 14.066781
_cell_length_c 17.792844
_cell_angle_alpha 90.000000
_cell_angle_beta 90.000000
_cell_angle_gamma 90.000000
_cell_volume 2799.625153
_symmetry_space_group_name_H-M "A B M 2"
_symmetry_group_IT_number 39
_symmetry_cell_setting 'orthorhombic'
loop_
_space_group_symop_operation_xyz
x,y,z
-x,-y,z
-x,1/2+y,z
x,1/2-y,z
x,1/2+y,1/2+z
-x,1/2-y,1/2+z
-x,y,1/2+z
x,-y,1/2+z
loop_
_atom_site_type_symbol
_atom_site_label
_atom_site_fract_x
_atom_site_fract_y
_atom_site_fract_z
Si Si1 0.976261 0.141830 0.862830
Si Si2 0.674861 0.855647 0.980052
Si Si3 0.031155 0.356116 0.539225
Si Si4 0.771976 0.855802 0.775352
Si Si5 0.751192 0.485005 0.876487
Si Si6 0.603447 0.862964 0.487664
Si Si7 0.208783 0.852190 0.636609
Si Si8 0.243353 0.058101 0.620180
O O1 0.931376 0.250000 0.852318
O O2 0.093997 0.134712 0.810835
O O3 0.873006 0.064787 0.849010
O O4 0.002438 0.131167 0.952095
O O5 0.705341 0.750000 0.951312
O O6 0.754781 0.936737 0.943375
O O7 0.535987 0.877964 0.970407
O O8 0.698299 0.849977 0.068070
O O9 0.086452 0.250000 0.543062
O O10 0.127755 0.431153 0.566685
O O11 0.919720 0.355032 0.595468
O O12 0.727742 0.750000 0.793372
O O13 0.701403 0.944078 0.812474
O O14 0.769964 0.866292 0.686301
O O15 0.674990 0.402298 0.915620
O O16 0.622579 0.750000 0.498157
O O17 0.648205 0.918042 0.563082
O O18 0.216624 0.750000 0.678199
O O19 0.234949 0.957713 0.664818
#
# Coordination Sequence:
#
# PCOD9360364 Si02
#       8
#     8   8   8   8   8   8   8   8
#     4  10  21  37  60  94 136 178 222 271 332 404
#     4  10  21  39  65  98 133 170 226 290 337 390
#     4  10  19  34  60  94 130 168 220 277 326 399
#     4  11  26  43  62  95 139 186 227 273 341 423
#     4  12  21  37  65  95 130 176 225 280 340 405
#     4  11  23  40  69 101 131 172 233 293 335 395
#     4  10  21  35  57  92 129 169 215 275 340 394
#     4  12  23  41  68  98 135 179 228 276 347 411
#
# _framework density 22.860202999999998
#
# number of rings (size 3 to 8) (size 9 to 14) (size 15 to 20)
#    0.000    1.250    2.500    3.750    0.000    5.000 
#    0.000    2.500    5.500    0.750    0.000    0.000 
#    0.000    0.000    0.000    0.000    0.000    0.000 
#
# Total GULP energy -178569.753788 kJ/mol
# GULP energy per Si atom -5580.304806 kJ/mol
# Density = 2.280817 g / cm^3
# Si number density = 22.860203 Si / 1000 Ang^3
#
#
#
# Elastic Constant Matrix: (Units=GPa)
#
#
# Indices 1 2 3 4 5 6 
#
# 1 34.4779 18.5073 -1.2274 0.0000 0.0000 0.0000
# 2 18.5073 162.2225 17.2270 0.0000 0.0000 0.0000
# 3 -1.2274 17.2270 79.0150 0.0000 0.0000 0.0000
# 4 0.0000 0.0000 0.0000 47.4272 0.0000 0.0000
# 5 0.0000 0.0000 0.0000 0.0000 1.0595 0.0000
# 6 0.0000 0.0000 0.0000 0.0000 0.0000 30.6539
#
#
#
# Elastic Compliance Matrix: (Units=1/GPa)
#
#
# Indices 1 2 3 4 5 6 
#
# 1 0.031023 -0.003676 0.001283 0.000000 0.000000 0.000000
# 2 -0.003676 0.006746 -0.001528 0.000000 0.000000 0.000000
# 3 0.001283 -0.001528 0.013009 0.000000 0.000000 0.000000
# 4 0.000000 0.000000 0.000000 0.021085 0.000000 0.000000
# 5 0.000000 0.000000 0.000000 0.000000 0.943867 0.000000
# 6 0.000000 0.000000 0.000000 0.000000 0.000000 0.032622
#
#
# Mechanical properties :
#
#
# Convention : Reuss Voigt Hill
#
# Bulk Modulus (GPa) = 23.28977 38.30324 30.79650
# Shear Modulus (GPa) = 4.67069 31.90867 18.28968
#
# Velocity S-wave (km/s) = 1.43094 3.74012 2.83161
# Velocity P-wave (km/s) = 3.59724 5.95341 4.91850
#
# Compressibility (1/GPa) = 0.04293731
#
# Stress axis : x y z
#
# Youngs Moduli (GPa) = 32.23436 148.23707 76.87061
#
# Poissons Ratio (x) = 0.54485 -0.09864
# Poissons Ratio (y) = 0.11848 0.11745
# Poissons Ratio (z) = -0.04136 0.22649
#
# Static dielectric constant tensor:
#      x y z
#    x 1.869330 0.000000 0.000000 
#    y 0.000000 1.977390 0.000000 
#    z 0.000000 0.000000 1.847730 
# 
# From -- ./inp_files/12377.got.cif
#   From: 2010.05.17/outbox.cif.g08.bks.cpg/sg39_7_cif.got.tgz:12377.got - 2010.06.03 18:22:40.
