data_PCOD9360974
_publ_section_title
;
Structure prediction by ZEFSAII (Michael W. Deem and Ramdas Pophale) SiO2 
 PCOD9360974
Probable space group: A B M 2
;
_chemical_formula_sum "Si O2"
_cell_formula_units_Z 64
_cell_length_a 25.433796
_cell_length_b 8.873632
_cell_length_c 15.009446
_cell_angle_alpha 90.000000
_cell_angle_beta 90.000000
_cell_angle_gamma 90.000000
_cell_volume 3387.484060
_symmetry_space_group_name_H-M "A B M 2"
_symmetry_group_IT_number 39
_symmetry_cell_setting 'orthorhombic'
loop_
_space_group_symop_operation_xyz
x,y,z
-x,-y,z
-x,1/2+y,z
x,1/2-y,z
x,1/2+y,1/2+z
-x,1/2-y,1/2+z
-x,y,1/2+z
x,-y,1/2+z
loop_
_atom_site_type_symbol
_atom_site_label
_atom_site_fract_x
_atom_site_fract_y
_atom_site_fract_z
Si Si1 0.443535 0.568865 0.981280
Si Si2 0.053487 0.576997 0.696311
Si Si3 0.364060 0.431367 0.841232
Si Si4 0.830381 0.433376 0.482031
Si Si5 0.053579 0.077096 0.978624
Si Si6 0.751714 0.068694 0.840629
Si Si7 0.555466 0.569895 0.689137
Si Si8 0.167784 0.433254 0.188915
O O1 0.500000 0.500000 0.954592
O O2 0.444541 0.750000 0.971730
O O3 0.397753 0.497286 0.922711
O O4 0.435718 0.530451 0.085694
O O5 0.051680 0.750000 0.725083
O O6 0.053619 0.574611 0.587472
O O7 0.110375 0.509936 0.720929
O O8 0.000000 0.500000 0.726549
O O9 0.361857 0.250000 0.846597
O O10 0.306006 0.498883 0.839881
O O11 0.396869 0.475233 0.752760
O O12 0.828894 0.250000 0.475923
O O13 0.889129 0.485143 0.452828
O O14 0.785615 0.506874 0.422948
O O15 0.823829 0.474773 0.586026
O O16 0.051673 0.250000 0.950507
O O17 0.000000 0.000000 0.948518
O O18 0.748624 0.250000 0.843772
O O19 0.785079 0.022783 0.753154
O O20 0.500000 0.500000 0.718192
O O21 0.550399 0.750000 0.694247
O O22 0.164229 0.250000 0.190263
#
# Coordination Sequence:
#
# PCOD9360974 Si02
#       8
#     8   8   8   8   8   8   8   8
#     4  10  20  37  60  89 120 149 181 220 264 314
#     4   8  13  25  46  72  98 127 164 209 259 318
#     4  11  23  39  57  80 111 149 186 225 269 315
#     4   9  18  36  57  76 102 140 178 218 269 326
#     4   8  14  25  46  73 100 129 166 210 261 318
#     4  11  23  38  55  78 105 139 184 231 270 315
#     4   9  20  37  59  86 117 147 178 217 263 312
#     4   8  17  35  56  74 101 140 177 214 268 328
#
# _framework density 18.893077000000002
#
# number of rings (size 3 to 8) (size 9 to 14) (size 15 to 20)
#    0.000    2.750    0.000    3.000    0.000    4.000 
#    0.000    7.500    0.000    3.000    0.000    0.000 
#    0.000    0.000    0.000    0.000    0.000    0.000 
#
# Total GULP energy -178522.175978 kJ/mol
# GULP energy per Si atom -5578.817999 kJ/mol
# Density = 1.885008 g / cm^3
# Si number density = 18.893077 Si / 1000 Ang^3
#
#
#
# Elastic Constant Matrix: (Units=GPa)
#
#
# Indices 1 2 3 4 5 6 
#
# 1 234.3046 64.2404 92.2425 0.0000 0.0000 0.0000
# 2 64.2404 44.2484 33.4770 0.0000 0.0000 0.0000
# 3 92.2425 33.4770 91.1378 0.0000 0.0000 0.0000
# 4 0.0000 0.0000 0.0000 15.9517 0.0000 0.0000
# 5 0.0000 0.0000 0.0000 0.0000 -77.8938 0.0000
# 6 0.0000 0.0000 0.0000 0.0000 0.0000 34.9467
#
#
#
# Elastic Compliance Matrix: (Units=1/GPa)
#
#
# Indices 1 2 3 4 5 6 
#
# 1 0.008921 -0.008476 -0.005915 0.000000 0.000000 0.000000
# 2 -0.008476 0.039350 -0.005876 0.000000 0.000000 0.000000
# 3 -0.005915 -0.005876 0.019118 0.000000 0.000000 0.000000
# 4 0.000000 0.000000 0.000000 0.062689 0.000000 0.000000
# 5 0.000000 0.000000 0.000000 0.000000 -0.012838 0.000000
# 6 0.000000 0.000000 0.000000 0.000000 0.000000 0.028615
#
#
# Mechanical properties :
#
#
# Convention : Reuss Voigt Hill
#
# Bulk Modulus (GPa) = 37.23735 83.29007 60.26371
# Shear Modulus (GPa) = 25.59641 6.58299 16.08970
#
# Velocity S-wave (km/s) = 3.68476 1.86866 2.92142
# Velocity P-wave (km/s) = 6.15269 6.98832 6.58377
#
# Compressibility (1/GPa) = 0.02685476
#
# Stress axis : x y z
#
# Youngs Moduli (GPa) = 112.10082 25.41291 52.30702
#
# Poissons Ratio (x) = 0.21539 0.30942
# Poissons Ratio (y) = 0.95011 0.30735
# Poissons Ratio (z) = 0.66312 0.14932
#
# Static dielectric constant tensor:
#      x y z
#    x 1.639710 0.000000 0.000000 
#    y 0.000000 1.639990 0.000000 
#    z 0.000000 0.000000 1.680790 
# 
# From -- ./inp_files/10618.got.cif
#   From: 2010.05.17/outbox.cif.g08.bks.cpg/sg39_6_cif.got.tgz:10618.got - 2010.06.03 18:22:40.
