data_PCOD9360955
_publ_section_title
;
Structure prediction by ZEFSAII (Michael W. Deem and Ramdas Pophale) SiO2 
 PCOD9360955
Probable space group: A B M 2
;
_chemical_formula_sum "Si O2"
_cell_formula_units_Z 48
_cell_length_a 15.306849
_cell_length_b 16.036745
_cell_length_c 9.189261
_cell_angle_alpha 90.000000
_cell_angle_beta 90.000000
_cell_angle_gamma 90.000000
_cell_volume 2255.706590
_symmetry_space_group_name_H-M "A B M 2"
_symmetry_group_IT_number 39
_symmetry_cell_setting 'orthorhombic'
loop_
_space_group_symop_operation_xyz
x,y,z
-x,-y,z
-x,1/2+y,z
x,1/2-y,z
x,1/2+y,1/2+z
-x,1/2-y,1/2+z
-x,y,1/2+z
x,-y,1/2+z
loop_
_atom_site_type_symbol
_atom_site_label
_atom_site_fract_x
_atom_site_fract_y
_atom_site_fract_z
Si Si1 0.214212 0.649557 0.837500
Si Si2 0.953586 0.087604 0.998191
Si Si3 0.407503 0.086626 0.373132
Si Si4 0.091779 0.655279 0.301316
Si Si5 0.767350 0.846912 0.009544
Si Si6 0.577468 0.906773 0.026280
O O1 0.201050 0.750000 0.844414
O O2 0.313146 0.629367 0.886971
O O3 0.207489 0.620203 0.668879
O O4 0.141236 0.602122 0.928833
O O5 0.943606 0.102341 0.168539
O O6 0.000000 0.000000 0.968897
O O7 0.018896 0.154093 0.926269
O O8 0.428928 0.082047 0.200710
O O9 0.488521 0.128793 0.457613
O O10 0.404959 0.995290 0.446868
O O11 0.107520 0.750000 0.248707
O O12 0.178679 0.617408 0.374979
O O13 0.792385 0.750000 0.011131
O O14 0.663945 0.854248 0.995567
#
# Coordination Sequence:
#
# PCOD9360955 Si02
#       6
#     8   8   8   8   8   8
#     4  10  22  43  66  92 126 168 213 263 321 385
#     4  12  26  42  63  93 125 160 211 267 319 381
#     4  10  21  36  61  89 125 170 207 259 314 371
#     4  11  23  42  65  89 123 167 207 258 321 383
#     4   9  21  40  65  91 124 166 209 258 315 376
#     4  10  20  37  59  91 129 165 210 260 311 368
#
# _framework density 21.279364000000001
#
# number of rings (size 3 to 8) (size 9 to 14) (size 15 to 20)
#    0.000    1.667    0.000    5.000    2.333    4.667 
#    0.000    0.833    0.000    0.000    0.000    0.000 
#    0.000    0.000    0.000    0.000    0.000    0.000 
#
# Total GULP energy -134073.096635 kJ/mol
# GULP energy per Si atom -5586.379026 kJ/mol
# Density = 2.123093 g / cm^3
# Si number density = 21.279364 Si / 1000 Ang^3
#
#
#
# Elastic Constant Matrix: (Units=GPa)
#
#
# Indices 1 2 3 4 5 6 
#
# 1 140.9749 30.5353 68.5098 0.0000 0.0000 0.0000
# 2 30.5353 61.3879 27.2736 0.0000 0.0000 0.0000
# 3 68.5098 27.2736 99.1860 0.0000 0.0000 0.0000
# 4 0.0000 0.0000 0.0000 3.8312 0.0000 0.0000
# 5 0.0000 0.0000 0.0000 0.0000 48.7551 0.0000
# 6 0.0000 0.0000 0.0000 0.0000 0.0000 34.0231
#
#
#
# Elastic Compliance Matrix: (Units=1/GPa)
#
#
# Indices 1 2 3 4 5 6 
#
# 1 0.010975 -0.002382 -0.006926 0.000000 0.000000 0.000000
# 2 -0.002382 0.019074 -0.003599 0.000000 0.000000 0.000000
# 3 -0.006926 -0.003599 0.015856 0.000000 0.000000 0.000000
# 4 0.000000 0.000000 0.000000 0.261015 0.000000 0.000000
# 5 0.000000 0.000000 0.000000 0.000000 0.020511 0.000000
# 6 0.000000 0.000000 0.000000 0.000000 0.000000 0.029392
#
#
# Mechanical properties :
#
#
# Convention : Reuss Voigt Hill
#
# Bulk Modulus (GPa) = 49.77606 61.57625 55.67616
# Shear Modulus (GPa) = 12.84248 29.00390 20.92319
#
# Velocity S-wave (km/s) = 2.45933 3.69590 3.13910
# Velocity P-wave (km/s) = 5.61310 6.87115 6.27374
#
# Compressibility (1/GPa) = 0.02008998
#
# Stress axis : x y z
#
# Youngs Moduli (GPa) = 91.11484 52.42751 63.06945
#
# Poissons Ratio (x) = 0.12489 0.43680
# Poissons Ratio (y) = 0.21706 0.22701
# Poissons Ratio (z) = 0.63104 0.18871
#
# Static dielectric constant tensor:
#      x y z
#    x 1.792020 0.000000 0.000000 
#    y 0.000000 1.787840 0.000000 
#    z 0.000000 0.000000 1.756170 
# 
# From -- ./inp_files/3260.got.cif
#   From: 2010.05.17/outbox.cif.g08.bks.cpg/sg39_2_cif.got.tgz:3260.got - 2010.06.03 18:22:40.
