data_PCOD9360447
_publ_section_title
;
Structure prediction by ZEFSAII (Michael W. Deem and Ramdas Pophale) SiO2 
 PCOD9360447
Probable space group: A B M 2
;
_chemical_formula_sum "Si O2"
_cell_formula_units_Z 64
_cell_length_a 8.221038
_cell_length_b 16.630931
_cell_length_c 22.233468
_cell_angle_alpha 90.000000
_cell_angle_beta 90.000000
_cell_angle_gamma 90.000000
_cell_volume 3039.837912
_symmetry_space_group_name_H-M "A B M 2"
_symmetry_group_IT_number 39
_symmetry_cell_setting 'orthorhombic'
loop_
_space_group_symop_operation_xyz
x,y,z
-x,-y,z
-x,1/2+y,z
x,1/2-y,z
x,1/2+y,1/2+z
-x,1/2-y,1/2+z
-x,y,1/2+z
x,-y,1/2+z
loop_
_atom_site_type_symbol
_atom_site_label
_atom_site_fract_x
_atom_site_fract_y
_atom_site_fract_z
Si Si1 0.339383 0.094540 0.487640
Si Si2 0.644662 0.438158 0.278049
Si Si3 0.911303 0.342757 0.793071
Si Si4 0.870750 0.937789 0.881318
Si Si5 0.024539 0.597016 0.056502
Si Si6 0.307103 0.404640 0.001333
Si Si7 0.127698 0.347461 0.687851
Si Si8 0.415582 0.157679 0.358693
O O1 0.511736 0.129626 0.511778
O O2 0.365396 0.103761 0.415981
O O3 0.164942 0.126174 0.509850
O O4 0.329404 0.001281 0.507389
O O5 0.500000 0.500000 0.263732
O O6 0.776598 0.477190 0.324147
O O7 0.725489 0.394968 0.221053
O O8 0.572823 0.370864 0.322976
O O9 0.951420 0.250000 0.789002
O O10 0.724656 0.348469 0.808987
O O11 0.016997 0.374264 0.848127
O O12 0.974254 0.374645 0.729501
O O13 0.756439 0.900998 0.932359
O O14 0.000000 0.000000 0.910171
O O15 0.000000 0.500000 0.055345
O O16 0.090332 0.624085 0.120933
O O17 0.842966 0.627615 0.040446
O O18 0.152689 0.250000 0.687909
O O19 0.427310 0.250000 0.379465
#
# Coordination Sequence:
#
# PCOD9360447 Si02
#       8
#     8   8   8   8   8   8   8   8
#     4  10  20  37  59  90 125 154 201 256 315 375
#     4  11  22  37  61  93 122 162 208 260 322 390
#     4   9  20  36  56  82 115 158 199 243 306 373
#     4  11  19  32  59  87 119 153 193 248 308 377
#     4  10  22  40  63  89 119 165 217 265 313 374
#     4  10  19  36  60  88 120 157 199 256 311 373
#     4  10  23  44  62  84 125 171 214 266 323 380
#     4  11  21  36  59  92 130 159 198 258 326 395
#
# _framework density 21.053754000000001
#
# number of rings (size 3 to 8) (size 9 to 14) (size 15 to 20)
#    0.000    1.750    1.250    4.500    0.000    4.000 
#    6.750    1.250    0.000    0.000    0.000    0.000 
#    0.000    0.000    0.000    0.000    0.000    0.000 
#
# Total GULP energy -178365.063421 kJ/mol
# GULP energy per Si atom -5573.908232 kJ/mol
# Density = 2.100583 g / cm^3
# Si number density = 21.053754 Si / 1000 Ang^3
#
#
#
# Elastic Constant Matrix: (Units=GPa)
#
#
# Indices 1 2 3 4 5 6 
#
# 1 138.3054 18.9836 53.7824 0.0000 0.0000 0.0000
# 2 18.9836 28.4030 7.1599 0.0000 0.0000 0.0000
# 3 53.7824 7.1599 104.8076 0.0000 0.0000 0.0000
# 4 0.0000 0.0000 0.0000 15.3583 0.0000 0.0000
# 5 0.0000 0.0000 0.0000 0.0000 64.4596 0.0000
# 6 0.0000 0.0000 0.0000 0.0000 0.0000 17.2565
#
#
#
# Elastic Compliance Matrix: (Units=1/GPa)
#
#
# Indices 1 2 3 4 5 6 
#
# 1 0.009774 -0.005361 -0.004649 0.000000 0.000000 0.000000
# 2 -0.005361 0.038765 0.000103 0.000000 0.000000 0.000000
# 3 -0.004649 0.000103 0.011920 0.000000 0.000000 0.000000
# 4 0.000000 0.000000 0.000000 0.065111 0.000000 0.000000
# 5 0.000000 0.000000 0.000000 0.000000 0.015514 0.000000
# 6 0.000000 0.000000 0.000000 0.000000 0.000000 0.057949
#
#
# Mechanical properties :
#
#
# Convention : Reuss Voigt Hill
#
# Bulk Modulus (GPa) = 24.60392 47.92976 36.26684
# Shear Modulus (GPa) = 21.51501 32.18755 26.85128
#
# Velocity S-wave (km/s) = 3.20020 3.91426 3.57510
# Velocity P-wave (km/s) = 5.03653 6.57598 5.85705
#
# Compressibility (1/GPa) = 0.04064393
#
# Stress axis : x y z
#
# Youngs Moduli (GPa) = 102.31025 25.79678 83.89149
#
# Poissons Ratio (x) = 0.13829 0.39005
# Poissons Ratio (y) = 0.54845 -0.00861
# Poissons Ratio (z) = 0.47569 -0.00265
#
# Static dielectric constant tensor:
#      x y z
#    x 1.841060 0.000000 0.000000 
#    y 0.000000 1.810840 0.000000 
#    z 0.000000 0.000000 1.735210 
# 
# From -- ./inp_files/14224.got.cif
#   From: 2010.05.17/outbox.cif.g08.bks.cpg/sg39_8_cif.got.tgz:14224.got - 2010.06.03 18:22:40.
