data_PCOD9360014
_publ_section_title
;
Structure prediction by ZEFSAII (Michael W. Deem and Ramdas Pophale) SiO2 
 PCOD9360014
Probable space group: A B M 2
;
_chemical_formula_sum "Si O2"
_cell_formula_units_Z 32
_cell_length_a 7.722612
_cell_length_b 9.914840
_cell_length_c 16.605421
_cell_angle_alpha 90.000000
_cell_angle_beta 90.000000
_cell_angle_gamma 90.000000
_cell_volume 1271.451553
_symmetry_space_group_name_H-M "A B M 2"
_symmetry_group_IT_number 39
_symmetry_cell_setting 'orthorhombic'
loop_
_space_group_symop_operation_xyz
x,y,z
-x,-y,z
-x,1/2+y,z
x,1/2-y,z
x,1/2+y,1/2+z
-x,1/2-y,1/2+z
-x,y,1/2+z
x,-y,1/2+z
loop_
_atom_site_type_symbol
_atom_site_label
_atom_site_fract_x
_atom_site_fract_y
_atom_site_fract_z
Si Si1 0.820749 0.250000 0.613570
Si Si2 0.664415 0.750000 0.709983
Si Si3 0.703412 0.466771 0.337205
Si Si4 0.375628 0.750000 0.463575
Si Si5 0.000000 0.000000 0.536066
Si Si6 0.261006 0.750000 0.785740
Si Si7 0.243815 0.250000 0.516126
O O1 0.649588 0.250000 0.558764
O O2 0.848296 0.250000 0.706384
O O3 0.891363 0.394502 0.587150
O O4 0.740578 0.879255 0.757317
O O5 0.459148 0.750000 0.743417
O O6 0.707207 0.750000 0.614036
O O7 0.500000 0.500000 0.334416
O O8 0.714057 0.374447 0.416826
O O9 0.784931 0.612919 0.330840
O O10 0.583762 0.750000 0.460136
O O11 0.867296 0.886273 0.499878
#
# Coordination Sequence:
#
# PCOD9360014 Si02
#       7
#     4   4   8   4   4   4   4
#     4  11  23  44  69 102 131 187 228 287 329 411
#     4   9  17  36  64  95 130 163 217 284 340 388
#     4   9  20  36  58 103 136 164 202 304 343 385
#     4  11  24  39  71 103 129 172 244 279 337 401
#     4  10  26  42  60  98 152 178 224 282 348 394
#     4  10  18  38  68  99 131 165 216 284 351 387
#     4  11  22  43  66 103 133 185 231 286 331 415
#
# _framework density 25.168082999999999
#
# number of rings (size 3 to 8) (size 9 to 14) (size 15 to 20)
#    0.000    2.000    1.250    2.250    3.500    0.000 
#    0.000    0.000    0.000   22.500    0.000    0.000 
#    0.000    0.000    0.000    0.000    0.000    0.000 
#
# Total GULP energy -89087.369514 kJ/mol
# GULP energy per Si atom -5567.960595 kJ/mol
# Density = 2.511080 g / cm^3
# Si number density = 25.168083 Si / 1000 Ang^3
#
#
#
# Elastic Constant Matrix: (Units=GPa)
#
#
# Indices 1 2 3 4 5 6 
#
# 1 29.5158 31.1454 15.4957 0.0000 0.0000 0.0000
# 2 31.1454 251.1635 67.6232 0.0000 0.0000 0.0000
# 3 15.4957 67.6232 168.8064 0.0000 0.0000 0.0000
# 4 0.0000 0.0000 0.0000 -146.0136 0.0000 0.0000
# 5 0.0000 0.0000 0.0000 0.0000 -17.5920 0.0000
# 6 0.0000 0.0000 0.0000 0.0000 0.0000 25.3818
#
#
#
# Elastic Compliance Matrix: (Units=1/GPa)
#
#
# Indices 1 2 3 4 5 6 
#
# 1 0.039498 -0.004396 -0.001865 0.000000 0.000000 0.000000
# 2 -0.004396 0.004952 -0.001580 0.000000 0.000000 0.000000
# 3 -0.001865 -0.001580 0.006728 0.000000 0.000000 0.000000
# 4 0.000000 0.000000 0.000000 -0.006849 0.000000 0.000000
# 5 0.000000 0.000000 0.000000 0.000000 -0.056844 0.000000
# 6 0.000000 0.000000 0.000000 0.000000 0.000000 0.039398
#
#
# Mechanical properties :
#
#
# Convention : Reuss Voigt Hill
#
# Bulk Modulus (GPa) = 28.17202 75.33494 51.75348
# Shear Modulus (GPa) = 91.91644 -5.29666 43.30989
#
# Velocity S-wave (km/s) = 6.04982 -1.45227 4.15278
# Velocity P-wave (km/s) = 7.74715 5.21398 6.60318
#
# Compressibility (1/GPa) = 0.03549621
#
# Stress axis : x y z
#
# Youngs Moduli (GPa) = 25.31792 201.93706 148.62893
#
# Poissons Ratio (x) = 0.88768 0.27716
# Poissons Ratio (y) = 0.11129 0.23487
# Poissons Ratio (z) = 0.04721 0.31911
#
# Static dielectric constant tensor:
#      x y z
#    x 2.208680 0.000000 0.000000 
#    y 0.000000 2.074370 0.000000 
#    z 0.000000 0.000000 2.032140 
# 
# From -- ./inp_files/13765.got.cif
#   From: 2010.05.17/outbox.cif.g08.bks.cpg/sg39_7_cif.got.tgz:13765.got - 2010.06.03 18:22:40.
