data_PCOD9360177
_publ_section_title
;
Structure prediction by ZEFSAII (Michael W. Deem and Ramdas Pophale) SiO2 
 PCOD9360177
Probable space group: A B M 2
;
_chemical_formula_sum "Si O2"
_cell_formula_units_Z 64
_cell_length_a 21.626379
_cell_length_b 8.620412
_cell_length_c 17.267327
_cell_angle_alpha 90.000000
_cell_angle_beta 90.000000
_cell_angle_gamma 90.000000
_cell_volume 3219.118367
_symmetry_space_group_name_H-M "A B M 2"
_symmetry_group_IT_number 39
_symmetry_cell_setting 'orthorhombic'
loop_
_space_group_symop_operation_xyz
x,y,z
-x,-y,z
-x,1/2+y,z
x,1/2-y,z
x,1/2+y,1/2+z
-x,1/2-y,1/2+z
-x,y,1/2+z
x,-y,1/2+z
loop_
_atom_site_type_symbol
_atom_site_label
_atom_site_fract_x
_atom_site_fract_y
_atom_site_fract_z
Si Si1 0.568018 0.936958 0.022850
Si Si2 0.749832 0.575030 0.573885
Si Si3 0.319801 0.575769 0.925329
Si Si4 0.731900 0.923452 0.783108
Si Si5 0.068133 0.564358 0.439024
Si Si6 0.134021 0.566584 0.785020
Si Si7 0.353184 0.425583 0.162587
Si Si8 0.118894 0.562027 0.611173
O O1 0.571946 0.750000 0.013000
O O2 0.587434 0.970994 0.112286
O O3 0.500000 0.000000 0.006727
O O4 0.618504 0.024507 0.970234
O O5 0.733935 0.750000 0.602056
O O6 0.738101 0.583296 0.483370
O O7 0.702836 0.442757 0.601584
O O8 0.816699 0.525843 0.599290
O O9 0.328324 0.750000 0.892654
O O10 0.299213 0.449739 0.864964
O O11 0.754292 0.750000 0.772580
O O12 0.792571 0.030316 0.774621
O O13 0.674756 0.965549 0.727528
O O14 0.069230 0.750000 0.437098
O O15 0.110403 0.508164 0.366039
O O16 0.083952 0.521255 0.529753
O O17 0.000000 0.500000 0.423153
O O18 0.125606 0.750000 0.793466
O O19 0.101393 0.521830 0.701577
O O20 0.359744 0.250000 0.190286
O O21 0.125842 0.750000 0.610677
#
# Coordination Sequence:
#
# PCOD9360177 Si02
#       8
#     8   8   8   8   8   8   8   8
#     4  10  21  38  60  84 113 153 201 249 298 359
#     4  10  19  32  55  86 115 146 190 239 293 357
#     4  10  21  36  56  83 117 157 196 244 302 362
#     4  12  23  36  57  90 124 155 196 248 306 370
#     4  11  25  45  65  90 123 165 213 264 313 371
#     4  11  23  41  65  94 128 168 207 256 317 379
#     4  10  20  35  56  82 116 154 190 238 297 356
#     4  10  22  39  62  89 122 162 203 250 310 374
#
# _framework density 19.881219999999999
#
# number of rings (size 3 to 8) (size 9 to 14) (size 15 to 20)
#    0.000    1.500    1.250    4.125    0.000    7.000 
#    0.000    1.875    0.000    1.500    0.000    0.000 
#    0.000    0.000    0.000    0.000    0.000    0.000 
#
# Total GULP energy -178149.029544 kJ/mol
# GULP energy per Si atom -5567.157173 kJ/mol
# Density = 1.983597 g / cm^3
# Si number density = 19.881220 Si / 1000 Ang^3
#
#
#
# Elastic Constant Matrix: (Units=GPa)
#
#
# Indices 1 2 3 4 5 6 
#
# 1 48.5121 -2.1514 24.5695 0.0000 0.0000 0.0000
# 2 -2.1514 31.2594 17.9493 0.0000 0.0000 0.0000
# 3 24.5695 17.9493 113.2256 0.0000 0.0000 0.0000
# 4 0.0000 0.0000 0.0000 25.3800 0.0000 0.0000
# 5 0.0000 0.0000 0.0000 0.0000 9.8510 0.0000
# 6 0.0000 0.0000 0.0000 0.0000 0.0000 21.1671
#
#
#
# Elastic Compliance Matrix: (Units=1/GPa)
#
#
# Indices 1 2 3 4 5 6 
#
# 1 0.023870 0.005079 -0.005985 0.000000 0.000000 0.000000
# 2 0.005079 0.036275 -0.006853 0.000000 0.000000 0.000000
# 3 -0.005985 -0.006853 0.011217 0.000000 0.000000 0.000000
# 4 0.000000 0.000000 0.000000 0.039401 0.000000 0.000000
# 5 0.000000 0.000000 0.000000 0.000000 0.101512 0.000000
# 6 0.000000 0.000000 0.000000 0.000000 0.000000 0.047243
#
#
# Mechanical properties :
#
#
# Convention : Reuss Voigt Hill
#
# Bulk Modulus (GPa) = 17.90668 30.41466 24.16067
# Shear Modulus (GPa) = 17.02709 21.45494 19.24102
#
# Velocity S-wave (km/s) = 2.92968 3.28862 3.11432
# Velocity P-wave (km/s) = 4.52442 5.45448 5.01108
#
# Compressibility (1/GPa) = 0.05584507
#
# Stress axis : x y z
#
# Youngs Moduli (GPa) = 41.89400 27.56732 89.15075
#
# Poissons Ratio (x) = -0.14002 0.53355
# Poissons Ratio (y) = -0.21279 0.61093
# Poissons Ratio (z) = 0.25073 0.18891
#
# Static dielectric constant tensor:
#      x y z
#    x 1.679840 0.000000 0.000000 
#    y 0.000000 1.703880 0.000000 
#    z 0.000000 0.000000 1.841220 
# 
# From -- ./inp_files/13226.got.cif
#   From: 2010.05.17/outbox.cif.g08.bks.cpg/sg39_7_cif.got.tgz:13226.got - 2010.06.03 18:22:40.
