data_PCOD9360275
_publ_section_title
;
Structure prediction by ZEFSAII (Michael W. Deem and Ramdas Pophale) SiO2 
 PCOD9360275
Probable space group: A B M 2
;
_chemical_formula_sum "Si O2"
_cell_formula_units_Z 64
_cell_length_a 24.270285
_cell_length_b 9.112691
_cell_length_c 15.247017
_cell_angle_alpha 90.000000
_cell_angle_beta 90.000000
_cell_angle_gamma 90.000000
_cell_volume 3372.146274
_symmetry_space_group_name_H-M "A B M 2"
_symmetry_group_IT_number 39
_symmetry_cell_setting 'orthorhombic'
loop_
_space_group_symop_operation_xyz
x,y,z
-x,-y,z
-x,1/2+y,z
x,1/2-y,z
x,1/2+y,1/2+z
-x,1/2-y,1/2+z
-x,y,1/2+z
x,-y,1/2+z
loop_
_atom_site_type_symbol
_atom_site_label
_atom_site_fract_x
_atom_site_fract_y
_atom_site_fract_z
Si Si1 0.119432 0.575327 0.184290
Si Si2 0.440843 0.074010 0.583170
Si Si3 0.755942 0.419772 0.235711
Si Si4 0.142468 0.424405 0.490616
Si Si5 0.365266 0.575428 0.923367
Si Si6 0.942059 0.074275 0.838654
Si Si7 0.746682 0.918676 0.947017
Si Si8 0.642997 0.074347 0.718629
O O1 0.113109 0.750000 0.202169
O O2 0.183256 0.537126 0.204655
O O3 0.079372 0.484044 0.245587
O O4 0.111320 0.548413 0.081602
O O5 0.444233 0.250000 0.593384
O O6 0.416492 0.041774 0.486123
O O7 0.500000 0.000000 0.594367
O O8 0.398263 0.007202 0.653374
O O9 0.746255 0.250000 0.209010
O O10 0.755807 0.425225 0.341593
O O11 0.705595 0.519394 0.203778
O O12 0.152683 0.250000 0.484442
O O13 0.104562 0.469105 0.409268
O O14 0.201072 0.503518 0.489492
O O15 0.355872 0.750000 0.926039
O O16 0.311267 0.497500 0.961988
O O17 0.371175 0.535967 0.820621
O O18 0.947227 0.250000 0.839146
O O19 0.000000 0.000000 0.860065
O O20 0.743628 0.750000 0.974044
O O21 0.639322 0.250000 0.708456
#
# Coordination Sequence:
#
# PCOD9360275 Si02
#       8
#     8   8   8   8   8   8   8   8
#     4  10  21  39  61  87 120 157 198 242 295 353
#     4  11  24  42  62  85 117 157 201 245 296 354
#     4   9  18  34  57  86 121 158 193 238 296 352
#     4  10  22  38  59  88 120 157 196 239 295 354
#     4   9  21  40  60  84 118 159 197 240 295 353
#     4  11  24  42  63  86 117 157 201 247 296 349
#     4  10  19  33  58  90 121 154 195 244 294 347
#     4  10  21  38  60  88 120 155 198 245 293 350
#
# _framework density 18.979009999999999
#
# number of rings (size 3 to 8) (size 9 to 14) (size 15 to 20)
#    0.000    2.000    1.250    1.500    1.750    4.500 
#    0.000    2.500    0.000    0.000    0.000    0.000 
#    0.000    0.000    0.000    0.000    0.000    0.000 
#
# Total GULP energy -178763.839055 kJ/mol
# GULP energy per Si atom -5586.369970 kJ/mol
# Density = 1.893581 g / cm^3
# Si number density = 18.979010 Si / 1000 Ang^3
#
#
#
# Elastic Constant Matrix: (Units=GPa)
#
#
# Indices 1 2 3 4 5 6 
#
# 1 49.1735 19.3712 -0.3247 0.0000 0.0000 0.0000
# 2 19.3712 32.7239 15.2068 0.0000 0.0000 0.0000
# 3 -0.3247 15.2068 31.9422 0.0000 0.0000 0.0000
# 4 0.0000 0.0000 0.0000 24.2044 0.0000 0.0000
# 5 0.0000 0.0000 0.0000 0.0000 13.8144 0.0000
# 6 0.0000 0.0000 0.0000 0.0000 0.0000 37.7045
#
#
#
# Elastic Compliance Matrix: (Units=1/GPa)
#
#
# Indices 1 2 3 4 5 6 
#
# 1 0.029231 -0.022397 0.010960 0.000000 0.000000 0.000000
# 2 -0.022397 0.056400 -0.027078 0.000000 0.000000 0.000000
# 3 0.010960 -0.027078 0.044309 0.000000 0.000000 0.000000
# 4 0.000000 0.000000 0.000000 0.041315 0.000000 0.000000
# 5 0.000000 0.000000 0.000000 0.000000 0.072388 0.000000
# 6 0.000000 0.000000 0.000000 0.000000 0.000000 0.026522
#
#
# Mechanical properties :
#
#
# Convention : Reuss Voigt Hill
#
# Bulk Modulus (GPa) = 18.90003 20.26068 19.58035
# Shear Modulus (GPa) = 13.70492 20.45040 17.07766
#
# Velocity S-wave (km/s) = 2.69012 3.28613 3.00295
# Velocity P-wave (km/s) = 4.43047 5.00966 4.72894
#
# Compressibility (1/GPa) = 0.05290997
#
# Stress axis : x y z
#
# Youngs Moduli (GPa) = 34.20981 17.73054 22.56869
#
# Poissons Ratio (x) = 0.39711 -0.24734
# Poissons Ratio (y) = 0.76619 0.61112
# Poissons Ratio (z) = -0.37493 0.48011
#
# Static dielectric constant tensor:
#      x y z
#    x 1.616870 0.000000 0.000000 
#    y 0.000000 1.637020 0.000000 
#    z 0.000000 0.000000 1.677880 
# 
# From -- ./inp_files/10603.got.cif
#   From: 2010.05.17/outbox.cif.g08.bks.cpg/sg39_6_cif.got.tgz:10603.got - 2010.06.03 18:22:40.
