data_PCOD9360055
_publ_section_title
;
Structure prediction by ZEFSAII (Michael W. Deem and Ramdas Pophale) SiO2 
 PCOD9360055
Probable space group: A B M 2
;
_chemical_formula_sum "Si O2"
_cell_formula_units_Z 64
_cell_length_a 15.483469
_cell_length_b 8.854563
_cell_length_c 31.714116
_cell_angle_alpha 90.000000
_cell_angle_beta 90.000000
_cell_angle_gamma 90.000000
_cell_volume 4347.984744
_symmetry_space_group_name_H-M "A B M 2"
_symmetry_group_IT_number 39
_symmetry_cell_setting 'orthorhombic'
loop_
_space_group_symop_operation_xyz
x,y,z
-x,-y,z
-x,1/2+y,z
x,1/2-y,z
x,1/2+y,1/2+z
-x,1/2-y,1/2+z
-x,y,1/2+z
x,-y,1/2+z
loop_
_atom_site_type_symbol
_atom_site_label
_atom_site_fract_x
_atom_site_fract_y
_atom_site_fract_z
Si Si1 0.097048 0.932115 0.154370
Si Si2 0.411306 0.923400 0.401840
Si Si3 0.903894 0.068734 0.338412
Si Si4 0.095897 0.568781 0.245690
Si Si5 0.228626 0.569675 0.002629
Si Si6 0.903737 0.569384 0.067826
Si Si7 0.410818 0.923974 0.504348
Si Si8 0.770115 0.070170 0.903147
O O1 0.093944 0.750000 0.149907
O O2 0.136944 0.971536 0.200291
O O3 0.134148 0.005490 0.112056
O O4 0.000000 0.000000 0.155918
O O5 0.406343 0.750000 0.388099
O O6 0.413947 0.924248 0.453093
O O7 0.500000 0.000000 0.387182
O O8 0.324651 0.011717 0.390152
O O9 0.909488 0.250000 0.341006
O O10 0.867479 0.026969 0.291576
O O11 0.842434 0.006334 0.374600
O O12 0.000000 0.000000 0.342114
O O13 0.088239 0.750000 0.245278
O O14 0.000000 0.500000 0.245666
O O15 0.221544 0.750000 0.007793
O O16 0.156976 0.486119 0.030170
O O17 0.324300 0.514381 0.015644
O O18 0.217987 0.534022 0.952840
O O19 0.909716 0.750000 0.069394
O O20 0.000000 0.500000 0.062904
O O21 0.405107 0.750000 0.517982
O O22 0.500000 0.000000 0.518973
O O23 0.774274 0.250000 0.898788
#
# Coordination Sequence:
#
# PCOD9360055 Si02
#       8
#     8   8   8   8   8   8   8   8
#     4   9  15  26  43  62  83 106 135 172 215 258
#     4   9  16  27  44  64  85 109 138 175 218 260
#     4  10  19  31  45  62  86 116 149 182 216 254
#     4   8  15  26  42  62  82 106 136 172 214 258
#     4  10  20  33  46  61  84 115 150 185 218 253
#     4  11  21  32  45  62  85 114 148 182 217 257
#     4   9  16  27  44  65  86 109 138 174 217 260
#     4  10  20  32  45  62  85 115 150 184 217 254
#
# _framework density 14.719462999999999
#
# number of rings (size 3 to 8) (size 9 to 14) (size 15 to 20)
#    0.000    2.500    0.000    4.125    0.000    6.000 
#    0.000    0.000    0.000    0.000    0.000    0.000 
#    0.000    1.000    0.000    8.000    0.000    5.500 
#
# Total GULP energy -178167.369244 kJ/mol
# GULP energy per Si atom -5567.730289 kJ/mol
# Density = 1.468596 g / cm^3
# Si number density = 14.719463 Si / 1000 Ang^3
#
#
#
# Elastic Constant Matrix: (Units=GPa)
#
#
# Indices 1 2 3 4 5 6 
#
# 1 80.5459 42.0506 53.2743 0.0000 0.0000 0.0000
# 2 42.0506 85.0901 51.8294 0.0000 0.0000 0.0000
# 3 53.2743 51.8294 85.2417 0.0000 0.0000 0.0000
# 4 0.0000 0.0000 0.0000 -0.1855 0.0000 0.0000
# 5 0.0000 0.0000 0.0000 0.0000 -1.1698 0.0000
# 6 0.0000 0.0000 0.0000 0.0000 0.0000 25.9386
#
#
#
# Elastic Compliance Matrix: (Units=1/GPa)
#
#
# Indices 1 2 3 4 5 6 
#
# 1 0.021973 -0.003961 -0.011324 0.000000 0.000000 0.000000
# 2 -0.003961 0.019379 -0.009307 0.000000 0.000000 0.000000
# 3 -0.011324 -0.009307 0.024468 0.000000 0.000000 0.000000
# 4 0.000000 0.000000 0.000000 -5.390371 0.000000 0.000000
# 5 0.000000 0.000000 0.000000 0.000000 -0.854840 0.000000
# 6 0.000000 0.000000 0.000000 0.000000 0.000000 0.038553
#
#
# Mechanical properties :
#
#
# Convention : Reuss Voigt Hill
#
# Bulk Modulus (GPa) = 60.11581 60.57627 60.34604
# Shear Modulus (GPa) = -0.82154 11.83155 5.50500
#
# Velocity S-wave (km/s) = -0.74789 2.83822 1.93599
# Velocity P-wave (km/s) = 6.33908 7.20998 6.78851
#
# Compressibility (1/GPa) = 0.01663456
#
# Stress axis : x y z
#
# Youngs Moduli (GPa) = 45.50949 51.60213 40.86970
#
# Poissons Ratio (x) = 0.20441 0.46283
# Poissons Ratio (y) = 0.18027 0.38039
# Poissons Ratio (z) = 0.51537 0.48028
#
# Static dielectric constant tensor:
#      x y z
#    x 1.457850 0.000000 0.000000 
#    y 0.000000 1.493590 0.000000 
#    z 0.000000 0.000000 1.517980 
# 
# From -- ./inp_files/17952.got.cif
#   From: 2010.05.17/outbox.cif.g08.bks.cpg/sg39_9_cif.got.tgz:17952.got - 2010.06.03 18:22:40.
