data_PCOD9360103
_publ_section_title
;
Structure prediction by ZEFSAII (Michael W. Deem and Ramdas Pophale) SiO2 
 PCOD9360103
Probable space group: A B M 2
;
_chemical_formula_sum "Si O2"
_cell_formula_units_Z 64
_cell_length_a 24.702934
_cell_length_b 7.877742
_cell_length_c 15.519554
_cell_angle_alpha 90.000000
_cell_angle_beta 90.000000
_cell_angle_gamma 90.000000
_cell_volume 3020.157054
_symmetry_space_group_name_H-M "A B M 2"
_symmetry_group_IT_number 39
_symmetry_cell_setting 'orthorhombic'
loop_
_space_group_symop_operation_xyz
x,y,z
-x,-y,z
-x,1/2+y,z
x,1/2-y,z
x,1/2+y,1/2+z
-x,1/2-y,1/2+z
-x,y,1/2+z
x,-y,1/2+z
loop_
_atom_site_type_symbol
_atom_site_label
_atom_site_fract_x
_atom_site_fract_y
_atom_site_fract_z
Si Si1 0.243063 0.554520 0.015950
Si Si2 0.128299 0.953637 0.977055
Si Si3 0.623751 0.046514 0.247351
Si Si4 0.855663 0.955781 0.280770
Si Si5 0.561283 0.450454 0.912707
Si Si6 0.261078 0.547641 0.322082
Si Si7 0.938559 0.548307 0.135427
Si Si8 0.640585 0.540919 0.560198
O O1 0.239717 0.750000 0.045596
O O2 0.297179 0.480210 0.057323
O O3 0.183263 0.476642 0.022501
O O4 0.254256 0.546501 0.913201
O O5 0.134266 0.750000 0.972307
O O6 0.126623 0.012736 0.877656
O O7 0.079043 0.991889 0.039907
O O8 0.625892 0.250000 0.245253
O O9 0.683370 0.989546 0.278329
O O10 0.614199 0.988779 0.150145
O O11 0.579383 0.997171 0.316817
O O12 0.856087 0.750000 0.280267
O O13 0.896361 0.018973 0.207137
O O14 0.793624 0.013554 0.268830
O O15 0.500000 0.500000 0.931809
O O16 0.564514 0.250000 0.920379
O O17 0.605464 0.521779 0.979789
O O18 0.264536 0.750000 0.338357
O O19 0.934648 0.750000 0.137501
O O20 0.000000 0.500000 0.155029
O O21 0.642725 0.750000 0.556424
#
# Coordination Sequence:
#
# PCOD9360103 Si02
#       8
#     8   8   8   8   8   8   8   8
#     4   9  17  34  59  83 117 156 191 228 284 351
#     4   9  19  36  60  86 115 152 191 234 285 343
#     4  10  21  37  58  88 120 151 192 237 285 343
#     4   9  21  40  59  82 116 156 193 234 287 348
#     4  11  23  41  63  83 113 155 197 241 288 340
#     4  10  19  31  56  89 121 150 187 239 287 337
#     4  11  24  41  60  84 116 153 197 243 287 343
#     4   9  19  36  59  85 115 154 192 232 285 342
#
# _framework density 21.190951999999999
#
# number of rings (size 3 to 8) (size 9 to 14) (size 15 to 20)
#    0.000    2.250    1.250    1.875    1.750    4.500 
#    0.000    4.375    0.000    0.000    0.000    0.000 
#    0.000    0.000    0.000    0.000    0.000    0.000 
#
# Total GULP energy -178632.021431 kJ/mol
# GULP energy per Si atom -5582.250670 kJ/mol
# Density = 2.114272 g / cm^3
# Si number density = 21.190952 Si / 1000 Ang^3
#
#
#
# Elastic Constant Matrix: (Units=GPa)
#
#
# Indices 1 2 3 4 5 6 
#
# 1 60.1375 -3.4268 5.6001 0.0000 0.0000 0.0000
# 2 -3.4268 20.4283 1.4596 0.0000 0.0000 0.0000
# 3 5.6001 1.4596 44.4267 0.0000 0.0000 0.0000
# 4 0.0000 0.0000 0.0000 14.0436 0.0000 0.0000
# 5 0.0000 0.0000 0.0000 0.0000 24.8382 0.0000
# 6 0.0000 0.0000 0.0000 0.0000 0.0000 22.8824
#
#
#
# Elastic Compliance Matrix: (Units=1/GPa)
#
#
# Indices 1 2 3 4 5 6 
#
# 1 0.017009 0.003014 -0.002243 0.000000 0.000000 0.000000
# 2 0.003014 0.049601 -0.002009 0.000000 0.000000 0.000000
# 3 -0.002243 -0.002009 0.022858 0.000000 0.000000 0.000000
# 4 0.000000 0.000000 0.000000 0.071207 0.000000 0.000000
# 5 0.000000 0.000000 0.000000 0.000000 0.040261 0.000000
# 6 0.000000 0.000000 0.000000 0.000000 0.000000 0.043702
#
#
# Mechanical properties :
#
#
# Convention : Reuss Voigt Hill
#
# Bulk Modulus (GPa) = 11.49562 14.69537 13.09549
# Shear Modulus (GPa) = 18.10862 20.44347 19.27604
#
# Velocity S-wave (km/s) = 2.92643 3.10937 3.01929
# Velocity P-wave (km/s) = 4.10551 4.45429 4.28345
#
# Compressibility (1/GPa) = 0.08698967
#
# Stress axis : x y z
#
# Youngs Moduli (GPa) = 58.79181 20.16097 43.74881
#
# Poissons Ratio (x) = -0.06076 0.09813
# Poissons Ratio (y) = -0.17717 0.08791
# Poissons Ratio (z) = 0.13187 0.04051
#
# Static dielectric constant tensor:
#      x y z
#    x 1.861460 0.000000 0.000000 
#    y 0.000000 1.780510 0.000000 
#    z 0.000000 0.000000 1.776880 
# 
# From -- ./inp_files/10617.got.cif
#   From: 2010.05.17/outbox.cif.g08.bks.cpg/sg39_6_cif.got.tgz:10617.got - 2010.06.03 18:22:40.
