data_PCOD9360728
_publ_section_title
;
Structure prediction by ZEFSAII (Michael W. Deem and Ramdas Pophale) SiO2 
 PCOD9360728
Probable space group: A B M 2
;
_chemical_formula_sum "Si O2"
_cell_formula_units_Z 64
_cell_length_a 9.038964
_cell_length_b 14.423743
_cell_length_c 23.670726
_cell_angle_alpha 90.000000
_cell_angle_beta 90.000000
_cell_angle_gamma 90.000000
_cell_volume 3086.087323
_symmetry_space_group_name_H-M "A B M 2"
_symmetry_group_IT_number 39
_symmetry_cell_setting 'orthorhombic'
loop_
_space_group_symop_operation_xyz
x,y,z
-x,-y,z
-x,1/2+y,z
x,1/2-y,z
x,1/2+y,1/2+z
-x,1/2-y,1/2+z
-x,y,1/2+z
x,-y,1/2+z
loop_
_atom_site_type_symbol
_atom_site_label
_atom_site_fract_x
_atom_site_fract_y
_atom_site_fract_z
Si Si1 0.090947 0.139266 0.870680
Si Si2 0.823979 0.353755 0.577949
Si Si3 0.343443 0.451612 0.161462
Si Si4 0.598602 0.862506 0.275249
Si Si5 0.746907 0.639383 0.395169
Si Si6 0.824243 0.480322 0.471773
Si Si7 0.740790 0.855977 0.764464
Si Si8 0.089927 0.583700 0.159033
O O1 0.103883 0.250000 0.874659
O O2 0.181346 0.091886 0.920433
O O3 0.158234 0.101344 0.812784
O O4 0.916413 0.121266 0.875797
O O5 0.836268 0.250000 0.554920
O O6 0.692318 0.362784 0.623495
O O7 0.787200 0.426109 0.528663
O O8 0.978152 0.374372 0.612814
O O9 0.500000 0.500000 0.156710
O O10 0.314815 0.418294 0.226073
O O11 0.229510 0.527021 0.135978
O O12 0.617213 0.750000 0.267102
O O13 0.646573 0.881590 0.339933
O O14 0.427448 0.890574 0.263614
O O15 0.730833 0.750000 0.408087
O O16 0.736288 0.571447 0.449747
O O17 0.000000 0.500000 0.478589
O O18 0.718266 0.750000 0.781290
O O19 0.833357 0.855869 0.706787
O O20 0.000000 0.500000 0.188181
#
# Coordination Sequence:
#
# PCOD9360728 Si02
#       8
#     8   8   8   8   8   8   8   8
#     4   9  19  33  54  84 119 158 206 262 318 379
#     4  11  24  43  66  92 125 170 224 277 327 389
#     4  11  22  39  60  89 130 170 219 265 330 394
#     4  10  21  37  58  88 130 171 206 254 323 395
#     4   9  20  36  59  92 125 160 206 262 324 389
#     4  10  20  38  63  87 120 161 218 268 330 383
#     4  10  20  35  55  86 126 165 206 256 319 386
#     4  10  22  36  58  89 125 164 215 268 327 384
#
# _framework density 20.738233999999999
#
# number of rings (size 3 to 8) (size 9 to 14) (size 15 to 20)
#    0.000    2.000    1.250    2.250    5.250    1.000 
#    0.000    1.250    0.000    3.000    0.000    0.000 
#    0.000    0.000    0.000    0.000    0.000    0.000 
#
# Total GULP energy -178159.648857 kJ/mol
# GULP energy per Si atom -5567.489027 kJ/mol
# Density = 2.069103 g / cm^3
# Si number density = 20.738234 Si / 1000 Ang^3
#
#
#
# Elastic Constant Matrix: (Units=GPa)
#
#
# Indices 1 2 3 4 5 6 
#
# 1 61.3955 34.9698 26.6342 0.0000 0.0000 0.0000
# 2 34.9698 83.1537 52.0840 0.0000 0.0000 0.0000
# 3 26.6342 52.0840 125.7014 0.0000 0.0000 0.0000
# 4 0.0000 0.0000 0.0000 36.4108 0.0000 0.0000
# 5 0.0000 0.0000 0.0000 0.0000 4.7190 0.0000
# 6 0.0000 0.0000 0.0000 0.0000 0.0000 21.1479
#
#
#
# Elastic Compliance Matrix: (Units=1/GPa)
#
#
# Indices 1 2 3 4 5 6 
#
# 1 0.021529 -0.008369 -0.001094 0.000000 0.000000 0.000000
# 2 -0.008369 0.019494 -0.006304 0.000000 0.000000 0.000000
# 3 -0.001094 -0.006304 0.010799 0.000000 0.000000 0.000000
# 4 0.000000 0.000000 0.000000 0.027464 0.000000 0.000000
# 5 0.000000 0.000000 0.000000 0.000000 0.211911 0.000000
# 6 0.000000 0.000000 0.000000 0.000000 0.000000 0.047286
#
#
# Mechanical properties :
#
#
# Convention : Reuss Voigt Hill
#
# Bulk Modulus (GPa) = 49.28875 55.29183 52.29029
# Shear Modulus (GPa) = 13.27036 22.89306 18.08171
#
# Velocity S-wave (km/s) = 2.53237 3.32611 2.95600
# Velocity P-wave (km/s) = 5.68939 6.43975 6.07616
#
# Compressibility (1/GPa) = 0.02028860
#
# Stress axis : x y z
#
# Youngs Moduli (GPa) = 46.44873 51.29821 92.59893
#
# Poissons Ratio (x) = 0.42929 0.10132
# Poissons Ratio (y) = 0.38871 0.58375
# Poissons Ratio (z) = 0.05082 0.32339
#
# Static dielectric constant tensor:
#      x y z
#    x 1.782910 0.000000 0.000000 
#    y 0.000000 1.917950 0.000000 
#    z 0.000000 0.000000 1.772950 
# 
# From -- ./inp_files/15723.got.cif
#   From: 2010.05.17/outbox.cif.g08.bks.cpg/sg39_8_cif.got.tgz:15723.got - 2010.06.03 18:22:40.
