data_PCOD9360761
_publ_section_title
;
Structure prediction by ZEFSAII (Michael W. Deem and Ramdas Pophale) SiO2 
 PCOD9360761
Probable space group: A B M 2
;
_chemical_formula_sum "Si O2"
_cell_formula_units_Z 64
_cell_length_a 9.219850
_cell_length_b 17.379159
_cell_length_c 21.397540
_cell_angle_alpha 90.000000
_cell_angle_beta 90.000000
_cell_angle_gamma 90.000000
_cell_volume 3428.597143
_symmetry_space_group_name_H-M "A B M 2"
_symmetry_group_IT_number 39
_symmetry_cell_setting 'orthorhombic'
loop_
_space_group_symop_operation_xyz
x,y,z
-x,-y,z
-x,1/2+y,z
x,1/2-y,z
x,1/2+y,1/2+z
-x,1/2-y,1/2+z
-x,y,1/2+z
x,-y,1/2+z
loop_
_atom_site_type_symbol
_atom_site_label
_atom_site_fract_x
_atom_site_fract_y
_atom_site_fract_z
Si Si1 0.098513 0.921152 0.727050
Si Si2 0.680971 0.916686 0.111340
Si Si3 0.825630 0.597862 0.482009
Si Si4 0.355509 0.900455 0.102604
Si Si5 0.805433 0.159633 0.223614
Si Si6 0.151868 0.161433 0.348714
Si Si7 0.199749 0.838196 0.359325
Si Si8 0.835486 0.587857 0.986265
O O1 0.215222 0.915831 0.671751
O O2 0.174922 0.899237 0.792593
O O3 0.976155 0.856402 0.717505
O O4 0.000000 0.000000 0.728210
O O5 0.522827 0.878390 0.113294
O O6 0.654115 0.007262 0.099908
O O7 0.760842 0.886352 0.049904
O O8 0.724725 0.626265 0.539011
O O9 0.784738 0.632774 0.414700
O O10 0.824587 0.504737 0.480954
O O11 0.996898 0.614342 0.491340
O O12 0.270008 0.875857 0.164058
O O13 0.779032 0.250000 0.225093
O O14 0.756090 0.127970 0.291767
O O15 0.195024 0.250000 0.334663
O O16 0.976434 0.161663 0.356707
O O17 0.248554 0.750000 0.362995
O O18 0.236378 0.880564 0.423091
#
# Coordination Sequence:
#
# PCOD9360761 Si02
#       8
#     8   8   8   8   8   8   8   8
#     4  11  20  33  60  86 111 146 189 240 287 339
#     4  10  21  35  54  81 113 143 189 243 278 328
#     4   9  18  30  55  78 106 143 182 221 278 338
#     4  10  20  37  53  78 113 151 188 231 284 337
#     4  10  20  35  57  83 114 148 186 231 284 346
#     4   9  19  33  51  82 115 139 177 236 286 333
#     4   8  16  31  51  78 107 136 174 228 281 325
#     4   9  17  30  52  80 106 134 182 230 272 332
#
# _framework density 18.666526999999999
#
# number of rings (size 3 to 8) (size 9 to 14) (size 15 to 20)
#    0.000    2.500    1.250    1.875    7.000    0.500 
#    0.000    6.875    0.000    4.500    0.000    0.000 
#    0.000    0.000    0.000    0.000    0.000    0.000 
#
# Total GULP energy -178154.818353 kJ/mol
# GULP energy per Si atom -5567.338074 kJ/mol
# Density = 1.862404 g / cm^3
# Si number density = 18.666527 Si / 1000 Ang^3
#
#
#
# Elastic Constant Matrix: (Units=GPa)
#
#
# Indices 1 2 3 4 5 6 
#
# 1 62.3116 11.3686 73.1219 0.0000 0.0000 0.0000
# 2 11.3686 12.4835 32.7198 0.0000 0.0000 0.0000
# 3 73.1219 32.7198 204.4514 0.0000 0.0000 0.0000
# 4 0.0000 0.0000 0.0000 -40.5653 0.0000 0.0000
# 5 0.0000 0.0000 0.0000 0.0000 -4.7122 0.0000
# 6 0.0000 0.0000 0.0000 0.0000 0.0000 8.3233
#
#
#
# Elastic Compliance Matrix: (Units=1/GPa)
#
#
# Indices 1 2 3 4 5 6 
#
# 1 0.027667 0.001274 -0.010099 0.000000 0.000000 0.000000
# 2 0.001274 0.138045 -0.022548 0.000000 0.000000 0.000000
# 3 -0.010099 -0.022548 0.012111 0.000000 0.000000 0.000000
# 4 0.000000 0.000000 0.000000 -0.024652 0.000000 0.000000
# 5 0.000000 0.000000 0.000000 0.000000 -0.212215 0.000000
# 6 0.000000 0.000000 0.000000 0.000000 0.000000 0.120145
#
#
# Mechanical properties :
#
#
# Convention : Reuss Voigt Hill
#
# Bulk Modulus (GPa) = 8.68981 57.07414 32.88198
# Shear Modulus (GPa) = 30.82476 3.41156 17.11816
#
# Velocity S-wave (km/s) = 4.06808 1.35337 3.03157
# Velocity P-wave (km/s) = 5.17021 5.75188 5.46879
#
# Compressibility (1/GPa) = 0.11507725
#
# Stress axis : x y z
#
# Youngs Moduli (GPa) = 36.14418 7.24400 82.56624
#
# Poissons Ratio (x) = -0.00923 0.83383
# Poissons Ratio (y) = -0.04603 1.86169
# Poissons Ratio (z) = 0.36502 0.16334
#
# Static dielectric constant tensor:
#      x y z
#    x 1.650420 0.000000 0.000000 
#    y 0.000000 1.659010 0.000000 
#    z 0.000000 0.000000 1.678410 
# 
# From -- ./inp_files/14211.got.cif
#   From: 2010.05.17/outbox.cif.g08.bks.cpg/sg39_8_cif.got.tgz:14211.got - 2010.06.03 18:22:40.
