data_PCOD9360155
_publ_section_title
;
Structure prediction by ZEFSAII (Michael W. Deem and Ramdas Pophale) SiO2 
 PCOD9360155
Probable space group: A B M 2
;
_chemical_formula_sum "Si O2"
_cell_formula_units_Z 56
_cell_length_a 15.536086
_cell_length_b 8.984726
_cell_length_c 20.538403
_cell_angle_alpha 90.000000
_cell_angle_beta 90.000000
_cell_angle_gamma 90.000000
_cell_volume 2866.903832
_symmetry_space_group_name_H-M "A B M 2"
_symmetry_group_IT_number 39
_symmetry_cell_setting 'orthorhombic'
loop_
_space_group_symop_operation_xyz
x,y,z
-x,-y,z
-x,1/2+y,z
x,1/2-y,z
x,1/2+y,1/2+z
-x,1/2-y,1/2+z
-x,y,1/2+z
x,-y,1/2+z
loop_
_atom_site_type_symbol
_atom_site_label
_atom_site_fract_x
_atom_site_fract_y
_atom_site_fract_z
Si Si1 0.911134 0.427614 0.993990
Si Si2 0.370658 0.076538 0.913161
Si Si3 0.171265 0.077344 0.872531
Si Si4 0.416388 0.926743 0.777635
Si Si5 0.225979 0.571585 0.105359
Si Si6 0.588217 0.428563 0.050951
Si Si7 0.221650 0.926890 0.739341
O O1 0.918580 0.250000 0.991323
O O2 0.888448 0.490864 0.922942
O O3 0.000000 0.500000 0.016679
O O4 0.834154 0.465365 0.043879
O O5 0.396766 0.250000 0.916603
O O6 0.267676 0.070724 0.902812
O O7 0.407968 0.998055 0.849305
O O8 0.397699 0.990917 0.977965
O O9 0.146289 0.250000 0.867633
O O10 0.177612 0.004026 0.801415
O O11 0.427529 0.750000 0.781866
O O12 0.324473 0.958058 0.744839
O O13 0.500000 0.000000 0.745399
O O14 0.223385 0.750000 0.114512
O O15 0.324856 0.530137 0.089533
O O16 0.193731 0.491842 0.170311
O O17 0.500000 0.500000 0.076503
O O18 0.581254 0.250000 0.049758
O O19 0.209628 0.750000 0.743090
#
# Coordination Sequence:
#
# PCOD9360155 Si02
#       7
#     8   8   8   8   8   8   8
#     4  11  23  42  68  98 127 158 199 248 307 367
#     4  10  19  32  53  81 113 152 197 250 304 355
#     4  10  20  37  63  92 121 155 198 248 302 362
#     4  10  20  33  50  76 111 153 201 253 304 357
#     4  10  23  42  62  86 124 166 204 252 306 365
#     4  11  22  36  54  81 118 162 207 255 305 358
#     4  10  22  38  60  86 118 160 204 252 306 364
#
# _framework density 19.533266999999999
#
# number of rings (size 3 to 8) (size 9 to 14) (size 15 to 20)
#    0.000    1.714    1.429    3.000    0.000    5.714 
#    0.000    3.571    0.000    1.714    0.000    0.000 
#    0.000    0.000    0.000    0.000    0.000    0.000 
#
# Total GULP energy -156486.905314 kJ/mol
# GULP energy per Si atom -5588.818047 kJ/mol
# Density = 1.948881 g / cm^3
# Si number density = 19.533267 Si / 1000 Ang^3
#
#
#
# Elastic Constant Matrix: (Units=GPa)
#
#
# Indices 1 2 3 4 5 6 
#
# 1 71.4626 38.6998 32.0609 0.0000 0.0000 0.0000
# 2 38.6998 70.3677 53.4274 0.0000 0.0000 0.0000
# 3 32.0609 53.4274 121.5697 0.0000 0.0000 0.0000
# 4 0.0000 0.0000 0.0000 27.0147 0.0000 0.0000
# 5 0.0000 0.0000 0.0000 0.0000 -1.8030 0.0000
# 6 0.0000 0.0000 0.0000 0.0000 0.0000 30.4105
#
#
#
# Elastic Compliance Matrix: (Units=1/GPa)
#
#
# Indices 1 2 3 4 5 6 
#
# 1 0.019964 -0.010478 -0.000660 0.000000 0.000000 0.000000
# 2 -0.010478 0.026827 -0.009027 0.000000 0.000000 0.000000
# 3 -0.000660 -0.009027 0.012367 0.000000 0.000000 0.000000
# 4 0.000000 0.000000 0.000000 0.037017 0.000000 0.000000
# 5 0.000000 0.000000 0.000000 0.000000 -0.554628 0.000000
# 6 0.000000 0.000000 0.000000 0.000000 0.000000 0.032883
#
#
# Mechanical properties :
#
#
# Convention : Reuss Voigt Hill
#
# Bulk Modulus (GPa) = 53.11210 56.86401 54.98806
# Shear Modulus (GPa) = -13.19390 20.40522 3.60566
#
# Velocity S-wave (km/s) = -2.60178 3.23559 1.36012
# Velocity P-wave (km/s) = 4.26895 6.56760 5.53883
#
# Compressibility (1/GPa) = 0.01882810
#
# Stress axis : x y z
#
# Youngs Moduli (GPa) = 50.09047 37.27527 80.86151
#
# Poissons Ratio (x) = 0.39059 0.05336
# Poissons Ratio (y) = 0.52487 0.72991
# Poissons Ratio (z) = 0.03306 0.33647
#
# Static dielectric constant tensor:
#      x y z
#    x 1.709050 0.000000 0.000000 
#    y 0.000000 1.648430 0.000000 
#    z 0.000000 0.000000 1.650070 
# 
# From -- ./inp_files/14765.got.cif
#   From: 2010.05.17/outbox.cif.g08.bks.cpg/sg39_8_cif.got.tgz:14765.got - 2010.06.03 18:22:40.
