data_PCOD9360715
_publ_section_title
;
Structure prediction by ZEFSAII (Michael W. Deem and Ramdas Pophale) SiO2 
 PCOD9360715
Probable space group: A B M 2
;
_chemical_formula_sum "Si O2"
_cell_formula_units_Z 64
_cell_length_a 21.269821
_cell_length_b 7.777263
_cell_length_c 19.000158
_cell_angle_alpha 90.000000
_cell_angle_beta 90.000000
_cell_angle_gamma 90.000000
_cell_volume 3143.024982
_symmetry_space_group_name_H-M "A B M 2"
_symmetry_group_IT_number 39
_symmetry_cell_setting 'orthorhombic'
loop_
_space_group_symop_operation_xyz
x,y,z
-x,-y,z
-x,1/2+y,z
x,1/2-y,z
x,1/2+y,1/2+z
-x,1/2-y,1/2+z
-x,y,1/2+z
x,-y,1/2+z
loop_
_atom_site_type_symbol
_atom_site_label
_atom_site_fract_x
_atom_site_fract_y
_atom_site_fract_z
Si Si1 0.192005 0.454001 0.769700
Si Si2 0.429642 0.456874 0.611458
Si Si3 0.070494 0.456587 0.518379
Si Si4 0.570441 0.956759 0.772650
Si Si5 0.070682 0.045032 0.357712
Si Si6 0.690093 0.957556 0.860078
Si Si7 0.689179 0.043335 0.023914
Si Si8 0.188243 0.961335 0.109610
O O1 0.202910 0.250000 0.763556
O O2 0.125579 0.479327 0.807822
O O3 0.248792 0.522954 0.817815
O O4 0.191455 0.521587 0.690106
O O5 0.500000 0.500000 0.587249
O O6 0.425086 0.250000 0.613998
O O7 0.422375 0.520561 0.692053
O O8 0.374357 0.521821 0.561215
O O9 0.075186 0.250000 0.515384
O O10 0.078377 0.521753 0.438052
O O11 0.125164 0.518716 0.569743
O O12 0.000000 0.500000 0.541943
O O13 0.574970 0.750000 0.770189
O O14 0.626313 0.020304 0.822395
O O15 0.500000 0.000000 0.796901
O O16 0.075895 0.250000 0.359830
O O17 0.000000 0.000000 0.334425
O O18 0.690085 0.750000 0.855776
O O19 0.692404 0.002102 0.941872
O O20 0.688756 0.250000 0.030126
O O21 0.750726 0.982928 0.065820
O O22 0.187564 0.750000 0.110058
#
# Coordination Sequence:
#
# PCOD9360715 Si02
#       8
#     8   8   8   8   8   8   8   8
#     4  10  20  35  55  77 103 136 172 212 259 308
#     4   9  18  33  54  77 101 133 171 211 256 306
#     4   9  18  33  53  75 100 131 165 203 246 293
#     4   9  18  34  54  76 103 136 174 214 258 309
#     4  10  20  35  55  79 107 138 172 210 253 303
#     4  10  21  35  52  76 106 137 170 213 262 309
#     4  10  20  35  55  76 100 134 175 214 254 306
#     4   9  18  34  55  76  99 131 171 211 251 298
#
# _framework density 20.362549000000001
#
# number of rings (size 3 to 8) (size 9 to 14) (size 15 to 20)
#    0.000    2.500    0.000    1.875    0.000    7.000 
#    0.000    5.625    0.000    3.000    0.000    0.000 
#    0.000    0.000    0.000    0.000    0.000    0.000 
#
# Total GULP energy -178666.261276 kJ/mol
# GULP energy per Si atom -5583.320665 kJ/mol
# Density = 2.031620 g / cm^3
# Si number density = 20.362549 Si / 1000 Ang^3
#
#
#
# Elastic Constant Matrix: (Units=GPa)
#
#
# Indices 1 2 3 4 5 6 
#
# 1 218.7470 -0.7446 147.2031 0.0000 0.0000 0.0000
# 2 -0.7446 24.2174 2.4380 0.0000 0.0000 0.0000
# 3 147.2031 2.4380 164.9304 0.0000 0.0000 0.0000
# 4 0.0000 0.0000 0.0000 19.2944 0.0000 0.0000
# 5 0.0000 0.0000 0.0000 0.0000 43.2185 0.0000
# 6 0.0000 0.0000 0.0000 0.0000 0.0000 22.7847
#
#
#
# Elastic Compliance Matrix: (Units=1/GPa)
#
#
# Indices 1 2 3 4 5 6 
#
# 1 0.011493 0.001388 -0.010278 0.000000 0.000000 0.000000
# 2 0.001388 0.041522 -0.001853 0.000000 0.000000 0.000000
# 3 -0.010278 -0.001853 0.015264 0.000000 0.000000 0.000000
# 4 0.000000 0.000000 0.000000 0.051829 0.000000 0.000000
# 5 0.000000 0.000000 0.000000 0.000000 0.023138 0.000000
# 6 0.000000 0.000000 0.000000 0.000000 0.000000 0.043889
#
#
# Mechanical properties :
#
#
# Convention : Reuss Voigt Hill
#
# Bulk Modulus (GPa) = 21.37057 78.40975 49.89016
# Shear Modulus (GPa) = 22.29987 34.32607 28.31297
#
# Velocity S-wave (km/s) = 3.31288 4.11024 3.73291
# Velocity P-wave (km/s) = 5.01512 7.81766 6.56762
#
# Compressibility (1/GPa) = 0.04679332
#
# Stress axis : x y z
#
# Youngs Moduli (GPa) = 87.01301 24.08368 65.51510
#
# Poissons Ratio (x) = -0.03343 0.67335
# Poissons Ratio (y) = -0.12078 0.12137
# Poissons Ratio (z) = 0.89430 0.04462
#
# Static dielectric constant tensor:
#      x y z
#    x 1.706700 0.000000 0.000000 
#    y 0.000000 1.759730 0.000000 
#    z 0.000000 0.000000 1.699710 
# 
# From -- ./inp_files/13100.got.cif
#   From: 2010.05.17/outbox.cif.g08.bks.cpg/sg39_7_cif.got.tgz:13100.got - 2010.06.03 18:22:40.
