data_PCOD9360689
_publ_section_title
;
Structure prediction by ZEFSAII (Michael W. Deem and Ramdas Pophale) SiO2 
 PCOD9360689
Probable space group: A B M 2
;
_chemical_formula_sum "Si O2"
_cell_formula_units_Z 40
_cell_length_a 15.656181
_cell_length_b 24.142190
_cell_length_c 4.935120
_cell_angle_alpha 90.000000
_cell_angle_beta 90.000000
_cell_angle_gamma 90.000000
_cell_volume 1865.349497
_symmetry_space_group_name_H-M "A B M 2"
_symmetry_group_IT_number 39
_symmetry_cell_setting 'orthorhombic'
loop_
_space_group_symop_operation_xyz
x,y,z
-x,-y,z
-x,1/2+y,z
x,1/2-y,z
x,1/2+y,1/2+z
-x,1/2-y,1/2+z
-x,y,1/2+z
x,-y,1/2+z
loop_
_atom_site_type_symbol
_atom_site_label
_atom_site_fract_x
_atom_site_fract_y
_atom_site_fract_z
Si Si1 0.264159 0.032813 0.056100
Si Si2 0.556164 0.582826 0.946146
Si Si3 0.334022 0.313464 0.841474
Si Si4 0.948568 0.183288 0.079370
Si Si5 0.770450 0.851578 0.325006
O O1 0.228161 0.087657 0.193901
O O2 0.240417 0.981819 0.250039
O O3 0.365536 0.044669 0.037512
O O4 0.522834 0.573855 0.644672
O O5 0.592580 0.645827 0.954652
O O6 0.359616 0.250000 0.791042
O O7 0.297860 0.341549 0.566976
O O8 0.259975 0.314456 0.070686
O O9 0.943370 0.250000 0.075499
O O10 0.860507 0.162177 0.958684
O O11 0.026034 0.166202 0.880833
#
# Coordination Sequence:
#
# PCOD9360689 Si02
#       5
#     8   8   8   8   8
#     4  11  23  40  61  83 109 151 200 247 298 341
#     4  11  23  38  56  84 115 145 191 244 294 348
#     4  11  22  37  59  85 118 161 197 233 291 361
#     4  10  20  34  57  89 121 153 188 233 293 352
#     4  11  22  39  60  86 120 155 200 246 288 355
#
# _framework density 21.443705000000001
#
# number of rings (size 3 to 8) (size 9 to 14) (size 15 to 20)
#    0.000    1.200    0.000    9.000    0.000    4.800 
#    0.000    0.000    0.000    3.600    0.000    0.000 
#    0.000    0.000    0.000    0.000    0.000    0.000 
#
# Total GULP energy -111791.672194 kJ/mol
# GULP energy per Si atom -5589.583610 kJ/mol
# Density = 2.139490 g / cm^3
# Si number density = 21.443705 Si / 1000 Ang^3
#
#
#
# Elastic Constant Matrix: (Units=GPa)
#
#
# Indices 1 2 3 4 5 6 
#
# 1 24.6113 -11.5374 5.0217 0.0000 0.0000 0.0000
# 2 -11.5374 65.9065 24.4639 0.0000 0.0000 0.0000
# 3 5.0217 24.4639 90.7439 0.0000 0.0000 0.0000
# 4 0.0000 0.0000 0.0000 17.7329 0.0000 0.0000
# 5 0.0000 0.0000 0.0000 0.0000 25.9587 0.0000
# 6 0.0000 0.0000 0.0000 0.0000 0.0000 16.5969
#
#
#
# Elastic Compliance Matrix: (Units=1/GPa)
#
#
# Indices 1 2 3 4 5 6 
#
# 1 0.046444 0.010094 -0.005292 0.000000 0.000000 0.000000
# 2 0.010094 0.019054 -0.005696 0.000000 0.000000 0.000000
# 3 -0.005292 -0.005696 0.012848 0.000000 0.000000 0.000000
# 4 0.000000 0.000000 0.000000 0.056392 0.000000 0.000000
# 5 0.000000 0.000000 0.000000 0.000000 0.038523 0.000000
# 6 0.000000 0.000000 0.000000 0.000000 0.000000 0.060252
#
#
# Mechanical properties :
#
#
# Convention : Reuss Voigt Hill
#
# Bulk Modulus (GPa) = 13.06149 24.12868 18.59508
# Shear Modulus (GPa) = 19.17039 22.94527 21.05783
#
# Velocity S-wave (km/s) = 2.99321 3.27467 3.13710
# Velocity P-wave (km/s) = 4.24853 5.05712 4.67036
#
# Compressibility (1/GPa) = 0.07656092
#
# Stress axis : x y z
#
# Youngs Moduli (GPa) = 21.53149 52.48180 77.83114
#
# Poissons Ratio (x) = -0.52978 0.41185
# Poissons Ratio (y) = -0.21735 0.44329
# Poissons Ratio (z) = 0.11394 0.29891
#
# Static dielectric constant tensor:
#      x y z
#    x 1.766540 0.000000 0.000000 
#    y 0.000000 1.798490 0.000000 
#    z 0.000000 0.000000 1.765040 
# 
# From -- ./inp_files/532.got.cif
#   From: 2010.05.17/outbox.cif.g08.bks.cpg/sg39_1_cif.got.tgz:532.got - 2010.06.03 18:22:40.
