data_PCOD9360194
_publ_section_title
;
Structure prediction by ZEFSAII (Michael W. Deem and Ramdas Pophale) SiO2 
 PCOD9360194
Probable space group: A B M 2
;
_chemical_formula_sum "Si O2"
_cell_formula_units_Z 56
_cell_length_a 15.878207
_cell_length_b 8.527101
_cell_length_c 20.827906
_cell_angle_alpha 90.000000
_cell_angle_beta 90.000000
_cell_angle_gamma 90.000000
_cell_volume 2819.995891
_symmetry_space_group_name_H-M "A B M 2"
_symmetry_group_IT_number 39
_symmetry_cell_setting 'orthorhombic'
loop_
_space_group_symop_operation_xyz
x,y,z
-x,-y,z
-x,1/2+y,z
x,1/2-y,z
x,1/2+y,1/2+z
-x,1/2-y,1/2+z
-x,y,1/2+z
x,-y,1/2+z
loop_
_atom_site_type_symbol
_atom_site_label
_atom_site_fract_x
_atom_site_fract_y
_atom_site_fract_z
Si Si1 0.590056 0.565042 0.213930
Si Si2 0.632933 0.435753 0.076587
Si Si3 0.814122 0.559676 0.036254
Si Si4 0.229529 0.438145 0.755652
Si Si5 0.229034 0.439792 0.896668
Si Si6 0.909542 0.936724 0.158135
Si Si7 0.415152 0.562322 0.439480
O O1 0.500000 0.500000 0.236917
O O2 0.592908 0.750000 0.223852
O O3 0.597386 0.525635 0.138008
O O4 0.673978 0.489054 0.243932
O O5 0.624992 0.250000 0.086921
O O6 0.730001 0.484759 0.066125
O O7 0.590358 0.486696 0.010135
O O8 0.803788 0.750000 0.037164
O O9 0.888926 0.517230 0.084336
O O10 0.818238 0.509241 0.961727
O O11 0.226803 0.250000 0.753093
O O12 0.201272 0.493961 0.826644
O O13 0.166453 0.503462 0.702387
O O14 0.224659 0.250000 0.896029
O O15 0.327620 0.481233 0.905561
O O16 0.910452 0.750000 0.161321
O O17 0.000000 0.000000 0.178451
O O18 0.500000 0.500000 0.407323
O O19 0.417813 0.750000 0.445085
#
# Coordination Sequence:
#
# PCOD9360194 Si02
#       7
#     8   8   8   8   8   8   8
#     4  12  24  38  55  81 118 162 209 254 305 357
#     4  11  20  32  53  82 114 151 196 248 304 352
#     4   9  18  37  62  87 117 153 193 239 297 355
#     4  11  22  40  63  90 125 161 203 249 303 363
#     4   8  18  36  59  83 114 158 196 239 298 358
#     4  11  23  40  66  95 124 158 199 247 304 363
#     4  10  19  33  51  76 112 153 200 248 299 352
#
# _framework density 19.858186
#
# number of rings (size 3 to 8) (size 9 to 14) (size 15 to 20)
#    0.000    1.714    1.429    5.143    0.000    1.143 
#    0.000    9.286    0.000    1.714    0.000    0.000 
#    0.000    0.000    0.000    0.000    0.000    0.000 
#
# Total GULP energy -156365.386848 kJ/mol
# GULP energy per Si atom -5584.478102 kJ/mol
# Density = 1.981299 g / cm^3
# Si number density = 19.858186 Si / 1000 Ang^3
#
#
#
# Elastic Constant Matrix: (Units=GPa)
#
#
# Indices 1 2 3 4 5 6 
#
# 1 90.9612 19.9017 41.5810 0.0000 0.0000 0.0000
# 2 19.9017 50.0414 12.2799 0.0000 0.0000 0.0000
# 3 41.5810 12.2799 121.0409 0.0000 0.0000 0.0000
# 4 0.0000 0.0000 0.0000 15.0477 0.0000 0.0000
# 5 0.0000 0.0000 0.0000 0.0000 -4.2896 0.0000
# 6 0.0000 0.0000 0.0000 0.0000 0.0000 27.7973
#
#
#
# Elastic Compliance Matrix: (Units=1/GPa)
#
#
# Indices 1 2 3 4 5 6 
#
# 1 0.013959 -0.004487 -0.004340 0.000000 0.000000 0.000000
# 2 -0.004487 0.021936 -0.000684 0.000000 0.000000 0.000000
# 3 -0.004340 -0.000684 0.009822 0.000000 0.000000 0.000000
# 4 0.000000 0.000000 0.000000 0.066455 0.000000 0.000000
# 5 0.000000 0.000000 0.000000 0.000000 -0.233123 0.000000
# 6 0.000000 0.000000 0.000000 0.000000 0.000000 0.035975
#
#
# Mechanical properties :
#
#
# Convention : Reuss Voigt Hill
#
# Bulk Modulus (GPa) = 37.46011 45.50765 41.48388
# Shear Modulus (GPa) = -87.63377 20.26315 -33.68531
#
# Velocity S-wave (km/s) = -6.65023 3.19782 -4.12308
# Velocity P-wave (km/s) = 6.32951 6.04986 1.31565
#
# Compressibility (1/GPa) = 0.02669506
#
# Stress axis : x y z
#
# Youngs Moduli (GPa) = 71.63627 45.58779 101.81137
#
# Poissons Ratio (x) = 0.20454 0.44189
# Poissons Ratio (y) = 0.32141 0.06965
# Poissons Ratio (z) = 0.31092 0.03119
#
# Static dielectric constant tensor:
#      x y z
#    x 1.716920 0.000000 0.000000 
#    y 0.000000 1.667780 0.000000 
#    z 0.000000 0.000000 1.730950 
# 
# From -- ./inp_files/14734.got.cif
#   From: 2010.05.17/outbox.cif.g08.bks.cpg/sg39_8_cif.got.tgz:14734.got - 2010.06.03 18:22:40.
