data_PCOD9360234
_publ_section_title
;
Structure prediction by ZEFSAII (Michael W. Deem and Ramdas Pophale) SiO2 
 PCOD9360234
Probable space group: A B M 2
;
_chemical_formula_sum "Si O2"
_cell_formula_units_Z 64
_cell_length_a 19.812883
_cell_length_b 8.810784
_cell_length_c 20.820801
_cell_angle_alpha 90.000000
_cell_angle_beta 90.000000
_cell_angle_gamma 90.000000
_cell_volume 3634.625445
_symmetry_space_group_name_H-M "A B M 2"
_symmetry_group_IT_number 39
_symmetry_cell_setting 'orthorhombic'
loop_
_space_group_symop_operation_xyz
x,y,z
-x,-y,z
-x,1/2+y,z
x,1/2-y,z
x,1/2+y,1/2+z
-x,1/2-y,1/2+z
-x,y,1/2+z
x,-y,1/2+z
loop_
_atom_site_type_symbol
_atom_site_label
_atom_site_fract_x
_atom_site_fract_y
_atom_site_fract_z
Si Si1 0.428787 0.932199 0.896110
Si Si2 0.284183 0.068304 0.446146
Si Si3 0.927798 0.931957 0.273260
Si Si4 0.206646 0.568859 0.324705
Si Si5 0.570648 0.067950 0.253485
Si Si6 0.784706 0.931505 0.071648
Si Si7 0.288269 0.431014 0.693770
Si Si8 0.928124 0.067622 0.622617
O O1 0.434028 0.750000 0.892068
O O2 0.363364 0.972513 0.938151
O O3 0.500000 0.000000 0.919306
O O4 0.417711 0.998214 0.824366
O O5 0.279786 0.250000 0.445916
O O6 0.244989 0.003251 0.384641
O O7 0.250241 0.004046 0.510005
O O8 0.928432 0.750000 0.277663
O O9 0.917129 0.973899 0.197821
O O10 0.867386 0.000498 0.314483
O O11 0.000000 0.000000 0.292126
O O12 0.203378 0.750000 0.332601
O O13 0.247925 0.536331 0.259385
O O14 0.566087 0.250000 0.259843
O O15 0.633824 0.031943 0.208245
O O16 0.500000 0.000000 0.229897
O O17 0.784627 0.750000 0.065522
O O18 0.862567 0.981578 0.082651
O O19 0.743856 0.979811 0.135030
O O20 0.282993 0.250000 0.681413
O O21 0.932365 0.250000 0.619869
O O22 0.000000 0.000000 0.602196
#
# Coordination Sequence:
#
# PCOD9360234 Si02
#       8
#     8   8   8   8   8   8   8   8
#     4  10  20  34  56  83 112 146 188 234 284 341
#     4  11  24  40  58  84 117 154 193 238 288 344
#     4  10  19  34  55  85 119 150 190 238 289 342
#     4  11  21  36  59  86 115 150 190 236 287 338
#     4  10  19  33  54  84 116 148 187 234 286 339
#     4  11  23  39  59  85 116 151 193 238 286 342
#     4  10  21  36  57  84 115 148 187 233 284 339
#     4   9  19  34  55  83 112 145 185 229 278 336
#
# _framework density 17.608415999999998
#
# number of rings (size 3 to 8) (size 9 to 14) (size 15 to 20)
#    0.000    1.750    2.500    3.000    0.000    4.500 
#    0.000    1.250    0.000    1.500    0.000    0.000 
#    0.000    0.000    0.000    0.000    0.000    0.000 
#
# Total GULP energy -178694.257388 kJ/mol
# GULP energy per Si atom -5584.195543 kJ/mol
# Density = 1.756834 g / cm^3
# Si number density = 17.608416 Si / 1000 Ang^3
#
#
#
# Elastic Constant Matrix: (Units=GPa)
#
#
# Indices 1 2 3 4 5 6 
#
# 1 191.1003 65.2666 76.4718 0.0000 0.0000 0.0000
# 2 65.2666 61.4137 49.2500 0.0000 0.0000 0.0000
# 3 76.4718 49.2500 89.8153 0.0000 0.0000 0.0000
# 4 0.0000 0.0000 0.0000 30.1969 0.0000 0.0000
# 5 0.0000 0.0000 0.0000 0.0000 26.8300 0.0000
# 6 0.0000 0.0000 0.0000 0.0000 0.0000 32.0446
#
#
#
# Elastic Compliance Matrix: (Units=1/GPa)
#
#
# Indices 1 2 3 4 5 6 
#
# 1 0.009077 -0.006156 -0.004353 0.000000 0.000000 0.000000
# 2 -0.006156 0.033238 -0.012985 0.000000 0.000000 0.000000
# 3 -0.004353 -0.012985 0.021961 0.000000 0.000000 0.000000
# 4 0.000000 0.000000 0.000000 0.033116 0.000000 0.000000
# 5 0.000000 0.000000 0.000000 0.000000 0.037272 0.000000
# 6 0.000000 0.000000 0.000000 0.000000 0.000000 0.031206
#
#
# Mechanical properties :
#
#
# Convention : Reuss Voigt Hill
#
# Bulk Modulus (GPa) = 57.84228 80.47845 69.16037
# Shear Modulus (GPa) = 22.87079 27.90372 25.38725
#
# Velocity S-wave (km/s) = 3.60787 3.98512 3.80118
# Velocity P-wave (km/s) = 7.09057 8.18405 7.65686
#
# Compressibility (1/GPa) = 0.01728839
#
# Stress axis : x y z
#
# Youngs Moduli (GPa) = 110.16608 30.08625 45.53625
#
# Poissons Ratio (x) = 0.18520 0.19823
# Poissons Ratio (y) = 0.67815 0.59127
# Poissons Ratio (z) = 0.47957 0.39066
#
# Static dielectric constant tensor:
#      x y z
#    x 1.611050 0.000000 0.000000 
#    y 0.000000 1.588120 0.000000 
#    z 0.000000 0.000000 1.564090 
# 
# From -- ./inp_files/13107.got.cif
#   From: 2010.05.17/outbox.cif.g08.bks.cpg/sg39_7_cif.got.tgz:13107.got - 2010.06.03 18:22:40.
