data_PCOD9360251
_publ_section_title
;
Structure prediction by ZEFSAII (Michael W. Deem and Ramdas Pophale) SiO2 
 PCOD9360251
Probable space group: A B M 2
;
_chemical_formula_sum "Si O2"
_cell_formula_units_Z 48
_cell_length_a 17.771568
_cell_length_b 15.044012
_cell_length_c 7.779243
_cell_angle_alpha 90.000000
_cell_angle_beta 90.000000
_cell_angle_gamma 90.000000
_cell_volume 2079.824820
_symmetry_space_group_name_H-M "A B M 2"
_symmetry_group_IT_number 39
_symmetry_cell_setting 'orthorhombic'
loop_
_space_group_symop_operation_xyz
x,y,z
-x,-y,z
-x,1/2+y,z
x,1/2-y,z
x,1/2+y,1/2+z
-x,1/2-y,1/2+z
-x,y,1/2+z
x,-y,1/2+z
loop_
_atom_site_type_symbol
_atom_site_label
_atom_site_fract_x
_atom_site_fract_y
_atom_site_fract_z
Si Si1 0.688689 0.358067 0.411670
Si Si2 0.166256 0.926089 0.596062
Si Si3 0.432087 0.142233 0.206203
Si Si4 0.597418 0.858635 0.587948
Si Si5 0.047806 0.750000 0.310981
Si Si6 0.113973 0.250000 0.201193
Si Si7 0.924885 0.940813 0.771624
O O1 0.702776 0.250000 0.414055
O O2 0.760155 0.408731 0.486254
O O3 0.620961 0.376854 0.544856
O O4 0.662507 0.384641 0.220728
O O5 0.159325 0.840804 0.720224
O O6 0.093413 0.930359 0.472194
O O7 0.150444 0.014733 0.698979
O O8 0.435600 0.250000 0.217892
O O9 0.400422 0.110722 0.390180
O O10 0.517148 0.112824 0.167740
O O11 0.597734 0.750000 0.587231
O O12 0.087547 0.750000 0.498292
O O13 0.066581 0.659808 0.210195
O O14 0.958012 0.750000 0.321533
O O15 0.000000 0.000000 0.754153
#
# Coordination Sequence:
#
# PCOD9360251 Si02
#       7
#     8   8   8   8   4   4   8
#     4  10  19  33  55  85 132 176 214 270 330 393
#     4  11  23  40  60  92 131 172 210 269 332 387
#     4   9  15  26  49  83 124 172 222 269 321 388
#     4   9  15  26  49  83 124 170 221 271 320 387
#     4  10  22  36  66  94 118 162 214 268 314 388
#     4  10  20  38  64  92 128 162 212 258 328 388
#     4  11  23  41  66  92 123 167 219 266 321 396
#
# _framework density 23.078865
#
# number of rings (size 3 to 8) (size 9 to 14) (size 15 to 20)
#    0.000    2.000    4.167    0.500    2.333    0.000 
#    3.000    0.000    0.000    0.000    0.000    3.500 
#    0.000    0.000    0.000    0.333    0.000    0.083 
#
# Total GULP energy -133963.569506 kJ/mol
# GULP energy per Si atom -5581.815396 kJ/mol
# Density = 2.302634 g / cm^3
# Si number density = 23.078865 Si / 1000 Ang^3
#
#
#
# Elastic Constant Matrix: (Units=GPa)
#
#
# Indices 1 2 3 4 5 6 
#
# 1 48.5115 15.4052 -14.5459 0.0000 0.0000 0.0000
# 2 15.4052 83.1205 10.9676 0.0000 0.0000 0.0000
# 3 -14.5459 10.9676 57.0369 0.0000 0.0000 0.0000
# 4 0.0000 0.0000 0.0000 12.2319 0.0000 0.0000
# 5 0.0000 0.0000 0.0000 0.0000 24.9083 0.0000
# 6 0.0000 0.0000 0.0000 0.0000 0.0000 31.3285
#
#
#
# Elastic Compliance Matrix: (Units=1/GPa)
#
#
# Indices 1 2 3 4 5 6 
#
# 1 0.024563 -0.005519 0.007325 0.000000 0.000000 0.000000
# 2 -0.005519 0.013584 -0.004020 0.000000 0.000000 0.000000
# 3 0.007325 -0.004020 0.020174 0.000000 0.000000 0.000000
# 4 0.000000 0.000000 0.000000 0.081754 0.000000 0.000000
# 5 0.000000 0.000000 0.000000 0.000000 0.040147 0.000000
# 6 0.000000 0.000000 0.000000 0.000000 0.000000 0.031920
#
#
# Mechanical properties :
#
#
# Convention : Reuss Voigt Hill
#
# Bulk Modulus (GPa) = 18.55489 23.59139 21.07314
# Shear Modulus (GPa) = 21.31905 25.48319 23.40112
#
# Velocity S-wave (km/s) = 3.04262 3.32652 3.18773
# Velocity P-wave (km/s) = 4.51670 4.99986 4.76441
#
# Compressibility (1/GPa) = 0.05389414
#
# Stress axis : x y z
#
# Youngs Moduli (GPa) = 40.71209 73.61629 49.56974
#
# Poissons Ratio (x) = 0.40628 -0.36312
# Poissons Ratio (y) = 0.22469 0.19925
# Poissons Ratio (z) = -0.29823 0.29590
#
# Static dielectric constant tensor:
#      x y z
#    x 1.833590 0.000000 0.000000 
#    y 0.000000 1.997300 0.000000 
#    z 0.000000 0.000000 1.884240 
# 
# From -- ./inp_files/3722.got.cif
#   From: 2010.05.17/outbox.cif.g08.bks.cpg/sg39_2_cif.got.tgz:3722.got - 2010.06.03 18:22:40.
