data_PCOD9360003
_publ_section_title
;
Structure prediction by ZEFSAII (Michael W. Deem and Ramdas Pophale) SiO2 
 PCOD9360003
Probable space group: A B M 2
;
_chemical_formula_sum "Si O2"
_cell_formula_units_Z 36
_cell_length_a 8.692430
_cell_length_b 9.611457
_cell_length_c 22.198289
_cell_angle_alpha 90.000000
_cell_angle_beta 90.000000
_cell_angle_gamma 90.000000
_cell_volume 1854.598612
_symmetry_space_group_name_H-M "A B M 2"
_symmetry_group_IT_number 39
_symmetry_cell_setting 'orthorhombic'
loop_
_space_group_symop_operation_xyz
x,y,z
-x,-y,z
-x,1/2+y,z
x,1/2-y,z
x,1/2+y,1/2+z
-x,1/2-y,1/2+z
-x,y,1/2+z
x,-y,1/2+z
loop_
_atom_site_type_symbol
_atom_site_label
_atom_site_fract_x
_atom_site_fract_y
_atom_site_fract_z
Si Si1 0.350913 0.750000 0.135900
Si Si2 0.667643 0.250000 0.993393
Si Si3 0.500000 0.500000 0.423724
Si Si4 0.480094 0.250000 0.845115
Si Si5 0.160641 0.250000 0.386924
Si Si6 0.169636 0.478922 0.708588
Si Si7 0.622324 0.250000 0.718682
Si Si8 0.000000 0.000000 0.821874
O O1 0.527399 0.750000 0.156908
O O2 0.269327 0.880883 0.167106
O O3 0.332620 0.750000 0.064617
O O4 0.588055 0.108455 0.967431
O O5 0.830235 0.250000 0.958983
O O6 0.417168 0.609804 0.377472
O O7 0.495528 0.250000 0.772887
O O8 0.336547 0.250000 0.362426
O O9 0.080794 0.385297 0.361363
O O10 0.266858 0.617407 0.721056
O O11 0.000000 0.500000 0.679704
O O12 0.119565 0.427390 0.775157
#
# Coordination Sequence:
#
# PCOD9360003 Si02
#       8
#     4   4   4   4   4   8   4   4
#     4  12  26  38  63  95 132 170 227 265 314 383
#     4  10  24  43  57  84 129 168 219 257 314 382
#     4   8  20  36  62  76 120 172 186 264 326 366
#     4  10  18  37  58  89 126 150 204 261 331 376
#     4  10  19  38  61  88 123 160 206 269 308 389
#     4  10  22  41  64  91 133 168 207 266 332 388
#     4  12  23  36  65 104 130 164 212 278 325 394
#     4  10  18  38  70  90 124 160 212 262 338 382
#
# _framework density 19.411207999999998
#
# number of rings (size 3 to 8) (size 9 to 14) (size 15 to 20)
#    0.667    1.333    2.222    2.000    6.222    0.000 
#    2.000    8.889    0.000    0.000    0.000    0.000 
#    0.000    0.000    0.000    0.000    0.000    0.000 
#
# Total GULP energy -100237.985255 kJ/mol
# GULP energy per Si atom -5568.776959 kJ/mol
# Density = 1.936703 g / cm^3
# Si number density = 19.411208 Si / 1000 Ang^3
#
#
#
# Elastic Constant Matrix: (Units=GPa)
#
#
# Indices 1 2 3 4 5 6 
#
# 1 68.9276 26.2200 34.8225 0.0000 0.0000 0.0000
# 2 26.2200 129.1615 57.0232 0.0000 0.0000 0.0000
# 3 34.8225 57.0232 162.7717 0.0000 0.0000 0.0000
# 4 0.0000 0.0000 0.0000 -12.9458 0.0000 0.0000
# 5 0.0000 0.0000 0.0000 0.0000 26.2107 0.0000
# 6 0.0000 0.0000 0.0000 0.0000 0.0000 18.7661
#
#
#
# Elastic Compliance Matrix: (Units=1/GPa)
#
#
# Indices 1 2 3 4 5 6 
#
# 1 0.016757 -0.002152 -0.002831 0.000000 0.000000 0.000000
# 2 -0.002152 0.009435 -0.002845 0.000000 0.000000 0.000000
# 3 -0.002831 -0.002845 0.007746 0.000000 0.000000 0.000000
# 4 0.000000 0.000000 0.000000 -0.077245 0.000000 0.000000
# 5 0.000000 0.000000 0.000000 0.000000 0.038152 0.000000
# 6 0.000000 0.000000 0.000000 0.000000 0.000000 0.053288
#
#
# Mechanical properties :
#
#
# Convention : Reuss Voigt Hill
#
# Bulk Modulus (GPa) = 54.69826 66.33246 60.51536
# Shear Modulus (GPa) = 71.54915 22.59255 47.07085
#
# Velocity S-wave (km/s) = 6.07781 3.41529 4.92970
# Velocity P-wave (km/s) = 8.80300 7.05682 7.97783
#
# Compressibility (1/GPa) = 0.01828212
#
# Stress axis : x y z
#
# Youngs Moduli (GPa) = 59.67740 105.98721 129.10034
#
# Poissons Ratio (x) = 0.22806 0.36549
# Poissons Ratio (y) = 0.12841 0.36729
# Poissons Ratio (z) = 0.16895 0.30154
#
# Static dielectric constant tensor:
#      x y z
#    x 1.726630 0.000000 0.000000 
#    y 0.000000 1.706910 0.000000 
#    z 0.000000 0.000000 1.705190 
# 
# From -- ./inp_files/14349.got.cif
#   From: 2010.05.17/outbox.cif.g08.bks.cpg/sg39_8_cif.got.tgz:14349.got - 2010.06.03 18:22:40.
