data_PCOD9360245
_publ_section_title
;
Structure prediction by ZEFSAII (Michael W. Deem and Ramdas Pophale) SiO2 
 PCOD9360245
Probable space group: A B M 2
;
_chemical_formula_sum "Si O2"
_cell_formula_units_Z 64
_cell_length_a 24.439317
_cell_length_b 8.575699
_cell_length_c 15.882909
_cell_angle_alpha 90.000000
_cell_angle_beta 90.000000
_cell_angle_gamma 90.000000
_cell_volume 3328.807195
_symmetry_space_group_name_H-M "A B M 2"
_symmetry_group_IT_number 39
_symmetry_cell_setting 'orthorhombic'
loop_
_space_group_symop_operation_xyz
x,y,z
-x,-y,z
-x,1/2+y,z
x,1/2-y,z
x,1/2+y,1/2+z
-x,1/2-y,1/2+z
-x,y,1/2+z
x,-y,1/2+z
loop_
_atom_site_type_symbol
_atom_site_label
_atom_site_fract_x
_atom_site_fract_y
_atom_site_fract_z
Si Si1 0.128819 0.562074 0.166390
Si Si2 0.557912 0.936322 0.262064
Si Si3 0.557673 0.436996 0.564199
Si Si4 0.744301 0.438100 0.160920
Si Si5 0.676330 0.561499 0.004521
Si Si6 0.938324 0.063166 0.507699
Si Si7 0.938333 0.563231 0.324988
Si Si8 0.672681 0.938128 0.818890
O O1 0.125327 0.750000 0.167073
O O2 0.192466 0.514917 0.165456
O O3 0.098941 0.498100 0.083340
O O4 0.099088 0.496605 0.249177
O O5 0.558311 0.750000 0.266975
O O6 0.561869 0.982140 0.162981
O O7 0.500000 0.000000 0.294323
O O8 0.610831 0.004678 0.306922
O O9 0.500000 0.500000 0.530795
O O10 0.555702 0.250000 0.560046
O O11 0.613436 0.489913 0.520081
O O12 0.742714 0.250000 0.161202
O O13 0.714710 0.496938 0.077214
O O14 0.710016 0.494605 0.241962
O O15 0.676943 0.750000 0.009571
O O16 0.693530 0.513723 0.910810
O O17 0.939294 0.250000 0.506759
O O18 0.919949 0.000782 0.416186
O O19 0.000000 0.000000 0.520506
O O20 0.939589 0.750000 0.326885
O O21 0.000000 0.500000 0.311730
O O22 0.672178 0.750000 0.816752
#
# Coordination Sequence:
#
# PCOD9360245 Si02
#       8
#     8   8   8   8   8   8   8   8
#     4  11  23  40  60  87 123 162 207 254 297 353
#     4  10  19  33  55  82 112 146 183 228 285 346
#     4   9  18  32  52  79 108 142 180 225 281 342
#     4  10  23  41  60  83 114 152 196 244 292 339
#     4  10  21  38  59  83 113 148 190 237 289 348
#     4  11  22  39  63  93 126 162 200 245 301 356
#     4  11  22  39  63  94 128 164 201 244 298 354
#     4  10  21  38  59  83 112 148 188 235 290 346
#
# _framework density 19.226106999999999
#
# number of rings (size 3 to 8) (size 9 to 14) (size 15 to 20)
#    0.000    1.750    1.250    4.125    0.000    4.000 
#    0.000    2.500    0.000    0.000    0.000    0.000 
#    0.000    0.000    0.000    0.000    0.000    0.000 
#
# Total GULP energy -178812.585152 kJ/mol
# GULP energy per Si atom -5587.893286 kJ/mol
# Density = 1.918235 g / cm^3
# Si number density = 19.226107 Si / 1000 Ang^3
#
#
#
# Elastic Constant Matrix: (Units=GPa)
#
#
# Indices 1 2 3 4 5 6 
#
# 1 136.9091 41.1288 108.8200 0.0000 0.0000 0.0000
# 2 41.1288 66.3994 46.6320 0.0000 0.0000 0.0000
# 3 108.8200 46.6320 178.4860 0.0000 0.0000 0.0000
# 4 0.0000 0.0000 0.0000 24.3252 0.0000 0.0000
# 5 0.0000 0.0000 0.0000 0.0000 -8.9149 0.0000
# 6 0.0000 0.0000 0.0000 0.0000 0.0000 25.6509
#
#
#
# Elastic Compliance Matrix: (Units=1/GPa)
#
#
# Indices 1 2 3 4 5 6 
#
# 1 0.014795 -0.003465 -0.008115 0.000000 0.000000 0.000000
# 2 -0.003465 0.019256 -0.002918 0.000000 0.000000 0.000000
# 3 -0.008115 -0.002918 0.011313 0.000000 0.000000 0.000000
# 4 0.000000 0.000000 0.000000 0.041110 0.000000 0.000000
# 5 0.000000 0.000000 0.000000 0.000000 -0.112172 0.000000
# 6 0.000000 0.000000 0.000000 0.000000 0.000000 0.038985
#
#
# Mechanical properties :
#
#
# Convention : Reuss Voigt Hill
#
# Bulk Modulus (GPa) = 61.09816 86.10625 73.60220
# Shear Modulus (GPa) = 104.73407 20.55982 62.64695
#
# Velocity S-wave (km/s) = 7.38872 3.27367 5.71446
# Velocity P-wave (km/s) = 10.22930 7.69237 9.05017
#
# Compressibility (1/GPa) = 0.01636711
#
# Stress axis : x y z
#
# Youngs Moduli (GPa) = 67.58927 51.93107 88.39570
#
# Poissons Ratio (x) = 0.17995 0.71734
# Poissons Ratio (y) = 0.23421 0.25797
# Poissons Ratio (z) = 0.54849 0.15155
#
# Static dielectric constant tensor:
#      x y z
#    x 1.642290 0.000000 0.000000 
#    y 0.000000 1.649150 0.000000 
#    z 0.000000 0.000000 1.673220 
# 
# From -- ./inp_files/10695.got.cif
#   From: 2010.05.17/outbox.cif.g08.bks.cpg/sg39_6_cif.got.tgz:10695.got - 2010.06.03 18:22:40.
