data_PCOD9360273
_publ_section_title
;
Structure prediction by ZEFSAII (Michael W. Deem and Ramdas Pophale) SiO2 
 PCOD9360273
Probable space group: A B M 2
;
_chemical_formula_sum "Si O2"
_cell_formula_units_Z 64
_cell_length_a 24.365439
_cell_length_b 8.942356
_cell_length_c 15.815393
_cell_angle_alpha 90.000000
_cell_angle_beta 90.000000
_cell_angle_gamma 90.000000
_cell_volume 3445.927883
_symmetry_space_group_name_H-M "A B M 2"
_symmetry_group_IT_number 39
_symmetry_cell_setting 'orthorhombic'
loop_
_space_group_symop_operation_xyz
x,y,z
-x,-y,z
-x,1/2+y,z
x,1/2-y,z
x,1/2+y,1/2+z
-x,1/2-y,1/2+z
-x,y,1/2+z
x,-y,1/2+z
loop_
_atom_site_type_symbol
_atom_site_label
_atom_site_fract_x
_atom_site_fract_y
_atom_site_fract_z
Si Si1 0.761586 0.428456 0.947500
Si Si2 0.123950 0.928713 0.030165
Si Si3 0.366789 0.930126 0.276302
Si Si4 0.758231 0.427994 0.264770
Si Si5 0.865746 0.071755 0.701358
Si Si6 0.363486 0.070848 0.460384
Si Si7 0.059797 0.069623 0.360246
Si Si8 0.560144 0.431191 0.117004
O O1 0.764473 0.250000 0.927967
O O2 0.768017 0.519288 0.860991
O O3 0.700563 0.460245 0.981596
O O4 0.812454 0.462044 0.007801
O O5 0.119287 0.750000 0.041921
O O6 0.108092 0.012090 0.115276
O O7 0.088073 0.972199 0.948953
O O8 0.368378 0.750000 0.284198
O O9 0.304948 0.970215 0.246618
O O10 0.409703 0.975735 0.204280
O O11 0.375939 0.998934 0.369116
O O12 0.763281 0.250000 0.256608
O O13 0.804735 0.505602 0.209786
O O14 0.862897 0.250000 0.701349
O O15 0.901003 0.023490 0.782830
O O16 0.368491 0.250000 0.451820
O O17 0.403162 0.022486 0.536162
O O18 0.056084 0.250000 0.358371
O O19 0.000000 0.000000 0.352328
O O20 0.500000 0.500000 0.111993
O O21 0.557174 0.250000 0.116299
#
# Coordination Sequence:
#
# PCOD9360273 Si02
#       8
#     8   8   8   8   8   8   8   8
#     4   9  17  34  59  83 117 152 184 231 290 348
#     4  10  21  38  60  87 117 153 192 233 287 343
#     4   9  20  37  57  82 114 148 188 236 285 338
#     4  10  19  33  58  87 117 151 190 235 289 347
#     4  11  23  39  58  87 121 154 193 239 287 340
#     4   9  19  35  58  83 110 148 188 228 283 342
#     4  10  23  43  63  83 116 156 195 238 285 336
#     4  10  22  39  57  80 111 151 193 233 280 338
#
# _framework density 18.572647
#
# number of rings (size 3 to 8) (size 9 to 14) (size 15 to 20)
#    0.000    2.250    1.250    0.750    1.750    4.500 
#    0.000    5.000    0.000    0.000    0.000    0.000 
#    0.000    0.000    0.000    0.000    0.000    0.000 
#
# Total GULP energy -178619.529828 kJ/mol
# GULP energy per Si atom -5581.860307 kJ/mol
# Density = 1.853037 g / cm^3
# Si number density = 18.572647 Si / 1000 Ang^3
#
#
#
# Elastic Constant Matrix: (Units=GPa)
#
#
# Indices 1 2 3 4 5 6 
#
# 1 91.5946 25.1543 43.1319 0.0000 0.0000 0.0000
# 2 25.1543 14.7743 23.9766 0.0000 0.0000 0.0000
# 3 43.1319 23.9766 82.9547 0.0000 0.0000 0.0000
# 4 0.0000 0.0000 0.0000 30.7505 0.0000 0.0000
# 5 0.0000 0.0000 0.0000 0.0000 6.8783 0.0000
# 6 0.0000 0.0000 0.0000 0.0000 0.0000 30.0783
#
#
#
# Elastic Compliance Matrix: (Units=1/GPa)
#
#
# Indices 1 2 3 4 5 6 
#
# 1 0.020556 -0.033249 -0.001078 0.000000 0.000000 0.000000
# 2 -0.033249 0.181260 -0.035102 0.000000 0.000000 0.000000
# 3 -0.001078 -0.035102 0.022761 0.000000 0.000000 0.000000
# 4 0.000000 0.000000 0.000000 0.032520 0.000000 0.000000
# 5 0.000000 0.000000 0.000000 0.000000 0.145385 0.000000
# 6 0.000000 0.000000 0.000000 0.000000 0.000000 0.033247
#
#
# Mechanical properties :
#
#
# Convention : Reuss Voigt Hill
#
# Bulk Modulus (GPa) = 11.66609 41.53881 26.60245
# Shear Modulus (GPa) = 8.28965 20.01214 14.15090
#
# Velocity S-wave (km/s) = 2.11496 3.28610 2.76329
# Velocity P-wave (km/s) = 3.50129 6.06730 4.95334
#
# Compressibility (1/GPa) = 0.08571849
#
# Stress axis : x y z
#
# Youngs Moduli (GPa) = 48.64647 5.51693 43.93466
#
# Poissons Ratio (x) = 0.18343 0.04737
# Poissons Ratio (y) = 1.61746 1.54221
# Poissons Ratio (z) = 0.05245 0.19366
#
# Static dielectric constant tensor:
#      x y z
#    x 1.632020 0.000000 0.000000 
#    y 0.000000 1.623170 0.000000 
#    z 0.000000 0.000000 1.634920 
# 
# From -- ./inp_files/10581.got.cif
#   From: 2010.05.17/outbox.cif.g08.bks.cpg/sg39_6_cif.got.tgz:10581.got - 2010.06.03 18:22:40.
