data_PCOD9360713
_publ_section_title
;
Structure prediction by ZEFSAII (Michael W. Deem and Ramdas Pophale) SiO2 
 PCOD9360713
Probable space group: A B M 2
;
_chemical_formula_sum "Si O2"
_cell_formula_units_Z 64
_cell_length_a 14.341485
_cell_length_b 8.657479
_cell_length_c 26.727377
_cell_angle_alpha 90.000000
_cell_angle_beta 90.000000
_cell_angle_gamma 90.000000
_cell_volume 3318.500668
_symmetry_space_group_name_H-M "A B M 2"
_symmetry_group_IT_number 39
_symmetry_cell_setting 'orthorhombic'
loop_
_space_group_symop_operation_xyz
x,y,z
-x,-y,z
-x,1/2+y,z
x,1/2-y,z
x,1/2+y,1/2+z
-x,1/2-y,1/2+z
-x,y,1/2+z
x,-y,1/2+z
loop_
_atom_site_type_symbol
_atom_site_label
_atom_site_fract_x
_atom_site_fract_y
_atom_site_fract_z
Si Si1 0.894789 0.435923 0.397860
Si Si2 0.784736 0.565021 0.303057
Si Si3 0.895483 0.063522 0.703754
Si Si4 0.605218 0.564759 0.955227
Si Si5 0.604328 0.933395 0.559796
Si Si6 0.895430 0.063757 0.509262
Si Si7 0.395664 0.565225 0.343113
Si Si8 0.221438 0.436805 0.106027
O O1 0.894973 0.250000 0.394318
O O2 0.836920 0.503912 0.352274
O O3 0.859126 0.478504 0.453707
O O4 0.000000 0.500000 0.394555
O O5 0.782534 0.750000 0.303900
O O6 0.841948 0.514390 0.254111
O O7 0.679584 0.501920 0.305118
O O8 0.900422 0.250000 0.703867
O O9 0.835793 0.017082 0.655171
O O10 0.000000 0.000000 0.702030
O O11 0.500000 0.500000 0.954296
O O12 0.606663 0.750000 0.960267
O O13 0.640189 0.525599 0.899673
O O14 0.643812 0.493697 0.006184
O O15 0.598999 0.750000 0.558656
O O16 0.500000 0.000000 0.566006
O O17 0.675859 0.992861 0.601379
O O18 0.898874 0.250000 0.510587
O O19 0.835755 0.012460 0.556722
O O20 0.000000 0.000000 0.513532
O O21 0.500000 0.500000 0.337036
O O22 0.399339 0.750000 0.340067
O O23 0.228746 0.250000 0.105302
#
# Coordination Sequence:
#
# PCOD9360713 Si02
#       8
#     8   8   8   8   8   8   8   8
#     4  10  20  35  54  82 115 151 189 234 292 356
#     4  11  23  38  58  86 117 154 198 245 294 350
#     4  10  23  42  65  89 116 151 196 246 298 349
#     4   9  17  31  52  78 112 152 192 233 281 336
#     4  11  22  36  56  85 118 156 197 240 288 344
#     4   9  19  34  55  81 113 147 183 230 288 348
#     4  10  21  37  58  85 118 157 198 243 292 349
#     4  10  21  39  60  84 115 152 193 243 293 346
#
# _framework density 19.285817000000002
#
# number of rings (size 3 to 8) (size 9 to 14) (size 15 to 20)
#    0.000    2.000    0.000    4.125    1.750    5.000 
#    0.000    0.625    0.000    0.000    0.000    0.000 
#    0.000    0.000    0.000    0.000    0.000    0.000 
#
# Total GULP energy -178693.247745 kJ/mol
# GULP energy per Si atom -5584.163992 kJ/mol
# Density = 1.924192 g / cm^3
# Si number density = 19.285817 Si / 1000 Ang^3
#
#
#
# Elastic Constant Matrix: (Units=GPa)
#
#
# Indices 1 2 3 4 5 6 
#
# 1 136.7335 38.9305 94.4146 0.0000 0.0000 0.0000
# 2 38.9305 51.8476 44.1007 0.0000 0.0000 0.0000
# 3 94.4146 44.1007 142.5140 0.0000 0.0000 0.0000
# 4 0.0000 0.0000 0.0000 19.3025 0.0000 0.0000
# 5 0.0000 0.0000 0.0000 0.0000 38.9520 0.0000
# 6 0.0000 0.0000 0.0000 0.0000 0.0000 29.9240
#
#
#
# Elastic Compliance Matrix: (Units=1/GPa)
#
#
# Indices 1 2 3 4 5 6 
#
# 1 0.013944 -0.003546 -0.008141 0.000000 0.000000 0.000000
# 2 -0.003546 0.027079 -0.006030 0.000000 0.000000 0.000000
# 3 -0.008141 -0.006030 0.014276 0.000000 0.000000 0.000000
# 4 0.000000 0.000000 0.000000 0.051807 0.000000 0.000000
# 5 0.000000 0.000000 0.000000 0.000000 0.025673 0.000000
# 6 0.000000 0.000000 0.000000 0.000000 0.000000 0.033418
#
#
# Mechanical properties :
#
#
# Convention : Reuss Voigt Hill
#
# Bulk Modulus (GPa) = 50.33868 76.22074 63.27971
# Shear Modulus (GPa) = 24.00929 27.87901 25.94415
#
# Velocity S-wave (km/s) = 3.53217 3.80619 3.67174
# Velocity P-wave (km/s) = 6.54164 7.67617 7.13150
#
# Compressibility (1/GPa) = 0.01986544
#
# Stress axis : x y z
#
# Youngs Moduli (GPa) = 71.71423 36.92873 70.04701
#
# Poissons Ratio (x) = 0.13095 0.57023
# Poissons Ratio (y) = 0.25429 0.42242
# Poissons Ratio (z) = 0.58380 0.22270
#
# Static dielectric constant tensor:
#      x y z
#    x 1.639730 0.000000 0.000000 
#    y 0.000000 1.647520 0.000000 
#    z 0.000000 0.000000 1.688540 
# 
# From -- ./inp_files/16265.got.cif
#   From: 2010.05.17/outbox.cif.g08.bks.cpg/sg39_9_cif.got.tgz:16265.got - 2010.06.03 18:22:40.
