data_PCOD9360812
_publ_section_title
;
Structure prediction by ZEFSAII (Michael W. Deem and Ramdas Pophale) SiO2 
 PCOD9360812
Probable space group: A B M 2
;
_chemical_formula_sum "Si O2"
_cell_formula_units_Z 64
_cell_length_a 8.872984
_cell_length_b 14.937904
_cell_length_c 22.599801
_cell_angle_alpha 90.000000
_cell_angle_beta 90.000000
_cell_angle_gamma 90.000000
_cell_volume 2995.463124
_symmetry_space_group_name_H-M "A B M 2"
_symmetry_group_IT_number 39
_symmetry_cell_setting 'orthorhombic'
loop_
_space_group_symop_operation_xyz
x,y,z
-x,-y,z
-x,1/2+y,z
x,1/2-y,z
x,1/2+y,1/2+z
-x,1/2-y,1/2+z
-x,y,1/2+z
x,-y,1/2+z
loop_
_atom_site_type_symbol
_atom_site_label
_atom_site_fract_x
_atom_site_fract_y
_atom_site_fract_z
Si Si1 0.263635 0.151517 0.319670
Si Si2 0.150650 0.539902 0.280061
Si Si3 0.655413 0.849479 0.189684
Si Si4 0.823028 0.485730 0.610572
Si Si5 0.689461 0.144034 0.174636
Si Si6 0.323800 0.525153 0.492192
Si Si7 0.146257 0.353282 0.900465
Si Si8 0.195614 0.153184 0.448592
O O1 0.180052 0.250000 0.313404
O O2 0.366771 0.152480 0.261168
O O3 0.299879 0.152296 0.389112
O O4 0.202930 0.051715 0.311064
O O5 0.254449 0.593288 0.234172
O O6 0.127283 0.606739 0.334935
O O7 0.000000 0.500000 0.249726
O O8 0.708233 0.750000 0.172761
O O9 0.489107 0.866186 0.166124
O O10 0.771841 0.922619 0.165798
O O11 0.763349 0.585419 0.623491
O O12 0.735700 0.440842 0.555434
O O13 0.000000 0.500000 0.601437
O O14 0.725600 0.250000 0.176464
O O15 0.500000 0.500000 0.490277
O O16 0.262650 0.589124 0.439896
O O17 0.237706 0.431435 0.485719
O O18 0.194387 0.250000 0.898190
O O19 0.978027 0.356325 0.928114
O O20 0.214350 0.250000 0.477593
#
# Coordination Sequence:
#
# PCOD9360812 Si02
#       8
#     8   8   8   8   8   8   8   8
#     4  10  20  35  63  96 130 170 209 259 316 374
#     4  12  21  37  64  99 137 175 216 264 315 380
#     4  10  23  44  67  94 132 173 214 264 325 387
#     4  12  26  45  69  94 123 166 219 273 325 384
#     4  11  25  42  64  97 135 175 215 264 324 386
#     4  12  26  44  67  93 127 169 214 269 328 390
#     4  11  23  42  67  97 133 172 218 267 319 381
#     4  10  21  41  67  94 128 169 215 266 316 374
#
# _framework density 21.365644
#
# number of rings (size 3 to 8) (size 9 to 14) (size 15 to 20)
#    0.000    1.000    3.750    3.000    0.000    3.500 
#    0.000    1.250    0.000    0.000    0.000    0.000 
#    0.000    0.000    0.000    0.000    0.000    0.000 
#
# Total GULP energy -178282.733976 kJ/mol
# GULP energy per Si atom -5571.335437 kJ/mol
# Density = 2.131702 g / cm^3
# Si number density = 21.365644 Si / 1000 Ang^3
#
#
#
# Elastic Constant Matrix: (Units=GPa)
#
#
# Indices 1 2 3 4 5 6 
#
# 1 79.6583 41.6462 24.9481 0.0000 0.0000 0.0000
# 2 41.6462 143.9867 18.6313 0.0000 0.0000 0.0000
# 3 24.9481 18.6313 69.7571 0.0000 0.0000 0.0000
# 4 0.0000 0.0000 0.0000 18.0932 0.0000 0.0000
# 5 0.0000 0.0000 0.0000 0.0000 -111.0310 0.0000
# 6 0.0000 0.0000 0.0000 0.0000 0.0000 23.8640
#
#
#
# Elastic Compliance Matrix: (Units=1/GPa)
#
#
# Indices 1 2 3 4 5 6 
#
# 1 0.016147 -0.004063 -0.004689 0.000000 0.000000 0.000000
# 2 -0.004063 0.008216 -0.000741 0.000000 0.000000 0.000000
# 3 -0.004689 -0.000741 0.016211 0.000000 0.000000 0.000000
# 4 0.000000 0.000000 0.000000 0.055269 0.000000 0.000000
# 5 0.000000 0.000000 0.000000 0.000000 -0.009006 0.000000
# 6 0.000000 0.000000 0.000000 0.000000 0.000000 0.041904
#
#
# Mechanical properties :
#
#
# Convention : Reuss Voigt Hill
#
# Bulk Modulus (GPa) = 46.32765 51.53924 48.93345
# Shear Modulus (GPa) = 32.27395 0.06368 16.16882
#
# Velocity S-wave (km/s) = 3.89080 0.17283 2.75392
# Velocity P-wave (km/s) = 6.47416 4.92084 5.75019
#
# Compressibility (1/GPa) = 0.02158538
#
# Stress axis : x y z
#
# Youngs Moduli (GPa) = 61.93219 121.70952 61.68807
#
# Poissons Ratio (x) = 0.49456 0.28928
# Poissons Ratio (y) = 0.25166 0.04572
# Poissons Ratio (z) = 0.29043 0.09021
#
# Static dielectric constant tensor:
#      x y z
#    x 2.116330 0.000000 0.000000 
#    y 0.000000 1.779860 0.000000 
#    z 0.000000 0.000000 1.846480 
# 
# From -- ./inp_files/15671.got.cif
#   From: 2010.05.17/outbox.cif.g08.bks.cpg/sg39_8_cif.got.tgz:15671.got - 2010.06.03 18:22:40.
