data_PCOD9360628
_publ_section_title
;
Structure prediction by ZEFSAII (Michael W. Deem and Ramdas Pophale) SiO2 
 PCOD9360628
Probable space group: A B M 2
;
_chemical_formula_sum "Si O2"
_cell_formula_units_Z 60
_cell_length_a 21.069012
_cell_length_b 9.315077
_cell_length_c 14.150912
_cell_angle_alpha 90.000000
_cell_angle_beta 90.000000
_cell_angle_gamma 90.000000
_cell_volume 2777.250476
_symmetry_space_group_name_H-M "A B M 2"
_symmetry_group_IT_number 39
_symmetry_cell_setting 'orthorhombic'
loop_
_space_group_symop_operation_xyz
x,y,z
-x,-y,z
-x,1/2+y,z
x,1/2-y,z
x,1/2+y,1/2+z
-x,1/2-y,1/2+z
-x,y,1/2+z
x,-y,1/2+z
loop_
_atom_site_type_symbol
_atom_site_label
_atom_site_fract_x
_atom_site_fract_y
_atom_site_fract_z
Si Si1 0.349463 0.078185 0.286690
Si Si2 0.191690 0.585354 0.957578
Si Si3 0.785846 0.588906 0.232596
Si Si4 0.991272 0.250000 0.768003
Si Si5 0.435238 0.920843 0.618815
Si Si6 0.062729 0.914734 0.493079
Si Si7 0.082588 0.508618 0.706715
Si Si8 0.318574 0.577574 0.480623
O O1 0.348251 0.250000 0.310038
O O2 0.287632 0.054009 0.220001
O O3 0.411127 0.046113 0.224865
O O4 0.340752 0.981249 0.378316
O O5 0.183973 0.750000 0.991539
O O6 0.207301 0.592276 0.846143
O O7 0.127905 0.492655 0.968144
O O8 0.252098 0.503027 0.002378
O O9 0.798184 0.750000 0.194344
O O10 0.842136 0.487211 0.198433
O O11 0.936187 0.373323 0.783363
O O12 0.042960 0.372355 0.735419
O O13 0.444659 0.750000 0.612620
O O14 0.376707 0.956689 0.550055
O O15 0.500000 0.000000 0.595229
O O16 0.058586 0.750000 0.457307
O O17 0.061867 0.918434 0.607477
O O18 0.000000 0.000000 0.462618
O O19 0.308266 0.750000 0.480032
#
# Coordination Sequence:
#
# PCOD9360628 Si02
#       8
#     8   8   8   4   8   8   8   8
#     4   9  20  40  64  89 125 167 207 252 305 364
#     4  10  23  40  59  83 117 153 198 247 303 367
#     4   9  18  37  59  81 106 148 193 238 292 353
#     4  10  20  34  52  78 110 140 190 242 300 356
#     4  10  23  41  65  98 132 167 210 252 302 372
#     4  12  22  37  56  80 111 152 195 252 306 363
#     4  11  19  36  55  78 103 147 190 244 293 357
#     4  10  21  41  65  93 128 168 210 256 310 367
#
# _framework density 21.604102000000001
#
# number of rings (size 3 to 8) (size 9 to 14) (size 15 to 20)
#    0.000    1.867    2.667    2.000    2.800    2.133 
#    8.400    2.667    0.000    0.000    0.000    0.000 
#    0.000    0.000    0.000    0.000    0.000    0.000 
#
# Total GULP energy -167121.611133 kJ/mol
# GULP energy per Si atom -5570.720371 kJ/mol
# Density = 2.155493 g / cm^3
# Si number density = 21.604102 Si / 1000 Ang^3
#
#
#
# Elastic Constant Matrix: (Units=GPa)
#
#
# Indices 1 2 3 4 5 6 
#
# 1 179.6183 75.5974 32.2874 0.0000 0.0000 0.0000
# 2 75.5974 140.9378 19.9655 0.0000 0.0000 0.0000
# 3 32.2874 19.9655 46.6932 0.0000 0.0000 0.0000
# 4 0.0000 0.0000 0.0000 32.9574 0.0000 0.0000
# 5 0.0000 0.0000 0.0000 0.0000 25.1865 0.0000
# 6 0.0000 0.0000 0.0000 0.0000 0.0000 40.2834
#
#
#
# Elastic Compliance Matrix: (Units=1/GPa)
#
#
# Indices 1 2 3 4 5 6 
#
# 1 0.007785 -0.003633 -0.003830 0.000000 0.000000 0.000000
# 2 -0.003633 0.009248 -0.001442 0.000000 0.000000 0.000000
# 3 -0.003830 -0.001442 0.024681 0.000000 0.000000 0.000000
# 4 0.000000 0.000000 0.000000 0.030342 0.000000 0.000000
# 5 0.000000 0.000000 0.000000 0.000000 0.039704 0.000000
# 6 0.000000 0.000000 0.000000 0.000000 0.000000 0.024824
#
#
# Mechanical properties :
#
#
# Convention : Reuss Voigt Hill
#
# Bulk Modulus (GPa) = 41.83325 69.21668 55.52497
# Shear Modulus (GPa) = 30.79521 35.64538 33.22029
#
# Velocity S-wave (km/s) = 3.77959 4.06635 3.92559
# Velocity P-wave (km/s) = 6.20102 7.35902 6.80470
#
# Compressibility (1/GPa) = 0.02390443
#
# Stress axis : x y z
#
# Youngs Moduli (GPa) = 128.45391 108.12617 40.51677
#
# Poissons Ratio (x) = 0.39285 0.15516
# Poissons Ratio (y) = 0.46670 0.05843
# Poissons Ratio (z) = 0.49192 0.15594
#
# Static dielectric constant tensor:
#      x y z
#    x 1.794670 0.000000 0.000000 
#    y 0.000000 1.704890 0.000000 
#    z 0.000000 0.000000 1.924200 
# 
# From -- ./inp_files/12967.got.cif
#   From: 2010.05.17/outbox.cif.g08.bks.cpg/sg39_7_cif.got.tgz:12967.got - 2010.06.03 18:22:40.
