data_PCOD9360790
_publ_section_title
;
Structure prediction by ZEFSAII (Michael W. Deem and Ramdas Pophale) SiO2 
 PCOD9360790
Probable space group: A B M 2
;
_chemical_formula_sum "Si O2"
_cell_formula_units_Z 64
_cell_length_a 19.745663
_cell_length_b 17.929907
_cell_length_c 8.869253
_cell_angle_alpha 90.000000
_cell_angle_beta 90.000000
_cell_angle_gamma 90.000000
_cell_volume 3140.051718
_symmetry_space_group_name_H-M "A B M 2"
_symmetry_group_IT_number 39
_symmetry_cell_setting 'orthorhombic'
loop_
_space_group_symop_operation_xyz
x,y,z
-x,-y,z
-x,1/2+y,z
x,1/2-y,z
x,1/2+y,1/2+z
-x,1/2-y,1/2+z
-x,y,1/2+z
x,-y,1/2+z
loop_
_atom_site_type_symbol
_atom_site_label
_atom_site_fract_x
_atom_site_fract_y
_atom_site_fract_z
Si Si1 0.708455 0.076375 0.136460
Si Si2 0.212636 0.836308 0.632849
Si Si3 0.475641 0.414690 0.865608
Si Si4 0.670769 0.080041 0.486401
Si Si5 0.580022 0.162149 0.066185
Si Si6 0.946633 0.909768 0.426079
Si Si7 0.814792 0.166087 0.983850
Si Si8 0.917610 0.931291 0.073479
O O1 0.696135 0.075478 0.314264
O O2 0.657313 0.135656 0.060247
O O3 0.782177 0.104990 0.092546
O O4 0.689540 0.996266 0.070332
O O5 0.195147 0.750000 0.603456
O O6 0.286041 0.856057 0.567183
O O7 0.155271 0.891290 0.564725
O O8 0.212203 0.847059 0.813573
O O9 0.500000 0.500000 0.855980
O O10 0.410197 0.409948 0.975939
O O11 0.450897 0.383722 0.706188
O O12 0.536930 0.364512 0.924207
O O13 0.575089 0.250000 0.090079
O O14 0.894923 0.845154 0.470072
O O15 0.939696 0.926379 0.248494
O O16 0.023139 0.893335 0.474971
O O17 0.920922 0.983945 0.514086
O O18 0.797892 0.250000 0.031678
#
# Coordination Sequence:
#
# PCOD9360790 Si02
#       8
#     8   8   8   8   8   8   8   8
#     4  11  23  40  61  89 121 155 206 252 308 366
#     4  10  23  41  60  88 126 164 205 255 317 374
#     4  11  23  42  65  89 124 163 206 251 308 379
#     4  11  24  39  65  89 118 159 205 254 302 373
#     4  11  24  40  63  93 125 159 203 257 313 369
#     4  10  20  35  59  86 117 156 207 250 306 364
#     4  10  22  40  60  85 123 163 202 250 309 373
#     4  10  20  36  58  86 117 156 202 257 302 364
#
# _framework density 20.381830999999998
#
# number of rings (size 3 to 8) (size 9 to 14) (size 15 to 20)
#    0.000    1.500    1.250    4.125    1.750    8.500 
#    0.000    1.250    0.000    0.000    0.000    0.000 
#    0.000    0.000    0.000    0.000    0.000    0.000 
#
# Total GULP energy -178846.610008 kJ/mol
# GULP energy per Si atom -5588.956563 kJ/mol
# Density = 2.033544 g / cm^3
# Si number density = 20.381831 Si / 1000 Ang^3
#
#
#
# Elastic Constant Matrix: (Units=GPa)
#
#
# Indices 1 2 3 4 5 6 
#
# 1 51.3867 12.0356 5.6432 0.0000 0.0000 0.0000
# 2 12.0356 48.2952 3.1286 0.0000 0.0000 0.0000
# 3 5.6432 3.1286 24.2539 0.0000 0.0000 0.0000
# 4 0.0000 0.0000 0.0000 15.8038 0.0000 0.0000
# 5 0.0000 0.0000 0.0000 0.0000 31.1790 0.0000
# 6 0.0000 0.0000 0.0000 0.0000 0.0000 29.5359
#
#
#
# Elastic Compliance Matrix: (Units=1/GPa)
#
#
# Indices 1 2 3 4 5 6 
#
# 1 0.021095 -0.004981 -0.004266 0.000000 0.000000 0.000000
# 2 -0.004981 0.022057 -0.001686 0.000000 0.000000 0.000000
# 3 -0.004266 -0.001686 0.042441 0.000000 0.000000 0.000000
# 4 0.000000 0.000000 0.000000 0.063276 0.000000 0.000000
# 5 0.000000 0.000000 0.000000 0.000000 0.032073 0.000000
# 6 0.000000 0.000000 0.000000 0.000000 0.000000 0.033857
#
#
# Mechanical properties :
#
#
# Convention : Reuss Voigt Hill
#
# Bulk Modulus (GPa) = 15.69203 18.39451 17.04327
# Shear Modulus (GPa) = 19.38690 22.17898 20.78294
#
# Velocity S-wave (km/s) = 3.08747 3.30233 3.19671
# Velocity P-wave (km/s) = 4.51948 4.85644 4.69099
#
# Compressibility (1/GPa) = 0.06372663
#
# Stress axis : x y z
#
# Youngs Moduli (GPa) = 47.40380 45.33806 23.56239
#
# Poissons Ratio (x) = 0.22582 0.10051
# Poissons Ratio (y) = 0.23611 0.03973
# Poissons Ratio (z) = 0.20221 0.07645
#
# Static dielectric constant tensor:
#      x y z
#    x 1.739700 0.000000 0.000000 
#    y 0.000000 1.721060 0.000000 
#    z 0.000000 0.000000 1.705870 
# 
# From -- ./inp_files/4024.got.cif
#   From: 2010.05.17/outbox.cif.g08.bks.cpg/sg39_3_cif.got.tgz:4024.got - 2010.06.03 18:22:40.
