data_PCOD9360083
_publ_section_title
;
Structure prediction by ZEFSAII (Michael W. Deem and Ramdas Pophale) SiO2 
 PCOD9360083
Probable space group: A B M 2
;
_chemical_formula_sum "Si O2"
_cell_formula_units_Z 64
_cell_length_a 19.151874
_cell_length_b 20.403284
_cell_length_c 10.021969
_cell_angle_alpha 90.000000
_cell_angle_beta 90.000000
_cell_angle_gamma 90.000000
_cell_volume 3916.195875
_symmetry_space_group_name_H-M "A B M 2"
_symmetry_group_IT_number 39
_symmetry_cell_setting 'orthorhombic'
loop_
_space_group_symop_operation_xyz
x,y,z
-x,-y,z
-x,1/2+y,z
x,1/2-y,z
x,1/2+y,1/2+z
-x,1/2-y,1/2+z
-x,y,1/2+z
x,-y,1/2+z
loop_
_atom_site_type_symbol
_atom_site_label
_atom_site_fract_x
_atom_site_fract_y
_atom_site_fract_z
Si Si1 0.681823 0.057991 0.099760
Si Si2 0.608434 0.992974 0.347772
Si Si3 0.509715 0.890156 0.883445
Si Si4 0.155189 0.456866 0.597962
Si Si5 0.575608 0.172801 0.125512
Si Si6 0.032084 0.177023 0.830957
Si Si7 0.077167 0.033572 0.871839
Si Si8 0.915400 0.677839 0.541253
O O1 0.763026 0.046968 0.127159
O O2 0.647032 0.130323 0.111879
O O3 0.639125 0.016527 0.208634
O O4 0.665233 0.032509 0.951763
O O5 0.553076 0.934910 0.326354
O O6 0.568642 0.055182 0.413944
O O7 0.541033 0.843917 0.768812
O O8 0.477524 0.853473 0.010964
O O9 0.109778 0.477549 0.726172
O O10 0.129347 0.503654 0.479801
O O11 0.134657 0.383071 0.556436
O O12 0.587125 0.250000 0.111132
O O13 0.061169 0.250000 0.863528
O O14 0.070884 0.112442 0.883583
O O15 0.032642 0.172766 0.669920
O O16 0.957881 0.173959 0.904067
O O17 0.000000 0.000000 0.883994
O O18 0.882343 0.750000 0.550175
#
# Coordination Sequence:
#
# PCOD9360083 Si02
#       8
#     8   8   8   8   8   8   8   8
#     4  10  20  33  48  70 101 135 166 194 245 299
#     4   9  17  32  51  72  97 128 167 210 240 283
#     4   9  17  30  52  76  98 126 167 210 246 275
#     4  11  22  33  50  74 101 133 162 205 253 304
#     4  10  19  31  49  75 105 133 164 201 242 292
#     4   9  18  32  50  71  93 119 151 196 251 296
#     4  11  21  34  53  75 100 121 164 214 258 294
#     4   9  18  32  49  68  92 122 157 194 241 296
#
# _framework density 16.342390000000002
#
# number of rings (size 3 to 8) (size 9 to 14) (size 15 to 20)
#    0.000    2.250    1.250    2.250    1.750    3.500 
#    0.000    0.000    0.000    0.000    0.000    4.375 
#    0.000    0.000    0.000    0.000    0.000    0.000 
#
# Total GULP energy -178193.716276 kJ/mol
# GULP energy per Si atom -5568.553634 kJ/mol
# Density = 1.630519 g / cm^3
# Si number density = 16.342390 Si / 1000 Ang^3
#
#
#
# Elastic Constant Matrix: (Units=GPa)
#
#
# Indices 1 2 3 4 5 6 
#
# 1 51.5231 10.9667 -0.7336 0.0000 0.0000 0.0000
# 2 10.9667 78.8972 17.0268 0.0000 0.0000 0.0000
# 3 -0.7336 17.0268 24.8795 0.0000 0.0000 0.0000
# 4 0.0000 0.0000 0.0000 20.8380 0.0000 0.0000
# 5 0.0000 0.0000 0.0000 0.0000 14.7651 0.0000
# 6 0.0000 0.0000 0.0000 0.0000 0.0000 8.8365
#
#
#
# Elastic Compliance Matrix: (Units=1/GPa)
#
#
# Indices 1 2 3 4 5 6 
#
# 1 0.020183 -0.003442 0.002951 0.000000 0.000000 0.000000
# 2 -0.003442 0.015458 -0.010681 0.000000 0.000000 0.000000
# 3 0.002951 -0.010681 0.047590 0.000000 0.000000 0.000000
# 4 0.000000 0.000000 0.000000 0.047989 0.000000 0.000000
# 5 0.000000 0.000000 0.000000 0.000000 0.067727 0.000000
# 6 0.000000 0.000000 0.000000 0.000000 0.000000 0.113168
#
#
# Mechanical properties :
#
#
# Convention : Reuss Voigt Hill
#
# Bulk Modulus (GPa) = 16.42364 23.31330 19.86847
# Shear Modulus (GPa) = 14.09419 17.42390 15.75904
#
# Velocity S-wave (km/s) = 2.93990 3.26878 3.10869
# Velocity P-wave (km/s) = 4.64710 5.34257 5.00693
#
# Compressibility (1/GPa) = 0.06088786
#
# Stress axis : x y z
#
# Youngs Moduli (GPa) = 49.54544 64.69057 21.01272
#
# Poissons Ratio (x) = 0.22269 -0.06201
# Poissons Ratio (y) = 0.17055 0.22443
# Poissons Ratio (z) = -0.14621 0.69094
#
# Static dielectric constant tensor:
#      x y z
#    x 1.536150 0.000000 0.000000 
#    y 0.000000 1.563120 0.000000 
#    z 0.000000 0.000000 1.544560 
# 
# From -- ./inp_files/3843.got.cif
#   From: 2010.05.17/outbox.cif.g08.bks.cpg/sg39_2_cif.got.tgz:3843.got - 2010.06.03 18:22:40.
