data_PCOD9360403
_publ_section_title
;
Structure prediction by ZEFSAII (Michael W. Deem and Ramdas Pophale) SiO2 
 PCOD9360403
Probable space group: A B M 2
;
_chemical_formula_sum "Si O2"
_cell_formula_units_Z 64
_cell_length_a 5.794840
_cell_length_b 28.088031
_cell_length_c 18.156518
_cell_angle_alpha 90.000000
_cell_angle_beta 90.000000
_cell_angle_gamma 90.000000
_cell_volume 2955.257373
_symmetry_space_group_name_H-M "A B M 2"
_symmetry_group_IT_number 39
_symmetry_cell_setting 'orthorhombic'
loop_
_space_group_symop_operation_xyz
x,y,z
-x,-y,z
-x,1/2+y,z
x,1/2-y,z
x,1/2+y,1/2+z
-x,1/2-y,1/2+z
-x,y,1/2+z
x,-y,1/2+z
loop_
_atom_site_type_symbol
_atom_site_label
_atom_site_fract_x
_atom_site_fract_y
_atom_site_fract_z
Si Si1 0.225224 0.366726 0.437480
Si Si2 0.879799 0.149023 0.564144
Si Si3 0.432617 0.196603 0.176322
Si Si4 0.518767 0.570458 0.036114
Si Si5 0.256938 0.978070 0.416327
Si Si6 0.529287 0.304663 0.340585
Si Si7 0.866758 0.610484 0.825123
Si Si8 0.250269 0.602670 0.162176
O O1 0.316242 0.414146 0.479158
O O2 0.404491 0.327267 0.410828
O O3 0.042072 0.342247 0.493462
O O4 0.116908 0.384168 0.360383
O O5 0.779710 0.188602 0.619948
O O6 0.662916 0.119318 0.536648
O O7 0.024609 0.113300 0.615198
O O8 0.528177 0.250000 0.164454
O O9 0.380779 0.193280 0.264098
O O10 0.610402 0.153197 0.163090
O O11 0.409455 0.566037 0.116874
O O12 0.687806 0.530849 0.002973
O O13 0.253169 0.925869 0.380630
O O14 0.500000 0.000000 0.387671
O O15 0.000000 0.000000 0.404360
O O16 0.590159 0.250000 0.352830
O O17 0.749099 0.337964 0.326631
O O18 0.828688 0.590369 0.743863
#
# Coordination Sequence:
#
# PCOD9360403 Si02
#       8
#     8   8   8   8   8   8   8   8
#     4  11  19  35  63  89 128 173 222 277 339 409
#     4  10  19  35  60  87 115 173 216 262 338 401
#     4   9  19  35  52  85 127 164 221 278 330 404
#     4  10  21  42  63  94 128 168 220 272 340 417
#     4  12  26  44  75 105 133 180 234 287 354 423
#     4  10  21  36  59  91 128 176 225 276 344 410
#     4  11  22  42  66  93 135 176 220 290 339 411
#     4   9  21  37  65  88 122 180 217 266 350 396
#
# _framework density 21.656323
#
# number of rings (size 3 to 8) (size 9 to 14) (size 15 to 20)
#    0.000    1.750    2.500    1.500    1.750    1.500 
#    0.000   11.875    0.000    0.000    0.000    0.000 
#    0.000    0.000    0.000    0.000    0.000    0.000 
#
# Total GULP energy -178272.613190 kJ/mol
# GULP energy per Si atom -5571.019162 kJ/mol
# Density = 2.160703 g / cm^3
# Si number density = 21.656323 Si / 1000 Ang^3
#
#
#
# Elastic Constant Matrix: (Units=GPa)
#
#
# Indices 1 2 3 4 5 6 
#
# 1 58.5850 9.2530 27.9889 0.0000 0.0000 0.0000
# 2 9.2530 48.3110 -3.9179 0.0000 0.0000 0.0000
# 3 27.9889 -3.9179 103.8929 0.0000 0.0000 0.0000
# 4 0.0000 0.0000 0.0000 18.6449 0.0000 0.0000
# 5 0.0000 0.0000 0.0000 0.0000 35.0509 0.0000
# 6 0.0000 0.0000 0.0000 0.0000 0.0000 19.6736
#
#
#
# Elastic Compliance Matrix: (Units=1/GPa)
#
#
# Indices 1 2 3 4 5 6 
#
# 1 0.020476 -0.004382 -0.005681 0.000000 0.000000 0.000000
# 2 -0.004382 0.021701 0.001999 0.000000 0.000000 0.000000
# 3 -0.005681 0.001999 0.011231 0.000000 0.000000 0.000000
# 4 0.000000 0.000000 0.000000 0.053634 0.000000 0.000000
# 5 0.000000 0.000000 0.000000 0.000000 0.028530 0.000000
# 6 0.000000 0.000000 0.000000 0.000000 0.000000 0.050830
#
#
# Mechanical properties :
#
#
# Convention : Reuss Voigt Hill
#
# Bulk Modulus (GPa) = 26.82559 30.82632 28.82596
# Shear Modulus (GPa) = 23.26046 26.50487 24.88266
#
# Velocity S-wave (km/s) = 3.28086 3.50220 3.39334
# Velocity P-wave (km/s) = 5.17358 5.53346 5.35654
#
# Compressibility (1/GPa) = 0.03727783
#
# Stress axis : x y z
#
# Youngs Moduli (GPa) = 48.83833 46.08148 89.03710
#
# Poissons Ratio (x) = 0.20195 0.50586
# Poissons Ratio (y) = 0.21403 -0.17799
# Poissons Ratio (z) = 0.27747 -0.09212
#
# Static dielectric constant tensor:
#      x y z
#    x 1.850140 0.000000 0.000000 
#    y 0.000000 1.819300 0.000000 
#    z 0.000000 0.000000 1.838150 
# 
# From -- ./inp_files/11216.got.cif
#   From: 2010.05.17/outbox.cif.g08.bks.cpg/sg39_6_cif.got.tgz:11216.got - 2010.06.03 18:22:40.
