data_PCOD9360489
_publ_section_title
;
Structure prediction by ZEFSAII (Michael W. Deem and Ramdas Pophale) SiO2 
 PCOD9360489
Probable space group: A B M 2
;
_chemical_formula_sum "Si O2"
_cell_formula_units_Z 64
_cell_length_a 15.826163
_cell_length_b 8.594473
_cell_length_c 24.276938
_cell_angle_alpha 90.000000
_cell_angle_beta 90.000000
_cell_angle_gamma 90.000000
_cell_volume 3302.089157
_symmetry_space_group_name_H-M "A B M 2"
_symmetry_group_IT_number 39
_symmetry_cell_setting 'orthorhombic'
loop_
_space_group_symop_operation_xyz
x,y,z
-x,-y,z
-x,1/2+y,z
x,1/2-y,z
x,1/2+y,1/2+z
-x,1/2-y,1/2+z
-x,y,1/2+z
x,-y,1/2+z
loop_
_atom_site_type_symbol
_atom_site_label
_atom_site_fract_x
_atom_site_fract_y
_atom_site_fract_z
Si Si1 0.653432 0.561176 0.588400
Si Si2 0.748147 0.937321 0.277198
Si Si3 0.908977 0.563058 0.468511
Si Si4 0.749809 0.435788 0.400810
Si Si5 0.149714 0.437729 0.589978
Si Si6 0.591089 0.062793 0.968985
Si Si7 0.089566 0.564336 0.705684
Si Si8 0.590954 0.562876 0.707784
O O1 0.652513 0.750000 0.588037
O O2 0.751753 0.513957 0.588901
O O3 0.609506 0.509733 0.531989
O O4 0.609223 0.510216 0.644749
O O5 0.746013 0.750000 0.278933
O O6 0.831444 0.986665 0.243062
O O7 0.750985 0.003611 0.338487
O O8 0.665984 0.999047 0.245451
O O9 0.907343 0.750000 0.465530
O O10 0.832636 0.496837 0.432460
O O11 0.892420 0.516784 0.532236
O O12 0.000000 0.500000 0.450843
O O13 0.748123 0.250000 0.401917
O O14 0.667141 0.501206 0.431632
O O15 0.146942 0.250000 0.593998
O O16 0.105903 0.507358 0.643511
O O17 0.591372 0.250000 0.967699
O O18 0.500000 0.000000 0.951378
O O19 0.086737 0.750000 0.706019
O O20 0.000000 0.500000 0.725592
O O21 0.500000 0.500000 0.725335
O O22 0.591628 0.750000 0.709233
#
# Coordination Sequence:
#
# PCOD9360489 Si02
#       8
#     8   8   8   8   8   8   8   8
#     4   9  18  35  62  93 127 166 201 245 305 367
#     4  11  25  45  65  89 121 161 210 262 311 365
#     4  11  23  41  65  94 129 167 207 255 309 369
#     4  12  26  44  66  92 121 163 212 261 315 369
#     4  10  19  37  64  93 127 166 204 247 305 366
#     4  11  22  41  65  95 130 166 207 254 309 369
#     4  11  24  40  63  94 126 162 204 252 308 367
#     4  11  22  39  64  94 128 164 205 251 306 368
#
# _framework density 19.381668999999999
#
# number of rings (size 3 to 8) (size 9 to 14) (size 15 to 20)
#    0.000    1.250    2.500    3.750    0.000    4.500 
#    0.000    5.625    0.000    0.000    0.000    0.000 
#    0.000    0.000    0.000    0.000    0.000    0.000 
#
# Total GULP energy -178978.124703 kJ/mol
# GULP energy per Si atom -5593.066397 kJ/mol
# Density = 1.933756 g / cm^3
# Si number density = 19.381669 Si / 1000 Ang^3
#
#
#
# Elastic Constant Matrix: (Units=GPa)
#
#
# Indices 1 2 3 4 5 6 
#
# 1 206.5220 55.8738 90.1191 0.0000 0.0000 0.0000
# 2 55.8738 74.2466 50.6948 0.0000 0.0000 0.0000
# 3 90.1191 50.6948 156.0637 0.0000 0.0000 0.0000
# 4 0.0000 0.0000 0.0000 25.2746 0.0000 0.0000
# 5 0.0000 0.0000 0.0000 0.0000 -5.3120 0.0000
# 6 0.0000 0.0000 0.0000 0.0000 0.0000 32.0692
#
#
#
# Elastic Compliance Matrix: (Units=1/GPa)
#
#
# Indices 1 2 3 4 5 6 
#
# 1 0.007031 -0.003237 -0.003008 0.000000 0.000000 0.000000
# 2 -0.003237 0.018797 -0.004237 0.000000 0.000000 0.000000
# 3 -0.003008 -0.004237 0.009521 0.000000 0.000000 0.000000
# 4 0.000000 0.000000 0.000000 0.039565 0.000000 0.000000
# 5 0.000000 0.000000 0.000000 0.000000 -0.188253 0.000000
# 6 0.000000 0.000000 0.000000 0.000000 0.000000 0.031183
#
#
# Mechanical properties :
#
#
# Convention : Reuss Voigt Hill
#
# Bulk Modulus (GPa) = 69.51739 92.24531 80.88135
# Shear Modulus (GPa) = -88.65707 26.41602 -31.12053
#
# Velocity S-wave (km/s) = -6.77068 3.69580 -4.01143
# Velocity P-wave (km/s) = 5.01770 8.11846 4.51288
#
# Compressibility (1/GPa) = 0.01438489
#
# Stress axis : x y z
#
# Youngs Moduli (GPa) = 142.23669 53.19905 105.02923
#
# Poissons Ratio (x) = 0.17219 0.31597
# Poissons Ratio (y) = 0.46037 0.44501
# Poissons Ratio (z) = 0.42791 0.22540
#
# Static dielectric constant tensor:
#      x y z
#    x 1.653800 0.000000 0.000000 
#    y 0.000000 1.648240 0.000000 
#    z 0.000000 0.000000 1.654870 
# 
# From -- ./inp_files/16133.got.cif
#   From: 2010.05.17/outbox.cif.g08.bks.cpg/sg39_9_cif.got.tgz:16133.got - 2010.06.03 18:22:40.
