data_PCOD9360580
_publ_section_title
;
Structure prediction by ZEFSAII (Michael W. Deem and Ramdas Pophale) SiO2 
 PCOD9360580
Probable space group: A B M 2
;
_chemical_formula_sum "Si O2"
_cell_formula_units_Z 64
_cell_length_a 17.506837
_cell_length_b 8.201140
_cell_length_c 23.034115
_cell_angle_alpha 90.000000
_cell_angle_beta 90.000000
_cell_angle_gamma 90.000000
_cell_volume 3307.146583
_symmetry_space_group_name_H-M "A B M 2"
_symmetry_group_IT_number 39
_symmetry_cell_setting 'orthorhombic'
loop_
_space_group_symop_operation_xyz
x,y,z
-x,-y,z
-x,1/2+y,z
x,1/2-y,z
x,1/2+y,1/2+z
-x,1/2-y,1/2+z
-x,y,1/2+z
x,-y,1/2+z
loop_
_atom_site_type_symbol
_atom_site_label
_atom_site_fract_x
_atom_site_fract_y
_atom_site_fract_z
Si Si1 0.921032 0.054760 0.940800
Si Si2 0.619007 0.442685 0.428337
Si Si3 0.773742 0.051102 0.873410
Si Si4 0.252802 0.553849 0.617802
Si Si5 0.732682 0.059457 0.747919
Si Si6 0.579653 0.444982 0.299005
Si Si7 0.586358 0.440514 0.056986
Si Si8 0.084234 0.945927 0.073089
O O1 0.918211 0.250000 0.944151
O O2 0.851466 0.999856 0.902508
O O3 0.916661 0.991810 0.006506
O O4 0.000000 0.000000 0.914156
O O5 0.606204 0.250000 0.435698
O O6 0.706901 0.480104 0.413412
O O7 0.582176 0.495973 0.367020
O O8 0.593294 0.526842 0.487522
O O9 0.765900 0.250000 0.873383
O O10 0.770742 0.992286 0.806783
O O11 0.253086 0.750000 0.617307
O O12 0.254990 0.489403 0.684255
O O13 0.333269 0.506308 0.585441
O O14 0.168452 0.499951 0.595375
O O15 0.753479 0.250000 0.744712
O O16 0.644683 0.036947 0.764314
O O17 0.500000 0.500000 0.273910
O O18 0.591150 0.250000 0.296777
O O19 0.500000 0.500000 0.074683
O O20 0.587255 0.250000 0.068557
O O21 0.083699 0.750000 0.074784
O O22 0.000000 0.000000 0.098059
#
# Coordination Sequence:
#
# PCOD9360580 Si02
#       8
#     8   8   8   8   8   8   8   8
#     4   9  18  31  51  79 109 137 169 210 263 324
#     4  10  20  34  54  82 111 141 178 224 277 334
#     4   9  17  33  55  79 108 143 179 219 270 330
#     4  11  23  40  60  83 112 150 194 241 289 339
#     4   9  20  37  56  76 104 142 183 225 272 325
#     4  10  20  33  53  79 107 139 178 223 273 326
#     4  12  25  40  58  82 113 151 191 235 287 344
#     4  10  20  36  59  88 117 149 188 233 285 342
#
# _framework density 19.352031
#
# number of rings (size 3 to 8) (size 9 to 14) (size 15 to 20)
#    0.000    2.000    0.000    3.750    0.000    6.000 
#    0.000    0.625    0.000    1.500    0.000    0.000 
#    0.000    0.000    0.000    0.000    0.000    0.000 
#
# Total GULP energy -178204.246158 kJ/mol
# GULP energy per Si atom -5568.882692 kJ/mol
# Density = 1.930798 g / cm^3
# Si number density = 19.352031 Si / 1000 Ang^3
#
#
#
# Elastic Constant Matrix: (Units=GPa)
#
#
# Indices 1 2 3 4 5 6 
#
# 1 176.1175 18.3860 57.6371 0.0000 0.0000 0.0000
# 2 18.3860 39.7329 5.6385 0.0000 0.0000 0.0000
# 3 57.6371 5.6385 65.7521 0.0000 0.0000 0.0000
# 4 0.0000 0.0000 0.0000 33.9632 0.0000 0.0000
# 5 0.0000 0.0000 0.0000 0.0000 -51.7848 0.0000
# 6 0.0000 0.0000 0.0000 0.0000 0.0000 31.5260
#
#
#
# Elastic Compliance Matrix: (Units=1/GPa)
#
#
# Indices 1 2 3 4 5 6 
#
# 1 0.008265 -0.002831 -0.007002 0.000000 0.000000 0.000000
# 2 -0.002831 0.026448 0.000214 0.000000 0.000000 0.000000
# 3 -0.007002 0.000214 0.021328 0.000000 0.000000 0.000000
# 4 0.000000 0.000000 0.000000 0.029444 0.000000 0.000000
# 5 0.000000 0.000000 0.000000 0.000000 -0.019311 0.000000
# 6 0.000000 0.000000 0.000000 0.000000 0.000000 0.031720
#
#
# Mechanical properties :
#
#
# Convention : Reuss Voigt Hill
#
# Bulk Modulus (GPa) = 27.17249 49.43617 38.30433
# Shear Modulus (GPa) = 38.63960 16.07029 27.35494
#
# Velocity S-wave (km/s) = 4.47326 2.88482 3.76379
# Velocity P-wave (km/s) = 6.38370 6.05784 6.22291
#
# Compressibility (1/GPa) = 0.03680193
#
# Stress axis : x y z
#
# Youngs Moduli (GPa) = 120.98936 37.81042 46.88572
#
# Poissons Ratio (x) = 0.10704 0.32831
# Poissons Ratio (y) = 0.34251 -0.01001
# Poissons Ratio (z) = 0.84721 -0.00807
#
# Static dielectric constant tensor:
#      x y z
#    x 1.760030 0.000000 0.000000 
#    y 0.000000 1.668860 0.000000 
#    z 0.000000 0.000000 1.692690 
# 
# From -- ./inp_files/16156.got.cif
#   From: 2010.05.17/outbox.cif.g08.bks.cpg/sg39_9_cif.got.tgz:16156.got - 2010.06.03 18:22:40.
