data_PCOD9360764
_publ_section_title
;
Structure prediction by ZEFSAII (Michael W. Deem and Ramdas Pophale) SiO2 
 PCOD9360764
Probable space group: A B M 2
;
_chemical_formula_sum "Si O2"
_cell_formula_units_Z 64
_cell_length_a 11.665670
_cell_length_b 16.619895
_cell_length_c 16.644124
_cell_angle_alpha 90.000000
_cell_angle_beta 90.000000
_cell_angle_gamma 90.000000
_cell_volume 3226.999553
_symmetry_space_group_name_H-M "A B M 2"
_symmetry_group_IT_number 39
_symmetry_cell_setting 'orthorhombic'
loop_
_space_group_symop_operation_xyz
x,y,z
-x,-y,z
-x,1/2+y,z
x,1/2-y,z
x,1/2+y,1/2+z
-x,1/2-y,1/2+z
-x,y,1/2+z
x,-y,1/2+z
loop_
_atom_site_type_symbol
_atom_site_label
_atom_site_fract_x
_atom_site_fract_y
_atom_site_fract_z
Si Si1 0.785891 0.847416 0.198330
Si Si2 0.040985 0.841440 0.828772
Si Si3 0.879569 0.531331 0.456441
Si Si4 0.210295 0.395220 0.837626
Si Si5 0.690494 0.466339 0.568887
Si Si6 0.566913 0.843973 0.299050
Si Si7 0.416440 0.156192 0.946594
Si Si8 0.402535 0.058894 0.717427
O O1 0.779772 0.750000 0.182979
O O2 0.901405 0.868712 0.245403
O O3 0.763245 0.900172 0.119676
O O4 0.686067 0.872314 0.261779
O O5 0.077779 0.750000 0.839718
O O6 0.087923 0.889655 0.905893
O O7 0.904477 0.846897 0.818941
O O8 0.838486 0.469034 0.388652
O O9 0.776578 0.523879 0.519451
O O10 0.000000 0.500000 0.492640
O O11 0.300810 0.346973 0.892361
O O12 0.284493 0.429488 0.764338
O O13 0.607573 0.410753 0.514194
O O14 0.623670 0.522010 0.631664
O O15 0.581590 0.750000 0.311350
O O16 0.516811 0.871707 0.384976
O O17 0.471575 0.858653 0.229799
O O18 0.566075 0.250000 0.472492
O O19 0.500000 0.000000 0.756388
#
# Coordination Sequence:
#
# PCOD9360764 Si02
#       8
#     8   8   8   8   8   8   8   8
#     4  10  20  35  57  84 115 152 193 246 301 357
#     4  10  20  37  61  88 115 151 202 249 292 347
#     4   9  20  37  55  83 118 155 193 236 292 346
#     4   9  19  36  61  84 112 154 199 248 285 346
#     4  11  21  35  54  85 122 155 193 244 306 376
#     4   9  19  38  58  78 109 150 201 248 289 348
#     4   9  18  35  59  84 109 152 200 244 295 354
#     4  11  21  36  57  86 118 154 193 244 307 357
#
# _framework density 19.832664999999999
#
# number of rings (size 3 to 8) (size 9 to 14) (size 15 to 20)
#    0.000    2.250    1.250    1.500    0.000    1.500 
#    2.250    2.500    0.000    0.000    0.000    0.000 
#    0.000    0.000    0.000    0.000    0.000    0.000 
#
# Total GULP energy -178257.413015 kJ/mol
# GULP energy per Si atom -5570.544157 kJ/mol
# Density = 1.978753 g / cm^3
# Si number density = 19.832665 Si / 1000 Ang^3
#
#
#
# Elastic Constant Matrix: (Units=GPa)
#
#
# Indices 1 2 3 4 5 6 
#
# 1 51.1487 -1.2548 14.4087 0.0000 0.0000 0.0000
# 2 -1.2548 31.5337 20.8251 0.0000 0.0000 0.0000
# 3 14.4087 20.8251 73.9946 0.0000 0.0000 0.0000
# 4 0.0000 0.0000 0.0000 27.2422 0.0000 0.0000
# 5 0.0000 0.0000 0.0000 0.0000 21.6350 0.0000
# 6 0.0000 0.0000 0.0000 0.0000 0.0000 17.3860
#
#
#
# Elastic Compliance Matrix: (Units=1/GPa)
#
#
# Indices 1 2 3 4 5 6 
#
# 1 0.021166 0.004378 -0.005354 0.000000 0.000000 0.000000
# 2 0.004378 0.039858 -0.012070 0.000000 0.000000 0.000000
# 3 -0.005354 -0.012070 0.017954 0.000000 0.000000 0.000000
# 4 0.000000 0.000000 0.000000 0.036708 0.000000 0.000000
# 5 0.000000 0.000000 0.000000 0.000000 0.046221 0.000000
# 6 0.000000 0.000000 0.000000 0.000000 0.000000 0.057518
#
#
# Mechanical properties :
#
#
# Convention : Reuss Voigt Hill
#
# Bulk Modulus (GPa) = 18.90851 24.95942 21.93397
# Shear Modulus (GPa) = 19.00091 21.43249 20.21670
#
# Velocity S-wave (km/s) = 3.09861 3.29092 3.19621
# Velocity P-wave (km/s) = 4.72828 5.20120 4.97037
#
# Compressibility (1/GPa) = 0.05288624
#
# Stress axis : x y z
#
# Youngs Moduli (GPa) = 47.24463 25.08936 55.69778
#
# Poissons Ratio (x) = -0.10984 0.29819
# Poissons Ratio (y) = -0.20684 0.67227
# Poissons Ratio (z) = 0.25294 0.30283
#
# Static dielectric constant tensor:
#      x y z
#    x 1.749540 0.000000 0.000000 
#    y 0.000000 1.785900 0.000000 
#    z 0.000000 0.000000 1.715460 
# 
# From -- ./inp_files/9468.got.cif
#   From: 2010.05.17/outbox.cif.g08.bks.cpg/sg39_5_cif.got.tgz:9468.got - 2010.06.03 18:22:40.
