data_PCOD9360473
_publ_section_title
;
Structure prediction by ZEFSAII (Michael W. Deem and Ramdas Pophale) SiO2 
 PCOD9360473
Probable space group: A B M 2
;
_chemical_formula_sum "Si O2"
_cell_formula_units_Z 64
_cell_length_a 11.893507
_cell_length_b 16.786274
_cell_length_c 16.118271
_cell_angle_alpha 90.000000
_cell_angle_beta 90.000000
_cell_angle_gamma 90.000000
_cell_volume 3217.975206
_symmetry_space_group_name_H-M "A B M 2"
_symmetry_group_IT_number 39
_symmetry_cell_setting 'orthorhombic'
loop_
_space_group_symop_operation_xyz
x,y,z
-x,-y,z
-x,1/2+y,z
x,1/2-y,z
x,1/2+y,1/2+z
-x,1/2-y,1/2+z
-x,y,1/2+z
x,-y,1/2+z
loop_
_atom_site_type_symbol
_atom_site_label
_atom_site_fract_x
_atom_site_fract_y
_atom_site_fract_z
Si Si1 0.010436 0.403832 0.892190
Si Si2 0.615822 0.539686 0.728797
Si Si3 0.615895 0.160033 0.081992
Si Si4 0.229857 0.941198 0.612228
Si Si5 0.607783 0.337684 0.503737
Si Si6 0.250758 0.340476 0.844822
Si Si7 0.863626 0.607288 0.554504
Si Si8 0.979932 0.903321 0.203086
O O1 0.138833 0.372690 0.890899
O O2 0.000000 0.500000 0.893740
O O3 0.972563 0.377489 0.798875
O O4 0.940313 0.376795 0.973570
O O5 0.500000 0.500000 0.762862
O O6 0.583301 0.597743 0.652942
O O7 0.696733 0.474432 0.688076
O O8 0.700693 0.594077 0.782336
O O9 0.606357 0.250000 0.113948
O O10 0.524051 0.147050 0.010890
O O11 0.741898 0.147037 0.050890
O O12 0.316635 0.899936 0.551836
O O13 0.133386 0.887777 0.652340
O O14 0.165606 0.013005 0.564426
O O15 0.628480 0.250000 0.541280
O O16 0.650257 0.335239 0.411152
O O17 0.230027 0.250000 0.812370
O O18 0.922385 0.629220 0.642514
O O19 0.000000 0.000000 0.206096
#
# Coordination Sequence:
#
# PCOD9360473 Si02
#       8
#     8   8   8   8   8   8   8   8
#     4  11  20  37  60  90 123 168 216 264 318 383
#     4  11  21  39  61  94 119 158 213 262 314 376
#     4  10  21  39  60  84 120 159 202 256 317 382
#     4  10  19  37  60  87 123 154 209 265 313 378
#     4  10  21  39  59  82 119 166 205 251 319 387
#     4  11  24  41  62  90 129 170 208 257 325 393
#     4  10  20  33  59  88 118 161 207 263 314 374
#     4   9  18  33  54  82 118 151 193 254 310 364
#
# _framework density 19.888283999999999
#
# number of rings (size 3 to 8) (size 9 to 14) (size 15 to 20)
#    0.000    1.750    1.250    6.000    0.000    0.500 
#    9.000    1.250    0.000    0.000    0.000    0.000 
#    0.000    0.000    0.000    0.000    0.000    0.000 
#
# Total GULP energy -178363.071838 kJ/mol
# GULP energy per Si atom -5573.845995 kJ/mol
# Density = 1.984302 g / cm^3
# Si number density = 19.888284 Si / 1000 Ang^3
#
#
#
# Elastic Constant Matrix: (Units=GPa)
#
#
# Indices 1 2 3 4 5 6 
#
# 1 80.3585 4.4778 18.3586 0.0000 0.0000 0.0000
# 2 4.4778 28.3329 1.5571 0.0000 0.0000 0.0000
# 3 18.3586 1.5571 58.4296 0.0000 0.0000 0.0000
# 4 0.0000 0.0000 0.0000 20.3191 0.0000 0.0000
# 5 0.0000 0.0000 0.0000 0.0000 -1.2071 0.0000
# 6 0.0000 0.0000 0.0000 0.0000 0.0000 -22.1923
#
#
#
# Elastic Compliance Matrix: (Units=1/GPa)
#
#
# Indices 1 2 3 4 5 6 
#
# 1 0.013508 -0.001904 -0.004194 0.000000 0.000000 0.000000
# 2 -0.001904 0.035615 -0.000351 0.000000 0.000000 0.000000
# 3 -0.004194 -0.000351 0.018442 0.000000 0.000000 0.000000
# 4 0.000000 0.000000 0.000000 0.049215 0.000000 0.000000
# 5 0.000000 0.000000 0.000000 0.000000 -0.828442 0.000000
# 6 0.000000 0.000000 0.000000 0.000000 0.000000 -0.045061
#
#
# Mechanical properties :
#
#
# Convention : Reuss Voigt Hill
#
# Bulk Modulus (GPa) = 18.29242 23.98978 21.14110
# Shear Modulus (GPa) = -6.89082 8.89912 1.00415
#
# Velocity S-wave (km/s) = -1.86341 2.11761 0.71133
# Velocity P-wave (km/s) = 2.14192 4.25059 3.36566
#
# Compressibility (1/GPa) = 0.05466744
#
# Stress axis : x y z
#
# Youngs Moduli (GPa) = 74.02786 28.07808 54.22523
#
# Poissons Ratio (x) = 0.05347 0.22740
# Poissons Ratio (y) = 0.14098 0.01902
# Poissons Ratio (z) = 0.31044 0.00985
#
# Static dielectric constant tensor:
#      x y z
#    x 1.711000 0.000000 0.000000 
#    y 0.000000 1.743690 0.000000 
#    z 0.000000 0.000000 1.710890 
# 
# From -- ./inp_files/9424.got.cif
#   From: 2010.05.17/outbox.cif.g08.bks.cpg/sg39_5_cif.got.tgz:9424.got - 2010.06.03 18:22:40.
