data_PCOD9360291
_publ_section_title
;
Structure prediction by ZEFSAII (Michael W. Deem and Ramdas Pophale) SiO2 
 PCOD9360291
Probable space group: A B M 2
;
_chemical_formula_sum "Si O2"
_cell_formula_units_Z 56
_cell_length_a 14.815653
_cell_length_b 8.704617
_cell_length_c 26.143318
_cell_angle_alpha 90.000000
_cell_angle_beta 90.000000
_cell_angle_gamma 90.000000
_cell_volume 3371.562156
_symmetry_space_group_name_H-M "A B M 2"
_symmetry_group_IT_number 39
_symmetry_cell_setting 'orthorhombic'
loop_
_space_group_symop_operation_xyz
x,y,z
-x,-y,z
-x,1/2+y,z
x,1/2-y,z
x,1/2+y,1/2+z
-x,1/2-y,1/2+z
-x,y,1/2+z
x,-y,1/2+z
loop_
_atom_site_type_symbol
_atom_site_label
_atom_site_fract_x
_atom_site_fract_y
_atom_site_fract_z
Si Si1 0.095306 0.934633 0.371890
Si Si2 0.095482 0.933190 0.757310
Si Si3 0.401337 0.933956 0.006557
Si Si4 0.401830 0.934972 0.123857
Si Si5 0.399277 0.935181 0.315174
Si Si6 0.286693 0.064750 0.915717
Si Si7 0.277489 0.435867 0.717357
O O1 0.090658 0.750000 0.368598
O O2 0.182896 0.977602 0.404785
O O3 0.108300 0.999875 0.314642
O O4 0.000000 0.000000 0.391159
O O5 0.090921 0.750000 0.759808
O O6 0.180270 0.989038 0.724608
O O7 0.000000 0.000000 0.738521
O O8 0.405208 0.750000 0.004573
O O9 0.500000 0.000000 0.992974
O O10 0.328687 0.994650 0.966572
O O11 0.381955 0.981499 0.065309
O O12 0.407103 0.750000 0.125083
O O13 0.327748 0.981993 0.165280
O O14 0.500000 0.000000 0.137790
O O15 0.404114 0.750000 0.315433
O O16 0.346642 0.983438 0.366601
O O17 0.340818 0.979862 0.265512
O O18 0.500000 0.000000 0.313472
O O19 0.291234 0.250000 0.918653
O O20 0.268020 0.250000 0.718338
#
# Coordination Sequence:
#
# PCOD9360291 Si02
#       7
#     8   8   8   8   8   8   8
#     4  10  19  34  53  75 104 134 170 209 254 305
#     4  11  21  33  52  77 104 135 171 208 252 305
#     4  10  20  34  52  76 102 135 177 215 254 301
#     4   9  19  34  54  76 102 136 174 215 256 298
#     4  10  20  32  46  69 102 134 165 201 249 302
#     4  10  20  34  51  73 102 137 170 208 256 302
#     4  10  19  35  53  72 103 137 168 212 257 299
#
# _framework density 16.609511000000001
#
# number of rings (size 3 to 8) (size 9 to 14) (size 15 to 20)
#    0.000    2.000    1.429    3.857    0.000    4.571 
#    0.000    0.000    0.000    0.857    0.000    2.000 
#    0.000    0.000    0.000    0.000    0.000    0.000 
#
# Total GULP energy -156299.916934 kJ/mol
# GULP energy per Si atom -5582.139891 kJ/mol
# Density = 1.657171 g / cm^3
# Si number density = 16.609511 Si / 1000 Ang^3
#
#
#
# Elastic Constant Matrix: (Units=GPa)
#
#
# Indices 1 2 3 4 5 6 
#
# 1 181.6109 51.2653 90.3206 0.0000 0.0000 0.0000
# 2 51.2653 42.5445 33.9932 0.0000 0.0000 0.0000
# 3 90.3206 33.9932 92.1469 0.0000 0.0000 0.0000
# 4 0.0000 0.0000 0.0000 19.7778 0.0000 0.0000
# 5 0.0000 0.0000 0.0000 0.0000 23.4440 0.0000
# 6 0.0000 0.0000 0.0000 0.0000 0.0000 32.7783
#
#
#
# Elastic Compliance Matrix: (Units=1/GPa)
#
#
# Indices 1 2 3 4 5 6 
#
# 1 0.012144 -0.007263 -0.009224 0.000000 0.000000 0.000000
# 2 -0.007263 0.037673 -0.006778 0.000000 0.000000 0.000000
# 3 -0.009224 -0.006778 0.022394 0.000000 0.000000 0.000000
# 4 0.000000 0.000000 0.000000 0.050562 0.000000 0.000000
# 5 0.000000 0.000000 0.000000 0.000000 0.042655 0.000000
# 6 0.000000 0.000000 0.000000 0.000000 0.000000 0.030508
#
#
# Mechanical properties :
#
#
# Convention : Reuss Voigt Hill
#
# Bulk Modulus (GPa) = 38.94113 74.16229 56.55171
# Shear Modulus (GPa) = 19.91835 24.58158 22.24996
#
# Velocity S-wave (km/s) = 3.46672 3.85121 3.66401
# Velocity P-wave (km/s) = 6.28651 8.03263 7.21261
#
# Compressibility (1/GPa) = 0.02567979
#
# Stress axis : x y z
#
# Youngs Moduli (GPa) = 82.34686 26.54434 44.65568
#
# Poissons Ratio (x) = 0.19280 0.41189
# Poissons Ratio (y) = 0.59811 0.30269
# Poissons Ratio (z) = 0.75954 0.17992
#
# Static dielectric constant tensor:
#      x y z
#    x 1.545790 0.000000 0.000000 
#    y 0.000000 1.560490 0.000000 
#    z 0.000000 0.000000 1.550190 
# 
# From -- ./inp_files/14811.got.cif
#   From: 2010.05.17/outbox.cif.g08.bks.cpg/sg39_8_cif.got.tgz:14811.got - 2010.06.03 18:22:40.
