data_PCOD9360173
_publ_section_title
;
Structure prediction by ZEFSAII (Michael W. Deem and Ramdas Pophale) SiO2 
 PCOD9360173
Probable space group: A B M 2
;
_chemical_formula_sum "Si O2"
_cell_formula_units_Z 64
_cell_length_a 8.677073
_cell_length_b 16.490793
_cell_length_c 20.896340
_cell_angle_alpha 90.000000
_cell_angle_beta 90.000000
_cell_angle_gamma 90.000000
_cell_volume 2990.095211
_symmetry_space_group_name_H-M "A B M 2"
_symmetry_group_IT_number 39
_symmetry_cell_setting 'orthorhombic'
loop_
_space_group_symop_operation_xyz
x,y,z
-x,-y,z
-x,1/2+y,z
x,1/2-y,z
x,1/2+y,1/2+z
-x,1/2-y,1/2+z
-x,y,1/2+z
x,-y,1/2+z
loop_
_atom_site_type_symbol
_atom_site_label
_atom_site_fract_x
_atom_site_fract_y
_atom_site_fract_z
Si Si1 0.535223 0.157946 0.653280
Si Si2 0.065777 0.092232 0.816980
Si Si3 0.632729 0.594465 0.022302
Si Si4 0.855003 0.100480 0.698225
Si Si5 0.065054 0.409489 0.441701
Si Si6 0.044288 0.343399 0.065505
Si Si7 0.343056 0.949740 0.241789
Si Si8 0.391601 0.060335 0.438478
O O1 0.507143 0.250000 0.632989
O O2 0.558577 0.100699 0.591942
O O3 0.700178 0.153957 0.689761
O O4 0.399709 0.121693 0.695732
O O5 0.244881 0.086984 0.799664
O O6 0.964397 0.124679 0.757459
O O7 0.040099 0.130048 0.886793
O O8 0.000000 0.000000 0.824228
O O9 0.970464 0.750000 0.083316
O O10 0.792286 0.640728 0.029638
O O11 0.505886 0.624266 0.970982
O O12 0.946248 0.106411 0.631183
O O13 0.781054 0.011541 0.710067
O O14 0.234534 0.410640 0.410018
O O15 0.000000 0.500000 0.454269
O O16 0.075015 0.367395 0.510479
O O17 0.340617 0.496852 0.995689
O O18 0.500000 0.000000 0.254477
O O19 0.500000 0.000000 0.397824
#
# Coordination Sequence:
#
# PCOD9360173 Si02
#       8
#     8   8   8   8   8   8   8   8
#     4  10  19  32  54  86 121 155 195 250 309 362
#     4   9  20  38  58  87 114 153 206 255 299 350
#     4   8  17  32  52  82 116 149 193 237 296 362
#     4   9  19  36  57  81 114 156 202 255 297 358
#     4  11  20  38  61  84 119 157 199 251 302 368
#     4  11  22  37  58  88 119 158 201 250 310 365
#     4   9  19  35  58  84 115 155 200 251 300 356
#     4   8  18  32  55  87 105 150 195 240 292 359
#
# _framework density 21.404
#
# number of rings (size 3 to 8) (size 9 to 14) (size 15 to 20)
#    0.750    1.750    1.250    1.500    8.750    2.500 
#    0.000   20.000    0.000    0.000    0.000    0.000 
#    0.000    0.000    0.000    0.000    0.000    0.000 
#
# Total GULP energy -178147.224290 kJ/mol
# GULP energy per Si atom -5567.100759 kJ/mol
# Density = 2.135528 g / cm^3
# Si number density = 21.404000 Si / 1000 Ang^3
#
#
#
# Elastic Constant Matrix: (Units=GPa)
#
#
# Indices 1 2 3 4 5 6 
#
# 1 67.3224 -2.5301 16.6860 0.0000 0.0000 0.0000
# 2 -2.5301 39.2549 17.6025 0.0000 0.0000 0.0000
# 3 16.6860 17.6025 97.1388 0.0000 0.0000 0.0000
# 4 0.0000 0.0000 0.0000 -11.2814 0.0000 0.0000
# 5 0.0000 0.0000 0.0000 0.0000 36.8649 0.0000
# 6 0.0000 0.0000 0.0000 0.0000 0.0000 9.9562
#
#
#
# Elastic Compliance Matrix: (Units=1/GPa)
#
#
# Indices 1 2 3 4 5 6 
#
# 1 0.015723 0.002421 -0.003140 0.000000 0.000000 0.000000
# 2 0.002421 0.028100 -0.005508 0.000000 0.000000 0.000000
# 3 -0.003140 -0.005508 0.011832 0.000000 0.000000 0.000000
# 4 0.000000 0.000000 0.000000 -0.088642 0.000000 0.000000
# 5 0.000000 0.000000 0.000000 0.000000 0.027126 0.000000
# 6 0.000000 0.000000 0.000000 0.000000 0.000000 0.100440
#
#
# Mechanical properties :
#
#
# Convention : Reuss Voigt Hill
#
# Bulk Modulus (GPa) = 23.14667 29.69257 26.41962
# Shear Modulus (GPa) = 41.17469 18.57179 29.87324
#
# Velocity S-wave (km/s) = 4.39075 2.94883 3.73994
# Velocity P-wave (km/s) = 6.04504 5.04943 5.56953
#
# Compressibility (1/GPa) = 0.04320276
#
# Stress axis : x y z
#
# Youngs Moduli (GPa) = 63.60095 35.58665 84.51692
#
# Poissons Ratio (x) = -0.08616 0.26535
# Poissons Ratio (y) = -0.15399 0.46552
# Poissons Ratio (z) = 0.19968 0.19601
#
# Static dielectric constant tensor:
#      x y z
#    x 1.862350 0.000000 0.000000 
#    y 0.000000 1.789790 0.000000 
#    z 0.000000 0.000000 1.829260 
# 
# From -- ./inp_files/11949.got.cif
#   From: 2010.05.17/outbox.cif.g08.bks.cpg/sg39_6_cif.got.tgz:11949.got - 2010.06.03 18:22:40.
