data_PCOD9360519
_publ_section_title
;
Structure prediction by ZEFSAII (Michael W. Deem and Ramdas Pophale) SiO2 
 PCOD9360519
Probable space group: A B M 2
;
_chemical_formula_sum "Si O2"
_cell_formula_units_Z 36
_cell_length_a 21.323681
_cell_length_b 14.414853
_cell_length_c 5.459437
_cell_angle_alpha 90.000000
_cell_angle_beta 90.000000
_cell_angle_gamma 90.000000
_cell_volume 1678.109336
_symmetry_space_group_name_H-M "A B M 2"
_symmetry_group_IT_number 39
_symmetry_cell_setting 'orthorhombic'
loop_
_space_group_symop_operation_xyz
x,y,z
-x,-y,z
-x,1/2+y,z
x,1/2-y,z
x,1/2+y,1/2+z
-x,1/2-y,1/2+z
-x,y,1/2+z
x,-y,1/2+z
loop_
_atom_site_type_symbol
_atom_site_label
_atom_site_fract_x
_atom_site_fract_y
_atom_site_fract_z
Si Si1 0.848812 0.113491 0.804660
Si Si2 0.798208 0.403280 0.304893
Si Si3 0.039512 0.750000 0.745809
Si Si4 0.347734 0.553592 0.233260
Si Si5 0.472460 0.358240 0.863034
O O1 0.808758 0.142116 0.567685
O O2 0.916622 0.158067 0.761614
O O3 0.836015 0.002143 0.818885
O O4 0.825386 0.146888 0.068313
O O5 0.724928 0.419363 0.260138
O O6 0.004415 0.750000 0.485477
O O7 0.357366 0.479320 0.453707
O O8 0.399770 0.629487 0.296772
O O9 0.488693 0.250000 0.881956
O O10 0.510992 0.397692 0.631010
#
# Coordination Sequence:
#
# PCOD9360519 Si02
#       5
#     8   8   4   8   8
#     4  10  20  40  64  84 124 161 186 244 304 342
#     4  10  19  40  61  90 119 159 200 250 302 358
#     4  12  26  44  62  96 128 158 202 244 282 362
#     4  12  21  37  63  92 123 150 213 264 297 365
#     4  10  23  42  58  82 127 170 204 250 311 370
#
# _framework density 21.452715000000001
#
# number of rings (size 3 to 8) (size 9 to 14) (size 15 to 20)
#    0.000    1.333    4.444    2.667    0.000    2.667 
#    4.000   13.333    0.000    0.000    0.000    0.000 
#    0.000    0.000    0.000    0.000    0.000    0.000 
#
# Total GULP energy -100350.049436 kJ/mol
# GULP energy per Si atom -5575.002746 kJ/mol
# Density = 2.140389 g / cm^3
# Si number density = 21.452715 Si / 1000 Ang^3
#
#
#
# Elastic Constant Matrix: (Units=GPa)
#
#
# Indices 1 2 3 4 5 6 
#
# 1 71.6154 11.2641 -7.9824 0.0000 0.0000 0.0000
# 2 11.2641 69.0526 -1.7136 0.0000 0.0000 0.0000
# 3 -7.9824 -1.7136 111.0806 0.0000 0.0000 0.0000
# 4 0.0000 0.0000 0.0000 -2.4158 0.0000 0.0000
# 5 0.0000 0.0000 0.0000 0.0000 46.4685 0.0000
# 6 0.0000 0.0000 0.0000 0.0000 0.0000 63.9440
#
#
#
# Elastic Compliance Matrix: (Units=1/GPa)
#
#
# Indices 1 2 3 4 5 6 
#
# 1 0.014442 -0.002331 0.001002 0.000000 0.000000 0.000000
# 2 -0.002331 0.014863 0.000062 0.000000 0.000000 0.000000
# 3 0.001002 0.000062 0.009075 0.000000 0.000000 0.000000
# 4 0.000000 0.000000 0.000000 -0.413938 0.000000 0.000000
# 5 0.000000 0.000000 0.000000 0.000000 0.021520 0.000000
# 6 0.000000 0.000000 0.000000 0.000000 0.000000 0.015639
#
#
# Mechanical properties :
#
#
# Convention : Reuss Voigt Hill
#
# Bulk Modulus (GPa) = 27.89705 28.32052 28.10878
# Shear Modulus (GPa) = -15.43614 38.27805 11.42096
#
# Velocity S-wave (km/s) = -2.68534 4.22868 2.30984
# Velocity P-wave (km/s) = 1.84864 6.08870 4.49943
#
# Compressibility (1/GPa) = 0.03584609
#
# Stress axis : x y z
#
# Youngs Moduli (GPa) = 69.24360 67.27900 110.18772
#
# Poissons Ratio (x) = 0.15682 -0.11039
# Poissons Ratio (y) = 0.16140 -0.00681
# Poissons Ratio (z) = -0.06937 -0.00416
#
# Static dielectric constant tensor:
#      x y z
#    x 1.737020 0.000000 0.000000 
#    y 0.000000 1.803020 0.000000 
#    z 0.000000 0.000000 1.825660 
# 
# From -- ./inp_files/979.got.cif
#   From: 2010.05.17/outbox.cif.g08.bks.cpg/sg39_1_cif.got.tgz:979.got - 2010.06.03 18:22:40.
