data_PCOD9360742
_publ_section_title
;
Structure prediction by ZEFSAII (Michael W. Deem and Ramdas Pophale) SiO2 
 PCOD9360742
Probable space group: A B M 2
;
_chemical_formula_sum "Si O2"
_cell_formula_units_Z 40
_cell_length_a 15.375871
_cell_length_b 9.233183
_cell_length_c 14.686899
_cell_angle_alpha 90.000000
_cell_angle_beta 90.000000
_cell_angle_gamma 90.000000
_cell_volume 2085.073066
_symmetry_space_group_name_H-M "A B M 2"
_symmetry_group_IT_number 39
_symmetry_cell_setting 'orthorhombic'
loop_
_space_group_symop_operation_xyz
x,y,z
-x,-y,z
-x,1/2+y,z
x,1/2-y,z
x,1/2+y,1/2+z
-x,1/2-y,1/2+z
-x,y,1/2+z
x,-y,1/2+z
loop_
_atom_site_type_symbol
_atom_site_label
_atom_site_fract_x
_atom_site_fract_y
_atom_site_fract_z
Si Si1 0.263169 0.076269 0.956860
Si Si2 0.915124 0.914271 0.671639
Si Si3 0.408082 0.577421 0.307569
Si Si4 0.725131 0.074383 0.150452
Si Si5 0.913294 0.583160 0.448996
O O1 0.252195 0.250000 0.962038
O O2 0.342850 0.042912 0.890141
O O3 0.173455 0.003601 0.923663
O O4 0.282135 0.007821 0.055369
O O5 0.922984 0.750000 0.703694
O O6 0.818321 0.968202 0.694780
O O7 0.915100 0.914717 0.560413
O O8 0.000000 0.000000 0.701504
O O9 0.500000 0.500000 0.313751
O O10 0.421737 0.750000 0.308033
O O11 0.354637 0.540987 0.216235
O O12 0.729283 0.250000 0.136515
O O13 0.911368 0.750000 0.418850
O O14 0.000000 0.500000 0.419530
#
# Coordination Sequence:
#
# PCOD9360742 Si02
#       5
#     8   8   8   8   8
#     4  10  20  35  56  83 112 144 181 224 273 327
#     4   8  14  25  45  72 102 135 171 207 249 301
#     4  10  23  41  59  79 107 141 181 231 284 333
#     4   9  19  37  57  78 108 146 181 220 270 324
#     4   9  16  28  49  78 111 148 184 220 263 317
#
# _framework density 19.183979999999998
#
# number of rings (size 3 to 8) (size 9 to 14) (size 15 to 20)
#    0.000    2.800    0.000    2.400    0.000    8.000 
#    0.000    5.000    0.000    2.400    0.000    0.000 
#    0.000    0.000    0.000    0.000    0.000    0.000 
#
# Total GULP energy -111624.831566 kJ/mol
# GULP energy per Si atom -5581.241578 kJ/mol
# Density = 1.914032 g / cm^3
# Si number density = 19.183980 Si / 1000 Ang^3
#
#
#
# Elastic Constant Matrix: (Units=GPa)
#
#
# Indices 1 2 3 4 5 6 
#
# 1 230.0776 99.4454 73.0597 0.0000 0.0000 0.0000
# 2 99.4454 83.8824 48.9545 0.0000 0.0000 0.0000
# 3 73.0597 48.9545 79.3361 0.0000 0.0000 0.0000
# 4 0.0000 0.0000 0.0000 12.6785 0.0000 0.0000
# 5 0.0000 0.0000 0.0000 0.0000 26.8805 0.0000
# 6 0.0000 0.0000 0.0000 0.0000 0.0000 42.8184
#
#
#
# Elastic Compliance Matrix: (Units=1/GPa)
#
#
# Indices 1 2 3 4 5 6 
#
# 1 0.009282 -0.009401 -0.002747 0.000000 0.000000 0.000000
# 2 -0.009401 0.028152 -0.008714 0.000000 0.000000 0.000000
# 3 -0.002747 -0.008714 0.020511 0.000000 0.000000 0.000000
# 4 0.000000 0.000000 0.000000 0.078873 0.000000 0.000000
# 5 0.000000 0.000000 0.000000 0.000000 0.037202 0.000000
# 6 0.000000 0.000000 0.000000 0.000000 0.000000 0.023354
#
#
# Mechanical properties :
#
#
# Convention : Reuss Voigt Hill
#
# Bulk Modulus (GPa) = 61.64621 92.91279 77.27950
# Shear Modulus (GPa) = 20.44941 27.93125 24.19033
#
# Velocity S-wave (km/s) = 3.26845 3.81985 3.55486
# Velocity P-wave (km/s) = 6.81525 8.24577 7.56440
#
# Compressibility (1/GPa) = 0.01622160
#
# Stress axis : x y z
#
# Youngs Moduli (GPa) = 107.73644 35.52104 48.75416
#
# Poissons Ratio (x) = 0.33393 0.13391
# Poissons Ratio (y) = 1.01283 0.42485
# Poissons Ratio (z) = 0.29592 0.30954
#
# Static dielectric constant tensor:
#      x y z
#    x 1.649580 0.000000 0.000000 
#    y 0.000000 1.646890 0.000000 
#    z 0.000000 0.000000 1.705660 
# 
# From -- ./inp_files/9626.got.cif
#   From: 2010.05.17/outbox.cif.g08.bks.cpg/sg39_5_cif.got.tgz:9626.got - 2010.06.03 18:22:40.
