data_PCOD9360219
_publ_section_title
;
Structure prediction by ZEFSAII (Michael W. Deem and Ramdas Pophale) SiO2 
 PCOD9360219
Probable space group: A B M 2
;
_chemical_formula_sum "Si O2"
_cell_formula_units_Z 40
_cell_length_a 5.094982
_cell_length_b 16.370478
_cell_length_c 25.454313
_cell_angle_alpha 90.000000
_cell_angle_beta 90.000000
_cell_angle_gamma 90.000000
_cell_volume 2123.075285
_symmetry_space_group_name_H-M "A B M 2"
_symmetry_group_IT_number 39
_symmetry_cell_setting 'orthorhombic'
loop_
_space_group_symop_operation_xyz
x,y,z
-x,-y,z
-x,1/2+y,z
x,1/2-y,z
x,1/2+y,1/2+z
-x,1/2-y,1/2+z
-x,y,1/2+z
x,-y,1/2+z
loop_
_atom_site_type_symbol
_atom_site_label
_atom_site_fract_x
_atom_site_fract_y
_atom_site_fract_z
Si Si1 0.749936 0.440467 0.322400
Si Si2 0.249727 0.440375 0.708955
Si Si3 0.611768 0.344221 0.539894
Si Si4 0.750042 0.940630 0.936994
Si Si5 0.105662 0.906787 0.096964
O O1 0.500000 0.500000 0.322253
O O2 0.737811 0.396318 0.265789
O O3 0.758957 0.398164 0.379311
O O4 0.000000 0.500000 0.322425
O O5 0.500000 0.500000 0.702268
O O6 0.206551 0.389530 0.656081
O O7 0.000000 0.500000 0.711780
O O8 0.536167 0.250000 0.535420
O O9 0.717177 0.379246 0.484908
O O10 0.355692 0.393380 0.559465
O O11 0.854738 0.354482 0.579933
O O12 0.500000 0.000000 0.937350
O O13 0.000000 0.000000 0.943566
O O14 0.000000 0.000000 0.094265
#
# Coordination Sequence:
#
# PCOD9360219 Si02
#       5
#     8   8   8   8   8
#     4   8  15  27  46  75 102 123 158 212 261 296
#     4   9  16  28  49  78 104 125 161 215 262 298
#     4  12  24  36  51  76 111 142 172 215 264 306
#     4  10  19  33  54  76 100 133 174 213 252 307
#     4  11  21  36  57  79 102 137 180 215 253 309
#
# _framework density 18.840596000000001
#
# number of rings (size 3 to 8) (size 9 to 14) (size 15 to 20)
#    0.000    2.000    0.000    6.600    0.000    0.000 
#    0.000    0.000    0.000    2.400    0.000    0.000 
#    0.000    0.000    0.000    0.000    0.000    0.000 
#
# Total GULP energy -111447.700713 kJ/mol
# GULP energy per Si atom -5572.385036 kJ/mol
# Density = 1.879771 g / cm^3
# Si number density = 18.840596 Si / 1000 Ang^3
#
#
#
# Elastic Constant Matrix: (Units=GPa)
#
#
# Indices 1 2 3 4 5 6 
#
# 1 141.5384 10.9921 30.0534 0.0000 0.0000 0.0000
# 2 10.9921 40.1511 42.6049 0.0000 0.0000 0.0000
# 3 30.0534 42.6049 177.8479 0.0000 0.0000 0.0000
# 4 0.0000 0.0000 0.0000 -4.0210 0.0000 0.0000
# 5 0.0000 0.0000 0.0000 0.0000 43.7656 0.0000
# 6 0.0000 0.0000 0.0000 0.0000 0.0000 13.3834
#
#
#
# Elastic Compliance Matrix: (Units=1/GPa)
#
#
# Indices 1 2 3 4 5 6 
#
# 1 0.007354 -0.000931 -0.001020 0.000000 0.000000 0.000000
# 2 -0.000931 0.033513 -0.007871 0.000000 0.000000 0.000000
# 3 -0.001020 -0.007871 0.007681 0.000000 0.000000 0.000000
# 4 0.000000 0.000000 0.000000 -0.248696 0.000000 0.000000
# 5 0.000000 0.000000 0.000000 0.000000 0.022849 0.000000
# 6 0.000000 0.000000 0.000000 0.000000 0.000000 0.074720
#
#
# Mechanical properties :
#
#
# Convention : Reuss Voigt Hill
#
# Bulk Modulus (GPa) = 34.59765 58.53759 46.56762
# Shear Modulus (GPa) = -68.21130 29.01808 -19.59661
#
# Velocity S-wave (km/s) = -6.02354 3.92878 -3.22860
# Velocity P-wave (km/s) = 5.47487 7.19151 3.29725
#
# Compressibility (1/GPa) = 0.02890370
#
# Stress axis : x y z
#
# Youngs Moduli (GPa) = 135.97955 29.83939 130.19816
#
# Poissons Ratio (x) = 0.02779 0.13275
# Poissons Ratio (y) = 0.12665 1.02477
# Poissons Ratio (z) = 0.13864 0.23486
#
# Static dielectric constant tensor:
#      x y z
#    x 1.596520 0.000000 0.000000 
#    y 0.000000 1.601060 0.000000 
#    z 0.000000 0.000000 1.780070 
# 
# From -- ./inp_files/15193.got.cif
#   From: 2010.05.17/outbox.cif.g08.bks.cpg/sg39_8_cif.got.tgz:15193.got - 2010.06.03 18:22:40.
