data_PCOD9360991
_publ_section_title
;
Structure prediction by ZEFSAII (Michael W. Deem and Ramdas Pophale) SiO2 
 PCOD9360991
Probable space group: A B M 2
;
_chemical_formula_sum "Si O2"
_cell_formula_units_Z 60
_cell_length_a 11.329497
_cell_length_b 14.927416
_cell_length_c 18.597428
_cell_angle_alpha 90.000000
_cell_angle_beta 90.000000
_cell_angle_gamma 90.000000
_cell_volume 3145.199158
_symmetry_space_group_name_H-M "A B M 2"
_symmetry_group_IT_number 39
_symmetry_cell_setting 'orthorhombic'
loop_
_space_group_symop_operation_xyz
x,y,z
-x,-y,z
-x,1/2+y,z
x,1/2-y,z
x,1/2+y,1/2+z
-x,1/2-y,1/2+z
-x,y,1/2+z
x,-y,1/2+z
loop_
_atom_site_type_symbol
_atom_site_label
_atom_site_fract_x
_atom_site_fract_y
_atom_site_fract_z
Si Si1 0.500000 0.000000 0.155000
Si Si2 0.140613 0.485957 0.866598
Si Si3 0.864543 0.853527 0.603161
Si Si4 0.752537 0.356036 0.483819
Si Si5 0.755196 0.855470 0.451356
Si Si6 0.753162 0.986252 0.716310
Si Si7 0.493168 0.643538 0.027996
Si Si8 0.139024 0.646769 0.639469
O O1 0.615008 0.998491 0.204829
O O2 0.504665 0.084614 0.100268
O O3 0.173765 0.415862 0.929168
O O4 0.202714 0.579242 0.889059
O O5 0.200469 0.453437 0.792833
O O6 0.000000 0.500000 0.859711
O O7 0.829314 0.750000 0.614344
O O8 0.840420 0.872923 0.519747
O O9 0.791481 0.917796 0.654095
O O10 0.001176 0.863631 0.622526
O O11 0.771440 0.250000 0.470569
O O12 0.612557 0.375388 0.483347
O O13 0.792914 0.374504 0.565512
O O14 0.761100 0.750000 0.433023
O O15 0.624036 0.875338 0.481659
O O16 0.819737 0.079039 0.699800
O O17 0.493229 0.750000 0.045167
O O18 0.162460 0.750000 0.658048
#
# Coordination Sequence:
#
# PCOD9360991 Si02
#       8
#     4   8   8   8   8   8   8   8
#     4  12  22  38  64  90 120 158 198 252 300 356
#     4  12  26  41  58  86 129 169 199 241 298 361
#     4  10  20  37  62  88 115 154 207 258 299 347
#     4  10  21  39  65  91 117 155 203 252 303 355
#     4  10  21  39  65  91 117 155 203 252 303 355
#     4  12  25  39  58  88 124 163 201 243 300 359
#     4  10  20  39  67  95 119 147 196 260 310 350
#     4  10  20  37  62  88 115 154 207 258 299 347
#
# _framework density 19.076692999999999
#
# number of rings (size 3 to 8) (size 9 to 14) (size 15 to 20)
#    0.000    1.333    2.667    3.600    0.000    3.733 
#    0.000    0.000    0.000    0.000    0.000    0.000 
#    0.000    0.000    0.000    0.000    0.000    0.000 
#
# Total GULP energy -167680.665498 kJ/mol
# GULP energy per Si atom -5589.355517 kJ/mol
# Density = 1.903327 g / cm^3
# Si number density = 19.076693 Si / 1000 Ang^3
#
#
#
# Elastic Constant Matrix: (Units=GPa)
#
#
# Indices 1 2 3 4 5 6 
#
# 1 74.2861 16.3472 1.9905 0.0000 0.0000 0.0000
# 2 16.3472 38.1069 4.9811 0.0000 0.0000 0.0000
# 3 1.9905 4.9811 16.8669 0.0000 0.0000 0.0000
# 4 0.0000 0.0000 0.0000 4.9227 0.0000 0.0000
# 5 0.0000 0.0000 0.0000 0.0000 20.9636 0.0000
# 6 0.0000 0.0000 0.0000 0.0000 0.0000 23.0760
#
#
#
# Elastic Compliance Matrix: (Units=1/GPa)
#
#
# Indices 1 2 3 4 5 6 
#
# 1 0.014865 -0.006394 0.000134 0.000000 0.000000 0.000000
# 2 -0.006394 0.030046 -0.008118 0.000000 0.000000 0.000000
# 3 0.000134 -0.008118 0.061669 0.000000 0.000000 0.000000
# 4 0.000000 0.000000 0.000000 0.203142 0.000000 0.000000
# 5 0.000000 0.000000 0.000000 0.000000 0.047702 0.000000
# 6 0.000000 0.000000 0.000000 0.000000 0.000000 0.043335
#
#
# Mechanical properties :
#
#
# Convention : Reuss Voigt Hill
#
# Bulk Modulus (GPa) = 12.84968 19.54417 16.19692
# Shear Modulus (GPa) = 10.97796 16.85519 13.91657
#
# Velocity S-wave (km/s) = 2.40149 2.97568 2.70387
# Velocity P-wave (km/s) = 3.79999 4.69825 4.27279
#
# Compressibility (1/GPa) = 0.07782296
#
# Stress axis : x y z
#
# Youngs Moduli (GPa) = 67.27218 33.28209 16.21552
#
# Poissons Ratio (x) = 0.21282 -0.00217
# Poissons Ratio (y) = 0.43016 0.13165
# Poissons Ratio (z) = -0.00902 0.27020
#
# Static dielectric constant tensor:
#      x y z
#    x 1.674320 0.000000 0.000000 
#    y 0.000000 1.677880 0.000000 
#    z 0.000000 0.000000 1.619620 
# 
# From -- ./inp_files/12309.got.cif
#   From: 2010.05.17/outbox.cif.g08.bks.cpg/sg39_7_cif.got.tgz:12309.got - 2010.06.03 18:22:40.
