data_PCOD9360335
_publ_section_title
;
Structure prediction by ZEFSAII (Michael W. Deem and Ramdas Pophale) SiO2 
 PCOD9360335
Probable space group: A B M 2
;
_chemical_formula_sum "Si O2"
_cell_formula_units_Z 64
_cell_length_a 20.263998
_cell_length_b 8.613023
_cell_length_c 20.731157
_cell_angle_alpha 90.000000
_cell_angle_beta 90.000000
_cell_angle_gamma 90.000000
_cell_volume 3618.297578
_symmetry_space_group_name_H-M "A B M 2"
_symmetry_group_IT_number 39
_symmetry_cell_setting 'orthorhombic'
loop_
_space_group_symop_operation_xyz
x,y,z
-x,-y,z
-x,1/2+y,z
x,1/2-y,z
x,1/2+y,1/2+z
-x,1/2-y,1/2+z
-x,y,1/2+z
x,-y,1/2+z
loop_
_atom_site_type_symbol
_atom_site_label
_atom_site_fract_x
_atom_site_fract_y
_atom_site_fract_z
Si Si1 0.164605 0.561802 0.797310
Si Si2 0.427605 0.563689 0.578362
Si Si3 0.176630 0.562429 0.514683
Si Si4 0.653693 0.934855 0.694176
Si Si5 0.073420 0.063840 0.412501
Si Si6 0.685236 0.064086 0.829557
Si Si7 0.676509 0.562769 0.968401
Si Si8 0.202124 0.437996 0.158881
O O1 0.163032 0.750000 0.798250
O O2 0.108812 0.506984 0.846398
O O3 0.237453 0.515874 0.822365
O O4 0.161285 0.513930 0.722440
O O5 0.500000 0.500000 0.564288
O O6 0.428427 0.750000 0.580272
O O7 0.401494 0.500756 0.646586
O O8 0.375361 0.514878 0.523220
O O9 0.172361 0.750000 0.510934
O O10 0.120221 0.490019 0.470750
O O11 0.249259 0.516107 0.488967
O O12 0.173055 0.516621 0.589896
O O13 0.653203 0.750000 0.693203
O O14 0.648628 0.994786 0.767501
O O15 0.724276 0.996549 0.667962
O O16 0.071396 0.250000 0.411392
O O17 0.000000 0.000000 0.418475
O O18 0.682705 0.250000 0.826194
O O19 0.660811 0.005755 0.898467
O O20 0.675640 0.750000 0.964751
O O21 0.207793 0.250000 0.159346
#
# Coordination Sequence:
#
# PCOD9360335 Si02
#       8
#     8   8   8   8   8   8   8   8
#     4   8  16  31  53  78 105 139 181 227 276 333
#     4  11  23  41  60  84 118 157 194 236 289 348
#     4  10  19  34  57  84 114 149 184 233 289 341
#     4  11  21  34  55  85 116 149 190 236 283 338
#     4  11  22  37  54  79 111 150 193 237 287 349
#     4  10  19  34  57  84 113 146 188 239 290 335
#     4  10  20  35  57  86 118 149 188 236 290 346
#     4   9  17  34  57  82 111 145 184 230 288 338
#
# _framework density 17.687875999999999
#
# number of rings (size 3 to 8) (size 9 to 14) (size 15 to 20)
#    0.000    2.000    2.500    3.000    0.000    1.500 
#    0.000    1.875    0.000    3.000    0.000    0.000 
#    0.000    0.000    0.000    0.000    0.000    0.000 
#
# Total GULP energy -178598.253588 kJ/mol
# GULP energy per Si atom -5581.195425 kJ/mol
# Density = 1.764762 g / cm^3
# Si number density = 17.687876 Si / 1000 Ang^3
#
#
#
# Elastic Constant Matrix: (Units=GPa)
#
#
# Indices 1 2 3 4 5 6 
#
# 1 100.1676 28.9524 65.7969 0.0000 0.0000 0.0000
# 2 28.9524 38.5005 39.2059 0.0000 0.0000 0.0000
# 3 65.7969 39.2059 159.0801 0.0000 0.0000 0.0000
# 4 0.0000 0.0000 0.0000 25.0914 0.0000 0.0000
# 5 0.0000 0.0000 0.0000 0.0000 26.2235 0.0000
# 6 0.0000 0.0000 0.0000 0.0000 0.0000 22.4731
#
#
#
# Elastic Compliance Matrix: (Units=1/GPa)
#
#
# Indices 1 2 3 4 5 6 
#
# 1 0.014853 -0.006560 -0.004526 0.000000 0.000000 0.000000
# 2 -0.006560 0.037574 -0.006547 0.000000 0.000000 0.000000
# 3 -0.004526 -0.006547 0.009772 0.000000 0.000000 0.000000
# 4 0.000000 0.000000 0.000000 0.039854 0.000000 0.000000
# 5 0.000000 0.000000 0.000000 0.000000 0.038134 0.000000
# 6 0.000000 0.000000 0.000000 0.000000 0.000000 0.044498
#
#
# Mechanical properties :
#
#
# Convention : Reuss Voigt Hill
#
# Bulk Modulus (GPa) = 37.13108 62.85096 49.99102
# Shear Modulus (GPa) = 21.84098 25.67714 23.75906
#
# Velocity S-wave (km/s) = 3.51778 3.81423 3.66900
# Velocity P-wave (km/s) = 6.12680 7.41675 6.80242
#
# Compressibility (1/GPa) = 0.02693162
#
# Stress axis : x y z
#
# Youngs Moduli (GPa) = 67.32825 26.61439 102.33459
#
# Poissons Ratio (x) = 0.17458 0.46322
# Poissons Ratio (y) = 0.44166 0.66999
# Poissons Ratio (z) = 0.30476 0.17424
#
# Static dielectric constant tensor:
#      x y z
#    x 1.576200 0.000000 0.000000 
#    y 0.000000 1.593490 0.000000 
#    z 0.000000 0.000000 1.614320 
# 
# From -- ./inp_files/13236.got.cif
#   From: 2010.05.17/outbox.cif.g08.bks.cpg/sg39_7_cif.got.tgz:13236.got - 2010.06.03 18:22:40.
