data_PCOD9360911
_publ_section_title
;
Structure prediction by ZEFSAII (Michael W. Deem and Ramdas Pophale) SiO2 
 PCOD9360911
Probable space group: A B M 2
;
_chemical_formula_sum "Si O2"
_cell_formula_units_Z 60
_cell_length_a 22.380384
_cell_length_b 14.407845
_cell_length_c 9.545440
_cell_angle_alpha 90.000000
_cell_angle_beta 90.000000
_cell_angle_gamma 90.000000
_cell_volume 3077.956754
_symmetry_space_group_name_H-M "A B M 2"
_symmetry_group_IT_number 39
_symmetry_cell_setting 'orthorhombic'
loop_
_space_group_symop_operation_xyz
x,y,z
-x,-y,z
-x,1/2+y,z
x,1/2-y,z
x,1/2+y,1/2+z
-x,1/2-y,1/2+z
-x,y,1/2+z
x,-y,1/2+z
loop_
_atom_site_type_symbol
_atom_site_label
_atom_site_fract_x
_atom_site_fract_y
_atom_site_fract_z
Si Si1 0.919321 0.544679 0.441490
Si Si2 0.542972 0.085970 0.146453
Si Si3 0.153607 0.858505 0.391458
Si Si4 0.266296 0.041036 0.015955
Si Si5 0.000000 0.500000 0.694407
Si Si6 0.808692 0.642534 0.563431
Si Si7 0.551212 0.151652 0.854538
Si Si8 0.652632 0.010689 0.762486
O O1 0.895463 0.437747 0.427472
O O2 0.957530 0.553223 0.584380
O O3 0.863184 0.612064 0.461948
O O4 0.959136 0.559049 0.302432
O O5 0.510754 0.123197 0.283618
O O6 0.611031 0.058572 0.174042
O O7 0.500000 0.000000 0.103449
O O8 0.540994 0.154146 0.018296
O O9 0.138011 0.750000 0.417622
O O10 0.211549 0.890943 0.480388
O O11 0.170212 0.866873 0.226012
O O12 0.310667 0.038943 0.884283
O O13 0.240910 0.936051 0.036047
O O14 0.302037 0.061763 0.157685
O O15 0.791266 0.750000 0.541493
O O16 0.570255 0.250000 0.795400
O O17 0.602869 0.078389 0.825404
#
# Coordination Sequence:
#
# PCOD9360911 Si02
#       8
#     8   8   8   8   4   8   8   8
#     4  10  20  39  60  88 123 163 191 250 284 353
#     4  10  21  39  60  80 112 155 189 228 295 365
#     4  10  21  39  62  88 120 160 200 241 296 353
#     4  11  22  40  62  88 119 154 197 250 293 346
#     4  10  20  36  62  90 124 158 200 236 304 330
#     4  10  21  39  63  88 120 161 200 239 297 355
#     4  11  23  38  58  86 116 147 191 241 292 355
#     4  11  22  39  61  83 113 156 194 238 297 349
#
# _framework density 19.493452999999999
#
# number of rings (size 3 to 8) (size 9 to 14) (size 15 to 20)
#    0.000    1.600    4.000    1.600    1.867    1.067 
#    0.000    7.333    0.000    0.000    0.000    0.000 
#    0.000    0.000    0.000    0.000    0.000    0.000 
#
# Total GULP energy -167273.627055 kJ/mol
# GULP energy per Si atom -5575.787568 kJ/mol
# Density = 1.944908 g / cm^3
# Si number density = 19.493453 Si / 1000 Ang^3
#
#
#
# Elastic Constant Matrix: (Units=GPa)
#
#
# Indices 1 2 3 4 5 6 
#
# 1 62.3174 7.7113 13.4361 0.0000 0.0000 0.0000
# 2 7.7113 84.5181 14.6497 0.0000 0.0000 0.0000
# 3 13.4361 14.6497 76.9709 0.0000 0.0000 0.0000
# 4 0.0000 0.0000 0.0000 -45.0277 0.0000 0.0000
# 5 0.0000 0.0000 0.0000 0.0000 28.3047 0.0000
# 6 0.0000 0.0000 0.0000 0.0000 0.0000 145.8421
#
#
#
# Elastic Compliance Matrix: (Units=1/GPa)
#
#
# Indices 1 2 3 4 5 6 
#
# 1 0.016765 -0.001057 -0.002725 0.000000 0.000000 0.000000
# 2 -0.001057 0.012302 -0.002157 0.000000 0.000000 0.000000
# 3 -0.002725 -0.002157 0.013878 0.000000 0.000000 0.000000
# 4 0.000000 0.000000 0.000000 -0.022209 0.000000 0.000000
# 5 0.000000 0.000000 0.000000 0.000000 0.035330 0.000000
# 6 0.000000 0.000000 0.000000 0.000000 0.000000 0.006857
#
#
# Mechanical properties :
#
#
# Convention : Reuss Voigt Hill
#
# Bulk Modulus (GPa) = 32.18888 32.82231 32.50559
# Shear Modulus (GPa) = 58.71432 38.35777 48.53605
#
# Velocity S-wave (km/s) = 5.49413 4.44072 4.99527
# Velocity P-wave (km/s) = 7.53629 6.57020 7.06977
#
# Compressibility (1/GPa) = 0.03106663
#
# Stress axis : x y z
#
# Youngs Moduli (GPa) = 59.64693 81.28693 72.05561
#
# Poissons Ratio (x) = 0.08594 0.19638
# Poissons Ratio (y) = 0.06306 0.15542
# Poissons Ratio (z) = 0.16256 0.17533
#
# Static dielectric constant tensor:
#      x y z
#    x 1.680980 0.000000 0.000000 
#    y 0.000000 1.662660 0.000000 
#    z 0.000000 0.000000 1.687390 
# 
# From -- ./inp_files/4073.got.cif
#   From: 2010.05.17/outbox.cif.g08.bks.cpg/sg39_3_cif.got.tgz:4073.got - 2010.06.03 18:22:40.
