data_PCOD9360141
_publ_section_title
;
Structure prediction by ZEFSAII (Michael W. Deem and Ramdas Pophale) SiO2 
 PCOD9360141
Probable space group: A B M 2
;
_chemical_formula_sum "Si O2"
_cell_formula_units_Z 64
_cell_length_a 10.151739
_cell_length_b 15.216006
_cell_length_c 20.291548
_cell_angle_alpha 90.000000
_cell_angle_beta 90.000000
_cell_angle_gamma 90.000000
_cell_volume 3134.413536
_symmetry_space_group_name_H-M "A B M 2"
_symmetry_group_IT_number 39
_symmetry_cell_setting 'orthorhombic'
loop_
_space_group_symop_operation_xyz
x,y,z
-x,-y,z
-x,1/2+y,z
x,1/2-y,z
x,1/2+y,1/2+z
-x,1/2-y,1/2+z
-x,y,1/2+z
x,-y,1/2+z
loop_
_atom_site_type_symbol
_atom_site_label
_atom_site_fract_x
_atom_site_fract_y
_atom_site_fract_z
Si Si1 0.558641 0.901350 0.613590
Si Si2 0.523287 0.103163 0.827467
Si Si3 0.320393 0.651368 0.700194
Si Si4 0.905059 0.141993 0.604415
Si Si5 0.218525 0.647102 0.320857
Si Si6 0.800880 0.853374 0.965613
Si Si7 0.494074 0.393938 0.471223
Si Si8 0.830684 0.142708 0.178378
O O1 0.447365 0.848436 0.652647
O O2 0.576695 0.869003 0.538738
O O3 0.694895 0.895125 0.651266
O O4 0.500000 0.000000 0.612746
O O5 0.627601 0.115340 0.769463
O O6 0.377833 0.141788 0.812773
O O7 0.561947 0.135803 0.900642
O O8 0.500000 0.000000 0.832130
O O9 0.276481 0.750000 0.714869
O O10 0.203911 0.609537 0.657071
O O11 0.895463 0.250000 0.602408
O O12 0.872148 0.109866 0.530542
O O13 0.047607 0.118826 0.632059
O O14 0.185202 0.750000 0.324209
O O15 0.179398 0.607569 0.392070
O O16 0.154006 0.612040 0.254125
O O17 0.834301 0.750000 0.962491
O O18 0.644077 0.861108 0.976859
O O19 0.500000 0.500000 0.470007
O O20 0.820339 0.250000 0.178810
#
# Coordination Sequence:
#
# PCOD9360141 Si02
#       8
#     8   8   8   8   8   8   8   8
#     4  11  21  34  55  79 107 137 178 224 269 320
#     4  10  19  32  52  77 107 140 175 224 275 316
#     4  11  20  33  53  78 106 139 178 223 270 319
#     4   9  19  34  52  75 108 144 177 220 272 318
#     4   9  17  29  50  76 103 136 180 220 262 322
#     4   9  16  30  52  76 101 140 184 218 261 328
#     4   9  19  33  51  76 108 139 175 223 275 317
#     4  10  20  35  53  79 111 141 176 223 272 318
#
# _framework density 20.418493000000002
#
# number of rings (size 3 to 8) (size 9 to 14) (size 15 to 20)
#    0.000    2.250    2.500    1.125    0.000    1.000 
#    0.000    1.875    0.000    3.000    0.000    5.250 
#    0.000    0.000    0.000    0.000    0.000    0.000 
#
# Total GULP energy -178412.927394 kJ/mol
# GULP energy per Si atom -5575.403981 kJ/mol
# Density = 2.037202 g / cm^3
# Si number density = 20.418493 Si / 1000 Ang^3
#
#
#
# Elastic Constant Matrix: (Units=GPa)
#
#
# Indices 1 2 3 4 5 6 
#
# 1 85.5348 0.7699 57.0703 0.0000 0.0000 0.0000
# 2 0.7699 24.0816 9.6501 0.0000 0.0000 0.0000
# 3 57.0703 9.6501 200.2127 0.0000 0.0000 0.0000
# 4 0.0000 0.0000 0.0000 11.6293 0.0000 0.0000
# 5 0.0000 0.0000 0.0000 0.0000 29.0597 0.0000
# 6 0.0000 0.0000 0.0000 0.0000 0.0000 -4.7496
#
#
#
# Elastic Compliance Matrix: (Units=1/GPa)
#
#
# Indices 1 2 3 4 5 6 
#
# 1 0.014472 0.001214 -0.004184 0.000000 0.000000 0.000000
# 2 0.001214 0.042445 -0.002392 0.000000 0.000000 0.000000
# 3 -0.004184 -0.002392 0.006303 0.000000 0.000000 0.000000
# 4 0.000000 0.000000 0.000000 0.085990 0.000000 0.000000
# 5 0.000000 0.000000 0.000000 0.000000 0.034412 0.000000
# 6 0.000000 0.000000 0.000000 0.000000 0.000000 -0.210544
#
#
# Mechanical properties :
#
#
# Convention : Reuss Voigt Hill
#
# Bulk Modulus (GPa) = 19.04908 49.42330 34.23619
# Shear Modulus (GPa) = 3850.25925 23.34379 1936.80152
#
# Velocity S-wave (km/s) = 43.47144 3.38489 30.83199
# Velocity P-wave (km/s) = 50.28954 6.28764 35.83694
#
# Compressibility (1/GPa) = 0.05249598
#
# Stress axis : x y z
#
# Youngs Moduli (GPa) = 69.10089 23.55983 158.66708
#
# Poissons Ratio (x) = -0.02860 0.66380
# Poissons Ratio (y) = -0.08388 0.37950
# Poissons Ratio (z) = 0.28909 0.05635
#
# Static dielectric constant tensor:
#      x y z
#    x 1.681410 0.000000 0.000000 
#    y 0.000000 1.783000 0.000000 
#    z 0.000000 0.000000 1.800620 
# 
# From -- ./inp_files/14236.got.cif
#   From: 2010.05.17/outbox.cif.g08.bks.cpg/sg39_8_cif.got.tgz:14236.got - 2010.06.03 18:22:40.
