data_PCOD9360737
_publ_section_title
;
Structure prediction by ZEFSAII (Michael W. Deem and Ramdas Pophale) SiO2 
 PCOD9360737
Probable space group: A B M 2
;
_chemical_formula_sum "Si O2"
_cell_formula_units_Z 44
_cell_length_a 15.101241
_cell_length_b 13.713847
_cell_length_c 10.997692
_cell_angle_alpha 90.000000
_cell_angle_beta 90.000000
_cell_angle_gamma 90.000000
_cell_volume 2277.579217
_symmetry_space_group_name_H-M "A B M 2"
_symmetry_group_IT_number 39
_symmetry_cell_setting 'orthorhombic'
loop_
_space_group_symop_operation_xyz
x,y,z
-x,-y,z
-x,1/2+y,z
x,1/2-y,z
x,1/2+y,1/2+z
-x,1/2-y,1/2+z
-x,y,1/2+z
x,-y,1/2+z
loop_
_atom_site_type_symbol
_atom_site_label
_atom_site_fract_x
_atom_site_fract_y
_atom_site_fract_z
Si Si1 0.052977 0.401262 0.225610
Si Si2 0.647503 0.138735 0.178207
Si Si3 0.203434 0.509660 0.589057
Si Si4 0.500000 0.000000 0.572635
Si Si5 0.349876 0.138943 0.966296
Si Si6 0.067638 0.146329 0.499042
O O1 0.153872 0.430380 0.195322
O O2 0.041617 0.351933 0.356875
O O3 0.000000 0.500000 0.242355
O O4 0.009934 0.357740 0.101469
O O5 0.644284 0.250000 0.129163
O O6 0.560528 0.075867 0.146706
O O7 0.655242 0.144945 0.322250
O O8 0.729942 0.074662 0.132489
O O9 0.261350 0.586698 0.514610
O O10 0.127105 0.449809 0.518441
O O11 0.568284 0.068491 0.499644
O O12 0.359831 0.250000 0.014703
O O13 0.115459 0.250000 0.523124
#
# Coordination Sequence:
#
# PCOD9360737 Si02
#       6
#     8   8   8   4   8   8
#     4  10  21  38  57  80 113 151 189 233 282 332
#     4  10  20  35  56  81 109 143 182 224 273 329
#     4  10  21  37  56  80 112 146 183 229 279 330
#     4  10  20  36  56  80 110 142 178 224 274 326
#     4  10  21  36  56  81 109 143 182 224 273 329
#     4  11  22  37  58  84 113 148 190 234 282 334
#
# _framework density 19.318757000000002
#
# number of rings (size 3 to 8) (size 9 to 14) (size 15 to 20)
#    0.000    1.818    0.000    4.909    0.000    2.909 
#    0.000    3.636    0.000   12.000    0.000    0.000 
#    0.000    0.000    0.000    0.000    0.000    0.000 
#
# Total GULP energy -122548.080486 kJ/mol
# GULP energy per Si atom -5570.367295 kJ/mol
# Density = 1.927479 g / cm^3
# Si number density = 19.318757 Si / 1000 Ang^3
#
#
#
# Elastic Constant Matrix: (Units=GPa)
#
#
# Indices 1 2 3 4 5 6 
#
# 1 78.3823 34.4859 30.5865 0.0000 0.0000 0.0000
# 2 34.4859 151.6335 41.6040 0.0000 0.0000 0.0000
# 3 30.5865 41.6040 101.1001 0.0000 0.0000 0.0000
# 4 0.0000 0.0000 0.0000 -16.6371 0.0000 0.0000
# 5 0.0000 0.0000 0.0000 0.0000 8.4183 0.0000
# 6 0.0000 0.0000 0.0000 0.0000 0.0000 21.4764
#
#
#
# Elastic Compliance Matrix: (Units=1/GPa)
#
#
# Indices 1 2 3 4 5 6 
#
# 1 0.015252 -0.002483 -0.003593 0.000000 0.000000 0.000000
# 2 -0.002483 0.007838 -0.002474 0.000000 0.000000 0.000000
# 3 -0.003593 -0.002474 0.011996 0.000000 0.000000 0.000000
# 4 0.000000 0.000000 0.000000 -0.060107 0.000000 0.000000
# 5 0.000000 0.000000 0.000000 0.000000 0.118789 0.000000
# 6 0.000000 0.000000 0.000000 0.000000 0.000000 0.046563
#
#
# Mechanical properties :
#
#
# Convention : Reuss Voigt Hill
#
# Bulk Modulus (GPa) = 55.59574 60.49653 58.04613
# Shear Modulus (GPa) = 30.59449 17.61416 24.10432
#
# Velocity S-wave (km/s) = 3.98385 3.02282 3.53613
# Velocity P-wave (km/s) = 7.07121 6.60047 6.83989
#
# Compressibility (1/GPa) = 0.01798699
#
# Stress axis : x y z
#
# Youngs Moduli (GPa) = 65.56344 127.57554 83.35896
#
# Poissons Ratio (x) = 0.31679 0.29947
# Poissons Ratio (y) = 0.16280 0.20626
# Poissons Ratio (z) = 0.23554 0.31567
#
# Static dielectric constant tensor:
#      x y z
#    x 1.702610 0.000000 0.000000 
#    y 0.000000 1.708560 0.000000 
#    z 0.000000 0.000000 1.670100 
# 
# From -- ./inp_files/6362.got.cif
#   From: 2010.05.17/outbox.cif.g08.bks.cpg/sg39_4_cif.got.tgz:6362.got - 2010.06.03 18:22:40.
