data_PCOD9360018
_publ_section_title
;
Structure prediction by ZEFSAII (Michael W. Deem and Ramdas Pophale) SiO2 
 PCOD9360018
Probable space group: A B M 2
;
_chemical_formula_sum "Si O2"
_cell_formula_units_Z 48
_cell_length_a 13.692891
_cell_length_b 8.630660
_cell_length_c 23.647133
_cell_angle_alpha 90.000000
_cell_angle_beta 90.000000
_cell_angle_gamma 90.000000
_cell_volume 2794.587121
_symmetry_space_group_name_H-M "A B M 2"
_symmetry_group_IT_number 39
_symmetry_cell_setting 'orthorhombic'
loop_
_space_group_symop_operation_xyz
x,y,z
-x,-y,z
-x,1/2+y,z
x,1/2-y,z
x,1/2+y,1/2+z
-x,1/2-y,1/2+z
-x,y,1/2+z
x,-y,1/2+z
loop_
_atom_site_type_symbol
_atom_site_label
_atom_site_fract_x
_atom_site_fract_y
_atom_site_fract_z
Si Si1 0.605847 0.062453 0.638840
Si Si2 0.597495 0.923670 0.451937
Si Si3 0.891146 0.563498 0.946448
Si Si4 0.244519 0.425161 0.353027
Si Si5 0.394269 0.064887 0.765849
Si Si6 0.735219 0.432346 0.538742
O O1 0.602391 0.250000 0.638848
O O2 0.696543 0.009444 0.599348
O O3 0.500000 0.000000 0.618277
O O4 0.617368 0.000599 0.702418
O O5 0.582011 0.750000 0.474401
O O6 0.673537 0.914875 0.401483
O O7 0.500000 0.000000 0.430136
O O8 0.642493 0.034398 0.499094
O O9 0.890043 0.750000 0.946991
O O10 0.842868 0.507524 0.887296
O O11 0.000000 0.500000 0.951387
O O12 0.825463 0.506556 0.000469
O O13 0.216729 0.250000 0.336013
O O14 0.301333 0.511607 0.302821
O O15 0.400499 0.250000 0.765261
O O16 0.500000 0.000000 0.786592
O O17 0.752727 0.250000 0.545201
#
# Coordination Sequence:
#
# PCOD9360018 Si02
#       6
#     8   8   8   8   8   8
#     4  10  19  32  49  72 102 138 174 208 246 294
#     4  10  19  28  43  67  97 129 161 197 243 295
#     4  10  20  36  56  79 103 130 165 209 260 312
#     4  10  20  34  51  73  99 131 168 209 254 302
#     4  11  21  33  50  74 104 140 176 211 249 297
#     4   9  19  33  50  71  98 130 166 206 250 298
#
# _framework density 17.176062000000002
#
# number of rings (size 3 to 8) (size 9 to 14) (size 15 to 20)
#    0.000    2.000    0.000    5.500    0.000    6.667 
#    0.000    0.000    0.000    1.000    0.000    4.667 
#    0.000    0.000    0.000    0.000    0.000    0.000 
#
# Total GULP energy -133693.053481 kJ/mol
# GULP energy per Si atom -5570.543895 kJ/mol
# Density = 1.713697 g / cm^3
# Si number density = 17.176062 Si / 1000 Ang^3
#
#
#
# Elastic Constant Matrix: (Units=GPa)
#
#
# Indices 1 2 3 4 5 6 
#
# 1 102.8628 44.3675 54.3838 0.0000 0.0000 0.0000
# 2 44.3675 54.3927 19.8413 0.0000 0.0000 0.0000
# 3 54.3838 19.8413 85.5340 0.0000 0.0000 0.0000
# 4 0.0000 0.0000 0.0000 18.6797 0.0000 0.0000
# 5 0.0000 0.0000 0.0000 0.0000 25.1983 0.0000
# 6 0.0000 0.0000 0.0000 0.0000 0.0000 25.1944
#
#
#
# Elastic Compliance Matrix: (Units=1/GPa)
#
#
# Indices 1 2 3 4 5 6 
#
# 1 0.020818 -0.013276 -0.010157 0.000000 0.000000 0.000000
# 2 -0.013276 0.028551 0.001818 0.000000 0.000000 0.000000
# 3 -0.010157 0.001818 0.017727 0.000000 0.000000 0.000000
# 4 0.000000 0.000000 0.000000 0.053534 0.000000 0.000000
# 5 0.000000 0.000000 0.000000 0.000000 0.039685 0.000000
# 6 0.000000 0.000000 0.000000 0.000000 0.000000 0.039691
#
#
# Mechanical properties :
#
#
# Convention : Reuss Voigt Hill
#
# Bulk Modulus (GPa) = 41.89917 53.33054 47.61485
# Shear Modulus (GPa) = 19.90519 22.09428 20.99974
#
# Velocity S-wave (km/s) = 3.40794 3.59045 3.50039
# Velocity P-wave (km/s) = 6.31920 6.95019 6.64220
#
# Compressibility (1/GPa) = 0.02386682
#
# Stress axis : x y z
#
# Youngs Moduli (GPa) = 48.03574 35.02552 56.41028
#
# Poissons Ratio (x) = 0.46500 0.57294
# Poissons Ratio (y) = 0.63772 -0.10256
# Poissons Ratio (z) = 0.48788 -0.06368
#
# Static dielectric constant tensor:
#      x y z
#    x 1.663250 0.000000 0.000000 
#    y 0.000000 1.614950 0.000000 
#    z 0.000000 0.000000 1.601750 
# 
# From -- ./inp_files/14587.got.cif
#   From: 2010.05.17/outbox.cif.g08.bks.cpg/sg39_8_cif.got.tgz:14587.got - 2010.06.03 18:22:40.
