data_PCOD9360759
_publ_section_title
;
Structure prediction by ZEFSAII (Michael W. Deem and Ramdas Pophale) SiO2 
 PCOD9360759
Probable space group: A B M 2
;
_chemical_formula_sum "Si O2"
_cell_formula_units_Z 48
_cell_length_a 7.922083
_cell_length_b 18.011760
_cell_length_c 16.475672
_cell_angle_alpha 90.000000
_cell_angle_beta 90.000000
_cell_angle_gamma 90.000000
_cell_volume 2350.924474
_symmetry_space_group_name_H-M "A B M 2"
_symmetry_group_IT_number 39
_symmetry_cell_setting 'orthorhombic'
loop_
_space_group_symop_operation_xyz
x,y,z
-x,-y,z
-x,1/2+y,z
x,1/2-y,z
x,1/2+y,1/2+z
-x,1/2-y,1/2+z
-x,y,1/2+z
x,-y,1/2+z
loop_
_atom_site_type_symbol
_atom_site_label
_atom_site_fract_x
_atom_site_fract_y
_atom_site_fract_z
Si Si1 0.040412 0.912394 0.963250
Si Si2 0.546129 0.414481 0.127178
Si Si3 0.051904 0.085451 0.638646
Si Si4 0.586911 0.839715 0.465824
Si Si5 0.557185 0.666446 0.289902
Si Si6 0.037854 0.333016 0.302332
O O1 0.238690 0.887808 0.963570
O O2 0.972281 0.875793 0.881413
O O3 0.977945 0.886857 0.052312
O O4 0.000000 0.000000 0.959740
O O5 0.500000 0.500000 0.113908
O O6 0.747342 0.409480 0.133513
O O7 0.476918 0.385390 0.213233
O O8 0.495650 0.365935 0.048289
O O9 0.001197 0.129319 0.717656
O O10 0.000000 0.000000 0.647940
O O11 0.620680 0.750000 0.468665
O O12 0.492780 0.855067 0.380154
O O13 0.497222 0.750000 0.270472
O O14 0.758535 0.669585 0.304099
O O15 0.970707 0.250000 0.304284
#
# Coordination Sequence:
#
# PCOD9360759 Si02
#       6
#     8   8   8   8   8   8
#     4   9  18  33  56  81 108 146 184 225 273 328
#     4  11  22  35  57  84 111 144 185 234 282 331
#     4  10  21  37  55  78 111 145 183 227 275 331
#     4   9  19  37  59  80 110 150 186 225 278 338
#     4   9  19  37  58  81 111 147 185 225 276 335
#     4  10  20  35  57  82 111 146 182 224 276 333
#
# _framework density 20.4175
#
# number of rings (size 3 to 8) (size 9 to 14) (size 15 to 20)
#    0.000    2.333    0.000    3.500    0.000    6.000 
#    0.000    6.667    0.000    0.000    0.000    0.000 
#    0.000    0.000    0.000    0.000    0.000    0.000 
#
# Total GULP energy -133761.509029 kJ/mol
# GULP energy per Si atom -5573.396210 kJ/mol
# Density = 2.037103 g / cm^3
# Si number density = 20.417500 Si / 1000 Ang^3
#
#
#
# Elastic Constant Matrix: (Units=GPa)
#
#
# Indices 1 2 3 4 5 6 
#
# 1 21.1295 6.6934 15.9613 0.0000 0.0000 0.0000
# 2 6.6934 106.8168 101.7418 0.0000 0.0000 0.0000
# 3 15.9613 101.7418 237.7849 0.0000 0.0000 0.0000
# 4 0.0000 0.0000 0.0000 48.8766 0.0000 0.0000
# 5 0.0000 0.0000 0.0000 0.0000 26.9656 0.0000
# 6 0.0000 0.0000 0.0000 0.0000 0.0000 -0.0774
#
#
#
# Elastic Compliance Matrix: (Units=1/GPa)
#
#
# Indices 1 2 3 4 5 6 
#
# 1 0.049856 0.000107 -0.003392 0.000000 0.000000 0.000000
# 2 0.000107 0.015802 -0.006768 0.000000 0.000000 0.000000
# 3 -0.003392 -0.006768 0.007329 0.000000 0.000000 0.000000
# 4 0.000000 0.000000 0.000000 0.020460 0.000000 0.000000
# 5 0.000000 0.000000 0.000000 0.000000 0.037084 0.000000
# 6 0.000000 0.000000 0.000000 0.000000 0.000000-12.924162
#
#
# Mechanical properties :
#
#
# Convention : Reuss Voigt Hill
#
# Bulk Modulus (GPa) = 18.91084 68.28046 43.59565
# Shear Modulus (GPa) = -0.39198 31.24194 15.42498
#
# Velocity S-wave (km/s) = -0.43863 3.91596 2.75158
# Velocity P-wave (km/s) = 3.00427 7.34582 5.61190
#
# Compressibility (1/GPa) = 0.05287973
#
# Stress axis : x y z
#
# Youngs Moduli (GPa) = 20.05777 63.28329 136.44002
#
# Poissons Ratio (x) = -0.00678 0.46286
# Poissons Ratio (y) = -0.00215 0.92348
# Poissons Ratio (z) = 0.06804 0.42833
#
# Static dielectric constant tensor:
#      x y z
#    x 1.751010 0.000000 0.000000 
#    y 0.000000 1.750010 0.000000 
#    z 0.000000 0.000000 1.788530 
# 
# From -- ./inp_files/8339.got.cif
#   From: 2010.05.17/outbox.cif.g08.bks.cpg/sg39_5_cif.got.tgz:8339.got - 2010.06.03 18:22:40.
