data_PCOD9360479
_publ_section_title
;
Structure prediction by ZEFSAII (Michael W. Deem and Ramdas Pophale) SiO2 
 PCOD9360479
Probable space group: A B M 2
;
_chemical_formula_sum "Si O2"
_cell_formula_units_Z 64
_cell_length_a 15.867119
_cell_length_b 8.727013
_cell_length_c 24.319937
_cell_angle_alpha 90.000000
_cell_angle_beta 90.000000
_cell_angle_gamma 90.000000
_cell_volume 3367.643784
_symmetry_space_group_name_H-M "A B M 2"
_symmetry_group_IT_number 39
_symmetry_cell_setting 'orthorhombic'
loop_
_space_group_symop_operation_xyz
x,y,z
-x,-y,z
-x,1/2+y,z
x,1/2-y,z
x,1/2+y,1/2+z
-x,1/2-y,1/2+z
-x,y,1/2+z
x,-y,1/2+z
loop_
_atom_site_type_symbol
_atom_site_label
_atom_site_fract_x
_atom_site_fract_y
_atom_site_fract_z
Si Si1 0.651940 0.933609 0.612090
Si Si2 0.840659 0.435518 0.614021
Si Si3 0.748974 0.435308 0.423785
Si Si4 0.590148 0.566422 0.733173
Si Si5 0.745981 0.433960 0.801676
Si Si6 0.411346 0.566583 0.498184
Si Si7 0.089735 0.934359 0.495867
Si Si8 0.089975 0.434317 0.232415
O O1 0.651162 0.750000 0.607469
O O2 0.608370 0.977061 0.669630
O O3 0.747656 0.993798 0.613605
O O4 0.606904 0.005171 0.559308
O O5 0.832396 0.250000 0.613789
O O6 0.888668 0.481766 0.558468
O O7 0.888314 0.481251 0.669728
O O8 0.749383 0.250000 0.419025
O O9 0.746746 0.508388 0.363949
O O10 0.666895 0.478234 0.459441
O O11 0.832893 0.481660 0.457015
O O12 0.500000 0.500000 0.750178
O O13 0.589200 0.750000 0.736930
O O14 0.666081 0.501755 0.769611
O O15 0.741646 0.250000 0.799728
O O16 0.832025 0.482483 0.770697
O O17 0.500000 0.500000 0.478285
O O18 0.415356 0.750000 0.499808
O O19 0.085971 0.750000 0.495028
O O20 0.000000 0.000000 0.478673
O O21 0.085727 0.250000 0.233624
O O22 0.000000 0.500000 0.249411
#
# Coordination Sequence:
#
# PCOD9360479 Si02
#       8
#     8   8   8   8   8   8   8   8
#     4  11  22  36  61  95 125 159 199 242 298 359
#     4  10  19  37  61  87 124 161 196 243 303 364
#     4  10  23  43  63  84 119 163 203 250 306 357
#     4  11  24  41  63  92 124 160 200 245 301 361
#     4  11  24  42  64  89 119 159 206 256 305 354
#     4  11  23  41  64  90 123 160 199 245 301 360
#     4  10  21  38  61  89 120 160 199 244 302 357
#     4  10  22  38  61  90 122 160 200 247 302 360
#
# _framework density 19.004384999999999
#
# number of rings (size 3 to 8) (size 9 to 14) (size 15 to 20)
#    0.000    1.500    2.500    2.250    0.000    7.000 
#    0.000    3.750    0.000    0.000    0.000    0.000 
#    0.000    0.000    0.000    0.000    0.000    0.000 
#
# Total GULP energy -178895.241060 kJ/mol
# GULP energy per Si atom -5590.476283 kJ/mol
# Density = 1.896113 g / cm^3
# Si number density = 19.004385 Si / 1000 Ang^3
#
#
#
# Elastic Constant Matrix: (Units=GPa)
#
#
# Indices 1 2 3 4 5 6 
#
# 1 203.8379 45.9189 90.0182 0.0000 0.0000 0.0000
# 2 45.9189 28.6134 43.3431 0.0000 0.0000 0.0000
# 3 90.0182 43.3431 154.0399 0.0000 0.0000 0.0000
# 4 0.0000 0.0000 0.0000 20.5127 0.0000 0.0000
# 5 0.0000 0.0000 0.0000 0.0000 -8.4757 0.0000
# 6 0.0000 0.0000 0.0000 0.0000 0.0000 37.0646
#
#
#
# Elastic Compliance Matrix: (Units=1/GPa)
#
#
# Indices 1 2 3 4 5 6 
#
# 1 0.007974 -0.010000 -0.001846 0.000000 0.000000 0.000000
# 2 -0.010000 0.073452 -0.014824 0.000000 0.000000 0.000000
# 3 -0.001846 -0.014824 0.011742 0.000000 0.000000 0.000000
# 4 0.000000 0.000000 0.000000 0.048750 0.000000 0.000000
# 5 0.000000 0.000000 0.000000 0.000000 -0.117985 0.000000
# 6 0.000000 0.000000 0.000000 0.000000 0.000000 0.026980
#
#
# Mechanical properties :
#
#
# Convention : Reuss Voigt Hill
#
# Bulk Modulus (GPa) = 25.10826 82.78353 53.94589
# Shear Modulus (GPa) = 42.54306 23.63438 33.08872
#
# Velocity S-wave (km/s) = 4.73651 3.53034 4.17719
# Velocity P-wave (km/s) = 6.56911 7.76354 7.19116
#
# Compressibility (1/GPa) = 0.03982753
#
# Stress axis : x y z
#
# Youngs Moduli (GPa) = 125.41023 13.61440 85.16761
#
# Poissons Ratio (x) = 0.13615 0.15721
# Poissons Ratio (y) = 1.25413 1.26249
# Poissons Ratio (z) = 0.23150 0.20181
#
# Static dielectric constant tensor:
#      x y z
#    x 1.644800 0.000000 0.000000 
#    y 0.000000 1.643790 0.000000 
#    z 0.000000 0.000000 1.642030 
# 
# From -- ./inp_files/16140.got.cif
#   From: 2010.05.17/outbox.cif.g08.bks.cpg/sg39_9_cif.got.tgz:16140.got - 2010.06.03 18:22:40.
