data_PCOD9360010
_publ_section_title
;
Structure prediction by ZEFSAII (Michael W. Deem and Ramdas Pophale) SiO2 
 PCOD9360010
Probable space group: A B M 2
;
_chemical_formula_sum "Si O2"
_cell_formula_units_Z 40
_cell_length_a 14.612336
_cell_length_b 15.165078
_cell_length_c 8.919869
_cell_angle_alpha 90.000000
_cell_angle_beta 90.000000
_cell_angle_gamma 90.000000
_cell_volume 1976.618130
_symmetry_space_group_name_H-M "A B M 2"
_symmetry_group_IT_number 39
_symmetry_cell_setting 'orthorhombic'
loop_
_space_group_symop_operation_xyz
x,y,z
-x,-y,z
-x,1/2+y,z
x,1/2-y,z
x,1/2+y,1/2+z
-x,1/2-y,1/2+z
-x,y,1/2+z
x,-y,1/2+z
loop_
_atom_site_type_symbol
_atom_site_label
_atom_site_fract_x
_atom_site_fract_y
_atom_site_fract_z
Si Si1 0.081004 0.442875 0.564860
Si Si2 0.202106 0.442983 0.849342
Si Si3 0.627097 0.069754 0.903613
Si Si4 0.718025 0.250000 0.997773
Si Si5 0.078773 0.750000 0.051586
Si Si6 0.794286 0.250000 0.319697
Si Si7 0.500000 0.000000 0.162810
O O1 0.165371 0.430940 0.679845
O O2 0.124954 0.499847 0.432423
O O3 0.040021 0.346937 0.522393
O O4 0.000000 0.500000 0.634016
O O5 0.295527 0.497376 0.863554
O O6 0.213214 0.342272 0.906321
O O7 0.672934 0.163317 0.931515
O O8 0.552324 0.067722 0.771556
O O9 0.574883 0.043098 0.055031
O O10 0.825760 0.250000 0.960991
O O11 0.721070 0.250000 0.180969
O O12 0.108865 0.750000 0.228151
#
# Coordination Sequence:
#
# PCOD9360010 Si02
#       7
#     8   8   8   4   4   4   4
#     4  11  22  37  61  89 120 160 211 258 301 360
#     4  11  20  40  61  84 119 170 199 245 317 368
#     4  11  21  40  63  86 125 160 201 250 313 369
#     4  10  18  38  64  85 114 168 195 234 311 378
#     4   8  18  39  55  87 119 162 194 245 310 350
#     4   8  18  33  59  86 111 152 209 237 291 366
#     4  10  24  38  58  96 120 152 204 266 298 364
#
# _framework density 20.236585000000002
#
# number of rings (size 3 to 8) (size 9 to 14) (size 15 to 20)
#    0.600    1.200    2.000    3.000    0.000    1.600 
#    0.000   13.000    0.000    0.000    0.000    0.000 
#    0.000    0.000    0.000    0.000    0.000    0.000 
#
# Total GULP energy -111503.147238 kJ/mol
# GULP energy per Si atom -5575.157362 kJ/mol
# Density = 2.019053 g / cm^3
# Si number density = 20.236585 Si / 1000 Ang^3
#
#
#
# Elastic Constant Matrix: (Units=GPa)
#
#
# Indices 1 2 3 4 5 6 
#
# 1 70.1166 37.9031 10.8168 0.0000 0.0000 0.0000
# 2 37.9031 195.0632 21.4189 0.0000 0.0000 0.0000
# 3 10.8168 21.4189 56.5771 0.0000 0.0000 0.0000
# 4 0.0000 0.0000 0.0000 17.4770 0.0000 0.0000
# 5 0.0000 0.0000 0.0000 0.0000 28.5000 0.0000
# 6 0.0000 0.0000 0.0000 0.0000 0.0000 24.9648
#
#
#
# Elastic Compliance Matrix: (Units=1/GPa)
#
#
# Indices 1 2 3 4 5 6 
#
# 1 0.016146 -0.002920 -0.001982 0.000000 0.000000 0.000000
# 2 -0.002920 0.005877 -0.001667 0.000000 0.000000 0.000000
# 3 -0.001982 -0.001667 0.018685 0.000000 0.000000 0.000000
# 4 0.000000 0.000000 0.000000 0.057218 0.000000 0.000000
# 5 0.000000 0.000000 0.000000 0.000000 0.035088 0.000000
# 6 0.000000 0.000000 0.000000 0.000000 0.000000 0.040056
#
#
# Mechanical properties :
#
#
# Convention : Reuss Voigt Hill
#
# Bulk Modulus (GPa) = 36.26896 51.33715 43.80305
# Shear Modulus (GPa) = 25.58900 30.96290 28.27595
#
# Velocity S-wave (km/s) = 3.55983 3.91582 3.74206
# Velocity P-wave (km/s) = 5.90406 6.77263 6.35320
#
# Compressibility (1/GPa) = 0.02757179
#
# Stress axis : x y z
#
# Youngs Moduli (GPa) = 61.93483 170.15785 53.51942
#
# Poissons Ratio (x) = 0.49682 0.10605
# Poissons Ratio (y) = 0.18084 0.08920
# Poissons Ratio (z) = 0.12273 0.28359
#
# Static dielectric constant tensor:
#      x y z
#    x 1.729720 0.000000 0.000000 
#    y 0.000000 1.776150 0.000000 
#    z 0.000000 0.000000 1.736420 
# 
# From -- ./inp_files/3120.got.cif
#   From: 2010.05.17/outbox.cif.g08.bks.cpg/sg39_2_cif.got.tgz:3120.got - 2010.06.03 18:22:40.
