data_PCOD9360354
_publ_section_title
;
Structure prediction by ZEFSAII (Michael W. Deem and Ramdas Pophale) SiO2 
 PCOD9360354
Probable space group: A B M 2
;
_chemical_formula_sum "Si O2"
_cell_formula_units_Z 64
_cell_length_a 21.807203
_cell_length_b 16.152131
_cell_length_c 9.195732
_cell_angle_alpha 90.000000
_cell_angle_beta 90.000000
_cell_angle_gamma 90.000000
_cell_volume 3239.038427
_symmetry_space_group_name_H-M "A B M 2"
_symmetry_group_IT_number 39
_symmetry_cell_setting 'orthorhombic'
loop_
_space_group_symop_operation_xyz
x,y,z
-x,-y,z
-x,1/2+y,z
x,1/2-y,z
x,1/2+y,1/2+z
-x,1/2-y,1/2+z
-x,y,1/2+z
x,-y,1/2+z
loop_
_atom_site_type_symbol
_atom_site_label
_atom_site_fract_x
_atom_site_fract_y
_atom_site_fract_z
Si Si1 0.940426 0.408609 0.243240
Si Si2 0.192143 0.340890 0.737026
Si Si3 0.464630 0.585948 0.798699
Si Si4 0.062793 0.911449 0.592897
Si Si5 0.269698 0.999281 0.702037
Si Si6 0.427596 0.156016 0.987319
Si Si7 0.803503 0.342059 0.585942
Si Si8 0.352767 0.001989 0.453954
O O1 0.880289 0.354607 0.214034
O O2 0.946690 0.418585 0.418236
O O3 0.930001 0.497986 0.166747
O O4 0.002582 0.374836 0.170701
O O5 0.211082 0.250000 0.682360
O O6 0.228118 0.420305 0.678348
O O7 0.202152 0.342659 0.911153
O O8 0.500000 0.500000 0.761441
O O9 0.512195 0.640273 0.890433
O O10 0.444222 0.630518 0.651943
O O11 0.406269 0.561314 0.897173
O O12 0.125114 0.861209 0.618306
O O13 0.289539 0.987422 0.868045
O O14 0.236966 0.916185 0.648721
O O15 0.334472 0.012939 0.620796
O O16 0.407041 0.250000 0.978628
O O17 0.376639 0.091346 0.935338
O O18 0.786571 0.250000 0.638281
#
# Coordination Sequence:
#
# PCOD9360354 Si02
#       8
#     8   8   8   8   8   8   8   8
#     4  10  19  34  59  86 118 154 199 249 314 369
#     4  10  22  40  63  88 120 162 206 254 313 370
#     4  10  21  41  64  92 125 161 200 240 301 361
#     4  10  19  34  59  87 116 155 198 251 309 374
#     4  12  22  43  65  87 124 164 210 255 299 355
#     4  11  23  40  65  97 127 157 199 252 299 352
#     4  10  22  40  63  88 119 162 206 253 313 372
#     4  11  24  40  67  89 119 171 203 242 303 362
#
# _framework density 19.758952000000001
#
# number of rings (size 3 to 8) (size 9 to 14) (size 15 to 20)
#    0.000    1.500    3.750    3.000    1.750    1.500 
#    2.250    1.875    0.000    0.000    0.000    0.000 
#    0.000    0.000    0.000    0.000    0.000    0.000 
#
# Total GULP energy -178700.582407 kJ/mol
# GULP energy per Si atom -5584.393200 kJ/mol
# Density = 1.971398 g / cm^3
# Si number density = 19.758952 Si / 1000 Ang^3
#
#
#
# Elastic Constant Matrix: (Units=GPa)
#
#
# Indices 1 2 3 4 5 6 
#
# 1 70.6792 36.5993 17.0356 0.0000 0.0000 0.0000
# 2 36.5993 114.9839 25.5654 0.0000 0.0000 0.0000
# 3 17.0356 25.5654 59.7393 0.0000 0.0000 0.0000
# 4 0.0000 0.0000 0.0000 14.0907 0.0000 0.0000
# 5 0.0000 0.0000 0.0000 0.0000 36.1098 0.0000
# 6 0.0000 0.0000 0.0000 0.0000 0.0000 3.8109
#
#
#
# Elastic Compliance Matrix: (Units=1/GPa)
#
#
# Indices 1 2 3 4 5 6 
#
# 1 0.017372 -0.004894 -0.002860 0.000000 0.000000 0.000000
# 2 -0.004894 0.010990 -0.003308 0.000000 0.000000 0.000000
# 3 -0.002860 -0.003308 0.018970 0.000000 0.000000 0.000000
# 4 0.000000 0.000000 0.000000 0.070969 0.000000 0.000000
# 5 0.000000 0.000000 0.000000 0.000000 0.027693 0.000000
# 6 0.000000 0.000000 0.000000 0.000000 0.000000 0.262404
#
#
# Mechanical properties :
#
#
# Convention : Reuss Voigt Hill
#
# Bulk Modulus (GPa) = 39.66634 44.86700 42.26667
# Shear Modulus (GPa) = 11.39151 21.88243 16.63697
#
# Velocity S-wave (km/s) = 2.40370 3.33148 2.90487
# Velocity P-wave (km/s) = 5.27469 6.12820 5.71739
#
# Compressibility (1/GPa) = 0.02521029
#
# Stress axis : x y z
#
# Youngs Moduli (GPa) = 57.56493 90.99254 52.71377
#
# Poissons Ratio (x) = 0.44528 0.15074
# Poissons Ratio (y) = 0.28170 0.17436
# Poissons Ratio (z) = 0.16461 0.30097
#
# Static dielectric constant tensor:
#      x y z
#    x 1.702610 0.000000 0.000000 
#    y 0.000000 1.684030 0.000000 
#    z 0.000000 0.000000 1.670950 
# 
# From -- ./inp_files/4084.got.cif
#   From: 2010.05.17/outbox.cif.g08.bks.cpg/sg39_3_cif.got.tgz:4084.got - 2010.06.03 18:22:40.
