data_PCOD9360240
_publ_section_title
;
Structure prediction by ZEFSAII (Michael W. Deem and Ramdas Pophale) SiO2 
 PCOD9360240
Probable space group: A B M 2
;
_chemical_formula_sum "Si O2"
_cell_formula_units_Z 64
_cell_length_a 24.609947
_cell_length_b 8.341348
_cell_length_c 15.996243
_cell_angle_alpha 90.000000
_cell_angle_beta 90.000000
_cell_angle_gamma 90.000000
_cell_volume 3283.710878
_symmetry_space_group_name_H-M "A B M 2"
_symmetry_group_IT_number 39
_symmetry_cell_setting 'orthorhombic'
loop_
_space_group_symop_operation_xyz
x,y,z
-x,-y,z
-x,1/2+y,z
x,1/2-y,z
x,1/2+y,1/2+z
-x,1/2-y,1/2+z
-x,y,1/2+z
x,-y,1/2+z
loop_
_atom_site_type_symbol
_atom_site_label
_atom_site_fract_x
_atom_site_fract_y
_atom_site_fract_z
Si Si1 0.742632 0.943778 0.437750
Si Si2 0.558262 0.441729 0.338444
Si Si3 0.441997 0.442578 0.033417
Si Si4 0.132569 0.946028 0.934703
Si Si5 0.325287 0.055859 0.096063
Si Si6 0.938324 0.557956 0.592685
Si Si7 0.061677 0.057932 0.276721
Si Si8 0.326879 0.057132 0.279812
O O1 0.742786 0.750000 0.434906
O O2 0.804981 0.998580 0.435115
O O3 0.708570 0.003707 0.357571
O O4 0.712582 0.995613 0.521968
O O5 0.500000 0.500000 0.305777
O O6 0.560018 0.250000 0.336290
O O7 0.561886 0.494702 0.436060
O O8 0.610478 0.510331 0.292306
O O9 0.500000 0.500000 0.067234
O O10 0.442417 0.250000 0.034483
O O11 0.387496 0.497745 0.079294
O O12 0.132343 0.750000 0.934625
O O13 0.100508 0.997955 0.851568
O O14 0.100456 0.998067 0.017797
O O15 0.325069 0.250000 0.093851
O O16 0.307877 0.002230 0.188418
O O17 0.938711 0.750000 0.593116
O O18 0.921161 0.499803 0.684667
O O19 0.000000 0.500000 0.578457
O O20 0.061319 0.250000 0.276328
O O21 0.000000 0.000000 0.290942
O O22 0.323626 0.250000 0.280804
#
# Coordination Sequence:
#
# PCOD9360240 Si02
#       8
#     8   8   8   8   8   8   8   8
#     4  10  21  39  58  78 105 143 187 228 269 317
#     4  10  19  33  55  80 109 141 174 217 269 326
#     4   9  18  32  52  76 105 136 169 212 263 319
#     4   9  20  36  55  78 109 146 184 225 269 318
#     4  10  21  38  56  80 110 141 177 224 274 322
#     4  10  19  34  55  81 113 145 178 221 268 319
#     4  10  19  34  56  83 115 147 180 221 268 321
#     4  10  21  36  57  80 107 141 179 222 272 326
#
# _framework density 19.490144000000001
#
# number of rings (size 3 to 8) (size 9 to 14) (size 15 to 20)
#    0.000    2.250    1.250    2.250    0.000    3.000 
#    0.000    6.875    0.000    0.000    0.000    0.000 
#    0.000    0.000    0.000    0.000    0.000    0.000 
#
# Total GULP energy -178659.951248 kJ/mol
# GULP energy per Si atom -5583.123477 kJ/mol
# Density = 1.944578 g / cm^3
# Si number density = 19.490144 Si / 1000 Ang^3
#
#
#
# Elastic Constant Matrix: (Units=GPa)
#
#
# Indices 1 2 3 4 5 6 
#
# 1 144.7186 13.4138 114.8832 0.0000 0.0000 0.0000
# 2 13.4138 14.3980 21.8546 0.0000 0.0000 0.0000
# 3 114.8832 21.8546 180.7026 0.0000 0.0000 0.0000
# 4 0.0000 0.0000 0.0000 11.5521 0.0000 0.0000
# 5 0.0000 0.0000 0.0000 0.0000 -3.4181 0.0000
# 6 0.0000 0.0000 0.0000 0.0000 0.0000 20.7239
#
#
#
# Elastic Compliance Matrix: (Units=1/GPa)
#
#
# Indices 1 2 3 4 5 6 
#
# 1 0.013955 0.000570 -0.008941 0.000000 0.000000 0.000000
# 2 0.000570 0.085095 -0.010654 0.000000 0.000000 0.000000
# 3 -0.008941 -0.010654 0.012507 0.000000 0.000000 0.000000
# 4 0.000000 0.000000 0.000000 0.086565 0.000000 0.000000
# 5 0.000000 0.000000 0.000000 0.000000 -0.292559 0.000000
# 6 0.000000 0.000000 0.000000 0.000000 0.000000 0.048253
#
#
# Mechanical properties :
#
#
# Convention : Reuss Voigt Hill
#
# Bulk Modulus (GPa) = 13.60416 71.12473 42.36445
# Shear Modulus (GPa) = 305.50605 18.41608 161.96106
#
# Velocity S-wave (km/s) = 12.53353 3.07724 9.12575
# Velocity P-wave (km/s) = 14.71216 7.01411 11.52487
#
# Compressibility (1/GPa) = 0.07350694
#
# Stress axis : x y z
#
# Youngs Moduli (GPa) = 71.66101 11.75159 79.95750
#
# Poissons Ratio (x) = -0.00670 0.71488
# Poissons Ratio (y) = -0.04087 0.85188
# Poissons Ratio (z) = 0.64070 0.12520
#
# Static dielectric constant tensor:
#      x y z
#    x 1.655600 0.000000 0.000000 
#    y 0.000000 1.672940 0.000000 
#    z 0.000000 0.000000 1.694380 
# 
# From -- ./inp_files/10672.got.cif
#   From: 2010.05.17/outbox.cif.g08.bks.cpg/sg39_6_cif.got.tgz:10672.got - 2010.06.03 18:22:40.
