data_PCOD9360374
_publ_section_title
;
Structure prediction by ZEFSAII (Michael W. Deem and Ramdas Pophale) SiO2 
 PCOD9360374
Probable space group: A B M 2
;
_chemical_formula_sum "Si O2"
_cell_formula_units_Z 64
_cell_length_a 14.598930
_cell_length_b 27.936119
_cell_length_c 8.274410
_cell_angle_alpha 90.000000
_cell_angle_beta 90.000000
_cell_angle_gamma 90.000000
_cell_volume 3374.614240
_symmetry_space_group_name_H-M "A B M 2"
_symmetry_group_IT_number 39
_symmetry_cell_setting 'orthorhombic'
loop_
_space_group_symop_operation_xyz
x,y,z
-x,-y,z
-x,1/2+y,z
x,1/2-y,z
x,1/2+y,1/2+z
-x,1/2-y,1/2+z
-x,y,1/2+z
x,-y,1/2+z
loop_
_atom_site_type_symbol
_atom_site_label
_atom_site_fract_x
_atom_site_fract_y
_atom_site_fract_z
Si Si1 0.392158 0.448254 0.902350
Si Si2 0.789240 0.692793 0.148774
Si Si3 0.472796 0.693917 0.161025
Si Si4 0.363615 0.344842 0.351784
Si Si5 0.603326 0.551844 0.288566
Si Si6 0.141810 0.193089 0.657853
Si Si7 0.969872 0.806951 0.991605
Si Si8 0.691515 0.652119 0.832270
O O1 0.359907 0.500740 0.847521
O O2 0.496919 0.444543 0.841313
O O3 0.336815 0.403241 0.834136
O O4 0.391484 0.446089 0.095646
O O5 0.786243 0.750000 0.125718
O O6 0.731740 0.680332 0.307899
O O7 0.894858 0.677641 0.125651
O O8 0.737086 0.667577 0.000279
O O9 0.493384 0.750000 0.149569
O O10 0.564798 0.665428 0.204428
O O11 0.399481 0.683202 0.302299
O O12 0.418697 0.675757 0.003786
O O13 0.349692 0.401499 0.363205
O O14 0.163922 0.250000 0.641113
O O15 0.234668 0.165060 0.694231
O O16 0.072676 0.174930 0.519543
O O17 0.079251 0.187198 0.819910
O O18 0.981092 0.750000 0.014116
#
# Coordination Sequence:
#
# PCOD9360374 Si02
#       8
#     8   8   8   8   8   8   8   8
#     4  11  22  37  60  78 105 141 185 239 285 324
#     4  10  19  35  53  76 110 147 183 220 266 325
#     4  12  24  35  50  75 111 154 186 216 261 323
#     4  12  23  37  52  75 109 144 189 226 266 325
#     4  11  22  38  57  80 103 142 184 237 281 320
#     4   9  17  32  53  78 111 144 179 223 270 327
#     4   8  16  29  50  74 103 141 177 217 263 312
#     4  11  21  35  54  80 110 145 184 224 273 332
#
# _framework density 18.965131
#
# number of rings (size 3 to 8) (size 9 to 14) (size 15 to 20)
#    0.000    1.500    2.500    6.000    1.750    1.000 
#    0.000    2.500    0.000    0.000    0.000    0.875 
#    0.000    0.000    0.000    0.000    0.000    0.000 
#
# Total GULP energy -178774.677694 kJ/mol
# GULP energy per Si atom -5586.708678 kJ/mol
# Density = 1.892197 g / cm^3
# Si number density = 18.965131 Si / 1000 Ang^3
#
#
#
# Elastic Constant Matrix: (Units=GPa)
#
#
# Indices 1 2 3 4 5 6 
#
# 1 70.1248 17.2915 -2.1437 0.0000 0.0000 0.0000
# 2 17.2915 121.9402 6.1257 0.0000 0.0000 0.0000
# 3 -2.1437 6.1257 45.7940 0.0000 0.0000 0.0000
# 4 0.0000 0.0000 0.0000 13.4252 0.0000 0.0000
# 5 0.0000 0.0000 0.0000 0.0000 28.7751 0.0000
# 6 0.0000 0.0000 0.0000 0.0000 0.0000 7.6931
#
#
#
# Elastic Compliance Matrix: (Units=1/GPa)
#
#
# Indices 1 2 3 4 5 6 
#
# 1 0.014821 -0.002151 0.000981 0.000000 0.000000 0.000000
# 2 -0.002151 0.008568 -0.001247 0.000000 0.000000 0.000000
# 3 0.000981 -0.001247 0.022050 0.000000 0.000000 0.000000
# 4 0.000000 0.000000 0.000000 0.074487 0.000000 0.000000
# 5 0.000000 0.000000 0.000000 0.000000 0.034752 0.000000
# 6 0.000000 0.000000 0.000000 0.000000 0.000000 0.129987
#
#
# Mechanical properties :
#
#
# Convention : Reuss Voigt Hill
#
# Bulk Modulus (GPa) = 24.62680 31.15622 27.89151
# Shear Modulus (GPa) = 16.49986 24.41770 20.45878
#
# Velocity S-wave (km/s) = 2.95279 3.59207 3.28801
# Velocity P-wave (km/s) = 4.96375 5.80240 5.39938
#
# Compressibility (1/GPa) = 0.04060618
#
# Stress axis : x y z
#
# Youngs Moduli (GPa) = 67.47331 116.70814 45.35215
#
# Poissons Ratio (x) = 0.25103 -0.04451
# Poissons Ratio (y) = 0.14513 0.05655
# Poissons Ratio (z) = -0.06622 0.14552
#
# Static dielectric constant tensor:
#      x y z
#    x 1.677180 0.000000 0.000000 
#    y 0.000000 1.641220 0.000000 
#    z 0.000000 0.000000 1.773510 
# 
# From -- ./inp_files/3584.got.cif
#   From: 2010.05.17/outbox.cif.g08.bks.cpg/sg39_2_cif.got.tgz:3584.got - 2010.06.03 18:22:40.
