data_PCOD9360325
_publ_section_title
;
Structure prediction by ZEFSAII (Michael W. Deem and Ramdas Pophale) SiO2 
 PCOD9360325
Probable space group: A B M 2
;
_chemical_formula_sum "Si O2"
_cell_formula_units_Z 64
_cell_length_a 14.351254
_cell_length_b 16.094019
_cell_length_c 15.119341
_cell_angle_alpha 90.000000
_cell_angle_beta 90.000000
_cell_angle_gamma 90.000000
_cell_volume 3492.104432
_symmetry_space_group_name_H-M "A B M 2"
_symmetry_group_IT_number 39
_symmetry_cell_setting 'orthorhombic'
loop_
_space_group_symop_operation_xyz
x,y,z
-x,-y,z
-x,1/2+y,z
x,1/2-y,z
x,1/2+y,1/2+z
-x,1/2-y,1/2+z
-x,y,1/2+z
x,-y,1/2+z
loop_
_atom_site_type_symbol
_atom_site_label
_atom_site_fract_x
_atom_site_fract_y
_atom_site_fract_z
Si Si1 0.554526 0.088457 0.159150
Si Si2 0.422530 0.929290 0.352475
Si Si3 0.400223 0.156103 0.039012
Si Si4 0.052904 0.588891 0.431729
Si Si5 0.920543 0.569244 0.132372
Si Si6 0.727136 0.998875 0.085053
Si Si7 0.773351 0.006062 0.881697
Si Si8 0.105219 0.156652 0.311664
O O1 0.554692 0.116224 0.260807
O O2 0.496240 0.145448 0.093103
O O3 0.500000 0.000000 0.158615
O O4 0.657857 0.066287 0.126190
O O5 0.416070 0.870886 0.437581
O O6 0.323479 0.975965 0.340705
O O7 0.500000 0.000000 0.370112
O O8 0.365904 0.250000 0.045343
O O9 0.328336 0.088492 0.077600
O O10 0.070888 0.609865 0.534553
O O11 0.150301 0.568172 0.383649
O O12 0.000000 0.500000 0.434436
O O13 0.983678 0.646565 0.376846
O O14 0.822404 0.520220 0.135151
O O15 0.925074 0.633458 0.212326
O O16 0.000000 0.500000 0.142792
O O17 0.752968 0.024007 0.985039
O O18 0.819468 0.087106 0.839345
O O19 0.141671 0.250000 0.316762
#
# Coordination Sequence:
#
# PCOD9360325 Si02
#       8
#     8   8   8   8   8   8   8   8
#     4   9  18  33  54  79 104 136 177 216 256 309
#     4  10  19  34  57  79 103 142 185 217 252 313
#     4  10  20  34  53  80 112 138 169 222 275 314
#     4   8  17  34  54  75 100 139 183 218 253 306
#     4  10  19  34  58  79 100 138 183 220 256 308
#     4   9  18  35  58  78 101 138 184 222 256 310
#     4   9  17  34  56  76 102 140 182 216 255 313
#     4  11  22  34  52  82 114 137 166 217 274 319
#
# _framework density 18.327058000000001
#
# number of rings (size 3 to 8) (size 9 to 14) (size 15 to 20)
#    0.000    2.500    0.000    4.500    0.000    1.500 
#    0.000    7.500    0.000    2.250    0.000    0.000 
#    0.000    0.000    0.000    0.000    0.000    0.000 
#
# Total GULP energy -178463.103241 kJ/mol
# GULP energy per Si atom -5576.971976 kJ/mol
# Density = 1.828534 g / cm^3
# Si number density = 18.327058 Si / 1000 Ang^3
#
#
#
# Elastic Constant Matrix: (Units=GPa)
#
#
# Indices 1 2 3 4 5 6 
#
# 1 104.9539 18.5756 33.7567 0.0000 0.0000 0.0000
# 2 18.5756 67.8328 38.2713 0.0000 0.0000 0.0000
# 3 33.7567 38.2713 64.9648 0.0000 0.0000 0.0000
# 4 0.0000 0.0000 0.0000 -10.3996 0.0000 0.0000
# 5 0.0000 0.0000 0.0000 0.0000 5.5994 0.0000
# 6 0.0000 0.0000 0.0000 0.0000 0.0000 9.7833
#
#
#
# Elastic Compliance Matrix: (Units=1/GPa)
#
#
# Indices 1 2 3 4 5 6 
#
# 1 0.011445 0.000331 -0.006142 0.000000 0.000000 0.000000
# 2 0.000331 0.022091 -0.013186 0.000000 0.000000 0.000000
# 3 -0.006142 -0.013186 0.026353 0.000000 0.000000 0.000000
# 4 0.000000 0.000000 0.000000 -0.096157 0.000000 0.000000
# 5 0.000000 0.000000 0.000000 0.000000 0.178591 0.000000
# 6 0.000000 0.000000 0.000000 0.000000 0.000000 0.102215
#
#
# Mechanical properties :
#
#
# Convention : Reuss Voigt Hill
#
# Bulk Modulus (GPa) = 45.67351 46.55095 46.11223
# Shear Modulus (GPa) = 17.25151 10.80647 14.02899
#
# Velocity S-wave (km/s) = 3.07141 2.43090 2.76973
# Velocity P-wave (km/s) = 6.12810 5.77358 5.95348
#
# Compressibility (1/GPa) = 0.02189453
#
# Stress axis : x y z
#
# Youngs Moduli (GPa) = 87.37544 45.26716 37.94699
#
# Poissons Ratio (x) = -0.01500 0.23307
# Poissons Ratio (y) = -0.02894 0.50038
# Poissons Ratio (z) = 0.53667 0.59690
#
# Static dielectric constant tensor:
#      x y z
#    x 1.651920 0.000000 0.000000 
#    y 0.000000 1.582990 0.000000 
#    z 0.000000 0.000000 1.656200 
# 
# From -- ./inp_files/9895.got.cif
#   From: 2010.05.17/outbox.cif.g08.bks.cpg/sg39_5_cif.got.tgz:9895.got - 2010.06.03 18:22:40.
