data_PCOD9360711
_publ_section_title
;
Structure prediction by ZEFSAII (Michael W. Deem and Ramdas Pophale) SiO2 
 PCOD9360711
Probable space group: A B M 2
;
_chemical_formula_sum "Si O2"
_cell_formula_units_Z 60
_cell_length_a 17.466321
_cell_length_b 13.933434
_cell_length_c 13.387192
_cell_angle_alpha 90.000000
_cell_angle_beta 90.000000
_cell_angle_gamma 90.000000
_cell_volume 3257.985104
_symmetry_space_group_name_H-M "A B M 2"
_symmetry_group_IT_number 39
_symmetry_cell_setting 'orthorhombic'
loop_
_space_group_symop_operation_xyz
x,y,z
-x,-y,z
-x,1/2+y,z
x,1/2-y,z
x,1/2+y,1/2+z
-x,1/2-y,1/2+z
-x,y,1/2+z
x,-y,1/2+z
loop_
_atom_site_type_symbol
_atom_site_label
_atom_site_fract_x
_atom_site_fract_y
_atom_site_fract_z
Si Si1 0.000000 0.000000 0.348580
Si Si2 0.023770 0.637821 0.189044
Si Si3 0.457301 0.863214 0.992121
Si Si4 0.804056 0.861983 0.715861
Si Si5 0.239997 0.858998 0.449330
Si Si6 0.634105 0.865740 0.695377
Si Si7 0.921046 0.361497 0.495694
Si Si8 0.608276 0.455139 0.411279
O O1 0.975050 0.916714 0.272824
O O2 0.059206 0.944251 0.417567
O O3 0.027736 0.750000 0.213826
O O4 0.111705 0.599429 0.187546
O O5 0.980603 0.627527 0.085014
O O6 0.451030 0.750000 0.972185
O O7 0.543902 0.899244 0.975426
O O8 0.410372 0.932567 0.917998
O O9 0.422121 0.882129 0.102220
O O10 0.806931 0.750000 0.685895
O O11 0.722267 0.898529 0.674479
O O12 0.793443 0.865976 0.836070
O O13 0.269543 0.750000 0.459807
O O14 0.168146 0.872610 0.521872
O O15 0.309169 0.931543 0.456384
O O16 0.636865 0.750000 0.713129
O O17 0.607716 0.915545 0.798016
O O18 0.928106 0.250000 0.458361
#
# Coordination Sequence:
#
# PCOD9360711 Si02
#       8
#     4   8   8   8   8   8   8   8
#     4  12  20  34  52  80 108 142 182 224 278 326
#     4  10  20  35  54  78 108 145 184 229 279 325
#     4  10  21  36  55  86 119 144 177 226 281 328
#     4   8  14  30  55  77 102 143 188 222 260 321
#     4   9  16  33  58  82 105 141 190 234 268 317
#     4   9  18  35  58  84 112 147 187 228 270 326
#     4  10  21  36  55  81 111 143 185 233 276 323
#     4  10  20  35  60  86 110 147 188 225 269 328
#
# _framework density 18.416291000000001
#
# number of rings (size 3 to 8) (size 9 to 14) (size 15 to 20)
#    0.000    2.400    1.333    2.800    0.000    2.133 
#    4.800    0.000    0.000    2.400    0.000    0.000 
#    0.000    0.000    0.000    0.000    0.000    0.000 
#
# Total GULP energy -167039.732424 kJ/mol
# GULP energy per Si atom -5567.991081 kJ/mol
# Density = 1.837437 g / cm^3
# Si number density = 18.416291 Si / 1000 Ang^3
#
#
#
# Elastic Constant Matrix: (Units=GPa)
#
#
# Indices 1 2 3 4 5 6 
#
# 1 126.3482 46.7409 44.0200 0.0000 0.0000 0.0000
# 2 46.7409 88.8192 33.4836 0.0000 0.0000 0.0000
# 3 44.0200 33.4836 61.6665 0.0000 0.0000 0.0000
# 4 0.0000 0.0000 0.0000 27.2094 0.0000 0.0000
# 5 0.0000 0.0000 0.0000 0.0000 29.2311 0.0000
# 6 0.0000 0.0000 0.0000 0.0000 0.0000 23.8203
#
#
#
# Elastic Compliance Matrix: (Units=1/GPa)
#
#
# Indices 1 2 3 4 5 6 
#
# 1 0.011423 -0.003693 -0.006149 0.000000 0.000000 0.000000
# 2 -0.003693 0.015351 -0.005699 0.000000 0.000000 0.000000
# 3 -0.006149 -0.005699 0.023700 0.000000 0.000000 0.000000
# 4 0.000000 0.000000 0.000000 0.036752 0.000000 0.000000
# 5 0.000000 0.000000 0.000000 0.000000 0.034210 0.000000
# 6 0.000000 0.000000 0.000000 0.000000 0.000000 0.041981
#
#
# Mechanical properties :
#
#
# Convention : Reuss Voigt Hill
#
# Bulk Modulus (GPa) = 51.56787 58.36921 54.96854
# Shear Modulus (GPa) = 24.88021 26.22480 25.55251
#
# Velocity S-wave (km/s) = 3.67957 3.77769 3.72895
# Velocity P-wave (km/s) = 6.79075 7.12678 6.96080
#
# Compressibility (1/GPa) = 0.01939192
#
# Stress axis : x y z
#
# Youngs Moduli (GPa) = 87.54060 65.14326 42.19434
#
# Poissons Ratio (x) = 0.24060 0.25945
# Poissons Ratio (y) = 0.32332 0.24045
# Poissons Ratio (z) = 0.53828 0.37123
#
# Static dielectric constant tensor:
#      x y z
#    x 1.670260 0.000000 0.000000 
#    y 0.000000 1.653630 0.000000 
#    z 0.000000 0.000000 1.652100 
# 
# From -- ./inp_files/6844.got.cif
#   From: 2010.05.17/outbox.cif.g08.bks.cpg/sg39_4_cif.got.tgz:6844.got - 2010.06.03 18:22:40.
