data_PCOD9360343
_publ_section_title
;
Structure prediction by ZEFSAII (Michael W. Deem and Ramdas Pophale) SiO2 
 PCOD9360343
Probable space group: A B M 2
;
_chemical_formula_sum "Si O2"
_cell_formula_units_Z 64
_cell_length_a 21.432127
_cell_length_b 8.693916
_cell_length_c 16.601653
_cell_angle_alpha 90.000000
_cell_angle_beta 90.000000
_cell_angle_gamma 90.000000
_cell_volume 3093.371259
_symmetry_space_group_name_H-M "A B M 2"
_symmetry_group_IT_number 39
_symmetry_cell_setting 'orthorhombic'
loop_
_space_group_symop_operation_xyz
x,y,z
-x,-y,z
-x,1/2+y,z
x,1/2-y,z
x,1/2+y,1/2+z
-x,1/2-y,1/2+z
-x,y,1/2+z
x,-y,1/2+z
loop_
_atom_site_type_symbol
_atom_site_label
_atom_site_fract_x
_atom_site_fract_y
_atom_site_fract_z
Si Si1 0.380424 0.064816 0.736980
Si Si2 0.736780 0.922275 0.159666
Si Si3 0.142793 0.081527 0.268245
Si Si4 0.230472 0.078510 0.891095
Si Si5 0.187755 0.078418 0.536805
Si Si6 0.431636 0.064714 0.066452
Si Si7 0.635102 0.933158 0.407755
Si Si8 0.937408 0.572982 0.642431
O O1 0.382022 0.250000 0.736750
O O2 0.311689 0.994619 0.721336
O O3 0.414538 0.001525 0.655823
O O4 0.397803 0.002836 0.826557
O O5 0.716053 0.750000 0.132815
O O6 0.803387 0.902290 0.201154
O O7 0.751994 0.049000 0.092931
O O8 0.131201 0.250000 0.304110
O O9 0.177482 0.969015 0.328610
O O10 0.083042 0.015994 0.223098
O O11 0.253379 0.250000 0.875928
O O12 0.291243 0.970896 0.897160
O O13 0.194587 0.058546 0.974700
O O14 0.191479 0.250000 0.501111
O O15 0.122471 0.068270 0.583750
O O16 0.431045 0.250000 0.069727
O O17 0.500000 0.000000 0.047291
O O18 0.388095 0.007541 0.992172
O O19 0.625412 0.750000 0.409908
O O20 0.949002 0.750000 0.661712
O O21 0.000000 0.500000 0.607466
#
# Coordination Sequence:
#
# PCOD9360343 Si02
#       8
#     8   8   8   8   8   8   8   8
#     4  12  24  41  67  99 132 172 217 268 326 390
#     4  10  19  34  57  87 120 155 196 247 306 370
#     4  10  20  35  58  85 119 156 196 246 304 366
#     4  12  23  37  59  91 127 160 201 255 318 382
#     4  10  21  36  56  83 118 159 201 252 310 374
#     4  12  27  49  71  97 132 174 224 276 328 390
#     4  12  25  44  69 100 136 177 221 272 332 395
#     4  10  21  38  60  84 114 155 205 254 306 369
#
# _framework density 20.689401
#
# number of rings (size 3 to 8) (size 9 to 14) (size 15 to 20)
#    0.000    1.000    1.250    6.750    0.000    3.000 
#    0.000    3.125    0.000    1.500    0.000    0.000 
#    0.000    0.000    0.000    0.000    0.000    0.000 
#
# Total GULP energy -178499.741497 kJ/mol
# GULP energy per Si atom -5578.116922 kJ/mol
# Density = 2.064231 g / cm^3
# Si number density = 20.689401 Si / 1000 Ang^3
#
#
#
# Elastic Constant Matrix: (Units=GPa)
#
#
# Indices 1 2 3 4 5 6 
#
# 1 61.7820 26.6562 21.2209 0.0000 0.0000 0.0000
# 2 26.6562 155.2717 36.8747 0.0000 0.0000 0.0000
# 3 21.2209 36.8747 81.9388 0.0000 0.0000 0.0000
# 4 0.0000 0.0000 0.0000 32.6076 0.0000 0.0000
# 5 0.0000 0.0000 0.0000 0.0000 14.7019 0.0000
# 6 0.0000 0.0000 0.0000 0.0000 0.0000 -44.7706
#
#
#
# Elastic Compliance Matrix: (Units=1/GPa)
#
#
# Indices 1 2 3 4 5 6 
#
# 1 0.018458 -0.002277 -0.003756 0.000000 0.000000 0.000000
# 2 -0.002277 0.007492 -0.002782 0.000000 0.000000 0.000000
# 3 -0.003756 -0.002782 0.014429 0.000000 0.000000 0.000000
# 4 0.000000 0.000000 0.000000 0.030668 0.000000 0.000000
# 5 0.000000 0.000000 0.000000 0.000000 0.068019 0.000000
# 6 0.000000 0.000000 0.000000 0.000000 0.000000 -0.022336
#
#
# Mechanical properties :
#
#
# Convention : Reuss Voigt Hill
#
# Bulk Modulus (GPa) = 43.95604 52.05513 48.00558
# Shear Modulus (GPa) = 35.22577 14.79049 25.00813
#
# Velocity S-wave (km/s) = 4.13073 2.67663 3.48047
# Velocity P-wave (km/s) = 6.63645 5.89639 6.27733
#
# Compressibility (1/GPa) = 0.02275000
#
# Stress axis : x y z
#
# Youngs Moduli (GPa) = 54.17606 133.47820 69.30569
#
# Poissons Ratio (x) = 0.30392 0.26030
# Poissons Ratio (y) = 0.12335 0.19280
# Poissons Ratio (z) = 0.20347 0.37132
#
# Static dielectric constant tensor:
#      x y z
#    x 1.746420 0.000000 0.000000 
#    y 0.000000 1.725670 0.000000 
#    z 0.000000 0.000000 1.853840 
# 
# From -- ./inp_files/13191.got.cif
#   From: 2010.05.17/outbox.cif.g08.bks.cpg/sg39_7_cif.got.tgz:13191.got - 2010.06.03 18:22:40.
