data_PCOD9360966
_publ_section_title
;
Structure prediction by ZEFSAII (Michael W. Deem and Ramdas Pophale) SiO2 
 PCOD9360966
Probable space group: A B M 2
;
_chemical_formula_sum "Si O2"
_cell_formula_units_Z 40
_cell_length_a 12.923770
_cell_length_b 11.342829
_cell_length_c 13.382391
_cell_angle_alpha 90.000000
_cell_angle_beta 90.000000
_cell_angle_gamma 90.000000
_cell_volume 1961.752976
_symmetry_space_group_name_H-M "A B M 2"
_symmetry_group_IT_number 39
_symmetry_cell_setting 'orthorhombic'
loop_
_space_group_symop_operation_xyz
x,y,z
-x,-y,z
-x,1/2+y,z
x,1/2-y,z
x,1/2+y,1/2+z
-x,1/2-y,1/2+z
-x,y,1/2+z
x,-y,1/2+z
loop_
_atom_site_type_symbol
_atom_site_label
_atom_site_fract_x
_atom_site_fract_y
_atom_site_fract_z
Si Si1 0.559021 0.374913 0.032770
Si Si2 0.929646 0.883784 0.285876
Si Si3 0.228119 0.883441 0.609028
Si Si4 0.383023 0.028292 0.735507
Si Si5 0.742409 0.965978 0.414363
O O1 0.500000 0.500000 0.023773
O O2 0.501885 0.250000 0.019558
O O3 0.605298 0.379403 0.145290
O O4 0.650285 0.382652 0.952356
O O5 0.974898 0.750000 0.293734
O O6 0.872688 0.893878 0.178692
O O7 0.837115 0.897274 0.365678
O O8 0.000000 0.000000 0.298607
O O9 0.239741 0.750000 0.577184
O O10 0.325697 0.920473 0.678201
O O11 0.223339 0.964391 0.512389
O O12 0.500000 0.000000 0.768284
O O13 0.309752 0.050165 0.830043
#
# Coordination Sequence:
#
# PCOD9360966 Si02
#       5
#     8   8   8   8   8
#     4  10  21  37  56  84 121 161 199 237 281 334
#     4  10  22  42  64  87 115 149 188 238 297 355
#     4   9  20  38  58  82 118 157 193 236 290 345
#     4   9  19  34  53  82 117 155 195 235 278 330
#     4  10  20  37  60  87 115 152 195 240 287 342
#
# _framework density 20.389928000000001
#
# number of rings (size 3 to 8) (size 9 to 14) (size 15 to 20)
#    0.000    2.400    0.000    1.200    0.000   11.200 
#    0.000   15.000    0.000    0.000    0.000    0.000 
#    0.000    0.000    0.000    0.000    0.000    0.000 
#
# Total GULP energy -111441.971459 kJ/mol
# GULP energy per Si atom -5572.098573 kJ/mol
# Density = 2.034352 g / cm^3
# Si number density = 20.389928 Si / 1000 Ang^3
#
#
#
# Elastic Constant Matrix: (Units=GPa)
#
#
# Indices 1 2 3 4 5 6 
#
# 1 60.4055 47.2315 16.6153 0.0000 0.0000 0.0000
# 2 47.2315 157.3559 31.1017 0.0000 0.0000 0.0000
# 3 16.6153 31.1017 100.2411 0.0000 0.0000 0.0000
# 4 0.0000 0.0000 0.0000 -6.5173 0.0000 0.0000
# 5 0.0000 0.0000 0.0000 0.0000 12.9037 0.0000
# 6 0.0000 0.0000 0.0000 0.0000 0.0000 19.6909
#
#
#
# Elastic Compliance Matrix: (Units=1/GPa)
#
#
# Indices 1 2 3 4 5 6 
#
# 1 0.021898 -0.006238 -0.001694 0.000000 0.000000 0.000000
# 2 -0.006238 0.008547 -0.001618 0.000000 0.000000 0.000000
# 3 -0.001694 -0.001618 0.010759 0.000000 0.000000 0.000000
# 4 0.000000 0.000000 0.000000 -0.153437 0.000000 0.000000
# 5 0.000000 0.000000 0.000000 0.000000 0.077497 0.000000
# 6 0.000000 0.000000 0.000000 0.000000 0.000000 0.050785
#
#
# Mechanical properties :
#
#
# Convention : Reuss Voigt Hill
#
# Bulk Modulus (GPa) = 45.24107 56.43330 50.83719
# Shear Modulus (GPa) = 117.59795 20.08571 68.84183
#
# Velocity S-wave (km/s) = 7.60261 3.14200 5.81687
# Velocity P-wave (km/s) = 9.96506 6.39531 8.37265
#
# Compressibility (1/GPa) = 0.02210381
#
# Stress axis : x y z
#
# Youngs Moduli (GPa) = 45.66538 116.99703 92.94735
#
# Poissons Ratio (x) = 0.72984 0.15748
# Poissons Ratio (y) = 0.28487 0.15038
# Poissons Ratio (z) = 0.07737 0.18930
#
# Static dielectric constant tensor:
#      x y z
#    x 1.748890 0.000000 0.000000 
#    y 0.000000 1.751720 0.000000 
#    z 0.000000 0.000000 1.739410 
# 
# From -- ./inp_files/9036.got.cif
#   From: 2010.05.17/outbox.cif.g08.bks.cpg/sg39_5_cif.got.tgz:9036.got - 2010.06.03 18:22:40.
