data_PCOD9360642
_publ_section_title
;
Structure prediction by ZEFSAII (Michael W. Deem and Ramdas Pophale) SiO2 
 PCOD9360642
Probable space group: A B M 2
;
_chemical_formula_sum "Si O2"
_cell_formula_units_Z 64
_cell_length_a 15.861954
_cell_length_b 22.391841
_cell_length_c 9.787791
_cell_angle_alpha 90.000000
_cell_angle_beta 90.000000
_cell_angle_gamma 90.000000
_cell_volume 3476.411476
_symmetry_space_group_name_H-M "A B M 2"
_symmetry_group_IT_number 39
_symmetry_cell_setting 'orthorhombic'
loop_
_space_group_symop_operation_xyz
x,y,z
-x,-y,z
-x,1/2+y,z
x,1/2-y,z
x,1/2+y,1/2+z
-x,1/2-y,1/2+z
-x,y,1/2+z
x,-y,1/2+z
loop_
_atom_site_type_symbol
_atom_site_label
_atom_site_fract_x
_atom_site_fract_y
_atom_site_fract_z
Si Si1 0.224362 0.821207 0.442300
Si Si2 0.600884 0.015120 0.002969
Si Si3 0.467560 0.875142 0.136362
Si Si4 0.366647 0.929324 0.732258
Si Si5 0.759881 0.179512 0.750655
Si Si6 0.585945 0.819483 0.904774
Si Si7 0.073614 0.323243 0.751473
Si Si8 0.916889 0.677822 0.437752
O O1 0.230151 0.750000 0.416903
O O2 0.197982 0.827404 0.600635
O O3 0.319812 0.844112 0.428295
O O4 0.156164 0.843882 0.334870
O O5 0.600960 0.078625 0.081224
O O6 0.500000 0.000000 0.989600
O O7 0.646441 0.965141 0.092424
O O8 0.642549 0.025714 0.857601
O O9 0.534987 0.912182 0.225294
O O10 0.433925 0.827821 0.244928
O O11 0.519200 0.849632 0.007358
O O12 0.315303 0.868329 0.752442
O O13 0.733625 0.250000 0.761372
O O14 0.827002 0.165283 0.868101
O O15 0.585357 0.750000 0.940913
O O16 0.073620 0.250000 0.750562
O O17 0.074208 0.343014 0.593858
O O18 0.991727 0.342397 0.837507
O O19 0.922900 0.750000 0.442017
#
# Coordination Sequence:
#
# PCOD9360642 Si02
#       8
#     8   8   8   8   8   8   8   8
#     4   9  18  31  47  70 109 152 189 226 272 335
#     4  10  22  38  58  78  99 141 196 252 294 322
#     4  11  21  37  55  77 108 148 196 243 283 342
#     4  11  22  37  58  79 107 144 189 245 289 339
#     4  10  20  34  53  81 116 151 183 225 286 356
#     4  11  22  35  52  80 118 159 193 230 291 359
#     4   9  16  29  48  74 110 155 194 227 265 327
#     4   9  17  29  49  76 112 152 190 224 271 339
#
# _framework density 18.409787999999999
#
# number of rings (size 3 to 8) (size 9 to 14) (size 15 to 20)
#    0.000    2.000    2.500    2.250    1.750    4.500 
#    0.000    1.250    0.000    0.000    0.000    0.000 
#    0.000   21.000    0.000    0.000    0.000    0.000 
#
# Total GULP energy -178367.788780 kJ/mol
# GULP energy per Si atom -5573.993399 kJ/mol
# Density = 1.836789 g / cm^3
# Si number density = 18.409788 Si / 1000 Ang^3
#
#
#
# Elastic Constant Matrix: (Units=GPa)
#
#
# Indices 1 2 3 4 5 6 
#
# 1 36.4599 19.0504 31.6542 0.0000 0.0000 0.0000
# 2 19.0504 55.2548 31.4076 0.0000 0.0000 0.0000
# 3 31.6542 31.4076 123.1239 0.0000 0.0000 0.0000
# 4 0.0000 0.0000 0.0000 28.3887 0.0000 0.0000
# 5 0.0000 0.0000 0.0000 0.0000 21.2014 0.0000
# 6 0.0000 0.0000 0.0000 0.0000 0.0000 4.2267
#
#
#
# Elastic Compliance Matrix: (Units=1/GPa)
#
#
# Indices 1 2 3 4 5 6 
#
# 1 0.038802 -0.009015 -0.007676 0.000000 0.000000 0.000000
# 2 -0.009015 0.023261 -0.003616 0.000000 0.000000 0.000000
# 3 -0.007676 -0.003616 0.011018 0.000000 0.000000 0.000000
# 4 0.000000 0.000000 0.000000 0.035225 0.000000 0.000000
# 5 0.000000 0.000000 0.000000 0.000000 0.047167 0.000000
# 6 0.000000 0.000000 0.000000 0.000000 0.000000 0.236591
#
#
# Mechanical properties :
#
#
# Convention : Reuss Voigt Hill
#
# Bulk Modulus (GPa) = 30.80022 42.11810 36.45916
# Shear Modulus (GPa) = 11.27393 19.61178 15.44286
#
# Velocity S-wave (km/s) = 2.47733 3.26742 2.89941
# Velocity P-wave (km/s) = 4.99495 6.09610 5.57279
#
# Compressibility (1/GPa) = 0.03246731
#
# Stress axis : x y z
#
# Youngs Moduli (GPa) = 25.77187 42.98953 90.76213
#
# Poissons Ratio (x) = 0.38754 0.69670
# Poissons Ratio (y) = 0.23233 0.32821
# Poissons Ratio (z) = 0.19783 0.15546
#
# Static dielectric constant tensor:
#      x y z
#    x 1.641780 0.000000 0.000000 
#    y 0.000000 1.636740 0.000000 
#    z 0.000000 0.000000 1.677920 
# 
# From -- ./inp_files/3864.got.cif
#   From: 2010.05.17/outbox.cif.g08.bks.cpg/sg39_2_cif.got.tgz:3864.got - 2010.06.03 18:22:40.
