data_PCOD9360202
_publ_section_title
;
Structure prediction by ZEFSAII (Michael W. Deem and Ramdas Pophale) SiO2 
 PCOD9360202
Probable space group: A B M 2
;
_chemical_formula_sum "Si O2"
_cell_formula_units_Z 48
_cell_length_a 14.657348
_cell_length_b 8.036270
_cell_length_c 21.256166
_cell_angle_alpha 90.000000
_cell_angle_beta 90.000000
_cell_angle_gamma 90.000000
_cell_volume 2503.772423
_symmetry_space_group_name_H-M "A B M 2"
_symmetry_group_IT_number 39
_symmetry_cell_setting 'orthorhombic'
loop_
_space_group_symop_operation_xyz
x,y,z
-x,-y,z
-x,1/2+y,z
x,1/2-y,z
x,1/2+y,1/2+z
-x,1/2-y,1/2+z
-x,y,1/2+z
x,-y,1/2+z
loop_
_atom_site_type_symbol
_atom_site_label
_atom_site_fract_x
_atom_site_fract_y
_atom_site_fract_z
Si Si1 0.209835 0.546032 0.587790
Si Si2 0.895132 0.450393 0.462289
Si Si3 0.894344 0.052073 0.711817
Si Si4 0.600938 0.549675 0.889942
Si Si5 0.600948 0.549774 0.035194
Si Si6 0.789864 0.548827 0.837728
O O1 0.209351 0.750000 0.589000
O O2 0.155148 0.492535 0.525521
O O3 0.158859 0.485946 0.650283
O O4 0.314650 0.492741 0.577805
O O5 0.888886 0.250000 0.461964
O O6 0.845483 0.510240 0.399109
O O7 0.000000 0.500000 0.462598
O O8 0.893878 0.250000 0.707356
O O9 0.840196 0.003785 0.774577
O O10 0.000000 0.000000 0.713818
O O11 0.500000 0.500000 0.868631
O O12 0.604511 0.750000 0.891840
O O13 0.685382 0.491735 0.847491
O O14 0.612765 0.490818 0.962573
O O15 0.500000 0.500000 0.056473
O O16 0.604648 0.750000 0.033178
O O17 0.789683 0.750000 0.838658
#
# Coordination Sequence:
#
# PCOD9360202 Si02
#       6
#     8   8   8   8   8   8
#     4   9  18  35  56  76 103 140 177 213 263 318
#     4  10  19  33  53  76 101 132 173 220 265 311
#     4  11  23  38  56  77 106 145 182 220 267 321
#     4   9  17  31  54  81 108 139 173 217 268 316
#     4   9  16  31  54  80 107 136 171 214 265 315
#     4  10  20  36  56  78 107 142 178 218 268 319
#
# _framework density 19.171073
#
# number of rings (size 3 to 8) (size 9 to 14) (size 15 to 20)
#    0.000    2.333    1.667    1.500    0.000    2.667 
#    0.000    4.167    0.000    4.000    0.000    0.000 
#    0.000    0.000    0.000    0.000    0.000    0.000 
#
# Total GULP energy -133921.911536 kJ/mol
# GULP energy per Si atom -5580.079647 kJ/mol
# Density = 1.912744 g / cm^3
# Si number density = 19.171073 Si / 1000 Ang^3
#
#
#
# Elastic Constant Matrix: (Units=GPa)
#
#
# Indices 1 2 3 4 5 6 
#
# 1 229.5416 14.8422 117.9976 0.0000 0.0000 0.0000
# 2 14.8422 13.4604 14.0902 0.0000 0.0000 0.0000
# 3 117.9976 14.0902 163.5888 0.0000 0.0000 0.0000
# 4 0.0000 0.0000 0.0000 15.5752 0.0000 0.0000
# 5 0.0000 0.0000 0.0000 0.0000 30.0462 0.0000
# 6 0.0000 0.0000 0.0000 0.0000 0.0000 28.7294
#
#
#
# Elastic Compliance Matrix: (Units=1/GPa)
#
#
# Indices 1 2 3 4 5 6 
#
# 1 0.007011 -0.002678 -0.004826 0.000000 0.000000 0.000000
# 2 -0.002678 0.082677 -0.005189 0.000000 0.000000 0.000000
# 3 -0.004826 -0.005189 0.010041 0.000000 0.000000 0.000000
# 4 0.000000 0.000000 0.000000 0.064205 0.000000 0.000000
# 5 0.000000 0.000000 0.000000 0.000000 0.033282 0.000000
# 6 0.000000 0.000000 0.000000 0.000000 0.000000 0.034808
#
#
# Mechanical properties :
#
#
# Convention : Reuss Voigt Hill
#
# Bulk Modulus (GPa) = 13.45148 77.82789 45.63968
# Shear Modulus (GPa) = 17.71853 32.18089 24.94971
#
# Velocity S-wave (km/s) = 3.04342 4.10154 3.61144
# Velocity P-wave (km/s) = 4.40246 7.94448 6.42248
#
# Compressibility (1/GPa) = 0.07434126
#
# Stress axis : x y z
#
# Youngs Moduli (GPa) = 142.64171 12.09525 99.59248
#
# Poissons Ratio (x) = 0.03240 0.48064
# Poissons Ratio (y) = 0.38205 0.51681
# Poissons Ratio (z) = 0.68840 0.06276
#
# Static dielectric constant tensor:
#      x y z
#    x 1.673200 0.000000 0.000000 
#    y 0.000000 1.709390 0.000000 
#    z 0.000000 0.000000 1.655730 
# 
# From -- ./inp_files/12195.got.cif
#   From: 2010.05.17/outbox.cif.g08.bks.cpg/sg39_7_cif.got.tgz:12195.got - 2010.06.03 18:22:40.
