data_PCOD9360618
_publ_section_title
;
Structure prediction by ZEFSAII (Michael W. Deem and Ramdas Pophale) SiO2 
 PCOD9360618
Probable space group: A B M 2
;
_chemical_formula_sum "Si O2"
_cell_formula_units_Z 64
_cell_length_a 20.978277
_cell_length_b 8.396921
_cell_length_c 20.337922
_cell_angle_alpha 90.000000
_cell_angle_beta 90.000000
_cell_angle_gamma 90.000000
_cell_volume 3582.584646
_symmetry_space_group_name_H-M "A B M 2"
_symmetry_group_IT_number 39
_symmetry_cell_setting 'orthorhombic'
loop_
_space_group_symop_operation_xyz
x,y,z
-x,-y,z
-x,1/2+y,z
x,1/2-y,z
x,1/2+y,1/2+z
-x,1/2-y,1/2+z
-x,y,1/2+z
x,-y,1/2+z
loop_
_atom_site_type_symbol
_atom_site_label
_atom_site_fract_x
_atom_site_fract_y
_atom_site_fract_z
Si Si1 0.677746 0.055956 0.203090
Si Si2 0.570232 0.559387 0.451086
Si Si3 0.179462 0.059076 0.352479
Si Si4 0.678927 0.940651 0.853638
Si Si5 0.070251 0.557549 0.103480
Si Si6 0.929678 0.557604 0.452474
Si Si7 0.822167 0.557329 0.704709
Si Si8 0.429823 0.942534 0.102230
O O1 0.676647 0.250000 0.202030
O O2 0.664997 0.006423 0.278400
O O3 0.750110 0.006901 0.186480
O O4 0.624926 0.000164 0.151638
O O5 0.500000 0.500000 0.431132
O O6 0.570165 0.750000 0.450539
O O7 0.625224 0.499020 0.403295
O O8 0.581095 0.505353 0.526698
O O9 0.179387 0.250000 0.352434
O O10 0.125737 0.002464 0.403548
O O11 0.250366 0.001508 0.370741
O O12 0.165395 0.999394 0.278818
O O13 0.680372 0.750000 0.853716
O O14 0.070573 0.750000 0.103869
O O15 0.124876 0.501506 0.153191
O O16 0.000000 0.500000 0.123178
O O17 0.081490 0.505204 0.028008
O O18 0.929750 0.750000 0.452085
O O19 0.000000 0.500000 0.432661
O O20 0.822769 0.750000 0.705072
O O21 0.429544 0.750000 0.102718
O O22 0.500000 0.000000 0.122209
#
# Coordination Sequence:
#
# PCOD9360618 Si02
#       8
#     8   8   8   8   8   8   8   8
#     4   8  16  32  52  72  94 126 166 203 241 287
#     4  10  20  34  53  76 103 134 167 206 249 295
#     4  10  20  34  52  75 102 131 167 209 251 298
#     4  10  20  35  54  75 102 134 168 207 251 300
#     4   9  18  33  52  73  98 129 165 205 249 297
#     4   9  19  34  52  74 100 132 169 209 251 297
#     4   9  18  33  52  72  97 130 165 202 246 296
#     4   9  18  33  52  73  98 128 162 201 243 288
#
# _framework density 17.864197999999998
#
# number of rings (size 3 to 8) (size 9 to 14) (size 15 to 20)
#    0.000    2.750    0.000    1.875    0.000    4.000 
#    0.000   10.625    0.000    3.000    0.000    0.000 
#    0.000    0.000    0.000    0.000    0.000    0.000 
#
# Total GULP energy -178452.130253 kJ/mol
# GULP energy per Si atom -5576.629070 kJ/mol
# Density = 1.782354 g / cm^3
# Si number density = 17.864198 Si / 1000 Ang^3
#
#
#
# Elastic Constant Matrix: (Units=GPa)
#
#
# Indices 1 2 3 4 5 6 
#
# 1 196.8430 24.3786 137.9665 0.0000 0.0000 0.0000
# 2 24.3786 15.8622 18.5475 0.0000 0.0000 0.0000
# 3 137.9665 18.5475 116.1121 0.0000 0.0000 0.0000
# 4 0.0000 0.0000 0.0000 20.9727 0.0000 0.0000
# 5 0.0000 0.0000 0.0000 0.0000 45.3407 0.0000
# 6 0.0000 0.0000 0.0000 0.0000 0.0000 30.6152
#
#
#
# Elastic Compliance Matrix: (Units=1/GPa)
#
#
# Indices 1 2 3 4 5 6 
#
# 1 0.030784 -0.005585 -0.035686 0.000000 0.000000 0.000000
# 2 -0.005585 0.078536 -0.005909 0.000000 0.000000 0.000000
# 3 -0.035686 -0.005909 0.051959 0.000000 0.000000 0.000000
# 4 0.000000 0.000000 0.000000 0.047681 0.000000 0.000000
# 5 0.000000 0.000000 0.000000 0.000000 0.022055 0.000000
# 6 0.000000 0.000000 0.000000 0.000000 0.000000 0.032663
#
#
# Mechanical properties :
#
#
# Convention : Reuss Voigt Hill
#
# Bulk Modulus (GPa) = 14.94345 76.73361 45.83853
# Shear Modulus (GPa) = 13.14594 29.24736 21.19665
#
# Velocity S-wave (km/s) = 2.71566 4.05063 3.44836
# Velocity P-wave (km/s) = 4.26805 8.05754 6.44749
#
# Compressibility (1/GPa) = 0.06691897
#
# Stress axis : x y z
#
# Youngs Moduli (GPa) = 32.48435 12.73301 19.24589
#
# Poissons Ratio (x) = 0.07111 0.68681
# Poissons Ratio (y) = 0.18141 0.11373
# Poissons Ratio (z) = 1.15924 0.07524
#
# Static dielectric constant tensor:
#      x y z
#    x 1.587700 0.000000 0.000000 
#    y 0.000000 1.619790 0.000000 
#    z 0.000000 0.000000 1.606260 
# 
# From -- ./inp_files/13174.got.cif
#   From: 2010.05.17/outbox.cif.g08.bks.cpg/sg39_7_cif.got.tgz:13174.got - 2010.06.03 18:22:40.
