data_PCOD9360438
_publ_section_title
;
Structure prediction by ZEFSAII (Michael W. Deem and Ramdas Pophale) SiO2 
 PCOD9360438
Probable space group: A B M 2
;
_chemical_formula_sum "Si O2"
_cell_formula_units_Z 64
_cell_length_a 15.314628
_cell_length_b 15.946732
_cell_length_c 9.857827
_cell_angle_alpha 90.000000
_cell_angle_beta 90.000000
_cell_angle_gamma 90.000000
_cell_volume 2407.461440
_symmetry_space_group_name_H-M "A B M 2"
_symmetry_group_IT_number 39
_symmetry_cell_setting 'orthorhombic'
loop_
_space_group_symop_operation_xyz
x,y,z
-x,-y,z
-x,1/2+y,z
x,1/2-y,z
x,1/2+y,1/2+z
-x,1/2-y,1/2+z
-x,y,1/2+z
x,-y,1/2+z
loop_
_atom_site_type_symbol
_atom_site_label
_atom_site_fract_x
_atom_site_fract_y
_atom_site_fract_z
Si Si1 0.745764 0.104561 0.409470
Si Si2 0.434337 0.845536 0.335266
Si Si3 0.106908 0.148447 0.118137
Si Si4 0.854259 0.844570 0.673796
Si Si5 0.757414 0.925169 0.437761
Si Si6 0.592679 0.488181 0.111405
Si Si7 0.377144 0.658205 0.777893
Si Si8 0.011894 0.148425 0.371374
O O1 0.644405 0.126194 0.432711
O O2 0.804983 0.121523 0.541297
O O3 0.774255 0.158215 0.279351
O O4 0.771624 0.011346 0.358790
O O5 0.416678 0.750000 0.292174
O O6 0.536733 0.844150 0.375119
O O7 0.426060 0.913361 0.216823
O O8 0.106731 0.250000 0.117401
O O9 0.026552 0.121219 0.017472
O O10 0.092570 0.120334 0.274390
O O11 0.873344 0.750000 0.627753
O O12 0.831371 0.898051 0.542465
O O13 0.932224 0.872975 0.770071
O O14 0.714592 0.849954 0.354833
O O15 0.675062 0.958716 0.527132
O O16 0.500000 0.500000 0.035284
O O17 0.614398 0.572469 0.194573
O O18 0.381581 0.750000 0.708294
O O19 0.016849 0.250000 0.377672
#
# Coordination Sequence:
#
# PCOD9360438 Si02
#       8
#     8   8   8   8   8   8   8   8
#     4  11  21  34  57  86 122 151 197 254 310 359
#     4  10  19  36  59  83 115 157 205 251 303 364
#     4   9  17  34  59  89 122 160 206 257 315 384
#     4  10  20  38  61  86 113 153 206 248 298 376
#     4  12  22  35  59  86 116 156 201 251 307 360
#     4  10  22  37  58  79 119 156 199 249 308 362
#     4  10  22  39  56  81 118 160 203 253 304 358
#     4   8  16  32  59  89 117 153 203 258 309 375
#
# _framework density 26.584019000000001
#
# number of rings (size 3 to 8) (size 9 to 14) (size 15 to 20)
#    0.000    2.000    2.500    2.250    1.750    0.500 
#    0.000    5.000    0.000    4.500    0.000    0.000 
#    0.000    0.000    0.000    0.000    0.000    0.000 
#
# Total GULP energy -178897.208957 kJ/mol
# GULP energy per Si atom -5590.537780 kJ/mol
# Density = 2.652351 g / cm^3
# Si number density = 26.584019 Si / 1000 Ang^3
#
#
#
# Elastic Constant Matrix: (Units=GPa)
#
#
# Indices 1 2 3 4 5 6 
#
# 1 87.1976 -6.1251 11.8672 0.0000 0.0000 0.0000
# 2 -6.1251 133.9446 11.3445 0.0000 0.0000 0.0000
# 3 11.8672 11.3445 102.1033 0.0000 0.0000 0.0000
# 4 0.0000 0.0000 0.0000 23.9287 0.0000 0.0000
# 5 0.0000 0.0000 0.0000 0.0000 37.3131 0.0000
# 6 0.0000 0.0000 0.0000 0.0000 0.0000 15.7532
#
#
#
# Elastic Compliance Matrix: (Units=1/GPa)
#
#
# Indices 1 2 3 4 5 6 
#
# 1 0.011710 0.000657 -0.001434 0.000000 0.000000 0.000000
# 2 0.000657 0.007574 -0.000918 0.000000 0.000000 0.000000
# 3 -0.001434 -0.000918 0.010063 0.000000 0.000000 0.000000
# 4 0.000000 0.000000 0.000000 0.041791 0.000000 0.000000
# 5 0.000000 0.000000 0.000000 0.000000 0.026800 0.000000
# 6 0.000000 0.000000 0.000000 0.000000 0.000000 0.063479
#
#
# Mechanical properties :
#
#
# Convention : Reuss Voigt Hill
#
# Bulk Modulus (GPa) = 38.52683 39.71319 39.12001
# Shear Modulus (GPa) = 28.82549 35.80960 32.31755
#
# Velocity S-wave (km/s) = 3.29647 3.67418 3.49044
# Velocity P-wave (km/s) = 5.38636 5.74201 5.56702
#
# Compressibility (1/GPa) = 0.02595594
#
# Stress axis : x y z
#
# Youngs Moduli (GPa) = 85.40074 132.03851 99.37741
#
# Poissons Ratio (x) = -0.08674 0.14250
# Poissons Ratio (y) = -0.05610 0.09121
# Poissons Ratio (z) = 0.12246 0.12119
#
# Static dielectric constant tensor:
#      x y z
#    x 2.189010 0.000000 0.000000 
#    y 0.000000 2.077810 0.000000 
#    z 0.000000 0.000000 2.077790 
# 
# From -- ./inp_files/6883.got.cif
#   From: 2010.05.17/outbox.cif.g08.bks.cpg/sg39_4_cif.got.tgz:6883.got - 2010.06.03 18:22:40.
