data_PCOD9360344
_publ_section_title
;
Structure prediction by ZEFSAII (Michael W. Deem and Ramdas Pophale) SiO2 
 PCOD9360344
Probable space group: A B M 2
;
_chemical_formula_sum "Si O2"
_cell_formula_units_Z 48
_cell_length_a 7.555376
_cell_length_b 28.378831
_cell_length_c 9.265599
_cell_angle_alpha 90.000000
_cell_angle_beta 90.000000
_cell_angle_gamma 90.000000
_cell_volume 1986.662457
_symmetry_space_group_name_H-M "A B M 2"
_symmetry_group_IT_number 39
_symmetry_cell_setting 'orthorhombic'
loop_
_space_group_symop_operation_xyz
x,y,z
-x,-y,z
-x,1/2+y,z
x,1/2-y,z
x,1/2+y,1/2+z
-x,1/2-y,1/2+z
-x,y,1/2+z
x,-y,1/2+z
loop_
_atom_site_type_symbol
_atom_site_label
_atom_site_fract_x
_atom_site_fract_y
_atom_site_fract_z
Si Si1 0.979526 0.304921 0.796440
Si Si2 0.457100 0.350982 0.382531
Si Si3 0.350581 0.047379 0.412113
Si Si4 0.359455 0.801214 0.140863
Si Si5 0.165735 0.637927 0.540942
Si Si6 0.274588 0.464856 0.079062
O O1 0.937613 0.250000 0.828049
O O2 0.164725 0.302989 0.706589
O O3 0.849393 0.332528 0.688779
O O4 0.027432 0.337281 0.933148
O O5 0.335432 0.396574 0.402439
O O6 0.525567 0.340332 0.223110
O O7 0.363934 0.309537 0.470637
O O8 0.645588 0.356216 0.463930
O O9 0.327639 0.030653 0.246838
O O10 0.548428 0.044031 0.481799
O O11 0.223541 0.015924 0.513632
O O12 0.436841 0.750000 0.174476
O O13 0.151471 0.581306 0.563739
#
# Coordination Sequence:
#
# PCOD9360344 Si02
#       6
#     8   8   8   8   8   8
#     4  10  22  40  60  84 120 165 209 256 318 386
#     4  10  20  36  59  89 123 155 198 257 315 380
#     4  10  19  34  57  90 123 157 199 251 315 368
#     4  10  21  36  57  87 122 158 200 257 321 382
#     4  10  22  39  60  87 120 162 209 258 312 373
#     4  10  20  35  61  92 124 161 205 259 313 378
#
# _framework density 24.161125999999999
#
# number of rings (size 3 to 8) (size 9 to 14) (size 15 to 20)
#    0.000    2.000    0.000    5.000    0.000    7.333 
#    0.000    0.000    0.000    8.000    0.000    0.000 
#    0.000    0.000    0.000    0.000    0.000    0.000 
#
# Total GULP energy -133976.972487 kJ/mol
# GULP energy per Si atom -5582.373854 kJ/mol
# Density = 2.410613 g / cm^3
# Si number density = 24.161126 Si / 1000 Ang^3
#
#
#
# Elastic Constant Matrix: (Units=GPa)
#
#
# Indices 1 2 3 4 5 6 
#
# 1 65.5696 50.5692 23.5904 0.0000 0.0000 0.0000
# 2 50.5692 165.4303 53.6586 0.0000 0.0000 0.0000
# 3 23.5904 53.6586 168.1388 0.0000 0.0000 0.0000
# 4 0.0000 0.0000 0.0000 38.9622 0.0000 0.0000
# 5 0.0000 0.0000 0.0000 0.0000 30.3278 0.0000
# 6 0.0000 0.0000 0.0000 0.0000 0.0000 39.6378
#
#
#
# Elastic Compliance Matrix: (Units=1/GPa)
#
#
# Indices 1 2 3 4 5 6 
#
# 1 0.020093 -0.005831 -0.000958 0.000000 0.000000 0.000000
# 2 -0.005831 0.008435 -0.001874 0.000000 0.000000 0.000000
# 3 -0.000958 -0.001874 0.006680 0.000000 0.000000 0.000000
# 4 0.000000 0.000000 0.000000 0.025666 0.000000 0.000000
# 5 0.000000 0.000000 0.000000 0.000000 0.032973 0.000000
# 6 0.000000 0.000000 0.000000 0.000000 0.000000 0.025228
#
#
# Mechanical properties :
#
#
# Convention : Reuss Voigt Hill
#
# Bulk Modulus (GPa) = 55.92361 72.75278 64.33819
# Shear Modulus (GPa) = 35.12167 39.87361 37.49764
#
# Velocity S-wave (km/s) = 3.81680 4.06682 3.94379
# Velocity P-wave (km/s) = 6.52843 7.22696 6.88655
#
# Compressibility (1/GPa) = 0.01788153
#
# Stress axis : x y z
#
# Youngs Moduli (GPa) = 49.76875 118.55164 149.70327
#
# Poissons Ratio (x) = 0.69131 0.14344
# Poissons Ratio (y) = 0.29022 0.28051
# Poissons Ratio (z) = 0.04769 0.22214
#
# Static dielectric constant tensor:
#      x y z
#    x 1.971290 0.000000 0.000000 
#    y 0.000000 2.015950 0.000000 
#    z 0.000000 0.000000 1.903530 
# 
# From -- ./inp_files/2315.got.cif
#   From: 2010.05.17/outbox.cif.g08.bks.cpg/sg39_2_cif.got.tgz:2315.got - 2010.06.03 18:22:40.
