data_PCOD9360681
_publ_section_title
;
Structure prediction by ZEFSAII (Michael W. Deem and Ramdas Pophale) SiO2 
 PCOD9360681
Probable space group: A B M 2
;
_chemical_formula_sum "Si O2"
_cell_formula_units_Z 52
_cell_length_a 10.497190
_cell_length_b 17.817915
_cell_length_c 14.597218
_cell_angle_alpha 90.000000
_cell_angle_beta 90.000000
_cell_angle_gamma 90.000000
_cell_volume 2730.235032
_symmetry_space_group_name_H-M "A B M 2"
_symmetry_group_IT_number 39
_symmetry_cell_setting 'orthorhombic'
loop_
_space_group_symop_operation_xyz
x,y,z
-x,-y,z
-x,1/2+y,z
x,1/2-y,z
x,1/2+y,1/2+z
-x,1/2-y,1/2+z
-x,y,1/2+z
x,-y,1/2+z
loop_
_atom_site_type_symbol
_atom_site_label
_atom_site_fract_x
_atom_site_fract_y
_atom_site_fract_z
Si Si1 0.014980 0.338210 0.183010
Si Si2 0.148546 0.837501 0.493349
Si Si3 0.581208 0.335910 0.593743
Si Si4 0.637396 0.020559 0.866601
Si Si5 0.112893 0.939059 0.316066
Si Si6 0.500000 0.500000 0.043268
Si Si7 0.722798 0.332515 0.788325
O O1 0.982466 0.250000 0.181727
O O2 0.134306 0.347494 0.252871
O O3 0.907139 0.389917 0.225271
O O4 0.065639 0.359404 0.082611
O O5 0.122099 0.750000 0.473482
O O6 0.296630 0.841252 0.525177
O O7 0.114476 0.886703 0.405897
O O8 0.525640 0.250000 0.578869
O O9 0.506705 0.416154 0.587202
O O10 0.639516 0.334264 0.695801
O O11 0.750873 0.978784 0.816785
O O12 0.500000 0.000000 0.825072
O O13 0.620295 0.000937 0.973185
O O14 0.667921 0.107352 0.856786
O O15 0.000000 0.000000 0.321680
O O16 0.719044 0.250000 0.828839
#
# Coordination Sequence:
#
# PCOD9360681 Si02
#       7
#     8   8   8   8   8   4   8
#     4   9  19  35  58  84 112 149 194 240 287 346
#     4   9  18  36  57  81 112 149 193 241 294 352
#     4   9  18  34  58  83 108 151 201 239 290 354
#     4  10  22  37  52  86 115 150 189 234 293 346
#     4  12  21  35  57  88 117 147 191 240 298 354
#     4  10  20  34  56  82 118 144 196 246 286 352
#     4   9  18  36  58  80 110 151 194 236 291 351
#
# _framework density 19.04598
#
# number of rings (size 3 to 8) (size 9 to 14) (size 15 to 20)
#    0.462    1.846    3.077    2.308    1.077    1.231 
#    0.000    1.538    0.000    0.000    0.000    0.000 
#    0.000    0.000    0.000    0.000    0.000    0.000 
#
# Total GULP energy -144742.084450 kJ/mol
# GULP energy per Si atom -5567.003248 kJ/mol
# Density = 1.900263 g / cm^3
# Si number density = 19.045980 Si / 1000 Ang^3
#
#
#
# Elastic Constant Matrix: (Units=GPa)
#
#
# Indices 1 2 3 4 5 6 
#
# 1 71.2404 33.9064 0.5217 0.0000 0.0000 0.0000
# 2 33.9064 120.1661 26.7443 0.0000 0.0000 0.0000
# 3 0.5217 26.7443 16.3117 0.0000 0.0000 0.0000
# 4 0.0000 0.0000 0.0000 -3.2164 0.0000 0.0000
# 5 0.0000 0.0000 0.0000 0.0000 15.1222 0.0000
# 6 0.0000 0.0000 0.0000 0.0000 0.0000 12.4521
#
#
#
# Elastic Compliance Matrix: (Units=1/GPa)
#
#
# Indices 1 2 3 4 5 6 
#
# 1 0.017572 -0.007610 0.011915 0.000000 0.000000 0.000000
# 2 -0.007610 0.016399 -0.026644 0.000000 0.000000 0.000000
# 3 0.011915 -0.026644 0.104609 0.000000 0.000000 0.000000
# 4 0.000000 0.000000 0.000000 -0.310902 0.000000 0.000000
# 5 0.000000 0.000000 0.000000 0.000000 0.066128 0.000000
# 6 0.000000 0.000000 0.000000 0.000000 0.000000 0.080307
#
#
# Mechanical properties :
#
#
# Convention : Reuss Voigt Hill
#
# Bulk Modulus (GPa) = 10.64942 36.67366 23.66154
# Shear Modulus (GPa) = 99.81919 14.64131 57.23025
#
# Velocity S-wave (km/s) = 7.24730 2.77561 5.48759
# Velocity P-wave (km/s) = 8.69682 5.43775 7.25272
#
# Compressibility (1/GPa) = 0.09390179
#
# Stress axis : x y z
#
# Youngs Moduli (GPa) = 56.91007 60.97981 9.55944
#
# Poissons Ratio (x) = 0.46405 -0.11390
# Poissons Ratio (y) = 0.43308 0.25470
# Poissons Ratio (z) = -0.67808 1.62473
#
# Static dielectric constant tensor:
#      x y z
#    x 1.674930 0.000000 0.000000 
#    y 0.000000 1.722850 0.000000 
#    z 0.000000 0.000000 1.639550 
# 
# From -- ./inp_files/12282.got.cif
#   From: 2010.05.17/outbox.cif.g08.bks.cpg/sg39_7_cif.got.tgz:12282.got - 2010.06.03 18:22:40.
