data_PCOD9360280
_publ_section_title
;
Structure prediction by ZEFSAII (Michael W. Deem and Ramdas Pophale) SiO2 
 PCOD9360280
Probable space group: A B M 2
;
_chemical_formula_sum "Si O2"
_cell_formula_units_Z 64
_cell_length_a 10.401759
_cell_length_b 18.561056
_cell_length_c 18.176290
_cell_angle_alpha 90.000000
_cell_angle_beta 90.000000
_cell_angle_gamma 90.000000
_cell_volume 3509.253256
_symmetry_space_group_name_H-M "A B M 2"
_symmetry_group_IT_number 39
_symmetry_cell_setting 'orthorhombic'
loop_
_space_group_symop_operation_xyz
x,y,z
-x,-y,z
-x,1/2+y,z
x,1/2-y,z
x,1/2+y,1/2+z
-x,1/2-y,1/2+z
-x,y,1/2+z
x,-y,1/2+z
loop_
_atom_site_type_symbol
_atom_site_label
_atom_site_fract_x
_atom_site_fract_y
_atom_site_fract_z
Si Si1 0.288781 0.835245 0.375000
Si Si2 0.859761 0.490265 0.089221
Si Si3 0.632584 0.962507 0.351880
Si Si4 0.567416 0.832558 0.723254
Si Si5 0.621004 0.954249 0.182375
Si Si6 0.263949 0.834456 0.077366
Si Si7 0.447658 0.333730 0.439020
Si Si8 0.870306 0.038777 0.423871
O O1 0.261881 0.750000 0.371207
O O2 0.359595 0.856967 0.298125
O O3 0.399308 0.848743 0.436727
O O4 0.163688 0.881988 0.393608
O O5 0.744429 0.527398 0.134348
O O6 0.828648 0.404886 0.075117
O O7 0.000000 0.500000 0.125757
O O8 0.870103 0.532355 0.011818
O O9 0.650020 0.977430 0.266075
O O10 0.616558 0.879986 0.374743
O O11 0.500000 0.000000 0.375537
O O12 0.750157 0.993303 0.396103
O O13 0.531555 0.750000 0.735862
O O14 0.443057 0.876382 0.696093
O O15 0.669533 0.836576 0.657092
O O16 0.500000 0.000000 0.152829
O O17 0.217004 0.750000 0.066873
O O18 0.373453 0.847275 0.015118
O O19 0.434897 0.250000 0.422079
O O20 0.000000 0.000000 0.397260
#
# Coordination Sequence:
#
# PCOD9360280 Si02
#       8
#     8   8   8   8   8   8   8   8
#     4  10  20  38  62  89 123 156 198 255 313 364
#     4  11  25  41  57  86 123 163 204 251 298 363
#     4  11  20  35  59  88 116 150 190 244 305 348
#     4  10  20  36  60  92 122 149 193 253 309 364
#     4  11  21  35  59  89 117 151 198 245 306 355
#     4  10  21  38  60  84 116 159 200 240 301 369
#     4  10  19  33  59  89 112 147 198 248 300 358
#     4  11  24  40  56  85 123 159 203 248 294 357
#
# _framework density 18.237499
#
# number of rings (size 3 to 8) (size 9 to 14) (size 15 to 20)
#    0.000    1.500    5.000    0.750    1.750    1.000 
#    0.000    3.750    0.000    0.000    0.000    0.000 
#    0.000    0.000    0.000    0.000    0.000    0.000 
#
# Total GULP energy -178302.477584 kJ/mol
# GULP energy per Si atom -5571.952425 kJ/mol
# Density = 1.819599 g / cm^3
# Si number density = 18.237499 Si / 1000 Ang^3
#
#
#
# Elastic Constant Matrix: (Units=GPa)
#
#
# Indices 1 2 3 4 5 6 
#
# 1 117.2774 44.3055 46.4285 0.0000 0.0000 0.0000
# 2 44.3055 114.4368 26.5338 0.0000 0.0000 0.0000
# 3 46.4285 26.5338 56.1488 0.0000 0.0000 0.0000
# 4 0.0000 0.0000 0.0000 23.8181 0.0000 0.0000
# 5 0.0000 0.0000 0.0000 0.0000 28.5559 0.0000
# 6 0.0000 0.0000 0.0000 0.0000 0.0000 29.2219
#
#
#
# Elastic Compliance Matrix: (Units=1/GPa)
#
#
# Indices 1 2 3 4 5 6 
#
# 1 0.013518 -0.002967 -0.009775 0.000000 0.000000 0.000000
# 2 -0.002967 0.010465 -0.002492 0.000000 0.000000 0.000000
# 3 -0.009775 -0.002492 0.027071 0.000000 0.000000 0.000000
# 4 0.000000 0.000000 0.000000 0.041985 0.000000 0.000000
# 5 0.000000 0.000000 0.000000 0.000000 0.035019 0.000000
# 6 0.000000 0.000000 0.000000 0.000000 0.000000 0.034221
#
#
# Mechanical properties :
#
#
# Convention : Reuss Voigt Hill
#
# Bulk Modulus (GPa) = 48.58054 58.04430 53.31242
# Shear Modulus (GPa) = 25.04908 27.69221 26.37065
#
# Velocity S-wave (km/s) = 3.71009 3.90092 3.80670
# Velocity P-wave (km/s) = 6.71182 7.22396 6.97259
#
# Compressibility (1/GPa) = 0.02058437
#
# Stress axis : x y z
#
# Youngs Moduli (GPa) = 73.97758 95.55720 36.94043
#
# Poissons Ratio (x) = 0.28351 0.36111
# Poissons Ratio (y) = 0.21949 0.09206
# Poissons Ratio (z) = 0.72316 0.23813
#
# Static dielectric constant tensor:
#      x y z
#    x 1.619490 0.000000 0.000000 
#    y 0.000000 1.707290 0.000000 
#    z 0.000000 0.000000 1.639340 
# 
# From -- ./inp_files/14243.got.cif
#   From: 2010.05.17/outbox.cif.g08.bks.cpg/sg39_8_cif.got.tgz:14243.got - 2010.06.03 18:22:40.
