data_PCOD9360781
_publ_section_title
;
Structure prediction by ZEFSAII (Michael W. Deem and Ramdas Pophale) SiO2 
 PCOD9360781
Probable space group: A B M 2
;
_chemical_formula_sum "Si O2"
_cell_formula_units_Z 64
_cell_length_a 24.508823
_cell_length_b 8.664455
_cell_length_c 15.673301
_cell_angle_alpha 90.000000
_cell_angle_beta 90.000000
_cell_angle_gamma 90.000000
_cell_volume 3328.313144
_symmetry_space_group_name_H-M "A B M 2"
_symmetry_group_IT_number 39
_symmetry_cell_setting 'orthorhombic'
loop_
_space_group_symop_operation_xyz
x,y,z
-x,-y,z
-x,1/2+y,z
x,1/2-y,z
x,1/2+y,1/2+z
-x,1/2-y,1/2+z
-x,y,1/2+z
x,-y,1/2+z
loop_
_atom_site_type_symbol
_atom_site_label
_atom_site_fract_x
_atom_site_fract_y
_atom_site_fract_z
Si Si1 0.559871 0.063911 0.995440
Si Si2 0.635255 0.063666 0.839493
Si Si3 0.943660 0.934683 0.747138
Si Si4 0.171217 0.067070 0.995914
Si Si5 0.439867 0.435120 0.691138
Si Si6 0.174490 0.433762 0.674775
Si Si7 0.762139 0.564723 0.337139
Si Si8 0.057785 0.565754 0.939076
O O1 0.557445 0.250000 0.993833
O O2 0.603741 0.013198 0.925388
O O3 0.500000 0.000000 0.973907
O O4 0.572712 0.017751 0.093093
O O5 0.632623 0.250000 0.836071
O O6 0.698617 0.019701 0.840445
O O7 0.603655 0.997655 0.758096
O O8 0.948175 0.750000 0.758280
O O9 0.889250 0.967585 0.694273
O O10 0.000000 0.000000 0.709537
O O11 0.937371 0.012162 0.840256
O O12 0.170903 0.250000 0.984784
O O13 0.191965 0.019107 0.088952
O O14 0.109844 0.002716 0.986554
O O15 0.206996 0.990858 0.921740
O O16 0.500000 0.500000 0.711872
O O17 0.441491 0.250000 0.694926
O O18 0.179957 0.250000 0.664043
O O19 0.208674 0.489485 0.755830
O O20 0.766140 0.750000 0.331067
O O21 0.057917 0.750000 0.944102
O O22 0.000000 0.500000 0.970614
#
# Coordination Sequence:
#
# PCOD9360781 Si02
#       8
#     8   8   8   8   8   8   8   8
#     4   9  19  36  57  85 121 157 193 237 289 346
#     4  10  22  39  60  87 119 155 199 248 297 355
#     4  10  20  35  59  89 121 155 194 243 303 366
#     4  12  25  42  64  90 121 159 206 254 306 368
#     4  10  20  35  58  88 122 160 198 241 295 351
#     4  11  24  42  64  89 120 159 205 253 307 367
#     4  11  24  43  64  88 121 161 205 257 312 363
#     4  11  21  36  61  90 123 158 197 245 304 366
#
# _framework density 19.228961000000002
#
# number of rings (size 3 to 8) (size 9 to 14) (size 15 to 20)
#    0.000    1.500    1.250    4.875    0.000    6.000 
#    0.000    2.500    0.000    0.000    0.000    0.000 
#    0.000    0.000    0.000    0.000    0.000    0.000 
#
# Total GULP energy -178914.692053 kJ/mol
# GULP energy per Si atom -5591.084127 kJ/mol
# Density = 1.918519 g / cm^3
# Si number density = 19.228961 Si / 1000 Ang^3
#
#
#
# Elastic Constant Matrix: (Units=GPa)
#
#
# Indices 1 2 3 4 5 6 
#
# 1 133.3225 26.6622 60.4214 0.0000 0.0000 0.0000
# 2 26.6622 39.5235 4.0494 0.0000 0.0000 0.0000
# 3 60.4214 4.0494 82.2413 0.0000 0.0000 0.0000
# 4 0.0000 0.0000 0.0000 23.7175 0.0000 0.0000
# 5 0.0000 0.0000 0.0000 0.0000 -14.5225 0.0000
# 6 0.0000 0.0000 0.0000 0.0000 0.0000 29.2124
#
#
#
# Elastic Compliance Matrix: (Units=1/GPa)
#
#
# Indices 1 2 3 4 5 6 
#
# 1 0.013393 -0.008068 -0.009443 0.000000 0.000000 0.000000
# 2 -0.008068 0.030289 0.004436 0.000000 0.000000 0.000000
# 3 -0.009443 0.004436 0.018878 0.000000 0.000000 0.000000
# 4 0.000000 0.000000 0.000000 0.042163 0.000000 0.000000
# 5 0.000000 0.000000 0.000000 0.000000 -0.068859 0.000000
# 6 0.000000 0.000000 0.000000 0.000000 0.000000 0.034232
#
#
# Mechanical properties :
#
#
# Convention : Reuss Voigt Hill
#
# Bulk Modulus (GPa) = 27.46354 48.59482 38.02918
# Shear Modulus (GPa) = 46.13236 18.61176 32.37206
#
# Velocity S-wave (km/s) = 4.90338 3.11449 4.10751
# Velocity P-wave (km/s) = 6.80962 6.18546 6.50503
#
# Compressibility (1/GPa) = 0.03641192
#
# Stress axis : x y z
#
# Youngs Moduli (GPa) = 74.66367 33.01499 52.97081
#
# Poissons Ratio (x) = 0.26635 0.50019
# Poissons Ratio (y) = 0.60236 -0.23497
# Poissons Ratio (z) = 0.70503 -0.14645
#
# Static dielectric constant tensor:
#      x y z
#    x 1.651960 0.000000 0.000000 
#    y 0.000000 1.643080 0.000000 
#    z 0.000000 0.000000 1.672290 
# 
# From -- ./inp_files/10690.got.cif
#   From: 2010.05.17/outbox.cif.g08.bks.cpg/sg39_6_cif.got.tgz:10690.got - 2010.06.03 18:22:40.
