data_PCOD9360581
_publ_section_title
;
Structure prediction by ZEFSAII (Michael W. Deem and Ramdas Pophale) SiO2 
 PCOD9360581
Probable space group: A B M 2
;
_chemical_formula_sum "Si O2"
_cell_formula_units_Z 64
_cell_length_a 21.499328
_cell_length_b 8.823956
_cell_length_c 18.762816
_cell_angle_alpha 90.000000
_cell_angle_beta 90.000000
_cell_angle_gamma 90.000000
_cell_volume 3559.477393
_symmetry_space_group_name_H-M "A B M 2"
_symmetry_group_IT_number 39
_symmetry_cell_setting 'orthorhombic'
loop_
_space_group_symop_operation_xyz
x,y,z
-x,-y,z
-x,1/2+y,z
x,1/2-y,z
x,1/2+y,1/2+z
-x,1/2-y,1/2+z
-x,y,1/2+z
x,-y,1/2+z
loop_
_atom_site_type_symbol
_atom_site_label
_atom_site_fract_x
_atom_site_fract_y
_atom_site_fract_z
Si Si1 0.811836 0.067403 0.331790
Si Si2 0.300522 0.068804 0.420581
Si Si3 0.562150 0.568866 0.079222
Si Si4 0.933410 0.068273 0.584023
Si Si5 0.065867 0.931855 0.417236
Si Si6 0.299285 0.931600 0.579507
Si Si7 0.438274 0.430730 0.419607
Si Si8 0.815747 0.931413 0.664812
O O1 0.807003 0.250000 0.339415
O O2 0.875599 0.018515 0.370437
O O3 0.813785 0.030923 0.248432
O O4 0.753487 0.992353 0.370536
O O5 0.296220 0.250000 0.428866
O O6 0.369697 0.034439 0.389945
O O7 0.294915 0.993775 0.498720
O O8 0.500000 0.500000 0.114247
O O9 0.555728 0.750000 0.075085
O O10 0.630984 0.533696 0.108552
O O11 0.563773 0.499858 0.999399
O O12 0.934882 0.250000 0.589645
O O13 0.924085 0.027750 0.500392
O O14 0.876871 0.001847 0.628937
O O15 0.000000 0.000000 0.605961
O O16 0.061711 0.750000 0.413192
O O17 0.000000 0.000000 0.394076
O O18 0.292366 0.750000 0.577694
O O19 0.245157 0.004327 0.625962
O O20 0.500000 0.500000 0.384246
O O21 0.445302 0.250000 0.424037
O O22 0.817614 0.750000 0.657187
#
# Coordination Sequence:
#
# PCOD9360581 Si02
#       8
#     8   8   8   8   8   8   8   8
#     4  10  22  38  54  76 108 142 176 217 265 315
#     4  10  20  33  53  80 106 136 177 221 263 314
#     4   9  16  26  44  71 101 132 167 211 263 315
#     4  10  20  36  59  83 108 139 174 216 265 316
#     4   9  19  36  57  80 104 132 168 209 255 307
#     4  10  20  34  53  77 106 141 178 218 267 320
#     4   9  16  26  43  71 103 132 166 210 259 310
#     4  11  23  37  54  78 108 142 181 224 267 313
#
# _framework density 17.980167999999999
#
# number of rings (size 3 to 8) (size 9 to 14) (size 15 to 20)
#    0.000    2.250    0.000    3.750    0.000    6.500 
#    0.000    1.250    0.000    0.750    0.000    0.000 
#    0.000    0.000    0.000    0.000    0.000    0.000 
#
# Total GULP energy -178502.749749 kJ/mol
# GULP energy per Si atom -5578.210930 kJ/mol
# Density = 1.793924 g / cm^3
# Si number density = 17.980168 Si / 1000 Ang^3
#
#
#
# Elastic Constant Matrix: (Units=GPa)
#
#
# Indices 1 2 3 4 5 6 
#
# 1 227.4066 74.4917 89.1113 0.0000 0.0000 0.0000
# 2 74.4917 59.5421 41.7608 0.0000 0.0000 0.0000
# 3 89.1113 41.7608 67.4786 0.0000 0.0000 0.0000
# 4 0.0000 0.0000 0.0000 17.1831 0.0000 0.0000
# 5 0.0000 0.0000 0.0000 0.0000 -7.7270 0.0000
# 6 0.0000 0.0000 0.0000 0.0000 0.0000 40.5741
#
#
#
# Elastic Compliance Matrix: (Units=1/GPa)
#
#
# Indices 1 2 3 4 5 6 
#
# 1 0.010139 -0.005820 -0.009788 0.000000 0.000000 0.000000
# 2 -0.005820 0.033017 -0.012747 0.000000 0.000000 0.000000
# 3 -0.009788 -0.012747 0.035634 0.000000 0.000000 0.000000
# 4 0.000000 0.000000 0.000000 0.058197 0.000000 0.000000
# 5 0.000000 0.000000 0.000000 0.000000 -0.129417 0.000000
# 6 0.000000 0.000000 0.000000 0.000000 0.000000 0.024646
#
#
# Mechanical properties :
#
#
# Convention : Reuss Voigt Hill
#
# Bulk Modulus (GPa) = 45.29032 85.01722 65.15377
# Shear Modulus (GPa) = 51.92754 19.94361 35.93558
#
# Velocity S-wave (km/s) = 5.37988 3.33408 4.47545
# Velocity P-wave (km/s) = 7.98966 7.88720 7.93859
#
# Compressibility (1/GPa) = 0.02207977
#
# Stress axis : x y z
#
# Youngs Moduli (GPa) = 98.62425 30.28756 28.06277
#
# Poissons Ratio (x) = 0.17628 0.27468
# Poissons Ratio (y) = 0.57402 0.35772
# Poissons Ratio (z) = 0.96534 0.38608
#
# Static dielectric constant tensor:
#      x y z
#    x 1.642750 0.000000 0.000000 
#    y 0.000000 1.602830 0.000000 
#    z 0.000000 0.000000 1.578070 
# 
# From -- ./inp_files/13135.got.cif
#   From: 2010.05.17/outbox.cif.g08.bks.cpg/sg39_7_cif.got.tgz:13135.got - 2010.06.03 18:22:40.
