data_PCOD9360294
_publ_section_title
;
Structure prediction by ZEFSAII (Michael W. Deem and Ramdas Pophale) SiO2 
 PCOD9360294
Probable space group: A B M 2
;
_chemical_formula_sum "Si O2"
_cell_formula_units_Z 44
_cell_length_a 7.251930
_cell_length_b 7.491727
_cell_length_c 31.292339
_cell_angle_alpha 90.000000
_cell_angle_beta 90.000000
_cell_angle_gamma 90.000000
_cell_volume 1700.096499
_symmetry_space_group_name_H-M "A B M 2"
_symmetry_group_IT_number 39
_symmetry_cell_setting 'orthorhombic'
loop_
_space_group_symop_operation_xyz
x,y,z
-x,-y,z
-x,1/2+y,z
x,1/2-y,z
x,1/2+y,1/2+z
-x,1/2-y,1/2+z
-x,y,1/2+z
x,-y,1/2+z
loop_
_atom_site_type_symbol
_atom_site_label
_atom_site_fract_x
_atom_site_fract_y
_atom_site_fract_z
Si Si1 0.722068 0.536431 0.919780
Si Si2 0.734431 0.750000 0.490402
Si Si3 0.720487 0.535964 0.734743
Si Si4 0.718182 0.962703 0.642812
Si Si5 0.719834 0.036897 0.326059
Si Si6 0.791430 0.946589 0.047838
O O1 0.500000 0.500000 0.921241
O O2 0.748919 0.750000 0.925250
O O3 0.794043 0.407883 0.956317
O O4 0.787118 0.476538 0.872434
O O5 0.675400 0.597050 0.525504
O O6 0.500000 0.500000 0.734927
O O7 0.744781 0.750000 0.734406
O O8 0.790095 0.468702 0.688808
O O9 0.790769 0.464844 0.780456
O O10 0.750099 0.750000 0.640038
O O11 0.500000 0.000000 0.643345
O O12 0.785977 0.047681 0.599146
O O13 0.744324 0.250000 0.325638
O O14 0.500000 0.000000 0.326166
O O15 0.751803 0.750000 0.032079
O O16 0.000000 0.000000 0.036459
#
# Coordination Sequence:
#
# PCOD9360294 Si02
#       6
#     8   4   8   8   8   8
#     4  10  19  34  53  83 127 161 197 243 299 354
#     4  12  24  40  60  84 108 156 200 254 292 350
#     4   8  14  25  45  74 115 154 191 226 279 342
#     4  10  19  35  56  89 125 158 192 242 294 346
#     4   8  14  24  43  72 111 161 192 226 280 346
#     4  12  25  46  66  84 114 151 201 247 298 363
#
# _framework density 25.880883999999998
#
# number of rings (size 3 to 8) (size 9 to 14) (size 15 to 20)
#    0.000    2.182    2.727    1.091    1.273    1.455 
#    3.273    0.000    0.000    0.000    0.000    1.273 
#    5.455    0.000    0.000    0.000    0.000    0.000 
#
# Total GULP energy -122483.467066 kJ/mol
# GULP energy per Si atom -5567.430321 kJ/mol
# Density = 2.582198 g / cm^3
# Si number density = 25.880884 Si / 1000 Ang^3
#
#
#
# Elastic Constant Matrix: (Units=GPa)
#
#
# Indices 1 2 3 4 5 6 
#
# 1 87.7240 4.5089 5.2043 0.0000 0.0000 0.0000
# 2 4.5089 210.2454 71.9794 0.0000 0.0000 0.0000
# 3 5.2043 71.9794 250.3460 0.0000 0.0000 0.0000
# 4 0.0000 0.0000 0.0000 14.4905 0.0000 0.0000
# 5 0.0000 0.0000 0.0000 0.0000 -7.5520 0.0000
# 6 0.0000 0.0000 0.0000 0.0000 0.0000 6.6102
#
#
#
# Elastic Compliance Matrix: (Units=1/GPa)
#
#
# Indices 1 2 3 4 5 6 
#
# 1 0.011420 -0.000181 -0.000185 0.000000 0.000000 0.000000
# 2 -0.000181 0.005279 -0.001514 0.000000 0.000000 0.000000
# 3 -0.000185 -0.001514 0.004434 0.000000 0.000000 0.000000
# 4 0.000000 0.000000 0.000000 0.069011 0.000000 0.000000
# 5 0.000000 0.000000 0.000000 0.000000 -0.132416 0.000000
# 6 0.000000 0.000000 0.000000 0.000000 0.000000 0.151282
#
#
# Mechanical properties :
#
#
# Convention : Reuss Voigt Hill
#
# Bulk Modulus (GPa) = 57.56850 79.07784 68.32317
# Shear Modulus (GPa) = 42.17278 33.81794 37.99536
#
# Velocity S-wave (km/s) = 4.04108 3.61872 3.83572
# Velocity P-wave (km/s) = 6.63820 6.93405 6.78774
#
# Compressibility (1/GPa) = 0.01737061
#
# Stress axis : x y z
#
# Youngs Moduli (GPa) = 87.56792 189.44635 225.55026
#
# Poissons Ratio (x) = 0.03438 0.04177
# Poissons Ratio (y) = 0.01589 0.34146
# Poissons Ratio (z) = 0.01622 0.28681
#
# Static dielectric constant tensor:
#      x y z
#    x 2.181020 0.000000 0.000000 
#    y 0.000000 1.855240 0.000000 
#    z 0.000000 0.000000 2.097590 
# 
# From -- ./inp_files/17462.got.cif
#   From: 2010.05.17/outbox.cif.g08.bks.cpg/sg39_9_cif.got.tgz:17462.got - 2010.06.03 18:22:40.
