data_PCOD9360678
_publ_section_title
;
Structure prediction by ZEFSAII (Michael W. Deem and Ramdas Pophale) SiO2 
 PCOD9360678
Probable space group: A B M 2
;
_chemical_formula_sum "Si O2"
_cell_formula_units_Z 48
_cell_length_a 12.045012
_cell_length_b 7.893109
_cell_length_c 19.996773
_cell_angle_alpha 90.000000
_cell_angle_beta 90.000000
_cell_angle_gamma 90.000000
_cell_volume 1901.145053
_symmetry_space_group_name_H-M "A B M 2"
_symmetry_group_IT_number 39
_symmetry_cell_setting 'orthorhombic'
loop_
_space_group_symop_operation_xyz
x,y,z
-x,-y,z
-x,1/2+y,z
x,1/2-y,z
x,1/2+y,1/2+z
-x,1/2-y,1/2+z
-x,y,1/2+z
x,-y,1/2+z
loop_
_atom_site_type_symbol
_atom_site_label
_atom_site_fract_x
_atom_site_fract_y
_atom_site_fract_z
Si Si1 0.623999 0.060047 0.336680
Si Si2 0.346361 0.944956 0.979337
Si Si3 0.846361 0.944957 0.175235
Si Si4 0.876001 0.060047 0.317892
Si Si5 0.381598 0.048477 0.631489
Si Si6 0.881598 0.451523 0.523083
O O1 0.634931 0.250000 0.309447
O O2 0.750000 0.979323 0.327286
O O3 0.500000 0.000000 0.314157
O O4 0.614918 0.054011 0.417350
O O5 0.381437 0.750000 0.971102
O O6 0.378226 0.007583 0.053475
O O7 0.213474 0.956295 0.982617
O O8 0.881438 0.750000 0.183469
O O9 0.878226 0.007585 0.101097
O O10 0.885082 0.054011 0.237222
O O11 0.713474 0.956295 0.171955
O O12 0.865070 0.250000 0.345125
O O13 0.000000 0.000000 0.340416
O O14 0.362326 0.250000 0.632106
O O15 0.500000 0.000000 0.658688
O O16 0.862326 0.250000 0.522466
O O17 0.000000 0.500000 0.495884
#
# Coordination Sequence:
#
# PCOD9360678 Si02
#       6
#     8   8   8   8   8   8
#     4  11  25  44  66  92 123 162 209 260 313 371
#     4  10  21  37  59  86 118 157 199 247 303 363
#     4  10  21  37  59  86 118 157 199 247 303 363
#     4  11  25  44  66  92 123 162 209 260 313 371
#     4  10  20  34  55  85 120 157 198 245 300 363
#     4  10  20  34  55  85 120 157 198 245 300 363
#
# _framework density 25.247941000000001
#
# number of rings (size 3 to 8) (size 9 to 14) (size 15 to 20)
#    0.000    1.667    0.000    4.000    0.000   10.667 
#    0.000    3.333    0.000    0.000    0.000    0.000 
#    0.000    0.000    0.000    0.000    0.000    0.000 
#
# Total GULP energy -134037.907572 kJ/mol
# GULP energy per Si atom -5584.912816 kJ/mol
# Density = 2.519048 g / cm^3
# Si number density = 25.247941 Si / 1000 Ang^3
#
#
#
# Elastic Constant Matrix: (Units=GPa)
#
#
# Indices 1 2 3 4 5 6 
#
# 1 243.2074 10.6802 13.0456 0.0000 0.0000 0.0000
# 2 10.6802 49.8441 3.9680 0.0000 0.0000 0.0000
# 3 13.0456 3.9680 104.4830 0.0000 0.0000 0.0000
# 4 0.0000 0.0000 0.0000 33.9588 0.0000 0.0000
# 5 0.0000 0.0000 0.0000 0.0000 -3.8517 0.0000
# 6 0.0000 0.0000 0.0000 0.0000 0.0000 35.8438
#
#
#
# Elastic Compliance Matrix: (Units=1/GPa)
#
#
# Indices 1 2 3 4 5 6 
#
# 1 0.004176 -0.000856 -0.000489 0.000000 0.000000 0.000000
# 2 -0.000856 0.020299 -0.000664 0.000000 0.000000 0.000000
# 3 -0.000489 -0.000664 0.009657 0.000000 0.000000 0.000000
# 4 0.000000 0.000000 0.000000 0.029447 0.000000 0.000000
# 5 0.000000 0.000000 0.000000 0.000000 -0.259627 0.000000
# 6 0.000000 0.000000 0.000000 0.000000 0.000000 0.027899
#
#
# Mechanical properties :
#
#
# Convention : Reuss Voigt Hill
#
# Bulk Modulus (GPa) = 33.20698 50.32467 41.76582
# Shear Modulus (GPa) = -32.44774 37.84622 2.69924
#
# Velocity S-wave (km/s) = -3.58881 3.87587 1.03509
# Velocity P-wave (km/s) = 1.99795 6.32497 4.24343
#
# Compressibility (1/GPa) = 0.03011415
#
# Stress axis : x y z
#
# Youngs Moduli (GPa) = 239.49115 49.26404 103.54978
#
# Poissons Ratio (x) = 0.04216 0.05062
# Poissons Ratio (y) = 0.20495 0.06876
# Poissons Ratio (z) = 0.11707 0.03271
#
# Static dielectric constant tensor:
#      x y z
#    x 2.141630 0.000000 0.000000 
#    y 0.000000 1.976870 0.000000 
#    z 0.000000 0.000000 1.985610 
# 
# From -- ./inp_files/15840.got.cif
#   From: 2010.05.17/outbox.cif.g08.bks.cpg/sg39_8_cif.got.tgz:15840.got - 2010.06.03 18:22:40.
