data_PCOD9360787
_publ_section_title
;
Structure prediction by ZEFSAII (Michael W. Deem and Ramdas Pophale) SiO2 
 PCOD9360787
Probable space group: A B M 2
;
_chemical_formula_sum "Si O2"
_cell_formula_units_Z 64
_cell_length_a 10.436837
_cell_length_b 18.633143
_cell_length_c 13.926380
_cell_angle_alpha 90.000000
_cell_angle_beta 90.000000
_cell_angle_gamma 90.000000
_cell_volume 2708.278107
_symmetry_space_group_name_H-M "A B M 2"
_symmetry_group_IT_number 39
_symmetry_cell_setting 'orthorhombic'
loop_
_space_group_symop_operation_xyz
x,y,z
-x,-y,z
-x,1/2+y,z
x,1/2-y,z
x,1/2+y,1/2+z
-x,1/2-y,1/2+z
-x,y,1/2+z
x,-y,1/2+z
loop_
_atom_site_type_symbol
_atom_site_label
_atom_site_fract_x
_atom_site_fract_y
_atom_site_fract_z
Si Si1 0.999567 0.167818 0.606510
Si Si2 0.900363 0.064292 0.939357
Si Si3 0.352559 0.486299 0.012090
Si Si4 0.202890 0.831653 0.276972
Si Si5 0.608883 0.050553 0.215835
Si Si6 0.170249 0.335895 0.270552
Si Si7 0.334405 0.327897 0.953177
Si Si8 0.538965 0.169263 0.775715
O O1 0.997993 0.250000 0.570169
O O2 0.865757 0.150120 0.659376
O O3 0.055827 0.112886 0.530005
O O4 0.089827 0.166735 0.701504
O O5 0.903571 0.114677 0.845936
O O6 0.758983 0.029633 0.956886
O O7 0.000000 0.000000 0.929018
O O8 0.500000 0.500000 0.980580
O O9 0.335256 0.401438 0.007724
O O10 0.345474 0.511852 0.121672
O O11 0.262200 0.750000 0.254905
O O12 0.272604 0.909652 0.265365
O O13 0.201632 0.827163 0.391870
O O14 0.526310 0.121754 0.194424
O O15 0.500000 0.000000 0.264732
O O16 0.149947 0.250000 0.287103
O O17 0.317305 0.354457 0.292640
O O18 0.348823 0.250000 0.000782
O O19 0.448983 0.333477 0.871410
O O20 0.548825 0.250000 0.743537
#
# Coordination Sequence:
#
# PCOD9360787 Si02
#       8
#     8   8   8   8   8   8   8   8
#     4  10  22  44  70  94 128 181 234 284 342 415
#     4  12  27  45  66 103 145 184 228 292 354 420
#     4  11  24  42  62  97 142 177 220 276 350 413
#     4   9  18  37  65  90 114 163 226 271 319 395
#     4  10  20  35  58  93 132 168 207 265 337 404
#     4  10  23  44  71 102 134 180 236 287 349 419
#     4   9  19  37  64  95 130 174 223 276 332 404
#     4   9  19  40  68  99 130 166 224 284 338 407
#
# _framework density 23.631250999999999
#
# number of rings (size 3 to 8) (size 9 to 14) (size 15 to 20)
#    0.000    2.000    1.250    2.250    1.750    6.500 
#    0.000    6.250    0.000    0.000    0.000    0.000 
#    0.000    0.000    0.000    0.000    0.000    0.000 
#
# Total GULP energy -178413.948597 kJ/mol
# GULP energy per Si atom -5575.435894 kJ/mol
# Density = 2.357747 g / cm^3
# Si number density = 23.631251 Si / 1000 Ang^3
#
#
#
# Elastic Constant Matrix: (Units=GPa)
#
#
# Indices 1 2 3 4 5 6 
#
# 1 83.3345 35.6673 13.4805 0.0000 0.0000 0.0000
# 2 35.6673 165.4412 74.5938 0.0000 0.0000 0.0000
# 3 13.4805 74.5938 61.2911 0.0000 0.0000 0.0000
# 4 0.0000 0.0000 0.0000 41.1867 0.0000 0.0000
# 5 0.0000 0.0000 0.0000 0.0000 25.2763 0.0000
# 6 0.0000 0.0000 0.0000 0.0000 0.0000 38.0074
#
#
#
# Elastic Compliance Matrix: (Units=1/GPa)
#
#
# Indices 1 2 3 4 5 6 
#
# 1 0.013263 -0.003422 0.001247 0.000000 0.000000 0.000000
# 2 -0.003422 0.014277 -0.016623 0.000000 0.000000 0.000000
# 3 0.001247 -0.016623 0.036273 0.000000 0.000000 0.000000
# 4 0.000000 0.000000 0.000000 0.024280 0.000000 0.000000
# 5 0.000000 0.000000 0.000000 0.000000 0.039563 0.000000
# 6 0.000000 0.000000 0.000000 0.000000 0.000000 0.026311
#
#
# Mechanical properties :
#
#
# Convention : Reuss Voigt Hill
#
# Bulk Modulus (GPa) = 38.14336 61.94999 50.04668
# Shear Modulus (GPa) = 24.96253 33.31575 29.13914
#
# Velocity S-wave (km/s) = 3.25366 3.75883 3.51533
# Velocity P-wave (km/s) = 5.50374 6.71644 6.14010
#
# Compressibility (1/GPa) = 0.02621688
#
# Stress axis : x y z
#
# Youngs Moduli (GPa) = 75.40038 70.04148 27.56895
#
# Poissons Ratio (x) = 0.23966 -0.03439
# Poissons Ratio (y) = 0.25799 0.45829
# Poissons Ratio (z) = -0.09405 1.16433
#
# Static dielectric constant tensor:
#      x y z
#    x 2.076400 0.000000 0.000000 
#    y 0.000000 1.887760 0.000000 
#    z 0.000000 0.000000 1.881390 
# 
# From -- ./inp_files/12358.got.cif
#   From: 2010.05.17/outbox.cif.g08.bks.cpg/sg39_7_cif.got.tgz:12358.got - 2010.06.03 18:22:40.
