data_PCOD9360908
_publ_section_title
;
Structure prediction by ZEFSAII (Michael W. Deem and Ramdas Pophale) SiO2 
 PCOD9360908
Probable space group: A B M 2
;
_chemical_formula_sum "Si O2"
_cell_formula_units_Z 56
_cell_length_a 20.151301
_cell_length_b 14.649344
_cell_length_c 9.068337
_cell_angle_alpha 90.000000
_cell_angle_beta 90.000000
_cell_angle_gamma 90.000000
_cell_volume 2677.003374
_symmetry_space_group_name_H-M "A B M 2"
_symmetry_group_IT_number 39
_symmetry_cell_setting 'orthorhombic'
loop_
_space_group_symop_operation_xyz
x,y,z
-x,-y,z
-x,1/2+y,z
x,1/2-y,z
x,1/2+y,1/2+z
-x,1/2-y,1/2+z
-x,y,1/2+z
x,-y,1/2+z
loop_
_atom_site_type_symbol
_atom_site_label
_atom_site_fract_x
_atom_site_fract_y
_atom_site_fract_z
Si Si1 0.475343 0.102456 0.715330
Si Si2 0.742524 0.987172 0.121214
Si Si3 0.165238 0.462566 0.368000
Si Si4 0.043291 0.357675 0.496080
Si Si5 0.347617 0.454167 0.875245
Si Si6 0.405910 0.153135 0.414142
Si Si7 0.910881 0.357700 0.331221
O O1 0.416550 0.093881 0.836580
O O2 0.444510 0.144743 0.569299
O O3 0.538368 0.149669 0.787332
O O4 0.500000 0.000000 0.677938
O O5 0.794774 0.933585 0.222904
O O6 0.699650 0.048723 0.232922
O O7 0.785850 0.045334 0.006629
O O8 0.691805 0.927835 0.022512
O O9 0.097278 0.411075 0.399965
O O10 0.147762 0.570083 0.351048
O O11 0.051118 0.250000 0.466582
O O12 0.058248 0.372907 0.668282
O O13 0.968535 0.380609 0.448918
O O14 0.363325 0.561894 0.897113
O O15 0.369629 0.250000 0.408609
O O16 0.893413 0.250000 0.343720
#
# Coordination Sequence:
#
# PCOD9360908 Si02
#       7
#     8   8   8   8   8   8   8
#     4  10  20  36  62  84 110 152 187 228 284 346
#     4  10  22  37  61  83 112 154 204 228 275 332
#     4  11  21  39  62  89 113 157 194 248 279 346
#     4  10  22  39  61  88 119 152 189 242 299 350
#     4  10  20  40  61  83 109 157 194 231 271 355
#     4  11  22  36  58  91 118 141 181 243 294 332
#     4  10  22  39  60  88 120 151 190 240 298 350
#
# _framework density 20.918913
#
# number of rings (size 3 to 8) (size 9 to 14) (size 15 to 20)
#    0.000    1.714    2.857    2.143    4.000    1.143 
#    0.000    4.286    0.000    1.714    0.000    0.000 
#    0.000    0.000    0.000    0.000    0.000    0.000 
#
# Total GULP energy -156377.762725 kJ/mol
# GULP energy per Si atom -5584.920097 kJ/mol
# Density = 2.087130 g / cm^3
# Si number density = 20.918913 Si / 1000 Ang^3
#
#
#
# Elastic Constant Matrix: (Units=GPa)
#
#
# Indices 1 2 3 4 5 6 
#
# 1 71.1049 18.7294 17.9842 0.0000 0.0000 0.0000
# 2 18.7294 57.9586 14.8610 0.0000 0.0000 0.0000
# 3 17.9842 14.8610 83.8441 0.0000 0.0000 0.0000
# 4 0.0000 0.0000 0.0000 -3.4029 0.0000 0.0000
# 5 0.0000 0.0000 0.0000 0.0000 41.6718 0.0000
# 6 0.0000 0.0000 0.0000 0.0000 0.0000 0.0810
#
#
#
# Elastic Compliance Matrix: (Units=1/GPa)
#
#
# Indices 1 2 3 4 5 6 
#
# 1 0.015903 -0.004467 -0.002619 0.000000 0.000000 0.000000
# 2 -0.004467 0.019330 -0.002468 0.000000 0.000000 0.000000
# 3 -0.002619 -0.002468 0.012926 0.000000 0.000000 0.000000
# 4 0.000000 0.000000 0.000000 -0.293868 0.000000 0.000000
# 5 0.000000 0.000000 0.000000 0.000000 0.023997 0.000000
# 6 0.000000 0.000000 0.000000 0.000000 0.000000 12.339514
#
#
# Mechanical properties :
#
#
# Convention : Reuss Voigt Hill
#
# Bulk Modulus (GPa) = 34.42349 35.11741 34.77045
# Shear Modulus (GPa) = 0.41164 18.42553 9.41858
#
# Velocity S-wave (km/s) = 0.44408 2.97106 2.12419
# Velocity P-wave (km/s) = 4.09321 5.34728 4.76171
#
# Compressibility (1/GPa) = 0.02904993
#
# Stress axis : x y z
#
# Youngs Moduli (GPa) = 62.88137 51.73259 77.36256
#
# Poissons Ratio (x) = 0.23111 0.20263
# Poissons Ratio (y) = 0.28092 0.19093
# Poissons Ratio (z) = 0.16470 0.12767
#
# Static dielectric constant tensor:
#      x y z
#    x 1.746510 0.000000 0.000000 
#    y 0.000000 1.846010 0.000000 
#    z 0.000000 0.000000 1.770450 
# 
# From -- ./inp_files/3958.got.cif
#   From: 2010.05.17/outbox.cif.g08.bks.cpg/sg39_2_cif.got.tgz:3958.got - 2010.06.03 18:22:40.
