data_PCOD9360654
_publ_section_title
;
Structure prediction by ZEFSAII (Michael W. Deem and Ramdas Pophale) SiO2 
 PCOD9360654
Probable space group: A B M 2
;
_chemical_formula_sum "Si O2"
_cell_formula_units_Z 64
_cell_length_a 17.148796
_cell_length_b 8.809599
_cell_length_c 21.366393
_cell_angle_alpha 90.000000
_cell_angle_beta 90.000000
_cell_angle_gamma 90.000000
_cell_volume 3227.906800
_symmetry_space_group_name_H-M "A B M 2"
_symmetry_group_IT_number 39
_symmetry_cell_setting 'orthorhombic'
loop_
_space_group_symop_operation_xyz
x,y,z
-x,-y,z
-x,1/2+y,z
x,1/2-y,z
x,1/2+y,1/2+z
-x,1/2-y,1/2+z
-x,y,1/2+z
x,-y,1/2+z
loop_
_atom_site_type_symbol
_atom_site_label
_atom_site_fract_x
_atom_site_fract_y
_atom_site_fract_z
Si Si1 0.419777 0.420564 0.465920
Si Si2 0.236431 0.927791 0.798756
Si Si3 0.423174 0.921319 0.115162
Si Si4 0.078871 0.072262 0.755194
Si Si5 0.118479 0.424815 0.610817
Si Si6 0.083022 0.569802 0.481402
Si Si7 0.728021 0.573810 0.158476
Si Si8 0.744640 0.570344 0.929827
O O1 0.500000 0.500000 0.441906
O O2 0.415003 0.250000 0.439620
O O3 0.430945 0.409650 0.540516
O O4 0.335242 0.499425 0.457207
O O5 0.243587 0.750000 0.814461
O O6 0.278299 0.957176 0.732597
O O7 0.148292 0.973188 0.782353
O O8 0.260585 0.029829 0.856660
O O9 0.409884 0.750000 0.139271
O O10 0.500000 0.000000 0.141640
O O11 0.352886 0.033518 0.128189
O O12 0.087931 0.250000 0.770939
O O13 0.080384 0.060293 0.679414
O O14 0.000000 0.000000 0.779209
O O15 0.111376 0.250000 0.590495
O O16 0.087802 0.530109 0.555403
O O17 0.207334 0.470178 0.625701
O O18 0.079146 0.750000 0.471616
O O19 0.168296 0.517006 0.453705
O O20 0.000000 0.500000 0.458207
O O21 0.750854 0.750000 0.151019
O O22 0.742778 0.750000 0.941497
#
# Coordination Sequence:
#
# PCOD9360654 Si02
#       8
#     8   8   8   8   8   8   8   8
#     4  10  21  38  62  91 120 151 189 233 284 342
#     4  10  22  39  58  79 106 144 189 234 279 331
#     4  10  20  34  56  86 118 149 180 220 273 333
#     4  10  20  34  54  80 109 142 182 229 281 335
#     4  10  20  34  55  82 112 146 184 229 282 339
#     4  11  24  39  57  83 116 154 194 238 289 344
#     4  10  20  35  56  82 112 145 183 228 279 335
#     4  11  24  41  60  83 114 153 196 243 291 339
#
# _framework density 19.827090999999999
#
# number of rings (size 3 to 8) (size 9 to 14) (size 15 to 20)
#    0.000    1.750    0.000    4.125    0.000   10.000 
#    0.000    1.875    0.000    3.000    0.000    0.000 
#    0.000    0.000    0.000    0.000    0.000    0.000 
#
# Total GULP energy -178486.472560 kJ/mol
# GULP energy per Si atom -5577.702267 kJ/mol
# Density = 1.978196 g / cm^3
# Si number density = 19.827091 Si / 1000 Ang^3
#
#
#
# Elastic Constant Matrix: (Units=GPa)
#
#
# Indices 1 2 3 4 5 6 
#
# 1 110.1466 41.2880 9.0608 0.0000 0.0000 0.0000
# 2 41.2880 43.3043 7.4583 0.0000 0.0000 0.0000
# 3 9.0608 7.4583 19.2318 0.0000 0.0000 0.0000
# 4 0.0000 0.0000 0.0000 22.1502 0.0000 0.0000
# 5 0.0000 0.0000 0.0000 0.0000 7.8325 0.0000
# 6 0.0000 0.0000 0.0000 0.0000 0.0000 25.9421
#
#
#
# Elastic Compliance Matrix: (Units=1/GPa)
#
#
# Indices 1 2 3 4 5 6 
#
# 1 0.014171 -0.013246 -0.001539 0.000000 0.000000 0.000000
# 2 -0.013246 0.037126 -0.008157 0.000000 0.000000 0.000000
# 3 -0.001539 -0.008157 0.055886 0.000000 0.000000 0.000000
# 4 0.000000 0.000000 0.000000 0.045146 0.000000 0.000000
# 5 0.000000 0.000000 0.000000 0.000000 0.127673 0.000000
# 6 0.000000 0.000000 0.000000 0.000000 0.000000 0.038547
#
#
# Mechanical properties :
#
#
# Convention : Reuss Voigt Hill
#
# Bulk Modulus (GPa) = 16.31382 32.03301 24.17342
# Shear Modulus (GPa) = 12.99151 18.84333 15.91742
#
# Velocity S-wave (km/s) = 2.56254 3.08617 2.83647
# Velocity P-wave (km/s) = 4.12328 5.37499 4.79020
#
# Compressibility (1/GPa) = 0.06129771
#
# Stress axis : x y z
#
# Youngs Moduli (GPa) = 70.56907 26.93515 17.89357
#
# Poissons Ratio (x) = 0.35677 0.02755
# Poissons Ratio (y) = 0.93473 0.14597
# Poissons Ratio (z) = 0.10864 0.21972
#
# Static dielectric constant tensor:
#      x y z
#    x 1.701840 0.000000 0.000000 
#    y 0.000000 1.688860 0.000000 
#    z 0.000000 0.000000 1.707470 
# 
# From -- ./inp_files/16169.got.cif
#   From: 2010.05.17/outbox.cif.g08.bks.cpg/sg39_9_cif.got.tgz:16169.got - 2010.06.03 18:22:40.
