data_PCOD9360444
_publ_section_title
;
Structure prediction by ZEFSAII (Michael W. Deem and Ramdas Pophale) SiO2 
 PCOD9360444
Probable space group: A B M 2
;
_chemical_formula_sum "Si O2"
_cell_formula_units_Z 56
_cell_length_a 5.023907
_cell_length_b 16.339659
_cell_length_c 31.586595
_cell_angle_alpha 90.000000
_cell_angle_beta 90.000000
_cell_angle_gamma 90.000000
_cell_volume 2592.909698
_symmetry_space_group_name_H-M "A B M 2"
_symmetry_group_IT_number 39
_symmetry_cell_setting 'orthorhombic'
loop_
_space_group_symop_operation_xyz
x,y,z
-x,-y,z
-x,1/2+y,z
x,1/2-y,z
x,1/2+y,1/2+z
-x,1/2-y,1/2+z
-x,y,1/2+z
x,-y,1/2+z
loop_
_atom_site_type_symbol
_atom_site_label
_atom_site_fract_x
_atom_site_fract_y
_atom_site_fract_z
Si Si1 0.598132 0.154983 0.795600
Si Si2 0.095363 0.592801 0.343576
Si Si3 0.177161 0.849683 0.983126
Si Si4 0.751795 0.941270 0.212223
Si Si5 0.094513 0.093700 0.120724
Si Si6 0.602339 0.154862 0.073069
Si Si7 0.322649 0.650976 0.432760
O O1 0.529291 0.250000 0.791728
O O2 0.338199 0.107147 0.811412
O O3 0.692412 0.116994 0.751452
O O4 0.839442 0.144754 0.828980
O O5 0.211715 0.617106 0.389075
O O6 0.000000 0.500000 0.343346
O O7 0.178295 0.750000 0.984631
O O8 0.383011 0.875132 0.946442
O O9 0.881257 0.873789 0.970036
O O10 0.284237 0.877517 0.028440
O O11 0.819875 0.893033 0.169235
O O12 0.500000 0.000000 0.203744
O O13 0.000000 0.000000 0.222485
O O14 0.345905 0.109012 0.090707
O O15 0.845203 0.147106 0.105876
O O16 0.000000 0.000000 0.118035
O O17 0.526883 0.250000 0.067365
O O18 0.322117 0.750000 0.429648
#
# Coordination Sequence:
#
# PCOD9360444 Si02
#       7
#     8   8   8   8   8   8   8
#     4  12  25  42  66  95 123 158 208 257 303 361
#     4  12  25  42  63  92 129 165 202 249 312 372
#     4   9  19  35  58  86 118 159 204 253 307 357
#     4  11  23  43  66  89 124 166 205 248 309 373
#     4  11  23  41  62  90 126 166 203 248 312 373
#     4  11  22  39  64  93 124 162 211 259 304 361
#     4  10  19  36  60  85 117 160 209 254 299 357
#
# _framework density 21.597356999999999
#
# number of rings (size 3 to 8) (size 9 to 14) (size 15 to 20)
#    0.000    1.143    0.000    8.143    0.000    4.571 
#    0.000    4.286    0.000    0.000    0.000    0.000 
#    0.000    0.000    0.000    0.000    0.000    0.000 
#
# Total GULP energy -156763.706994 kJ/mol
# GULP energy per Si atom -5598.703821 kJ/mol
# Density = 2.154820 g / cm^3
# Si number density = 21.597357 Si / 1000 Ang^3
#
#
#
# Elastic Constant Matrix: (Units=GPa)
#
#
# Indices 1 2 3 4 5 6 
#
# 1 92.7698 -0.2047 -2.5469 0.0000 0.0000 0.0000
# 2 -0.2047 33.5638 18.9417 0.0000 0.0000 0.0000
# 3 -2.5469 18.9417 74.8880 0.0000 0.0000 0.0000
# 4 0.0000 0.0000 0.0000 1.1216 0.0000 0.0000
# 5 0.0000 0.0000 0.0000 0.0000 307.7414 0.0000
# 6 0.0000 0.0000 0.0000 0.0000 0.0000 -56.6863
#
#
#
# Elastic Compliance Matrix: (Units=1/GPa)
#
#
# Indices 1 2 3 4 5 6 
#
# 1 0.010790 -0.000165 0.000409 0.000000 0.000000 0.000000
# 2 -0.000165 0.034758 -0.008797 0.000000 0.000000 0.000000
# 3 0.000409 -0.008797 0.015592 0.000000 0.000000 0.000000
# 4 0.000000 0.000000 0.000000 0.891606 0.000000 0.000000
# 5 0.000000 0.000000 0.000000 0.000000 0.003249 0.000000
# 6 0.000000 0.000000 0.000000 0.000000 0.000000 -0.017641
#
#
# Mechanical properties :
#
#
# Convention : Reuss Voigt Hill
#
# Bulk Modulus (GPa) = 22.70987 25.95576 24.33282
# Shear Modulus (GPa) = 5.15390 62.77077 33.96234
#
# Velocity S-wave (km/s) = 1.54646 5.39696 3.96981
# Velocity P-wave (km/s) = 3.70495 7.13305 5.68362
#
# Compressibility (1/GPa) = 0.04403372
#
# Stress axis : x y z
#
# Youngs Moduli (GPa) = 92.67648 28.77076 64.13454
#
# Poissons Ratio (x) = 0.00474 -0.02621
# Poissons Ratio (y) = 0.01528 0.56419
# Poissons Ratio (z) = -0.03787 0.25309
#
# Static dielectric constant tensor:
#      x y z
#    x 1.709580 0.000000 0.000000 
#    y 0.000000 1.762610 0.000000 
#    z 0.000000 0.000000 1.785120 
# 
# From -- ./inp_files/17278.got.cif
#   From: 2010.05.17/outbox.cif.g08.bks.cpg/sg39_9_cif.got.tgz:17278.got - 2010.06.03 18:22:40.
