data_PCOD9360686
_publ_section_title
;
Structure prediction by ZEFSAII (Michael W. Deem and Ramdas Pophale) SiO2 
 PCOD9360686
Probable space group: A B M 2
;
_chemical_formula_sum "Si O2"
_cell_formula_units_Z 60
_cell_length_a 12.431495
_cell_length_b 25.466104
_cell_length_c 8.909762
_cell_angle_alpha 90.000000
_cell_angle_beta 90.000000
_cell_angle_gamma 90.000000
_cell_volume 2820.667997
_symmetry_space_group_name_H-M "A B M 2"
_symmetry_group_IT_number 39
_symmetry_cell_setting 'orthorhombic'
loop_
_space_group_symop_operation_xyz
x,y,z
-x,-y,z
-x,1/2+y,z
x,1/2-y,z
x,1/2+y,1/2+z
-x,1/2-y,1/2+z
-x,y,1/2+z
x,-y,1/2+z
loop_
_atom_site_type_symbol
_atom_site_label
_atom_site_fract_x
_atom_site_fract_y
_atom_site_fract_z
Si Si1 0.787021 0.953593 0.349730
Si Si2 0.067015 0.109663 0.936921
Si Si3 0.000000 0.500000 0.875724
Si Si4 0.709030 0.118328 0.597192
Si Si5 0.860457 0.118302 0.099538
Si Si6 0.396791 0.461612 0.864773
Si Si7 0.543970 0.810945 0.970211
Si Si8 0.624007 0.360806 0.165366
O O1 0.739254 0.905010 0.257521
O O2 0.814994 0.933705 0.516642
O O3 0.900362 0.974593 0.288796
O O4 0.702848 0.999826 0.343212
O O5 0.083556 0.111325 0.759143
O O6 0.177748 0.126877 0.012737
O O7 0.049361 0.047989 0.968741
O O8 0.957275 0.137463 0.991372
O O9 0.637870 0.074551 0.507045
O O10 0.637923 0.170265 0.584211
O O11 0.749781 0.148340 0.133708
O O12 0.500000 0.500000 0.880556
O O13 0.400601 0.419866 0.727018
O O14 0.519781 0.750000 0.984446
O O15 0.584237 0.824883 0.803613
O O16 0.442722 0.846120 0.018553
#
# Coordination Sequence:
#
# PCOD9360686 Si02
#       8
#     8   8   4   8   8   8   8   8
#     4  11  24  36  62  94 147 191 229 273 331 413
#     4  11  21  40  60  94 138 185 233 278 337 401
#     4  10  20  34  56  90 130 186 228 258 312 404
#     4  11  24  40  63 101 136 183 235 289 345 421
#     4  11  24  41  64  98 140 187 232 287 332 415
#     4  11  24  38  60  95 145 190 227 276 340 419
#     4  11  25  48  77 100 134 180 236 303 367 427
#     4  11  25  46  68 107 140 179 237 293 356 431
#
# _framework density 21.271554999999999
#
# number of rings (size 3 to 8) (size 9 to 14) (size 15 to 20)
#    0.000    1.067    4.000    2.800    9.333    3.200 
#    0.000    0.000    0.000    1.600    0.000    0.000 
#    0.000    0.000    0.000    0.000    0.000    0.000 
#
# Total GULP energy -167553.621762 kJ/mol
# GULP energy per Si atom -5585.120725 kJ/mol
# Density = 2.122314 g / cm^3
# Si number density = 21.271555 Si / 1000 Ang^3
#
#
#
# Elastic Constant Matrix: (Units=GPa)
#
#
# Indices 1 2 3 4 5 6 
#
# 1 172.6002 33.5573 51.6125 0.0000 0.0000 0.0000
# 2 33.5573 34.9834 24.5620 0.0000 0.0000 0.0000
# 3 51.6125 24.5620 101.1475 0.0000 0.0000 0.0000
# 4 0.0000 0.0000 0.0000 14.2031 0.0000 0.0000
# 5 0.0000 0.0000 0.0000 0.0000 40.4456 0.0000
# 6 0.0000 0.0000 0.0000 0.0000 0.0000 14.4044
#
#
#
# Elastic Compliance Matrix: (Units=1/GPa)
#
#
# Indices 1 2 3 4 5 6 
#
# 1 0.007632 -0.005529 -0.002552 0.000000 0.000000 0.000000
# 2 -0.005529 0.038466 -0.006520 0.000000 0.000000 0.000000
# 3 -0.002552 -0.006520 0.012772 0.000000 0.000000 0.000000
# 4 0.000000 0.000000 0.000000 0.070407 0.000000 0.000000
# 5 0.000000 0.000000 0.000000 0.000000 0.024725 0.000000
# 6 0.000000 0.000000 0.000000 0.000000 0.000000 0.069423
#
#
# Mechanical properties :
#
#
# Convention : Reuss Voigt Hill
#
# Bulk Modulus (GPa) = 33.70512 58.68831 46.19672
# Shear Modulus (GPa) = 19.04653 27.07722 23.06188
#
# Velocity S-wave (km/s) = 2.99557 3.57169 3.29624
# Velocity P-wave (km/s) = 5.27675 6.68275 6.02094
#
# Compressibility (1/GPa) = 0.02966908
#
# Stress axis : x y z
#
# Youngs Moduli (GPa) = 131.03202 25.99689 78.29810
#
# Poissons Ratio (x) = 0.14374 0.19978
# Poissons Ratio (y) = 0.72450 0.51047
# Poissons Ratio (z) = 0.33434 0.16949
#
# Static dielectric constant tensor:
#      x y z
#    x 1.828770 0.000000 0.000000 
#    y 0.000000 1.760080 0.000000 
#    z 0.000000 0.000000 1.834340 
# 
# From -- ./inp_files/2843.got.cif
#   From: 2010.05.17/outbox.cif.g08.bks.cpg/sg39_2_cif.got.tgz:2843.got - 2010.06.03 18:22:40.
