data_PCOD9360720
_publ_section_title
;
Structure prediction by ZEFSAII (Michael W. Deem and Ramdas Pophale) SiO2 
 PCOD9360720
Probable space group: A B M 2
;
_chemical_formula_sum "Si O2"
_cell_formula_units_Z 64
_cell_length_a 21.178798
_cell_length_b 8.347359
_cell_length_c 18.964333
_cell_angle_alpha 90.000000
_cell_angle_beta 90.000000
_cell_angle_gamma 90.000000
_cell_volume 3352.648109
_symmetry_space_group_name_H-M "A B M 2"
_symmetry_group_IT_number 39
_symmetry_cell_setting 'orthorhombic'
loop_
_space_group_symop_operation_xyz
x,y,z
-x,-y,z
-x,1/2+y,z
x,1/2-y,z
x,1/2+y,1/2+z
-x,1/2-y,1/2+z
-x,y,1/2+z
x,-y,1/2+z
loop_
_atom_site_type_symbol
_atom_site_label
_atom_site_fract_x
_atom_site_fract_y
_atom_site_fract_z
Si Si1 0.810159 0.558413 0.876810
Si Si2 0.689529 0.443604 0.964058
Si Si3 0.311004 0.443363 0.625463
Si Si4 0.189672 0.054007 0.714881
Si Si5 0.930697 0.943163 0.625388
Si Si6 0.569383 0.941754 0.212230
Si Si7 0.430666 0.943306 0.874789
Si Si8 0.930395 0.057937 0.962569
O O1 0.806648 0.750000 0.876111
O O2 0.751199 0.493523 0.921032
O O3 0.807616 0.500929 0.795841
O O4 0.875084 0.507210 0.913725
O O5 0.687628 0.250000 0.965398
O O6 0.626310 0.500030 0.924076
O O7 0.692212 0.500565 0.044779
O O8 0.308750 0.250000 0.624090
O O9 0.250901 0.498866 0.670970
O O10 0.375309 0.494342 0.663116
O O11 0.189520 0.250000 0.714751
O O12 0.125894 0.001529 0.675411
O O13 0.930450 0.750000 0.625408
O O14 0.920548 0.995477 0.544095
O O15 0.000000 0.000000 0.647867
O O16 0.570408 0.750000 0.211658
O O17 0.579140 0.996684 0.293560
O O18 0.500000 0.000000 0.190074
O O19 0.430486 0.750000 0.874989
O O20 0.500000 0.000000 0.897576
O O21 0.928762 0.250000 0.961395
O O22 0.000000 0.000000 0.940920
#
# Coordination Sequence:
#
# PCOD9360720 Si02
#       8
#     8   8   8   8   8   8   8   8
#     4  11  22  35  54  80 109 141 179 221 263 314
#     4  10  21  37  56  79 108 141 177 219 267 317
#     4  10  20  36  57  78 104 140 179 221 269 317
#     4   9  19  35  54  77 106 140 177 217 264 315
#     4   9  18  35  57  79 105 138 175 214 258 310
#     4  10  20  35  55  79 108 140 175 216 261 314
#     4   9  19  35  55  79 107 140 177 217 263 315
#     4  10  20  36  58  81 108 142 178 219 266 316
#
# _framework density 19.089386999999999
#
# number of rings (size 3 to 8) (size 9 to 14) (size 15 to 20)
#    0.000    2.250    0.000    2.625    0.000    5.000 
#    0.000    5.000    0.000    0.000    0.000    0.000 
#    0.000    0.000    0.000    0.000    0.000    0.000 
#
# Total GULP energy -178706.028635 kJ/mol
# GULP energy per Si atom -5584.563395 kJ/mol
# Density = 1.904594 g / cm^3
# Si number density = 19.089387 Si / 1000 Ang^3
#
#
#
# Elastic Constant Matrix: (Units=GPa)
#
#
# Indices 1 2 3 4 5 6 
#
# 1 203.2033 11.6348 139.0285 0.0000 0.0000 0.0000
# 2 11.6348 4.7189 17.8585 0.0000 0.0000 0.0000
# 3 139.0285 17.8585 160.2956 0.0000 0.0000 0.0000
# 4 0.0000 0.0000 0.0000 3.7092 0.0000 0.0000
# 5 0.0000 0.0000 0.0000 0.0000 42.8576 0.0000
# 6 0.0000 0.0000 0.0000 0.0000 0.0000 34.0280
#
#
#
# Elastic Compliance Matrix: (Units=1/GPa)
#
#
# Indices 1 2 3 4 5 6 
#
# 1 0.012957 0.018299 -0.013277 0.000000 0.000000 0.000000
# 2 0.018299 0.392242 -0.059571 0.000000 0.000000 0.000000
# 3 -0.013277 -0.059571 0.024391 0.000000 0.000000 0.000000
# 4 0.000000 0.000000 0.000000 0.269603 0.000000 0.000000
# 5 0.000000 0.000000 0.000000 0.000000 0.023333 0.000000
# 6 0.000000 0.000000 0.000000 0.000000 0.000000 0.029388
#
#
# Mechanical properties :
#
#
# Convention : Reuss Voigt Hill
#
# Bulk Modulus (GPa) = 3.12019 78.36237 40.74128
# Shear Modulus (GPa) = 5.16613 29.43202 17.29907
#
# Velocity S-wave (km/s) = 1.64686 3.93084 3.01361
# Velocity P-wave (km/s) = 2.29222 7.85756 5.78773
#
# Compressibility (1/GPa) = 0.32049287
#
# Stress axis : x y z
#
# Youngs Moduli (GPa) = 77.17692 2.54944 40.99951
#
# Poissons Ratio (x) = -0.04665 0.54434
# Poissons Ratio (y) = -1.41224 2.44236
# Poissons Ratio (z) = 1.02466 0.15187
#
# Static dielectric constant tensor:
#      x y z
#    x 1.625270 0.000000 0.000000 
#    y 0.000000 1.661010 0.000000 
#    z 0.000000 0.000000 1.659330 
# 
# From -- ./inp_files/13148.got.cif
#   From: 2010.05.17/outbox.cif.g08.bks.cpg/sg39_7_cif.got.tgz:13148.got - 2010.06.03 18:22:40.
