data_PCOD9360527
_publ_section_title
;
Structure prediction by ZEFSAII (Michael W. Deem and Ramdas Pophale) SiO2 
 PCOD9360527
Probable space group: A B M 2
;
_chemical_formula_sum "Si O2"
_cell_formula_units_Z 64
_cell_length_a 13.911999
_cell_length_b 29.992144
_cell_length_c 8.103830
_cell_angle_alpha 90.000000
_cell_angle_beta 90.000000
_cell_angle_gamma 90.000000
_cell_volume 3381.328557
_symmetry_space_group_name_H-M "A B M 2"
_symmetry_group_IT_number 39
_symmetry_cell_setting 'orthorhombic'
loop_
_space_group_symop_operation_xyz
x,y,z
-x,-y,z
-x,1/2+y,z
x,1/2-y,z
x,1/2+y,1/2+z
-x,1/2-y,1/2+z
-x,y,1/2+z
x,-y,1/2+z
loop_
_atom_site_type_symbol
_atom_site_label
_atom_site_fract_x
_atom_site_fract_y
_atom_site_fract_z
Si Si1 0.137434 0.109649 0.570220
Si Si2 0.720914 0.639108 0.821938
Si Si3 0.949515 0.634161 0.222993
Si Si4 0.547552 0.197582 0.419984
Si Si5 0.824544 0.064638 0.513656
Si Si6 0.642844 0.199169 0.780497
Si Si7 0.820557 0.302571 0.585204
Si Si8 0.111237 0.484554 0.684528
O O1 0.238033 0.127267 0.641522
O O2 0.095016 0.129105 0.403021
O O3 0.133050 0.056197 0.560328
O O4 0.060779 0.123120 0.712093
O O5 0.617397 0.662660 0.828372
O O6 0.738508 0.594327 0.934437
O O7 0.787818 0.675604 0.914485
O O8 0.895607 0.599348 0.102333
O O9 0.923873 0.681786 0.145401
O O10 0.554099 0.250000 0.361191
O O11 0.584731 0.198882 0.607205
O O12 0.436960 0.182188 0.406600
O O13 0.872101 0.037713 0.362329
O O14 0.816073 0.025210 0.648168
O O15 0.663595 0.250000 0.832371
O O16 0.744622 0.179363 0.724497
O O17 0.810223 0.250000 0.574301
O O18 0.000000 0.500000 0.670700
#
# Coordination Sequence:
#
# PCOD9360527 Si02
#       8
#     8   8   8   8   8   8   8   8
#     4  11  22  34  49  70 101 136 168 211 255 304
#     4   9  19  33  49  72 104 137 169 208 253 301
#     4  11  21  35  48  69 101 136 173 211 256 297
#     4   9  16  30  51  76 106 135 166 209 256 303
#     4  10  20  30  48  73  99 131 162 208 255 307
#     4   8  15  27  48  74  97 125 162 207 258 298
#     4   9  18  35  53  70  98 136 175 217 258 299
#     4  11  19  29  49  73  95 126 165 206 258 304
#
# _framework density 18.927472999999999
#
# number of rings (size 3 to 8) (size 9 to 14) (size 15 to 20)
#    0.000    2.250    1.250    4.500    0.000    1.000 
#    0.000    5.625    0.000    0.000    0.000    0.000 
#    0.000  121.000    0.000    0.000    0.000    0.000 
#
# Total GULP energy -178183.560407 kJ/mol
# GULP energy per Si atom -5568.236263 kJ/mol
# Density = 1.888439 g / cm^3
# Si number density = 18.927473 Si / 1000 Ang^3
#
#
#
# Elastic Constant Matrix: (Units=GPa)
#
#
# Indices 1 2 3 4 5 6 
#
# 1 36.9777 19.6807 -1.9859 0.0000 0.0000 0.0000
# 2 19.6807 79.7193 14.2934 0.0000 0.0000 0.0000
# 3 -1.9859 14.2934 57.9658 0.0000 0.0000 0.0000
# 4 0.0000 0.0000 0.0000 19.1362 0.0000 0.0000
# 5 0.0000 0.0000 0.0000 0.0000 21.3893 0.0000
# 6 0.0000 0.0000 0.0000 0.0000 0.0000 22.1725
#
#
#
# Elastic Compliance Matrix: (Units=1/GPa)
#
#
# Indices 1 2 3 4 5 6 
#
# 1 0.031676 -0.008385 0.003153 0.000000 0.000000 0.000000
# 2 -0.008385 0.015344 -0.004071 0.000000 0.000000 0.000000
# 3 0.003153 -0.004071 0.018363 0.000000 0.000000 0.000000
# 4 0.000000 0.000000 0.000000 0.052257 0.000000 0.000000
# 5 0.000000 0.000000 0.000000 0.000000 0.046752 0.000000
# 6 0.000000 0.000000 0.000000 0.000000 0.000000 0.045101
#
#
# Mechanical properties :
#
#
# Convention : Reuss Voigt Hill
#
# Bulk Modulus (GPa) = 21.37826 26.51547 23.94687
# Shear Modulus (GPa) = 20.51772 22.05123 21.28448
#
# Velocity S-wave (km/s) = 3.29601 3.41697 3.35704
# Velocity P-wave (km/s) = 5.07979 5.44123 5.26361
#
# Compressibility (1/GPa) = 0.04677649
#
# Stress axis : x y z
#
# Youngs Moduli (GPa) = 31.57009 65.17206 54.45629
#
# Poissons Ratio (x) = 0.54648 -0.17169
# Poissons Ratio (y) = 0.26472 0.22168
# Poissons Ratio (z) = -0.09954 0.26531
#
# Static dielectric constant tensor:
#      x y z
#    x 1.664900 0.000000 0.000000 
#    y 0.000000 1.693430 0.000000 
#    z 0.000000 0.000000 1.742050 
# 
# From -- ./inp_files/3571.got.cif
#   From: 2010.05.17/outbox.cif.g08.bks.cpg/sg39_2_cif.got.tgz:3571.got - 2010.06.03 18:22:40.
