data_PCOD9360937
_publ_section_title
;
Structure prediction by ZEFSAII (Michael W. Deem and Ramdas Pophale) SiO2 
 PCOD9360937
Probable space group: A B M 2
;
_chemical_formula_sum "Si O2"
_cell_formula_units_Z 60
_cell_length_a 23.291736
_cell_length_b 7.570696
_cell_length_c 15.335418
_cell_angle_alpha 90.000000
_cell_angle_beta 90.000000
_cell_angle_gamma 90.000000
_cell_volume 2704.165605
_symmetry_space_group_name_H-M "A B M 2"
_symmetry_group_IT_number 39
_symmetry_cell_setting 'orthorhombic'
loop_
_space_group_symop_operation_xyz
x,y,z
-x,-y,z
-x,1/2+y,z
x,1/2-y,z
x,1/2+y,1/2+z
-x,1/2-y,1/2+z
-x,y,1/2+z
x,-y,1/2+z
loop_
_atom_site_type_symbol
_atom_site_label
_atom_site_fract_x
_atom_site_fract_y
_atom_site_fract_z
Si Si1 0.139521 0.952800 0.721080
Si Si2 0.565773 0.539280 0.453990
Si Si3 0.928646 0.250000 0.286044
Si Si4 0.649668 0.952508 0.800182
Si Si5 0.227181 0.044435 0.366249
Si Si6 0.179264 0.459332 0.540406
Si Si7 0.940163 0.457794 0.941512
Si Si8 0.434323 0.462302 0.652697
O O1 0.121772 0.750000 0.735865
O O2 0.179059 0.027469 0.800585
O O3 0.088813 0.093063 0.715115
O O4 0.178731 0.955722 0.634895
O O5 0.500000 0.500000 0.429418
O O6 0.574246 0.750000 0.453180
O O7 0.609024 0.459756 0.384676
O O8 0.573657 0.474129 0.553405
O O9 0.939408 0.407691 0.360053
O O10 0.662425 0.750000 0.777876
O O11 0.612501 0.031210 0.720843
O O12 0.710371 0.033789 0.825024
O O13 0.211645 0.250000 0.374088
O O14 0.222059 0.973035 0.464537
O O15 0.189097 0.250000 0.553852
O O16 0.116411 0.488310 0.498615
O O17 0.939010 0.250000 0.916421
O O18 0.000000 0.500000 0.989091
O O19 0.500000 0.500000 0.679730
O O20 0.429386 0.250000 0.651127
#
# Coordination Sequence:
#
# PCOD9360937 Si02
#       8
#     8   8   4   8   8   8   8   8
#     4  11  24  41  68  98 127 168 221 260 316 386
#     4  10  20  37  58  81 114 151 194 245 300 365
#     4  12  22  42  68  96 130 174 208 268 314 378
#     4  11  23  36  57  86 118 154 200 247 303 367
#     4  10  23  42  61  90 123 161 209 259 312 374
#     4  10  22  42  68  92 127 168 212 264 320 378
#     4  11  23  41  70  98 131 174 215 259 321 378
#     4   9  20  37  56  80 111 154 195 240 301 361
#
# _framework density 22.187991
#
# number of rings (size 3 to 8) (size 9 to 14) (size 15 to 20)
#    0.000    1.600    2.667    1.600    1.867    4.267 
#    0.000    4.667    0.000    0.000    0.000    0.000 
#    0.000    0.000    0.000    0.000    0.000    0.000 
#
# Total GULP energy -167045.912121 kJ/mol
# GULP energy per Si atom -5568.197071 kJ/mol
# Density = 2.213749 g / cm^3
# Si number density = 22.187991 Si / 1000 Ang^3
#
#
#
# Elastic Constant Matrix: (Units=GPa)
#
#
# Indices 1 2 3 4 5 6 
#
# 1 51.7620 -5.8461 -2.5653 0.0000 0.0000 0.0000
# 2 -5.8461 104.7397 2.8856 0.0000 0.0000 0.0000
# 3 -2.5653 2.8856 55.0745 0.0000 0.0000 0.0000
# 4 0.0000 0.0000 0.0000 -6.4374 0.0000 0.0000
# 5 0.0000 0.0000 0.0000 0.0000 -279.1718 0.0000
# 6 0.0000 0.0000 0.0000 0.0000 0.0000 18.0758
#
#
#
# Elastic Compliance Matrix: (Units=1/GPa)
#
#
# Indices 1 2 3 4 5 6 
#
# 1 0.019482 0.001064 0.000852 0.000000 0.000000 0.000000
# 2 0.001064 0.009619 -0.000454 0.000000 0.000000 0.000000
# 3 0.000852 -0.000454 0.018221 0.000000 0.000000 0.000000
# 4 0.000000 0.000000 0.000000 -0.155342 0.000000 0.000000
# 5 0.000000 0.000000 0.000000 0.000000 -0.003582 0.000000
# 6 0.000000 0.000000 0.000000 0.000000 0.000000 0.055323
#
#
# Mechanical properties :
#
#
# Convention : Reuss Voigt Hill
#
# Bulk Modulus (GPa) = 19.90292 22.28053 21.09172
# Shear Modulus (GPa) = -117.77460 -39.03321 -78.40391
#
# Velocity S-wave (km/s) = -7.29353 -4.19884 -5.95087
# Velocity P-wave (km/s) = 7.87006 3.66653 6.13927
#
# Compressibility (1/GPa) = 0.05024390
#
# Stress axis : x y z
#
# Youngs Moduli (GPa) = 51.33055 103.95678 54.88264
#
# Poissons Ratio (x) = -0.11060 -0.04674
# Poissons Ratio (y) = -0.05461 0.02494
# Poissons Ratio (z) = -0.04372 0.04724
#
# Static dielectric constant tensor:
#      x y z
#    x 1.858220 0.000000 0.000000 
#    y 0.000000 1.945830 0.000000 
#    z 0.000000 0.000000 1.864920 
# 
# From -- ./inp_files/10511.got.cif
#   From: 2010.05.17/outbox.cif.g08.bks.cpg/sg39_6_cif.got.tgz:10511.got - 2010.06.03 18:22:40.
