data_PCOD9360792
_publ_section_title
;
Structure prediction by ZEFSAII (Michael W. Deem and Ramdas Pophale) SiO2 
 PCOD9360792
Probable space group: A B M 2
;
_chemical_formula_sum "Si O2"
_cell_formula_units_Z 64
_cell_length_a 24.472744
_cell_length_b 8.965356
_cell_length_c 15.551507
_cell_angle_alpha 90.000000
_cell_angle_beta 90.000000
_cell_angle_gamma 90.000000
_cell_volume 3412.107354
_symmetry_space_group_name_H-M "A B M 2"
_symmetry_group_IT_number 39
_symmetry_cell_setting 'orthorhombic'
loop_
_space_group_symop_operation_xyz
x,y,z
-x,-y,z
-x,1/2+y,z
x,1/2-y,z
x,1/2+y,1/2+z
-x,1/2-y,1/2+z
-x,y,1/2+z
x,-y,1/2+z
loop_
_atom_site_type_symbol
_atom_site_label
_atom_site_fract_x
_atom_site_fract_y
_atom_site_fract_z
Si Si1 0.745641 0.071237 0.660740
Si Si2 0.330955 0.928132 0.822456
Si Si3 0.135594 0.929108 0.164049
Si Si4 0.556796 0.423797 0.264927
Si Si5 0.556817 0.576180 0.556531
Si Si6 0.058481 0.571423 0.006765
Si Si7 0.669127 0.928136 0.999034
Si Si8 0.059366 0.429393 0.307907
O O1 0.755174 0.250000 0.660943
O O2 0.709305 0.034567 0.744112
O O3 0.709442 0.034387 0.577304
O O4 0.802757 0.986974 0.661255
O O5 0.334230 0.750000 0.829738
O O6 0.390820 0.993052 0.802351
O O7 0.310923 0.999912 0.910742
O O8 0.134156 0.750000 0.171764
O O9 0.103296 0.002741 0.243207
O O10 0.103702 0.972296 0.076376
O O11 0.500000 0.500000 0.291426
O O12 0.557424 0.250000 0.289283
O O13 0.559895 0.432897 0.160732
O O14 0.500000 0.500000 0.530035
O O15 0.557446 0.750000 0.532171
O O16 0.609245 0.493062 0.519193
O O17 0.052560 0.750000 0.010449
O O18 0.072267 0.533077 0.907791
O O19 0.000000 0.500000 0.028009
O O20 0.665803 0.750000 0.991849
O O21 0.056970 0.250000 0.299481
O O22 0.000000 0.500000 0.288810
#
# Coordination Sequence:
#
# PCOD9360792 Si02
#       8
#     8   8   8   8   8   8   8   8
#     4  10  24  44  62  82 116 157 197 245 297 348
#     4  11  23  41  63  87 116 153 197 244 300 357
#     4  11  23  38  60  88 118 155 201 245 290 345
#     4  10  20  35  59  89 120 153 191 237 294 355
#     4  10  20  35  59  89 120 154 191 237 295 355
#     4   9  20  37  58  87 121 157 192 235 286 341
#     4  11  23  41  63  88 117 152 197 245 298 357
#     4  10  20  37  60  88 124 159 196 238 291 346
#
# _framework density 18.756737999999999
#
# number of rings (size 3 to 8) (size 9 to 14) (size 15 to 20)
#    0.000    1.750    1.250    2.625    0.000    7.000 
#    0.000    6.250    0.000    0.000    0.000    0.000 
#    0.000    0.000    0.000    0.000    0.000    0.000 
#
# Total GULP energy -178885.370848 kJ/mol
# GULP energy per Si atom -5590.167839 kJ/mol
# Density = 1.871405 g / cm^3
# Si number density = 18.756738 Si / 1000 Ang^3
#
#
#
# Elastic Constant Matrix: (Units=GPa)
#
#
# Indices 1 2 3 4 5 6 
#
# 1 156.9279 77.8030 99.6757 0.0000 0.0000 0.0000
# 2 77.8030 86.5415 75.6847 0.0000 0.0000 0.0000
# 3 99.6757 75.6847 133.7702 0.0000 0.0000 0.0000
# 4 0.0000 0.0000 0.0000 30.2017 0.0000 0.0000
# 5 0.0000 0.0000 0.0000 0.0000 -16.1561 0.0000
# 6 0.0000 0.0000 0.0000 0.0000 0.0000 39.3912
#
#
#
# Elastic Compliance Matrix: (Units=1/GPa)
#
#
# Indices 1 2 3 4 5 6 
#
# 1 0.013855 -0.006784 -0.006485 0.000000 0.000000 0.000000
# 2 -0.006784 0.026195 -0.009765 0.000000 0.000000 0.000000
# 3 -0.006485 -0.009765 0.017833 0.000000 0.000000 0.000000
# 4 0.000000 0.000000 0.000000 0.033111 0.000000 0.000000
# 5 0.000000 0.000000 0.000000 0.000000 -0.061896 0.000000
# 6 0.000000 0.000000 0.000000 0.000000 0.000000 0.025386
#
#
# Mechanical properties :
#
#
# Convention : Reuss Voigt Hill
#
# Bulk Modulus (GPa) = 84.65414 98.17402 91.41408
# Shear Modulus (GPa) = 47.85064 18.95911 33.40488
#
# Velocity S-wave (km/s) = 5.05634 3.18274 4.22471
# Velocity P-wave (km/s) = 8.90614 8.12162 8.52291
#
# Compressibility (1/GPa) = 0.01181277
#
# Stress axis : x y z
#
# Youngs Moduli (GPa) = 72.17405 38.17570 56.07593
#
# Poissons Ratio (x) = 0.25900 0.36368
# Poissons Ratio (y) = 0.48966 0.54759
# Poissons Ratio (z) = 0.46808 0.37279
#
# Static dielectric constant tensor:
#      x y z
#    x 1.598090 0.000000 0.000000 
#    y 0.000000 1.625020 0.000000 
#    z 0.000000 0.000000 1.666940 
# 
# From -- ./inp_files/10611.got.cif
#   From: 2010.05.17/outbox.cif.g08.bks.cpg/sg39_6_cif.got.tgz:10611.got - 2010.06.03 18:22:40.
