data_PCOD9360269
_publ_section_title
;
Structure prediction by ZEFSAII (Michael W. Deem and Ramdas Pophale) SiO2 
 PCOD9360269
Probable space group: A B M 2
;
_chemical_formula_sum "Si O2"
_cell_formula_units_Z 64
_cell_length_a 7.345249
_cell_length_b 25.942658
_cell_length_c 14.374523
_cell_angle_alpha 90.000000
_cell_angle_beta 90.000000
_cell_angle_gamma 90.000000
_cell_volume 2739.141294
_symmetry_space_group_name_H-M "A B M 2"
_symmetry_group_IT_number 39
_symmetry_cell_setting 'orthorhombic'
loop_
_space_group_symop_operation_xyz
x,y,z
-x,-y,z
-x,1/2+y,z
x,1/2-y,z
x,1/2+y,1/2+z
-x,1/2-y,1/2+z
-x,y,1/2+z
x,-y,1/2+z
loop_
_atom_site_type_symbol
_atom_site_label
_atom_site_fract_x
_atom_site_fract_y
_atom_site_fract_z
Si Si1 0.161046 0.950300 0.204440
Si Si2 0.678774 0.037631 0.807553
Si Si3 0.005901 0.633652 0.076071
Si Si4 0.007847 0.599263 0.879495
Si Si5 0.134814 0.192352 0.251545
Si Si6 0.396634 0.687760 0.034150
Si Si7 0.540765 0.306157 0.329020
Si Si8 0.473304 0.118624 0.693545
O O1 0.033075 0.919047 0.134654
O O2 0.352068 0.929585 0.163855
O O3 0.124680 0.930182 0.309311
O O4 0.196829 0.009434 0.229216
O O5 0.816135 0.059962 0.886857
O O6 0.616649 0.090362 0.758466
O O7 0.500000 0.000000 0.828184
O O8 0.195338 0.662906 0.047079
O O9 0.908529 0.671546 0.148637
O O10 0.925248 0.615613 0.977898
O O11 0.061959 0.651890 0.826933
O O12 0.059392 0.250000 0.263060
O O13 0.349783 0.196650 0.272872
O O14 0.392868 0.750000 0.050787
O O15 0.513350 0.654437 0.106663
O O16 0.481490 0.679343 0.932428
O O17 0.626863 0.250000 0.331764
O O18 0.646254 0.345747 0.264096
#
# Coordination Sequence:
#
# PCOD9360269 Si02
#       8
#     8   8   8   8   8   8   8   8
#     4   9  22  38  59  85 118 158 200 258 317 363
#     4  10  20  39  63  85 118 162 204 260 308 370
#     4  10  20  36  59  87 118 158 203 252 305 369
#     4  11  20  40  63  87 124 161 206 259 313 367
#     4  10  20  34  59  89 119 159 199 244 305 374
#     4  10  19  33  57  86 121 160 201 244 299 368
#     4  10  19  35  57  83 118 163 204 249 310 368
#     4  10  19  37  58  85 117 157 204 251 304 365
#
# _framework density 23.364988
#
# number of rings (size 3 to 8) (size 9 to 14) (size 15 to 20)
#    0.000    2.000    2.500    1.125    0.000    0.500 
#    2.250   11.250    0.000    0.000    0.000    0.000 
#    0.000    0.000    0.000    0.000    0.000    0.000 
#
# Total GULP energy -178264.411929 kJ/mol
# GULP energy per Si atom -5570.762873 kJ/mol
# Density = 2.331181 g / cm^3
# Si number density = 23.364988 Si / 1000 Ang^3
#
#
#
# Elastic Constant Matrix: (Units=GPa)
#
#
# Indices 1 2 3 4 5 6 
#
# 1 31.9780 1.4322 -7.8452 0.0000 0.0000 0.0000
# 2 1.4322 125.3289 38.1843 0.0000 0.0000 0.0000
# 3 -7.8452 38.1843 113.5188 0.0000 0.0000 0.0000
# 4 0.0000 0.0000 0.0000 18.1752 0.0000 0.0000
# 5 0.0000 0.0000 0.0000 0.0000 13.5024 0.0000
# 6 0.0000 0.0000 0.0000 0.0000 0.0000 14.1995
#
#
#
# Elastic Compliance Matrix: (Units=1/GPa)
#
#
# Indices 1 2 3 4 5 6 
#
# 1 0.031961 -0.001157 0.002598 0.000000 0.000000 0.000000
# 2 -0.001157 0.008932 -0.003084 0.000000 0.000000 0.000000
# 3 0.002598 -0.003084 0.010026 0.000000 0.000000 0.000000
# 4 0.000000 0.000000 0.000000 0.055020 0.000000 0.000000
# 5 0.000000 0.000000 0.000000 0.000000 0.074061 0.000000
# 6 0.000000 0.000000 0.000000 0.000000 0.000000 0.070425
#
#
# Mechanical properties :
#
#
# Convention : Reuss Voigt Hill
#
# Bulk Modulus (GPa) = 20.99420 37.15204 29.07312
# Shear Modulus (GPa) = 18.54675 25.11237 21.82956
#
# Velocity S-wave (km/s) = 2.82047 3.28195 3.05992
# Velocity P-wave (km/s) = 4.42850 5.50426 4.99542
#
# Compressibility (1/GPa) = 0.04763219
#
# Stress axis : x y z
#
# Youngs Moduli (GPa) = 31.28853 111.95770 99.73933
#
# Poissons Ratio (x) = 0.12951 -0.25911
# Poissons Ratio (y) = 0.03619 0.30763
# Poissons Ratio (z) = -0.08128 0.34532
#
# Static dielectric constant tensor:
#      x y z
#    x 2.058950 0.000000 0.000000 
#    y 0.000000 1.971200 0.000000 
#    z 0.000000 0.000000 1.839790 
# 
# From -- ./inp_files/8847.got.cif
#   From: 2010.05.17/outbox.cif.g08.bks.cpg/sg39_5_cif.got.tgz:8847.got - 2010.06.03 18:22:40.
