data_PCOD9360427
_publ_section_title
;
Structure prediction by ZEFSAII (Michael W. Deem and Ramdas Pophale) SiO2 
 PCOD9360427
Probable space group: A B M 2
;
_chemical_formula_sum "Si O2"
_cell_formula_units_Z 56
_cell_length_a 15.337371
_cell_length_b 14.835886
_cell_length_c 11.335084
_cell_angle_alpha 90.000000
_cell_angle_beta 90.000000
_cell_angle_gamma 90.000000
_cell_volume 2579.224547
_symmetry_space_group_name_H-M "A B M 2"
_symmetry_group_IT_number 39
_symmetry_cell_setting 'orthorhombic'
loop_
_space_group_symop_operation_xyz
x,y,z
-x,-y,z
-x,1/2+y,z
x,1/2-y,z
x,1/2+y,1/2+z
-x,1/2-y,1/2+z
-x,y,1/2+z
x,-y,1/2+z
loop_
_atom_site_type_symbol
_atom_site_label
_atom_site_fract_x
_atom_site_fract_y
_atom_site_fract_z
Si Si1 0.308986 0.350185 0.247620
Si Si2 0.932704 0.250000 0.496329
Si Si3 0.033092 0.250000 0.741230
Si Si4 0.522063 0.106356 0.600955
Si Si5 0.913727 0.044376 0.254186
Si Si6 0.549758 0.597717 0.842702
Si Si7 0.165218 0.586938 0.584726
Si Si8 0.268863 0.015139 0.889159
O O1 0.327736 0.250000 0.286282
O O2 0.380772 0.378402 0.151158
O O3 0.214930 0.357374 0.185472
O O4 0.307569 0.418920 0.354968
O O5 0.994205 0.250000 0.380761
O O6 0.875091 0.340549 0.495283
O O7 0.971675 0.250000 0.627415
O O8 0.077538 0.348992 0.730820
O O9 0.466871 0.140477 0.714027
O O10 0.516814 0.141098 0.466135
O O11 0.500000 0.000000 0.589366
O O12 0.820808 0.028248 0.317161
O O13 0.904561 0.980628 0.138943
O O14 0.000000 0.000000 0.315834
O O15 0.500000 0.500000 0.835750
O O16 0.653062 0.582730 0.858615
O O17 0.238322 0.526810 0.522023
#
# Coordination Sequence:
#
# PCOD9360427 Si02
#       8
#     8   4   4   8   8   8   8   8
#     4  11  22  39  65 102 135 176 240 297 357 426
#     4  12  24  48  74 102 141 189 237 307 350 444
#     4  12  26  48  72 102 145 179 239 295 356 434
#     4  10  19  36  64  90 132 178 232 278 350 425
#     4  11  25  43  69 103 137 184 235 295 362 423
#     4  10  19  35  66  97 126 179 241 275 352 424
#     4  11  23  42  71  99 138 185 243 282 362 433
#     4  11  22  41  69  97 136 188 234 296 352 439
#
# _framework density 21.711952
#
# number of rings (size 3 to 8) (size 9 to 14) (size 15 to 20)
#    0.000    1.143    7.857    0.000    0.000    1.714 
#    1.286    0.714    3.143    0.000    0.000    0.000 
#    0.000    0.000    0.000    0.000    0.000    0.000 
#
# Total GULP energy -155963.916723 kJ/mol
# GULP energy per Si atom -5570.139883 kJ/mol
# Density = 2.166253 g / cm^3
# Si number density = 21.711952 Si / 1000 Ang^3
#
#
#
# Elastic Constant Matrix: (Units=GPa)
#
#
# Indices 1 2 3 4 5 6 
#
# 1 104.4758 13.6166 20.7410 0.0000 0.0000 0.0000
# 2 13.6166 120.4332 17.9376 0.0000 0.0000 0.0000
# 3 20.7410 17.9376 116.9390 0.0000 0.0000 0.0000
# 4 0.0000 0.0000 0.0000 -280.2655 0.0000 0.0000
# 5 0.0000 0.0000 0.0000 0.0000 84.0333 0.0000
# 6 0.0000 0.0000 0.0000 0.0000 0.0000 8.5245
#
#
#
# Elastic Compliance Matrix: (Units=1/GPa)
#
#
# Indices 1 2 3 4 5 6 
#
# 1 0.010013 -0.000888 -0.001640 0.000000 0.000000 0.000000
# 2 -0.000888 0.008576 -0.001158 0.000000 0.000000 0.000000
# 3 -0.001640 -0.001158 0.009020 0.000000 0.000000 0.000000
# 4 0.000000 0.000000 0.000000 -0.003568 0.000000 0.000000
# 5 0.000000 0.000000 0.000000 0.000000 0.011900 0.000000
# 6 0.000000 0.000000 0.000000 0.000000 0.000000 0.117308
#
#
# Mechanical properties :
#
#
# Convention : Reuss Voigt Hill
#
# Bulk Modulus (GPa) = 49.41277 49.60427 49.50852
# Shear Modulus (GPa) = 29.87454 -18.23800 5.81827
#
# Velocity S-wave (km/s) = 3.71340 -2.90142 1.63877
# Velocity P-wave (km/s) = 6.41822 3.41641 5.14127
#
# Compressibility (1/GPa) = 0.02023768
#
# Stress axis : x y z
#
# Youngs Moduli (GPa) = 99.87180 116.60143 110.86551
#
# Poissons Ratio (x) = 0.10353 0.18179
# Poissons Ratio (y) = 0.08867 0.12839
# Poissons Ratio (z) = 0.16376 0.13503
#
# Static dielectric constant tensor:
#      x y z
#    x 1.710160 0.000000 0.000000 
#    y 0.000000 1.788990 0.000000 
#    z 0.000000 0.000000 1.861390 
# 
# From -- ./inp_files/6532.got.cif
#   From: 2010.05.17/outbox.cif.g08.bks.cpg/sg39_4_cif.got.tgz:6532.got - 2010.06.03 18:22:40.
