data_PCOD9360987
_publ_section_title
;
Structure prediction by ZEFSAII (Michael W. Deem and Ramdas Pophale) SiO2 
 PCOD9360987
Probable space group: A B M 2
;
_chemical_formula_sum "Si O2"
_cell_formula_units_Z 48
_cell_length_a 7.705229
_cell_length_b 25.175342
_cell_length_c 11.326329
_cell_angle_alpha 90.000000
_cell_angle_beta 90.000000
_cell_angle_gamma 90.000000
_cell_volume 2197.101407
_symmetry_space_group_name_H-M "A B M 2"
_symmetry_group_IT_number 39
_symmetry_cell_setting 'orthorhombic'
loop_
_space_group_symop_operation_xyz
x,y,z
-x,-y,z
-x,1/2+y,z
x,1/2-y,z
x,1/2+y,1/2+z
-x,1/2-y,1/2+z
-x,y,1/2+z
x,-y,1/2+z
loop_
_atom_site_type_symbol
_atom_site_label
_atom_site_fract_x
_atom_site_fract_y
_atom_site_fract_z
Si Si1 0.717246 0.401558 0.598720
Si Si2 0.784647 0.644456 0.839704
Si Si3 0.404996 0.155554 0.315604
Si Si4 0.592573 0.051541 0.978222
Si Si5 0.094729 0.585020 0.119394
Si Si6 0.901117 0.307858 0.963205
O O1 0.747711 0.380243 0.467543
O O2 0.683703 0.354226 0.690002
O O3 0.538214 0.433148 0.585454
O O4 0.894314 0.431438 0.632512
O O5 0.604838 0.672180 0.802656
O O6 0.827203 0.598133 0.746937
O O7 0.952746 0.680351 0.863722
O O8 0.401764 0.097848 0.380856
O O9 0.284813 0.190412 0.399205
O O10 0.782677 0.048973 0.037181
O O11 0.500000 0.000000 0.925714
O O12 0.094557 0.643288 0.054943
O O13 0.932190 0.250000 0.016946
#
# Coordination Sequence:
#
# PCOD9360987 Si02
#       6
#     8   8   8   8   8   8
#     4  10  20  37  62  87 120 160 203 249 314 371
#     4  10  20  37  62  86 115 164 200 248 312 367
#     4  10  20  39  62  87 123 160 201 260 311 366
#     4  10  22  38  62  89 120 162 210 253 309 374
#     4  10  20  39  62  85 124 163 201 259 316 364
#     4  10  22  38  60  88 118 161 211 256 310 373
#
# _framework density 21.846965999999998
#
# number of rings (size 3 to 8) (size 9 to 14) (size 15 to 20)
#    0.000    2.000    3.333    0.000    0.000    2.667 
#    0.000    0.000    0.000    0.000    0.000    0.000 
#    0.000    0.000    0.000    0.000    0.000    0.000 
#
# Total GULP energy -133849.544356 kJ/mol
# GULP energy per Si atom -5577.064348 kJ/mol
# Density = 2.179724 g / cm^3
# Si number density = 21.846966 Si / 1000 Ang^3
#
#
#
# Elastic Constant Matrix: (Units=GPa)
#
#
# Indices 1 2 3 4 5 6 
#
# 1 109.8002 -9.7903 9.0985 0.0000 0.0000 0.0000
# 2 -9.7903 68.4756 1.7034 0.0000 0.0000 0.0000
# 3 9.0985 1.7034 86.5851 0.0000 0.0000 0.0000
# 4 0.0000 0.0000 0.0000 5.2017 0.0000 0.0000
# 5 0.0000 0.0000 0.0000 0.0000 29.7532 0.0000
# 6 0.0000 0.0000 0.0000 0.0000 0.0000 15.7202
#
#
#
# Elastic Compliance Matrix: (Units=1/GPa)
#
#
# Indices 1 2 3 4 5 6 
#
# 1 0.009312 0.001356 -0.001005 0.000000 0.000000 0.000000
# 2 0.001356 0.014808 -0.000434 0.000000 0.000000 0.000000
# 3 -0.001005 -0.000434 0.011663 0.000000 0.000000 0.000000
# 4 0.000000 0.000000 0.000000 0.192246 0.000000 0.000000
# 5 0.000000 0.000000 0.000000 0.000000 0.033610 0.000000
# 6 0.000000 0.000000 0.000000 0.000000 0.000000 0.063613
#
#
# Mechanical properties :
#
#
# Convention : Reuss Voigt Hill
#
# Bulk Modulus (GPa) = 28.07547 29.65378 28.86462
# Shear Modulus (GPa) = 14.82403 27.72496 21.27449
#
# Velocity S-wave (km/s) = 2.60771 3.56624 3.12396
# Velocity P-wave (km/s) = 4.68462 5.52814 5.12377
#
# Compressibility (1/GPa) = 0.03561828
#
# Stress axis : x y z
#
# Youngs Moduli (GPa) = 107.39196 67.52896 85.73762
#
# Poissons Ratio (x) = -0.09159 0.08618
# Poissons Ratio (y) = -0.14566 0.03720
# Poissons Ratio (z) = 0.10795 0.02930
#
# Static dielectric constant tensor:
#      x y z
#    x 1.871080 0.000000 0.000000 
#    y 0.000000 1.834020 0.000000 
#    z 0.000000 0.000000 1.780920 
# 
# From -- ./inp_files/5182.got.cif
#   From: 2010.05.17/outbox.cif.g08.bks.cpg/sg39_3_cif.got.tgz:5182.got - 2010.06.03 18:22:40.
