data_PCOD9360041
_publ_section_title
;
Structure prediction by ZEFSAII (Michael W. Deem and Ramdas Pophale) SiO2 
 PCOD9360041
Probable space group: A B M 2
;
_chemical_formula_sum "Si O2"
_cell_formula_units_Z 64
_cell_length_a 19.754201
_cell_length_b 25.153501
_cell_length_c 5.470792
_cell_angle_alpha 90.000000
_cell_angle_beta 90.000000
_cell_angle_gamma 90.000000
_cell_volume 2718.367146
_symmetry_space_group_name_H-M "A B M 2"
_symmetry_group_IT_number 39
_symmetry_cell_setting 'orthorhombic'
loop_
_space_group_symop_operation_xyz
x,y,z
-x,-y,z
-x,1/2+y,z
x,1/2-y,z
x,1/2+y,1/2+z
-x,1/2-y,1/2+z
-x,y,1/2+z
x,-y,1/2+z
loop_
_atom_site_type_symbol
_atom_site_label
_atom_site_fract_x
_atom_site_fract_y
_atom_site_fract_z
Si Si1 0.774367 0.386938 0.523060
Si Si2 0.309207 0.495775 0.001818
Si Si3 0.957879 0.069703 0.085506
Si Si4 0.522720 0.914003 0.118329
Si Si5 0.638640 0.162976 0.613441
Si Si6 0.042555 0.693388 0.098752
Si Si7 0.183061 0.078254 0.519511
Si Si8 0.570110 0.807310 0.613630
O O1 0.732920 0.441876 0.506984
O O2 0.718640 0.343475 0.591385
O O3 0.804393 0.383149 0.252078
O O4 0.823687 0.394101 0.753671
O O5 0.349264 0.502814 0.250748
O O6 0.250682 0.541531 0.000504
O O7 0.935356 0.132027 0.083400
O O8 0.883804 0.043083 0.072713
O O9 0.998195 0.059958 0.339107
O O10 0.500891 0.940029 0.369364
O O11 0.600031 0.894322 0.114314
O O12 0.480258 0.857299 0.115994
O O13 0.612211 0.189372 0.364241
O O14 0.616023 0.187628 0.871166
O O15 0.082915 0.750000 0.081538
O O16 0.007037 0.695627 0.363873
O O17 0.534805 0.750000 0.604349
#
# Coordination Sequence:
#
# PCOD9360041 Si02
#       8
#     8   8   8   8   8   8   8   8
#     4  10  19  33  52  71  96 129 169 209 246 292
#     4   8  16  30  50  70  91 120 158 201 246 291
#     4  10  19  31  50  76 101 126 158 199 250 301
#     4   8  16  27  42  66  97 125 163 209 251 287
#     4  10  19  30  47  72  96 128 177 216 247 288
#     4   8  14  25  42  64  87 111 144 184 222 265
#     4  10  19  33  53  74 101 130 161 203 253 309
#     4  10  19  31  48  71 103 139 174 212 251 295
#
# _framework density 23.543545999999999
#
# number of rings (size 3 to 8) (size 9 to 14) (size 15 to 20)
#    0.000    2.750    0.000    1.875    0.000    4.500 
#    0.000    0.000    0.000   24.750    0.000    0.000 
#    0.000  243.000    0.000    0.000    0.000    0.000 
#
# Total GULP energy -178366.330493 kJ/mol
# GULP energy per Si atom -5573.947828 kJ/mol
# Density = 2.348996 g / cm^3
# Si number density = 23.543546 Si / 1000 Ang^3
#
#
#
# Elastic Constant Matrix: (Units=GPa)
#
#
# Indices 1 2 3 4 5 6 
#
# 1 34.5465 -2.2438 -8.4225 0.0000 0.0000 0.0000
# 2 -2.2438 72.7379 19.1087 0.0000 0.0000 0.0000
# 3 -8.4225 19.1087 156.3516 0.0000 0.0000 0.0000
# 4 0.0000 0.0000 0.0000 -5.1622 0.0000 0.0000
# 5 0.0000 0.0000 0.0000 0.0000 21.0636 0.0000
# 6 0.0000 0.0000 0.0000 0.0000 0.0000 9.0510
#
#
#
# Elastic Compliance Matrix: (Units=1/GPa)
#
#
# Indices 1 2 3 4 5 6 
#
# 1 0.029350 0.000506 0.001519 0.000000 0.000000 0.000000
# 2 0.000506 0.014213 -0.001710 0.000000 0.000000 0.000000
# 3 0.001519 -0.001710 0.006687 0.000000 0.000000 0.000000
# 4 0.000000 0.000000 0.000000 -0.193714 0.000000 0.000000
# 5 0.000000 0.000000 0.000000 0.000000 0.047475 0.000000
# 6 0.000000 0.000000 0.000000 0.000000 0.000000 0.110485
#
#
# Mechanical properties :
#
#
# Convention : Reuss Voigt Hill
#
# Bulk Modulus (GPa) = 19.65388 31.16898 25.41143
# Shear Modulus (GPa) = 162.21186 22.00338 92.10762
#
# Velocity S-wave (km/s) = 8.30953 3.06041 6.26156
# Velocity P-wave (km/s) = 10.02149 5.07501 7.94311
#
# Compressibility (1/GPa) = 0.05088054
#
# Stress axis : x y z
#
# Youngs Moduli (GPa) = 34.07185 70.35922 149.55201
#
# Poissons Ratio (x) = -0.03562 -0.22719
# Poissons Ratio (y) = -0.01725 0.25570
# Poissons Ratio (z) = -0.05176 0.12030
#
# Static dielectric constant tensor:
#      x y z
#    x 1.905520 0.000000 0.000000 
#    y 0.000000 1.966150 0.000000 
#    z 0.000000 0.000000 1.960940 
# 
# From -- ./inp_files/907.got.cif
#   From: 2010.05.17/outbox.cif.g08.bks.cpg/sg39_1_cif.got.tgz:907.got - 2010.06.03 18:22:40.
