data_PCOD9360529
_publ_section_title
;
Structure prediction by ZEFSAII (Michael W. Deem and Ramdas Pophale) SiO2 
 PCOD9360529
Probable space group: A B M 2
;
_chemical_formula_sum "Si O2"
_cell_formula_units_Z 60
_cell_length_a 5.832663
_cell_length_b 20.995301
_cell_length_c 25.149671
_cell_angle_alpha 90.000000
_cell_angle_beta 90.000000
_cell_angle_gamma 90.000000
_cell_volume 3079.791371
_symmetry_space_group_name_H-M "A B M 2"
_symmetry_group_IT_number 39
_symmetry_cell_setting 'orthorhombic'
loop_
_space_group_symop_operation_xyz
x,y,z
-x,-y,z
-x,1/2+y,z
x,1/2-y,z
x,1/2+y,1/2+z
-x,1/2-y,1/2+z
-x,y,1/2+z
x,-y,1/2+z
loop_
_atom_site_type_symbol
_atom_site_label
_atom_site_fract_x
_atom_site_fract_y
_atom_site_fract_z
Si Si1 0.500000 0.500000 0.686311
Si Si2 0.139606 0.563554 0.607545
Si Si3 0.545224 0.885172 0.244697
Si Si4 0.260811 0.928819 0.949978
Si Si5 0.837852 0.821158 0.795081
Si Si6 0.128950 0.433601 0.331980
Si Si7 0.920994 0.677394 0.179586
Si Si8 0.753702 0.423607 0.488482
O O1 0.320126 0.536069 0.649698
O O2 0.392305 0.441842 0.720103
O O3 0.016296 0.622788 0.637044
O O4 0.243729 0.585619 0.551902
O O5 0.000000 0.500000 0.593717
O O6 0.424163 0.839951 0.286857
O O7 0.729212 0.925276 0.278096
O O8 0.666695 0.841447 0.200726
O O9 0.270356 0.931643 0.886195
O O10 0.504076 0.898709 0.968524
O O11 0.006647 0.901624 0.966589
O O12 0.254186 0.001086 0.973027
O O13 0.874953 0.750000 0.814388
O O14 0.956906 0.874073 0.830491
O O15 0.932780 0.825008 0.734144
O O16 0.000000 0.500000 0.331418
O O17 0.929984 0.750000 0.159572
#
# Coordination Sequence:
#
# PCOD9360529 Si02
#       8
#     4   8   8   8   8   8   8   8
#     4  10  20  30  48  84 118 146 184 248 300 354
#     4  11  20  33  56  84 113 149 195 247 303 354
#     4  10  20  33  54  81 119 154 197 240 298 361
#     4  10  20  36  57  86 120 152 198 245 307 358
#     4  10  21  37  56  82 119 162 201 243 298 371
#     4  11  22  35  58  88 116 154 199 255 305 364
#     4   9  20  37  55  80 117 156 198 238 294 365
#     4  10  20  35  56  85 117 157 194 253 297 367
#
# _framework density 19.481838
#
# number of rings (size 3 to 8) (size 9 to 14) (size 15 to 20)
#    0.000    1.867    2.667    2.800    1.867    5.333 
#    0.000    0.000    0.000    1.600    0.000    0.000 
#    0.000    0.000    0.000    0.000    0.000    0.000 
#
# Total GULP energy -167047.338593 kJ/mol
# GULP energy per Si atom -5568.244620 kJ/mol
# Density = 1.943750 g / cm^3
# Si number density = 19.481838 Si / 1000 Ang^3
#
#
#
# Elastic Constant Matrix: (Units=GPa)
#
#
# Indices 1 2 3 4 5 6 
#
# 1 77.3958 23.5362 6.2676 0.0000 0.0000 0.0000
# 2 23.5362 103.2277 29.0328 0.0000 0.0000 0.0000
# 3 6.2676 29.0328 59.5794 0.0000 0.0000 0.0000
# 4 0.0000 0.0000 0.0000 -1.2315 0.0000 0.0000
# 5 0.0000 0.0000 0.0000 0.0000 59.3650 0.0000
# 6 0.0000 0.0000 0.0000 0.0000 0.0000 11.7353
#
#
#
# Elastic Compliance Matrix: (Units=1/GPa)
#
#
# Indices 1 2 3 4 5 6 
#
# 1 0.013884 -0.003192 0.000095 0.000000 0.000000 0.000000
# 2 -0.003192 0.011960 -0.005492 0.000000 0.000000 0.000000
# 3 0.000095 -0.005492 0.019451 0.000000 0.000000 0.000000
# 4 0.000000 0.000000 0.000000 -0.812018 0.000000 0.000000
# 5 0.000000 0.000000 0.000000 0.000000 0.016845 0.000000
# 6 0.000000 0.000000 0.000000 0.000000 0.000000 0.085213
#
#
# Mechanical properties :
#
#
# Convention : Reuss Voigt Hill
#
# Bulk Modulus (GPa) = 35.56770 39.76402 37.66586
# Shear Modulus (GPa) = -7.83557 26.06485 9.11464
#
# Velocity S-wave (km/s) = -2.00766 3.66171 2.16534
# Velocity P-wave (km/s) = 3.59475 6.19133 5.06235
#
# Compressibility (1/GPa) = 0.02811539
#
# Stress axis : x y z
#
# Youngs Moduli (GPa) = 72.02712 83.61315 51.41223
#
# Poissons Ratio (x) = 0.26691 -0.00489
# Poissons Ratio (y) = 0.22993 0.28236
# Poissons Ratio (z) = -0.00685 0.45922
#
# Static dielectric constant tensor:
#      x y z
#    x 1.716210 0.000000 0.000000 
#    y 0.000000 1.700770 0.000000 
#    z 0.000000 0.000000 1.678350 
# 
# From -- ./inp_files/15354.got.cif
#   From: 2010.05.17/outbox.cif.g08.bks.cpg/sg39_8_cif.got.tgz:15354.got - 2010.06.03 18:22:40.
