data_PCOD9360947
_publ_section_title
;
Structure prediction by ZEFSAII (Michael W. Deem and Ramdas Pophale) SiO2 
 PCOD9360947
Probable space group: A B M 2
;
_chemical_formula_sum "Si O2"
_cell_formula_units_Z 56
_cell_length_a 21.502137
_cell_length_b 8.227606
_cell_length_c 14.746733
_cell_angle_alpha 90.000000
_cell_angle_beta 90.000000
_cell_angle_gamma 90.000000
_cell_volume 2608.860924
_symmetry_space_group_name_H-M "A B M 2"
_symmetry_group_IT_number 39
_symmetry_cell_setting 'orthorhombic'
loop_
_space_group_symop_operation_xyz
x,y,z
-x,-y,z
-x,1/2+y,z
x,1/2-y,z
x,1/2+y,1/2+z
-x,1/2-y,1/2+z
-x,y,1/2+z
x,-y,1/2+z
loop_
_atom_site_type_symbol
_atom_site_label
_atom_site_fract_x
_atom_site_fract_y
_atom_site_fract_z
Si Si1 0.570700 0.444139 0.842330
Si Si2 0.334389 0.551156 0.991162
Si Si3 0.671303 0.443972 0.200126
Si Si4 0.801551 0.557044 0.181264
Si Si5 0.933684 0.943033 0.480442
Si Si6 0.935741 0.556641 0.189889
Si Si7 0.799945 0.058875 0.975767
O O1 0.500000 0.500000 0.837502
O O2 0.571209 0.250000 0.842852
O O3 0.613462 0.503092 0.759964
O O4 0.607271 0.502598 0.932109
O O5 0.332531 0.750000 0.989969
O O6 0.338517 0.501461 0.095902
O O7 0.268034 0.492125 0.950829
O O8 0.676771 0.250000 0.201302
O O9 0.737557 0.517150 0.231198
O O10 0.802638 0.750000 0.161259
O O11 0.867388 0.516523 0.228461
O O12 0.799645 0.460574 0.085812
O O13 0.931790 0.750000 0.469759
O O14 0.867028 0.010689 0.446424
O O15 0.934878 0.984932 0.587838
O O16 0.000000 0.000000 0.443206
O O17 0.939680 0.750000 0.183027
O O18 0.000000 0.500000 0.234173
O O19 0.800186 0.250000 0.951682
#
# Coordination Sequence:
#
# PCOD9360947 Si02
#       7
#     8   8   8   8   8   8   8
#     4  11  23  40  60  84 112 140 173 215 262 319
#     4   8  17  35  58  80 106 141 180 219 262 313
#     4  10  20  37  59  83 111 145 182 221 266 317
#     4   9  16  26  42  68  99 134 176 222 267 314
#     4   9  14  19  31  53  86 125 166 211 260 308
#     4   9  15  21  32  54  89 129 171 216 263 310
#     4   8  14  26  43  64  92 132 177 218 260 311
#
# _framework density 21.465308
#
# number of rings (size 3 to 8) (size 9 to 14) (size 15 to 20)
#    0.000    2.857    0.000    3.857    0.000    2.857 
#    0.000    8.571    0.000    0.000    0.000    1.000 
#    0.000    2.286    0.000    0.857    0.000    2.000 
#
# Total GULP energy -156086.536069 kJ/mol
# GULP energy per Si atom -5574.519145 kJ/mol
# Density = 2.141645 g / cm^3
# Si number density = 21.465308 Si / 1000 Ang^3
#
#
#
# Elastic Constant Matrix: (Units=GPa)
#
#
# Indices 1 2 3 4 5 6 
#
# 1 235.6931 29.4420 29.8857 0.0000 0.0000 0.0000
# 2 29.4420 39.4958 1.7676 0.0000 0.0000 0.0000
# 3 29.8857 1.7676 52.5877 0.0000 0.0000 0.0000
# 4 0.0000 0.0000 0.0000 0.3776 0.0000 0.0000
# 5 0.0000 0.0000 0.0000 0.0000 45.4776 0.0000
# 6 0.0000 0.0000 0.0000 0.0000 0.0000 32.6603
#
#
#
# Elastic Compliance Matrix: (Units=1/GPa)
#
#
# Indices 1 2 3 4 5 6 
#
# 1 0.005045 -0.003638 -0.002745 0.000000 0.000000 0.000000
# 2 -0.003638 0.027981 0.001127 0.000000 0.000000 0.000000
# 3 -0.002745 0.001127 0.020538 0.000000 0.000000 0.000000
# 4 0.000000 0.000000 0.000000 2.648416 0.000000 0.000000
# 5 0.000000 0.000000 0.000000 0.000000 0.021989 0.000000
# 6 0.000000 0.000000 0.000000 0.000000 0.000000 0.030618
#
#
# Mechanical properties :
#
#
# Convention : Reuss Voigt Hill
#
# Bulk Modulus (GPa) = 23.22778 49.99637 36.61207
# Shear Modulus (GPa) = 1.79892 33.48185 17.64038
#
# Velocity S-wave (km/s) = 0.91645 3.95373 2.86983
# Velocity P-wave (km/s) = 3.45896 6.64717 5.29855
#
# Compressibility (1/GPa) = 0.04305191
#
# Stress axis : x y z
#
# Youngs Moduli (GPa) = 198.20269 35.73881 48.69030
#
# Poissons Ratio (x) = 0.13002 0.13365
# Poissons Ratio (y) = 0.72110 -0.05488
# Poissons Ratio (z) = 0.54407 -0.04028
#
# Static dielectric constant tensor:
#      x y z
#    x 1.859140 0.000000 0.000000 
#    y 0.000000 1.751100 0.000000 
#    z 0.000000 0.000000 1.889220 
# 
# From -- ./inp_files/10369.got.cif
#   From: 2010.05.17/outbox.cif.g08.bks.cpg/sg39_6_cif.got.tgz:10369.got - 2010.06.03 18:22:40.
