data_PCOD9360621
_publ_section_title
;
Structure prediction by ZEFSAII (Michael W. Deem and Ramdas Pophale) SiO2 
 PCOD9360621
Probable space group: A B M 2
;
_chemical_formula_sum "Si O2"
_cell_formula_units_Z 64
_cell_length_a 14.499294
_cell_length_b 8.669236
_cell_length_c 31.844050
_cell_angle_alpha 90.000000
_cell_angle_beta 90.000000
_cell_angle_gamma 90.000000
_cell_volume 4002.727076
_symmetry_space_group_name_H-M "A B M 2"
_symmetry_group_IT_number 39
_symmetry_cell_setting 'orthorhombic'
loop_
_space_group_symop_operation_xyz
x,y,z
-x,-y,z
-x,1/2+y,z
x,1/2-y,z
x,1/2+y,1/2+z
-x,1/2-y,1/2+z
-x,y,1/2+z
x,-y,1/2+z
loop_
_atom_site_type_symbol
_atom_site_label
_atom_site_fract_x
_atom_site_fract_y
_atom_site_fract_z
Si Si1 0.104480 0.434240 0.542540
Si Si2 0.600343 0.934371 0.652826
Si Si3 0.895701 0.435094 0.361977
Si Si4 0.896175 0.565494 0.955656
Si Si5 0.788584 0.934253 0.122304
Si Si6 0.211875 0.933839 0.783000
Si Si7 0.896694 0.565177 0.702858
Si Si8 0.399735 0.434309 0.752340
O O1 0.100153 0.250000 0.543980
O O2 0.144247 0.489365 0.497491
O O3 0.164679 0.499307 0.580523
O O4 0.000000 0.500000 0.546302
O O5 0.602401 0.750000 0.647700
O O6 0.614813 0.967962 0.702591
O O7 0.500000 0.000000 0.641519
O O8 0.683260 0.011506 0.627563
O O9 0.899452 0.250000 0.357200
O O10 0.858629 0.469138 0.409124
O O11 0.833273 0.508248 0.326071
O O12 0.000000 0.500000 0.358400
O O13 0.898480 0.750000 0.961012
O O14 0.000000 0.500000 0.954139
O O15 0.794458 0.750000 0.122564
O O16 0.843500 0.001351 0.162287
O O17 0.205784 0.750000 0.779952
O O18 0.155464 0.008893 0.744531
O O19 0.317018 0.988561 0.777709
O O20 0.897658 0.750000 0.701600
O O21 0.000000 0.500000 0.703038
O O22 0.500000 0.500000 0.763646
O O23 0.397695 0.250000 0.757466
#
# Coordination Sequence:
#
# PCOD9360621 Si02
#       8
#     8   8   8   8   8   8   8   8
#     4  11  21  34  52  75 105 138 174 214 257 306
#     4  10  20  35  55  77 102 133 169 214 260 305
#     4  10  20  34  52  75 105 138 174 215 258 305
#     4   9  17  31  51  74 100 132 170 213 259 303
#     4  12  23  36  53  75 103 136 174 213 255 305
#     4  12  23  35  52  75 103 137 175 212 255 305
#     4  12  24  38  51  69 100 138 176 212 252 301
#     4  10  20  35  55  76 102 132 169 215 260 306
#
# _framework density 15.989099
#
# number of rings (size 3 to 8) (size 9 to 14) (size 15 to 20)
#    0.000    1.250    1.250    7.500    0.000    2.500 
#    0.000    0.000    0.000    0.000    0.000    0.875 
#    0.000    6.000    0.000    0.000    0.000    0.000 
#
# Total GULP energy -178772.816517 kJ/mol
# GULP energy per Si atom -5586.650516 kJ/mol
# Density = 1.595271 g / cm^3
# Si number density = 15.989099 Si / 1000 Ang^3
#
#
#
# Elastic Constant Matrix: (Units=GPa)
#
#
# Indices 1 2 3 4 5 6 
#
# 1 113.9262 59.9629 70.7391 0.0000 0.0000 0.0000
# 2 59.9629 141.5474 72.8782 0.0000 0.0000 0.0000
# 3 70.7391 72.8782 141.9128 0.0000 0.0000 0.0000
# 4 0.0000 0.0000 0.0000 27.8785 0.0000 0.0000
# 5 0.0000 0.0000 0.0000 0.0000 1.3801 0.0000
# 6 0.0000 0.0000 0.0000 0.0000 0.0000 29.5633
#
#
#
# Elastic Compliance Matrix: (Units=1/GPa)
#
#
# Indices 1 2 3 4 5 6 
#
# 1 0.013643 -0.003097 -0.005210 0.000000 0.000000 0.000000
# 2 -0.003097 0.010307 -0.003749 0.000000 0.000000 0.000000
# 3 -0.005210 -0.003749 0.011569 0.000000 0.000000 0.000000
# 4 0.000000 0.000000 0.000000 0.035870 0.000000 0.000000
# 5 0.000000 0.000000 0.000000 0.000000 0.724560 0.000000
# 6 0.000000 0.000000 0.000000 0.000000 0.000000 0.033826
#
#
# Mechanical properties :
#
#
# Convention : Reuss Voigt Hill
#
# Bulk Modulus (GPa) = 87.67197 89.39409 88.53303
# Shear Modulus (GPa) = 5.82961 24.68480 15.25721
#
# Velocity S-wave (km/s) = 1.91152 3.93345 3.09241
# Velocity P-wave (km/s) = 7.73455 8.75558 8.26085
#
# Compressibility (1/GPa) = 0.01140615
#
# Stress axis : x y z
#
# Youngs Moduli (GPa) = 73.29978 97.01996 86.43686
#
# Poissons Ratio (x) = 0.30046 0.45034
# Poissons Ratio (y) = 0.22700 0.32409
# Poissons Ratio (z) = 0.38190 0.36377
#
# Static dielectric constant tensor:
#      x y z
#    x 1.510540 0.000000 0.000000 
#    y 0.000000 1.529740 0.000000 
#    z 0.000000 0.000000 1.541390 
# 
# From -- ./inp_files/17872.got.cif
#   From: 2010.05.17/outbox.cif.g08.bks.cpg/sg39_9_cif.got.tgz:17872.got - 2010.06.03 18:22:40.
