data_PCOD9360534
_publ_section_title
;
Structure prediction by ZEFSAII (Michael W. Deem and Ramdas Pophale) SiO2 
 PCOD9360534
Probable space group: A B M 2
;
_chemical_formula_sum "Si O2"
_cell_formula_units_Z 48
_cell_length_a 17.396525
_cell_length_b 23.860979
_cell_length_c 5.484126
_cell_angle_alpha 90.000000
_cell_angle_beta 90.000000
_cell_angle_gamma 90.000000
_cell_volume 2276.450380
_symmetry_space_group_name_H-M "A B M 2"
_symmetry_group_IT_number 39
_symmetry_cell_setting 'orthorhombic'
loop_
_space_group_symop_operation_xyz
x,y,z
-x,-y,z
-x,1/2+y,z
x,1/2-y,z
x,1/2+y,1/2+z
-x,1/2-y,1/2+z
-x,y,1/2+z
x,-y,1/2+z
loop_
_atom_site_type_symbol
_atom_site_label
_atom_site_fract_x
_atom_site_fract_y
_atom_site_fract_z
Si Si1 0.976400 0.917689 0.369920
Si Si2 0.450624 0.814028 0.039253
Si Si3 0.247654 0.989383 0.320243
Si Si4 0.090107 0.310501 0.864989
Si Si5 0.164365 0.654914 0.862732
Si Si6 0.684408 0.402781 0.007145
O O1 0.888045 0.900753 0.365190
O O2 0.997790 0.944611 0.622029
O O3 0.027377 0.859591 0.371316
O O4 0.416995 0.750000 0.038812
O O5 0.499513 0.818166 0.290077
O O6 0.390359 0.865252 0.035299
O O7 0.204424 0.992902 0.574638
O O8 0.313574 0.037870 0.357376
O O9 0.282334 0.928345 0.262167
O O10 0.051253 0.250000 0.871354
O O11 0.138176 0.315292 0.614014
O O12 0.142434 0.316333 0.107388
O O13 0.251842 0.636789 0.886195
#
# Coordination Sequence:
#
# PCOD9360534 Si02
#       6
#     8   8   8   8   8   8
#     4   8  16  30  43  69 100 143 182 222 278 328
#     4  10  24  42  61  85 120 164 189 218 281 342
#     4   8  20  36  61  88 113 144 180 236 304 324
#     4  10  20  32  46  74 113 150 189 230 281 334
#     4  10  21  30  54  77 103 146 182 231 284 323
#     4  10  22  40  64  85 119 141 197 241 274 341
#
# _framework density 21.085457000000002
#
# number of rings (size 3 to 8) (size 9 to 14) (size 15 to 20)
#    1.000    1.667    0.000    0.500    4.667    7.333 
#    0.000    4.167    0.000    0.000    0.000   31.500 
#    0.000    0.000    0.000    0.000    0.000    0.000 
#
# Total GULP energy -133613.052759 kJ/mol
# GULP energy per Si atom -5567.210532 kJ/mol
# Density = 2.103747 g / cm^3
# Si number density = 21.085457 Si / 1000 Ang^3
#
#
#
# Elastic Constant Matrix: (Units=GPa)
#
#
# Indices 1 2 3 4 5 6 
#
# 1 41.9576 21.4898 14.2998 0.0000 0.0000 0.0000
# 2 21.4898 123.4765 21.0583 0.0000 0.0000 0.0000
# 3 14.2998 21.0583 190.8634 0.0000 0.0000 0.0000
# 4 0.0000 0.0000 0.0000 8.3323 0.0000 0.0000
# 5 0.0000 0.0000 0.0000 0.0000 14.8303 0.0000
# 6 0.0000 0.0000 0.0000 0.0000 0.0000 31.6437
#
#
#
# Elastic Compliance Matrix: (Units=1/GPa)
#
#
# Indices 1 2 3 4 5 6 
#
# 1 0.026586 -0.004370 -0.001510 0.000000 0.000000 0.000000
# 2 -0.004370 0.008972 -0.000663 0.000000 0.000000 0.000000
# 3 -0.001510 -0.000663 0.005426 0.000000 0.000000 0.000000
# 4 0.000000 0.000000 0.000000 0.120015 0.000000 0.000000
# 5 0.000000 0.000000 0.000000 0.000000 0.067430 0.000000
# 6 0.000000 0.000000 0.000000 0.000000 0.000000 0.031602
#
#
# Mechanical properties :
#
#
# Convention : Reuss Voigt Hill
#
# Bulk Modulus (GPa) = 35.84215 52.22148 44.03182
# Shear Modulus (GPa) = 17.70451 30.92455 24.31453
#
# Velocity S-wave (km/s) = 2.90082 3.83381 3.39948
# Velocity P-wave (km/s) = 5.31555 6.66467 6.02798
#
# Compressibility (1/GPa) = 0.02790011
#
# Stress axis : x y z
#
# Youngs Moduli (GPa) = 37.61360 111.45564 184.31262
#
# Poissons Ratio (x) = 0.48701 0.27827
# Poissons Ratio (y) = 0.16435 0.12211
# Poissons Ratio (z) = 0.05679 0.07384
#
# Static dielectric constant tensor:
#      x y z
#    x 1.705240 0.000000 0.000000 
#    y 0.000000 1.786380 0.000000 
#    z 0.000000 0.000000 1.872280 
# 
# From -- ./inp_files/800.got.cif
#   From: 2010.05.17/outbox.cif.g08.bks.cpg/sg39_1_cif.got.tgz:800.got - 2010.06.03 18:22:40.
