data_PCOD9360192
_publ_section_title
;
Structure prediction by ZEFSAII (Michael W. Deem and Ramdas Pophale) SiO2 
 PCOD9360192
Probable space group: A B M 2
;
_chemical_formula_sum "Si O2"
_cell_formula_units_Z 64
_cell_length_a 14.663891
_cell_length_b 8.664671
_cell_length_c 32.070678
_cell_angle_alpha 90.000000
_cell_angle_beta 90.000000
_cell_angle_gamma 90.000000
_cell_volume 4074.829506
_symmetry_space_group_name_H-M "A B M 2"
_symmetry_group_IT_number 39
_symmetry_cell_setting 'orthorhombic'
loop_
_space_group_symop_operation_xyz
x,y,z
-x,-y,z
-x,1/2+y,z
x,1/2-y,z
x,1/2+y,1/2+z
-x,1/2-y,1/2+z
-x,y,1/2+z
x,-y,1/2+z
loop_
_atom_site_type_symbol
_atom_site_label
_atom_site_fract_x
_atom_site_fract_y
_atom_site_fract_z
Si Si1 0.597291 0.564436 0.868480
Si Si2 0.896824 0.934061 0.256271
Si Si3 0.217557 0.063948 0.497924
Si Si4 0.102050 0.935641 0.915639
Si Si5 0.791544 0.564181 0.835524
Si Si6 0.102952 0.935162 0.169772
Si Si7 0.897442 0.936116 0.577644
Si Si8 0.597599 0.565384 0.965470
O O1 0.500000 0.500000 0.854174
O O2 0.592956 0.750000 0.868135
O O3 0.686095 0.517223 0.842484
O O4 0.610654 0.515547 0.916911
O O5 0.902124 0.750000 0.256457
O O6 0.836609 0.994529 0.294355
O O7 0.857529 0.992300 0.211855
O O8 0.000000 0.000000 0.260621
O O9 0.223896 0.250000 0.498942
O O10 0.157141 0.021871 0.457507
O O11 0.166312 0.011675 0.539819
O O12 0.317629 0.995782 0.491694
O O13 0.100059 0.750000 0.912220
O O14 0.152648 0.005719 0.875650
O O15 0.000000 0.000000 0.917901
O O16 0.796193 0.750000 0.833920
O O17 0.101565 0.750000 0.173955
O O18 0.140119 0.976007 0.123860
O O19 0.000000 0.000000 0.168596
O O20 0.903732 0.750000 0.575997
O O21 0.000000 0.000000 0.573058
O O22 0.500000 0.500000 0.979174
O O23 0.595634 0.750000 0.966360
#
# Coordination Sequence:
#
# PCOD9360192 Si02
#       8
#     8   8   8   8   8   8   8   8
#     4   9  19  33  51  71  93 121 156 199 242 283
#     4  11  21  33  49  71  97 128 163 201 242 287
#     4  10  20  33  48  70  98 130 164 200 239 285
#     4  11  22  33  46  65  95 133 167 198 233 275
#     4  11  21  35  50  69  96 127 163 199 238 286
#     4   9  16  29  48  69  94 125 159 200 243 285
#     4   9  18  31  48  71  99 130 165 200 240 284
#     4  10  19  33  51  72  94 124 161 203 247 287
#
# _framework density 15.706178
#
# number of rings (size 3 to 8) (size 9 to 14) (size 15 to 20)
#    0.000    2.000    1.250    4.125    0.000    3.000 
#    0.000    0.000    0.000    0.000    0.000    0.875 
#    0.000    4.000    0.000    0.000    0.000    0.000 
#
# Total GULP energy -178513.961103 kJ/mol
# GULP energy per Si atom -5578.561284 kJ/mol
# Density = 1.567043 g / cm^3
# Si number density = 15.706178 Si / 1000 Ang^3
#
#
#
# Elastic Constant Matrix: (Units=GPa)
#
#
# Indices 1 2 3 4 5 6 
#
# 1 125.2167 36.8721 77.0306 0.0000 0.0000 0.0000
# 2 36.8721 53.8763 47.1425 0.0000 0.0000 0.0000
# 3 77.0306 47.1425 150.8691 0.0000 0.0000 0.0000
# 4 0.0000 0.0000 0.0000 21.3342 0.0000 0.0000
# 5 0.0000 0.0000 0.0000 0.0000 6.6584 0.0000
# 6 0.0000 0.0000 0.0000 0.0000 0.0000 25.9668
#
#
#
# Elastic Compliance Matrix: (Units=1/GPa)
#
#
# Indices 1 2 3 4 5 6 
#
# 1 0.012240 -0.004003 -0.004999 0.000000 0.000000 0.000000
# 2 -0.004003 0.026855 -0.006348 0.000000 0.000000 0.000000
# 3 -0.004999 -0.006348 0.011164 0.000000 0.000000 0.000000
# 4 0.000000 0.000000 0.000000 0.046873 0.000000 0.000000
# 5 0.000000 0.000000 0.000000 0.000000 0.150187 0.000000
# 6 0.000000 0.000000 0.000000 0.000000 0.000000 0.038511
#
#
# Mechanical properties :
#
#
# Convention : Reuss Voigt Hill
#
# Bulk Modulus (GPa) = 51.12390 72.45027 61.78709
# Shear Modulus (GPa) = 15.47760 22.05300 18.76530
#
# Velocity S-wave (km/s) = 3.14259 3.75119 3.46030
# Velocity P-wave (km/s) = 6.76673 8.06167 7.44242
#
# Compressibility (1/GPa) = 0.01956032
#
# Stress axis : x y z
#
# Youngs Moduli (GPa) = 81.69974 37.23729 89.57433
#
# Poissons Ratio (x) = 0.14906 0.44775
# Poissons Ratio (y) = 0.32704 0.56858
# Poissons Ratio (z) = 0.40839 0.23637
#
# Static dielectric constant tensor:
#      x y z
#    x 1.493250 0.000000 0.000000 
#    y 0.000000 1.529980 0.000000 
#    z 0.000000 0.000000 1.540650 
# 
# From -- ./inp_files/17981.got.cif
#   From: 2010.05.17/outbox.cif.g08.bks.cpg/sg39_9_cif.got.tgz:17981.got - 2010.06.03 18:22:40.
