data_PCOD9360137
_publ_section_title
;
Structure prediction by ZEFSAII (Michael W. Deem and Ramdas Pophale) SiO2 
 PCOD9360137
Probable space group: A B M 2
;
_chemical_formula_sum "Si O2"
_cell_formula_units_Z 64
_cell_length_a 21.072086
_cell_length_b 18.503438
_cell_length_c 7.553574
_cell_angle_alpha 90.000000
_cell_angle_beta 90.000000
_cell_angle_gamma 90.000000
_cell_volume 2945.184102
_symmetry_space_group_name_H-M "A B M 2"
_symmetry_group_IT_number 39
_symmetry_cell_setting 'orthorhombic'
loop_
_space_group_symop_operation_xyz
x,y,z
-x,-y,z
-x,1/2+y,z
x,1/2-y,z
x,1/2+y,1/2+z
-x,1/2-y,1/2+z
-x,y,1/2+z
x,-y,1/2+z
loop_
_atom_site_type_symbol
_atom_site_label
_atom_site_fract_x
_atom_site_fract_y
_atom_site_fract_z
Si Si1 0.054672 0.333018 0.911070
Si Si2 0.303285 0.168143 0.038111
Si Si3 0.914795 0.667355 0.493062
Si Si4 0.439178 0.092098 0.647540
Si Si5 0.178070 0.908779 0.491274
Si Si6 0.682660 0.331297 0.106062
Si Si7 0.419785 0.925079 0.559224
Si Si8 0.800131 0.924633 0.571961
O O1 0.054859 0.250000 0.978691
O O2 0.074458 0.330588 0.705652
O O3 0.106541 0.380044 0.015317
O O4 0.982215 0.359165 0.919129
O O5 0.314884 0.250000 0.096467
O O6 0.231753 0.142595 0.073442
O O7 0.310344 0.167645 0.821915
O O8 0.355146 0.113241 0.118528
O O9 0.903234 0.750000 0.434033
O O10 0.854999 0.616099 0.462577
O O11 0.389759 0.147602 0.562522
O O12 0.514121 0.105339 0.634245
O O13 0.424361 0.090101 0.852979
O O14 0.422936 0.011361 0.581112
O O15 0.188846 0.908283 0.279233
O O16 0.192235 0.990204 0.549157
O O17 0.698857 0.250000 0.049277
O O18 0.731587 0.390397 0.031219
#
# Coordination Sequence:
#
# PCOD9360137 Si02
#       8
#     8   8   8   8   8   8   8   8
#     4   9  18  33  53  75  99 130 166 203 244 290
#     4   9  18  33  53  75  98 128 167 207 246 290
#     4   9  18  33  53  75  99 130 166 203 244 290
#     4  10  19  32  52  75 101 132 164 201 244 292
#     4  10  20  34  53  75 100 130 165 205 246 292
#     4   9  18  33  53  75  98 128 167 207 246 290
#     4  10  19  32  52  75 101 132 164 201 244 292
#     4  10  20  34  53  75 100 130 165 205 246 292
#
# _framework density 21.73039
#
# number of rings (size 3 to 8) (size 9 to 14) (size 15 to 20)
#    0.000    2.500    0.000    3.000    0.000    5.000 
#    0.000    3.750    0.000    7.500    0.000    0.000 
#    0.000    0.000    0.000    0.000    0.000    0.000 
#
# Total GULP energy -178667.584510 kJ/mol
# GULP energy per Si atom -5583.362016 kJ/mol
# Density = 2.168093 g / cm^3
# Si number density = 21.730390 Si / 1000 Ang^3
#
#
#
# Elastic Constant Matrix: (Units=GPa)
#
#
# Indices 1 2 3 4 5 6 
#
# 1 91.4945 26.5856 -8.3963 0.0000 0.0000 0.0000
# 2 26.5856 57.1878 -15.4074 0.0000 0.0000 0.0000
# 3 -8.3963 -15.4074 26.2534 0.0000 0.0000 0.0000
# 4 0.0000 0.0000 0.0000 18.1969 0.0000 0.0000
# 5 0.0000 0.0000 0.0000 0.0000 5.3155 0.0000
# 6 0.0000 0.0000 0.0000 0.0000 0.0000 43.3951
#
#
#
# Elastic Compliance Matrix: (Units=1/GPa)
#
#
# Indices 1 2 3 4 5 6 
#
# 1 0.012648 -0.005689 0.000706 0.000000 0.000000 0.000000
# 2 -0.005689 0.023330 0.011872 0.000000 0.000000 0.000000
# 3 0.000706 0.011872 0.045283 0.000000 0.000000 0.000000
# 4 0.000000 0.000000 0.000000 0.054954 0.000000 0.000000
# 5 0.000000 0.000000 0.000000 0.000000 0.188128 0.000000
# 6 0.000000 0.000000 0.000000 0.000000 0.000000 0.023044
#
#
# Mechanical properties :
#
#
# Convention : Reuss Voigt Hill
#
# Bulk Modulus (GPa) = 10.52216 20.05550 15.28883
# Shear Modulus (GPa) = 13.68780 24.85844 19.27312
#
# Velocity S-wave (km/s) = 2.51249 3.38590 2.98135
# Velocity P-wave (km/s) = 3.64273 4.95328 4.34767
#
# Compressibility (1/GPa) = 0.09503749
#
# Stress axis : x y z
#
# Youngs Moduli (GPa) = 79.06643 42.86385 22.08319
#
# Poissons Ratio (x) = 0.24387 -0.01559
# Poissons Ratio (y) = 0.44984 -0.26217
# Poissons Ratio (z) = -0.05582 -0.50888
#
# Static dielectric constant tensor:
#      x y z
#    x 1.840030 0.000000 0.000000 
#    y 0.000000 1.711350 0.000000 
#    z 0.000000 0.000000 1.842330 
# 
# From -- ./inp_files/4002.got.cif
#   From: 2010.05.17/outbox.cif.g08.bks.cpg/sg39_3_cif.got.tgz:4002.got - 2010.06.03 18:22:40.
