data_PCOD9360989
_publ_section_title
;
Structure prediction by ZEFSAII (Michael W. Deem and Ramdas Pophale) SiO2 
 PCOD9360989
Probable space group: A B M 2
;
_chemical_formula_sum "Si O2"
_cell_formula_units_Z 64
_cell_length_a 18.389408
_cell_length_b 13.872279
_cell_length_c 11.444041
_cell_angle_alpha 90.000000
_cell_angle_beta 90.000000
_cell_angle_gamma 90.000000
_cell_volume 2919.409173
_symmetry_space_group_name_H-M "A B M 2"
_symmetry_group_IT_number 39
_symmetry_cell_setting 'orthorhombic'
loop_
_space_group_symop_operation_xyz
x,y,z
-x,-y,z
-x,1/2+y,z
x,1/2-y,z
x,1/2+y,1/2+z
-x,1/2-y,1/2+z
-x,y,1/2+z
x,-y,1/2+z
loop_
_atom_site_type_symbol
_atom_site_label
_atom_site_fract_x
_atom_site_fract_y
_atom_site_fract_z
Si Si1 0.261317 0.645160 0.917160
Si Si2 0.420475 0.859831 0.844104
Si Si3 0.048112 0.145572 0.260676
Si Si4 0.746707 0.142225 0.180677
Si Si5 0.468574 0.137922 0.040580
Si Si6 0.841690 0.018173 0.339908
Si Si7 0.043419 0.098040 0.990495
Si Si8 0.400565 0.975707 0.154673
O O1 0.248087 0.750000 0.860668
O O2 0.348533 0.636478 0.924994
O O3 0.225223 0.554688 0.857287
O O4 0.229101 0.646730 0.046345
O O5 0.418302 0.750000 0.794748
O O6 0.413546 0.950118 0.760301
O O7 0.493938 0.867888 0.915501
O O8 0.084677 0.250000 0.280518
O O9 0.096462 0.051060 0.285275
O O10 0.987617 0.141702 0.366453
O O11 0.032176 0.144074 0.119840
O O12 0.727343 0.250000 0.219701
O O13 0.811793 0.099589 0.255388
O O14 0.674626 0.076994 0.178393
O O15 0.449574 0.250000 0.058062
O O16 0.406272 0.057185 0.051833
O O17 0.534785 0.100477 0.125827
O O18 0.874113 0.067818 0.456624
O O19 0.000000 0.000000 0.003514
#
# Coordination Sequence:
#
# PCOD9360989 Si02
#       8
#     8   8   8   8   8   8   8   8
#     4  10  20  37  62  87 120 164 207 257 320 394
#     4  10  20  38  61  87 120 157 203 257 319 390
#     4  11  23  41  67 100 139 181 228 280 332 394
#     4  11  23  40  63  89 123 166 212 263 324 397
#     4  10  22  39  61  87 118 158 204 260 321 385
#     4  11  22  40  64  96 130 171 224 272 333 388
#     4  10  22  41  65  95 137 183 227 278 332 394
#     4  11  21  37  63  88 116 156 206 259 319 382
#
# _framework density 21.922243000000002
#
# number of rings (size 3 to 8) (size 9 to 14) (size 15 to 20)
#    0.000    1.500    2.500    3.375    0.000    4.000 
#    0.000    2.500    0.000   11.250    0.000    0.000 
#    0.000    0.000    0.000    0.000    0.000    0.000 
#
# Total GULP energy -178243.215627 kJ/mol
# GULP energy per Si atom -5570.100488 kJ/mol
# Density = 2.187235 g / cm^3
# Si number density = 21.922243 Si / 1000 Ang^3
#
#
#
# Elastic Constant Matrix: (Units=GPa)
#
#
# Indices 1 2 3 4 5 6 
#
# 1 44.5511 24.6027 4.0079 0.0000 0.0000 0.0000
# 2 24.6027 148.7652 26.8982 0.0000 0.0000 0.0000
# 3 4.0079 26.8982 88.4516 0.0000 0.0000 0.0000
# 4 0.0000 0.0000 0.0000 115.6701 0.0000 0.0000
# 5 0.0000 0.0000 0.0000 0.0000 16.9731 0.0000
# 6 0.0000 0.0000 0.0000 0.0000 0.0000 38.5738
#
#
#
# Elastic Compliance Matrix: (Units=1/GPa)
#
#
# Indices 1 2 3 4 5 6 
#
# 1 0.024704 -0.004109 0.000130 0.000000 0.000000 0.000000
# 2 -0.004109 0.007797 -0.002185 0.000000 0.000000 0.000000
# 3 0.000130 -0.002185 0.011964 0.000000 0.000000 0.000000
# 4 0.000000 0.000000 0.000000 0.008645 0.000000 0.000000
# 5 0.000000 0.000000 0.000000 0.000000 0.058917 0.000000
# 6 0.000000 0.000000 0.000000 0.000000 0.000000 0.025924
#
#
# Mechanical properties :
#
#
# Convention : Reuss Voigt Hill
#
# Bulk Modulus (GPa) = 31.11669 43.64283 37.37976
# Shear Modulus (GPa) = 31.05780 49.32732 40.19256
#
# Velocity S-wave (km/s) = 3.76802 4.74867 4.28648
# Velocity P-wave (km/s) = 5.75809 7.07232 6.44877
#
# Compressibility (1/GPa) = 0.03213709
#
# Stress axis : x y z
#
# Youngs Moduli (GPa) = 40.47999 128.26152 83.58332
#
# Poissons Ratio (x) = 0.52703 -0.01088
# Poissons Ratio (y) = 0.16633 0.18261
# Poissons Ratio (z) = -0.00527 0.28022
#
# Static dielectric constant tensor:
#      x y z
#    x 1.804980 0.000000 0.000000 
#    y 0.000000 1.768240 0.000000 
#    z 0.000000 0.000000 1.896300 
# 
# From -- ./inp_files/6903.got.cif
#   From: 2010.05.17/outbox.cif.g08.bks.cpg/sg39_4_cif.got.tgz:6903.got - 2010.06.03 18:22:40.
