data_PCOD9360327
_publ_section_title
;
Structure prediction by ZEFSAII (Michael W. Deem and Ramdas Pophale) SiO2 
 PCOD9360327
Probable space group: A B M 2
;
_chemical_formula_sum "Si O2"
_cell_formula_units_Z 64
_cell_length_a 7.657385
_cell_length_b 13.866543
_cell_length_c 27.481148
_cell_angle_alpha 90.000000
_cell_angle_beta 90.000000
_cell_angle_gamma 90.000000
_cell_volume 2917.988372
_symmetry_space_group_name_H-M "A B M 2"
_symmetry_group_IT_number 39
_symmetry_cell_setting 'orthorhombic'
loop_
_space_group_symop_operation_xyz
x,y,z
-x,-y,z
-x,1/2+y,z
x,1/2-y,z
x,1/2+y,1/2+z
-x,1/2-y,1/2+z
-x,y,1/2+z
x,-y,1/2+z
loop_
_atom_site_type_symbol
_atom_site_label
_atom_site_fract_x
_atom_site_fract_y
_atom_site_fract_z
Si Si1 0.111662 0.640870 0.908470
Si Si2 0.849817 0.860283 0.053449
Si Si3 0.111657 0.861614 0.316020
Si Si4 0.226874 0.140160 0.242974
Si Si5 0.662657 0.949846 0.328153
Si Si6 0.734281 0.860831 0.578363
Si Si7 0.689670 0.479514 0.986473
Si Si8 0.206170 0.976655 0.646224
O O1 0.110449 0.750000 0.927128
O O2 0.254636 0.621854 0.866807
O O3 0.171371 0.570304 0.950821
O O4 0.944058 0.627151 0.873451
O O5 0.807597 0.750000 0.043837
O O6 0.764703 0.899316 0.103268
O O7 0.058664 0.867785 0.063578
O O8 0.783428 0.928263 0.010400
O O9 0.176325 0.750000 0.311077
O O10 0.949106 0.868108 0.277265
O O11 0.223956 0.958133 0.309550
O O12 0.232385 0.250000 0.225688
O O13 0.378109 0.113541 0.280917
O O14 0.243027 0.068018 0.198248
O O15 0.500000 0.000000 0.351718
O O16 0.689913 0.750000 0.585755
O O17 0.644968 0.908275 0.531669
O O18 0.705292 0.925834 0.626218
O O19 0.500000 0.500000 0.963800
O O20 0.000000 0.000000 0.647408
#
# Coordination Sequence:
#
# PCOD9360327 Si02
#       8
#     8   8   8   8   8   8   8   8
#     4  10  21  39  59  79 106 144 188 231 275 326
#     4   9  19  35  55  80 110 146 189 233 274 321
#     4   9  20  37  59  84 110 144 187 232 277 329
#     4  10  19  34  57  82 110 149 190 230 279 331
#     4  11  22  37  57  83 117 146 179 227 280 336
#     4   9  19  36  57  81 111 148 190 236 280 323
#     4  11  22  36  56  84 116 148 181 224 279 338
#     4   9  16  30  55  83 110 141 187 239 278 320
#
# _framework density 21.932918000000001
#
# number of rings (size 3 to 8) (size 9 to 14) (size 15 to 20)
#    0.000    2.250    0.000    5.625    0.000    4.500 
#    0.000    5.000    0.000    3.750    0.000    0.000 
#    0.000    0.000    0.000    0.000    0.000    0.000 
#
# Total GULP energy -178444.478210 kJ/mol
# GULP energy per Si atom -5576.389944 kJ/mol
# Density = 2.188300 g / cm^3
# Si number density = 21.932918 Si / 1000 Ang^3
#
#
#
# Elastic Constant Matrix: (Units=GPa)
#
#
# Indices 1 2 3 4 5 6 
#
# 1 18.9265 12.7645 -2.7198 0.0000 0.0000 0.0000
# 2 12.7645 143.7359 55.6551 0.0000 0.0000 0.0000
# 3 -2.7198 55.6551 128.6194 0.0000 0.0000 0.0000
# 4 0.0000 0.0000 0.0000 12.1057 0.0000 0.0000
# 5 0.0000 0.0000 0.0000 0.0000 -0.6570 0.0000
# 6 0.0000 0.0000 0.0000 0.0000 0.0000 14.0147
#
#
#
# Elastic Compliance Matrix: (Units=1/GPa)
#
#
# Indices 1 2 3 4 5 6 
#
# 1 0.057989 -0.006757 0.004150 0.000000 0.000000 0.000000
# 2 -0.006757 0.009145 -0.004100 0.000000 0.000000 0.000000
# 3 0.004150 -0.004100 0.009637 0.000000 0.000000 0.000000
# 4 0.000000 0.000000 0.000000 0.082606 0.000000 0.000000
# 5 0.000000 0.000000 0.000000 0.000000 -1.522173 0.000000
# 6 0.000000 0.000000 0.000000 0.000000 0.000000 0.071354
#
#
# Mechanical properties :
#
#
# Convention : Reuss Voigt Hill
#
# Bulk Modulus (GPa) = 15.78343 46.96459 31.37401
# Shear Modulus (GPa) = -3.97801 20.13147 8.07673
#
# Velocity S-wave (km/s) = -1.34820 3.03292 1.92106
# Velocity P-wave (km/s) = 2.18822 5.80725 4.38819
#
# Compressibility (1/GPa) = 0.06335757
#
# Stress axis : x y z
#
# Youngs Moduli (GPa) = 17.24455 109.35254 103.76978
#
# Poissons Ratio (x) = 0.73886 -0.43064
# Poissons Ratio (y) = 0.11652 0.42545
# Poissons Ratio (z) = -0.07156 0.44834
#
# Static dielectric constant tensor:
#      x y z
#    x 1.897480 0.000000 0.000000 
#    y 0.000000 1.798420 0.000000 
#    z 0.000000 0.000000 1.799590 
# 
# From -- ./inp_files/15730.got.cif
#   From: 2010.05.17/outbox.cif.g08.bks.cpg/sg39_8_cif.got.tgz:15730.got - 2010.06.03 18:22:40.
