data_PCOD9360490
_publ_section_title
;
Structure prediction by ZEFSAII (Michael W. Deem and Ramdas Pophale) SiO2 
 PCOD9360490
Probable space group: A B M 2
;
_chemical_formula_sum "Si O2"
_cell_formula_units_Z 56
_cell_length_a 15.830040
_cell_length_b 14.068004
_cell_length_c 9.785651
_cell_angle_alpha 90.000000
_cell_angle_beta 90.000000
_cell_angle_gamma 90.000000
_cell_volume 2179.235767
_symmetry_space_group_name_H-M "A B M 2"
_symmetry_group_IT_number 39
_symmetry_cell_setting 'orthorhombic'
loop_
_space_group_symop_operation_xyz
x,y,z
-x,-y,z
-x,1/2+y,z
x,1/2-y,z
x,1/2+y,1/2+z
-x,1/2-y,1/2+z
-x,y,1/2+z
x,-y,1/2+z
loop_
_atom_site_type_symbol
_atom_site_label
_atom_site_fract_x
_atom_site_fract_y
_atom_site_fract_z
Si Si1 0.363666 0.859164 0.101100
Si Si2 0.605836 0.364519 0.517338
Si Si3 0.919562 0.138958 0.994470
Si Si4 0.259598 0.140567 0.342430
Si Si5 0.249193 0.934253 0.321645
Si Si6 0.516083 0.365084 0.781975
Si Si7 0.929554 0.634219 0.801940
O O1 0.389268 0.750000 0.098373
O O2 0.281555 0.870249 0.196288
O O3 0.437758 0.904607 0.189483
O O4 0.338365 0.877314 0.945550
O O5 0.616909 0.250000 0.501882
O O6 0.684182 0.415136 0.443858
O O7 0.593008 0.385461 0.677496
O O8 0.520705 0.390981 0.431459
O O9 0.940795 0.250000 0.012324
O O10 0.825359 0.137088 0.935149
O O11 0.987243 0.104949 0.883777
O O12 0.928490 0.097588 0.145747
O O13 0.264052 0.250000 0.288082
O O14 0.249291 0.041663 0.264367
O O15 0.156329 0.904789 0.368117
O O16 0.518584 0.250000 0.788883
O O17 0.924437 0.750000 0.801563
#
# Coordination Sequence:
#
# PCOD9360490 Si02
#       7
#     8   8   8   8   8   8   8
#     4   9  17  36  64  87 116 164 213 250 309 392
#     4   9  17  32  58  94 129 162 207 258 321 386
#     4   9  19  37  63  91 126 171 211 257 317 381
#     4  10  21  39  59  84 122 169 217 264 315 379
#     4  11  20  34  62  94 120 163 216 266 310 377
#     4   8  15  29  56  89 122 159 198 248 312 384
#     4  10  19  37  65  96 129 166 212 262 317 383
#
# _framework density 25.697082000000002
#
# number of rings (size 3 to 8) (size 9 to 14) (size 15 to 20)
#    0.000    2.571    1.429    2.143    0.000    0.571 
#    2.571    3.571    0.000    6.857    0.000   10.000 
#    0.000    0.000    0.000    0.000    0.000    0.000 
#
# Total GULP energy -156376.490933 kJ/mol
# GULP energy per Si atom -5584.874676 kJ/mol
# Density = 2.563859 g / cm^3
# Si number density = 25.697082 Si / 1000 Ang^3
#
#
#
# Elastic Constant Matrix: (Units=GPa)
#
#
# Indices 1 2 3 4 5 6 
#
# 1 87.3723 -2.0698 18.7392 0.0000 0.0000 0.0000
# 2 -2.0698 121.4538 5.0842 0.0000 0.0000 0.0000
# 3 18.7392 5.0842 134.7265 0.0000 0.0000 0.0000
# 4 0.0000 0.0000 0.0000 -6.3794 0.0000 0.0000
# 5 0.0000 0.0000 0.0000 0.0000 39.5445 0.0000
# 6 0.0000 0.0000 0.0000 0.0000 0.0000 9.6125
#
#
#
# Elastic Compliance Matrix: (Units=1/GPa)
#
#
# Indices 1 2 3 4 5 6 
#
# 1 0.011806 0.000270 -0.001652 0.000000 0.000000 0.000000
# 2 0.000270 0.008253 -0.000349 0.000000 0.000000 0.000000
# 3 -0.001652 -0.000349 0.007665 0.000000 0.000000 0.000000
# 4 0.000000 0.000000 0.000000 -0.156754 0.000000 0.000000
# 5 0.000000 0.000000 0.000000 0.000000 0.025288 0.000000
# 6 0.000000 0.000000 0.000000 0.000000 0.000000 0.104032
#
#
# Mechanical properties :
#
#
# Convention : Reuss Voigt Hill
#
# Bulk Modulus (GPa) = 41.21618 43.00665 42.11142
# Shear Modulus (GPa) = 422.32756 30.00877 226.16817
#
# Velocity S-wave (km/s) = 12.83375 3.42100 9.39171
# Velocity P-wave (km/s) = 15.35191 5.69005 11.57708
#
# Compressibility (1/GPa) = 0.02426232
#
# Stress axis : x y z
#
# Youngs Moduli (GPa) = 84.70227 121.17092 130.45569
#
# Poissons Ratio (x) = -0.03276 0.21555
# Poissons Ratio (y) = -0.02290 0.04554
# Poissons Ratio (z) = 0.13996 0.04229
#
# Static dielectric constant tensor:
#      x y z
#    x 2.053900 0.000000 0.000000 
#    y 0.000000 2.069680 0.000000 
#    z 0.000000 0.000000 2.047960 
# 
# From -- ./inp_files/6499.got.cif
#   From: 2010.05.17/outbox.cif.g08.bks.cpg/sg39_4_cif.got.tgz:6499.got - 2010.06.03 18:22:40.
