data_PCOD9360178
_publ_section_title
;
Structure prediction by ZEFSAII (Michael W. Deem and Ramdas Pophale) SiO2 
 PCOD9360178
Probable space group: A B M 2
;
_chemical_formula_sum "Si O2"
_cell_formula_units_Z 56
_cell_length_a 5.333867
_cell_length_b 19.911027
_cell_length_c 23.128338
_cell_angle_alpha 90.000000
_cell_angle_beta 90.000000
_cell_angle_gamma 90.000000
_cell_volume 2456.293558
_symmetry_space_group_name_H-M "A B M 2"
_symmetry_group_IT_number 39
_symmetry_cell_setting 'orthorhombic'
loop_
_space_group_symop_operation_xyz
x,y,z
-x,-y,z
-x,1/2+y,z
x,1/2-y,z
x,1/2+y,1/2+z
-x,1/2-y,1/2+z
-x,y,1/2+z
x,-y,1/2+z
loop_
_atom_site_type_symbol
_atom_site_label
_atom_site_fract_x
_atom_site_fract_y
_atom_site_fract_z
Si Si1 0.731977 0.826975 0.095480
Si Si2 0.231632 0.828371 0.170644
Si Si3 0.141589 0.887113 0.289033
Si Si4 0.839797 0.326878 0.951959
Si Si5 0.361838 0.322507 0.328092
Si Si6 0.502200 0.075177 0.510115
Si Si7 0.182145 0.560128 0.403795
O O1 0.702780 0.750000 0.074448
O O2 0.497994 0.838913 0.139227
O O3 0.996470 0.832875 0.127441
O O4 0.701415 0.880265 0.044542
O O5 0.230631 0.750000 0.191943
O O6 0.183596 0.883142 0.220764
O O7 0.354933 0.834188 0.309105
O O8 0.215538 0.945332 0.334868
O O9 0.849701 0.872012 0.302619
O O10 0.896247 0.250000 0.969718
O O11 0.649484 0.321871 0.897512
O O12 0.732414 0.374251 0.002682
O O13 0.057050 0.368692 0.920442
O O14 0.274870 0.250000 0.306674
O O15 0.579453 0.061845 0.444037
O O16 0.500000 0.000000 0.536496
O O17 0.000000 0.500000 0.423010
#
# Coordination Sequence:
#
# PCOD9360178 Si02
#       7
#     8   8   8   8   8   8   8
#     4  10  24  43  66  96 130 171 229 288 339 393
#     4  10  21  41  66  95 131 172 222 285 343 394
#     4  11  21  37  63  93 130 174 218 267 332 409
#     4  10  22  38  61  96 133 171 221 274 331 402
#     4  10  19  32  55  93 130 163 206 259 320 394
#     4  12  24  43  68  93 131 183 227 278 341 414
#     4  11  24  42  64  98 138 184 220 272 345 412
#
# _framework density 22.798576000000001
#
# number of rings (size 3 to 8) (size 9 to 14) (size 15 to 20)
#    0.000    1.429    2.857    2.571    2.000    3.429 
#    0.000    1.429    0.000    0.000    0.000    0.000 
#    0.000    0.000    0.000    0.000    0.000    0.000 
#
# Total GULP energy -156078.701236 kJ/mol
# GULP energy per Si atom -5574.239330 kJ/mol
# Density = 2.274669 g / cm^3
# Si number density = 22.798576 Si / 1000 Ang^3
#
#
#
# Elastic Constant Matrix: (Units=GPa)
#
#
# Indices 1 2 3 4 5 6 
#
# 1 90.2975 25.2060 20.6997 0.0000 0.0000 0.0000
# 2 25.2060 116.8070 33.3505 0.0000 0.0000 0.0000
# 3 20.6997 33.3505 74.3048 0.0000 0.0000 0.0000
# 4 0.0000 0.0000 0.0000 21.0598 0.0000 0.0000
# 5 0.0000 0.0000 0.0000 0.0000 33.6506 0.0000
# 6 0.0000 0.0000 0.0000 0.0000 0.0000 22.0940
#
#
#
# Elastic Compliance Matrix: (Units=1/GPa)
#
#
# Indices 1 2 3 4 5 6 
#
# 1 0.012189 -0.001905 -0.002541 0.000000 0.000000 0.000000
# 2 -0.001905 0.010117 -0.004010 0.000000 0.000000 0.000000
# 3 -0.002541 -0.004010 0.015966 0.000000 0.000000 0.000000
# 4 0.000000 0.000000 0.000000 0.047484 0.000000 0.000000
# 5 0.000000 0.000000 0.000000 0.000000 0.029717 0.000000
# 6 0.000000 0.000000 0.000000 0.000000 0.000000 0.045261
#
#
# Mechanical properties :
#
#
# Convention : Reuss Voigt Hill
#
# Bulk Modulus (GPa) = 46.81592 48.88021 47.84806
# Shear Modulus (GPa) = 27.06139 28.83776 27.94958
#
# Velocity S-wave (km/s) = 3.44899 3.56039 3.50513
# Velocity P-wave (km/s) = 6.03655 6.19584 6.11671
#
# Compressibility (1/GPa) = 0.02136025
#
# Stress axis : x y z
#
# Youngs Moduli (GPa) = 82.04378 98.84165 62.63395
#
# Poissons Ratio (x) = 0.18828 0.15912
# Poissons Ratio (y) = 0.15628 0.25118
# Poissons Ratio (z) = 0.20844 0.39638
#
# Static dielectric constant tensor:
#      x y z
#    x 1.881730 0.000000 0.000000 
#    y 0.000000 1.968200 0.000000 
#    z 0.000000 0.000000 1.911960 
# 
# From -- ./inp_files/15295.got.cif
#   From: 2010.05.17/outbox.cif.g08.bks.cpg/sg39_8_cif.got.tgz:15295.got - 2010.06.03 18:22:40.
