data_PCOD9360133
_publ_section_title
;
Structure prediction by ZEFSAII (Michael W. Deem and Ramdas Pophale) SiO2 
 PCOD9360133
Probable space group: A B M 2
;
_chemical_formula_sum "Si O2"
_cell_formula_units_Z 56
_cell_length_a 15.432826
_cell_length_b 8.863473
_cell_length_c 20.302569
_cell_angle_alpha 90.000000
_cell_angle_beta 90.000000
_cell_angle_gamma 90.000000
_cell_volume 2777.156672
_symmetry_space_group_name_H-M "A B M 2"
_symmetry_group_IT_number 39
_symmetry_cell_setting 'orthorhombic'
loop_
_space_group_symop_operation_xyz
x,y,z
-x,-y,z
-x,1/2+y,z
x,1/2-y,z
x,1/2+y,1/2+z
-x,1/2-y,1/2+z
-x,y,1/2+z
x,-y,1/2+z
loop_
_atom_site_type_symbol
_atom_site_label
_atom_site_fract_x
_atom_site_fract_y
_atom_site_fract_z
Si Si1 0.227555 0.070120 0.437120
Si Si2 0.651463 0.078009 0.617858
Si Si3 0.827311 0.926980 0.582217
Si Si4 0.409199 0.928043 0.764910
Si Si5 0.227396 0.570586 0.302110
Si Si6 0.090807 0.428595 0.202433
Si Si7 0.589306 0.074769 0.472060
O O1 0.226449 0.250000 0.427171
O O2 0.176693 0.035486 0.504764
O O3 0.193907 0.984704 0.373060
O O4 0.326178 0.014486 0.448390
O O5 0.687820 0.250000 0.620461
O O6 0.601421 0.053700 0.685652
O O7 0.594531 0.069796 0.551976
O O8 0.730598 0.963581 0.608818
O O9 0.845896 0.750000 0.590215
O O10 0.890835 0.023545 0.627129
O O11 0.406885 0.750000 0.780027
O O12 0.500000 0.000000 0.785619
O O13 0.325278 0.009078 0.794697
O O14 0.226361 0.750000 0.296623
O O15 0.168313 0.497129 0.245835
O O16 0.089365 0.250000 0.209236
O O17 0.000000 0.500000 0.223779
O O18 0.594890 0.250000 0.451938
O O19 0.500000 0.000000 0.450183
#
# Coordination Sequence:
#
# PCOD9360133 Si02
#       7
#     8   8   8   8   8   8   8
#     4  10  22  40  62  88 122 166 209 255 314 374
#     4   9  18  32  53  81 118 161 204 256 315 370
#     4  10  20  37  64  95 125 159 203 253 309 372
#     4  11  22  36  56  86 124 170 217 266 318 373
#     4  12  25  43  65  93 129 170 215 264 318 379
#     4  12  25  44  71 101 132 165 206 257 315 378
#     4  10  19  32  51  80 116 159 211 263 315 370
#
# _framework density 20.164508000000001
#
# number of rings (size 3 to 8) (size 9 to 14) (size 15 to 20)
#    0.000    1.429    1.429    4.714    0.000    3.429 
#    0.000    3.571    0.000    3.429    0.000    0.000 
#    0.000    0.000    0.000    0.000    0.000    0.000 
#
# Total GULP energy -156574.200223 kJ/mol
# GULP energy per Si atom -5591.935722 kJ/mol
# Density = 2.011861 g / cm^3
# Si number density = 20.164508 Si / 1000 Ang^3
#
#
#
# Elastic Constant Matrix: (Units=GPa)
#
#
# Indices 1 2 3 4 5 6 
#
# 1 72.8547 44.7446 26.8541 0.0000 0.0000 0.0000
# 2 44.7446 144.6052 61.1479 0.0000 0.0000 0.0000
# 3 26.8541 61.1479 103.7095 0.0000 0.0000 0.0000
# 4 0.0000 0.0000 0.0000 11.5658 0.0000 0.0000
# 5 0.0000 0.0000 0.0000 0.0000 -3.0149 0.0000
# 6 0.0000 0.0000 0.0000 0.0000 0.0000 32.1244
#
#
#
# Elastic Compliance Matrix: (Units=1/GPa)
#
#
# Indices 1 2 3 4 5 6 
#
# 1 0.017182 -0.004576 -0.001751 0.000000 0.000000 0.000000
# 2 -0.004576 0.010431 -0.004965 0.000000 0.000000 0.000000
# 3 -0.001751 -0.004965 0.013023 0.000000 0.000000 0.000000
# 4 0.000000 0.000000 0.000000 0.086462 0.000000 0.000000
# 5 0.000000 0.000000 0.000000 0.000000 -0.331682 0.000000
# 6 0.000000 0.000000 0.000000 0.000000 0.000000 0.031129
#
#
# Mechanical properties :
#
#
# Convention : Reuss Voigt Hill
#
# Bulk Modulus (GPa) = 55.39701 65.18470 60.29085
# Shear Modulus (GPa) = -34.51755 20.69657 -6.91049
#
# Velocity S-wave (km/s) = -4.14188 3.20720 -1.85324
# Velocity P-wave (km/s) = 2.15839 6.79054 5.03836
#
# Compressibility (1/GPa) = 0.01805152
#
# Stress axis : x y z
#
# Youngs Moduli (GPa) = 58.20112 95.86844 76.78586
#
# Poissons Ratio (x) = 0.43871 0.13444
# Poissons Ratio (y) = 0.26634 0.38126
# Poissons Ratio (z) = 0.10190 0.47601
#
# Static dielectric constant tensor:
#      x y z
#    x 1.689060 0.000000 0.000000 
#    y 0.000000 1.681390 0.000000 
#    z 0.000000 0.000000 1.750590 
# 
# From -- ./inp_files/14796.got.cif
#   From: 2010.05.17/outbox.cif.g08.bks.cpg/sg39_8_cif.got.tgz:14796.got - 2010.06.03 18:22:40.
