data_PCOD9360069
_publ_section_title
;
Structure prediction by ZEFSAII (Michael W. Deem and Ramdas Pophale) SiO2 
 PCOD9360069
Probable space group: A B M 2
;
_chemical_formula_sum "Si O2"
_cell_formula_units_Z 64
_cell_length_a 15.149552
_cell_length_b 8.110465
_cell_length_c 25.699832
_cell_angle_alpha 90.000000
_cell_angle_beta 90.000000
_cell_angle_gamma 90.000000
_cell_volume 3157.736077
_symmetry_space_group_name_H-M "A B M 2"
_symmetry_group_IT_number 39
_symmetry_cell_setting 'orthorhombic'
loop_
_space_group_symop_operation_xyz
x,y,z
-x,-y,z
-x,1/2+y,z
x,1/2-y,z
x,1/2+y,1/2+z
-x,1/2-y,1/2+z
-x,y,1/2+z
x,-y,1/2+z
loop_
_atom_site_type_symbol
_atom_site_label
_atom_site_fract_x
_atom_site_fract_y
_atom_site_fract_z
Si Si1 0.838020 0.941321 0.615810
Si Si2 0.907020 0.948457 0.511656
Si Si3 0.365389 0.558623 0.083438
Si Si4 0.102379 0.550267 0.825263
Si Si5 0.404654 0.942594 0.697340
Si Si6 0.596352 0.948890 0.466682
Si Si7 0.222350 0.548619 0.922194
Si Si8 0.787080 0.445421 0.726657
O O1 0.860797 0.750000 0.625721
O O2 0.898103 0.014284 0.570295
O O3 0.740259 0.944131 0.590366
O O4 0.832613 0.029396 0.670792
O O5 0.902130 0.750000 0.514868
O O6 0.828966 0.003142 0.474258
O O7 0.000000 0.000000 0.488351
O O8 0.393967 0.750000 0.086317
O O9 0.400920 0.471284 0.134999
O O10 0.390805 0.491733 0.026673
O O11 0.102759 0.750000 0.825370
O O12 0.164253 0.494070 0.873200
O O13 0.151162 0.489669 0.772737
O O14 0.000000 0.500000 0.829103
O O15 0.400629 0.750000 0.706916
O O16 0.313154 0.016024 0.720810
O O17 0.500000 0.000000 0.716873
O O18 0.601468 0.750000 0.469289
O O19 0.676636 0.005171 0.429897
O O20 0.500000 0.000000 0.448332
O O21 0.222671 0.750000 0.920567
O O22 0.778209 0.250000 0.735773
#
# Coordination Sequence:
#
# PCOD9360069 Si02
#       8
#     8   8   8   8   8   8   8   8
#     4   9  17  31  51  74 104 141 174 208 255 312
#     4  10  19  32  51  77 105 136 172 210 258 317
#     4   9  16  29  49  72 102 140 178 211 249 303
#     4  10  21  39  62  82 101 133 177 223 268 314
#     4  10  19  31  48  73 106 141 177 214 254 304
#     4  10  19  32  51  76 106 140 175 212 256 310
#     4   9  18  36  58  76 103 140 175 213 262 317
#     4   9  20  36  53  76 106 137 174 217 262 311
#
# _framework density 20.267685
#
# number of rings (size 3 to 8) (size 9 to 14) (size 15 to 20)
#    0.000    2.500    1.250    1.125    0.000    3.500 
#    0.000    4.375    0.000    0.000    0.000    0.000 
#    0.000    0.000    0.000    0.000    0.000    0.000 
#
# Total GULP energy -178412.506468 kJ/mol
# GULP energy per Si atom -5575.390827 kJ/mol
# Density = 2.022155 g / cm^3
# Si number density = 20.267685 Si / 1000 Ang^3
#
#
#
# Elastic Constant Matrix: (Units=GPa)
#
#
# Indices 1 2 3 4 5 6 
#
# 1 160.7580 9.3965 83.2294 0.0000 0.0000 0.0000
# 2 9.3965 10.0344 7.6303 0.0000 0.0000 0.0000
# 3 83.2294 7.6303 116.3290 0.0000 0.0000 0.0000
# 4 0.0000 0.0000 0.0000 11.8251 0.0000 0.0000
# 5 0.0000 0.0000 0.0000 0.0000 18.0773 0.0000
# 6 0.0000 0.0000 0.0000 0.0000 0.0000 22.6192
#
#
#
# Elastic Compliance Matrix: (Units=1/GPa)
#
#
# Indices 1 2 3 4 5 6 
#
# 1 0.010042 -0.004147 -0.006913 0.000000 0.000000 0.000000
# 2 -0.004147 0.106602 -0.004025 0.000000 0.000000 0.000000
# 3 -0.006913 -0.004025 0.013806 0.000000 0.000000 0.000000
# 4 0.000000 0.000000 0.000000 0.084566 0.000000 0.000000
# 5 0.000000 0.000000 0.000000 0.000000 0.055318 0.000000
# 6 0.000000 0.000000 0.000000 0.000000 0.000000 0.044210
#
#
# Mechanical properties :
#
#
# Convention : Reuss Voigt Hill
#
# Bulk Modulus (GPa) = 9.97208 54.18152 32.07680
# Shear Modulus (GPa) = 13.22263 22.96202 18.09232
#
# Velocity S-wave (km/s) = 2.55698 3.36956 2.99100
# Velocity P-wave (km/s) = 3.69438 6.47531 5.27153
#
# Compressibility (1/GPa) = 0.10027998
#
# Stress axis : x y z
#
# Youngs Moduli (GPa) = 99.58428 9.38071 72.43236
#
# Poissons Ratio (x) = 0.03890 0.50069
# Poissons Ratio (y) = 0.41298 0.29155
# Poissons Ratio (z) = 0.68838 0.03776
#
# Static dielectric constant tensor:
#      x y z
#    x 1.763170 0.000000 0.000000 
#    y 0.000000 1.734390 0.000000 
#    z 0.000000 0.000000 1.715320 
# 
# From -- ./inp_files/16176.got.cif
#   From: 2010.05.17/outbox.cif.g08.bks.cpg/sg39_9_cif.got.tgz:16176.got - 2010.06.03 18:22:40.
