data_PCOD9360520
_publ_section_title
;
Structure prediction by ZEFSAII (Michael W. Deem and Ramdas Pophale) SiO2 
 PCOD9360520
Probable space group: A B M 2
;
_chemical_formula_sum "Si O2"
_cell_formula_units_Z 48
_cell_length_a 12.628455
_cell_length_b 14.879616
_cell_length_c 11.368398
_cell_angle_alpha 90.000000
_cell_angle_beta 90.000000
_cell_angle_gamma 90.000000
_cell_volume 2136.196573
_symmetry_space_group_name_H-M "A B M 2"
_symmetry_group_IT_number 39
_symmetry_cell_setting 'orthorhombic'
loop_
_space_group_symop_operation_xyz
x,y,z
-x,-y,z
-x,1/2+y,z
x,1/2-y,z
x,1/2+y,1/2+z
-x,1/2-y,1/2+z
-x,y,1/2+z
x,-y,1/2+z
loop_
_atom_site_type_symbol
_atom_site_label
_atom_site_fract_x
_atom_site_fract_y
_atom_site_fract_z
Si Si1 0.737904 0.594788 0.870180
Si Si2 0.679644 0.250000 0.222951
Si Si3 0.597593 0.066868 0.826003
Si Si4 0.253000 0.595727 0.629953
Si Si5 0.848424 0.750000 0.288449
Si Si6 0.101254 0.061029 0.678693
Si Si7 0.070734 0.750000 0.182763
Si Si8 0.351301 0.250000 0.448616
O O1 0.659704 0.657470 0.791880
O O2 0.693137 0.494177 0.876029
O O3 0.850986 0.586032 0.806310
O O4 0.743180 0.633801 0.999734
O O5 0.807677 0.250000 0.223470
O O6 0.642487 0.250000 0.089388
O O7 0.632844 0.085312 0.691281
O O8 0.595519 0.160770 0.894385
O O9 0.500000 0.000000 0.835915
O O10 0.188714 0.662244 0.715188
O O11 0.194433 0.499081 0.623404
O O12 0.772522 0.750000 0.403647
O O13 0.976176 0.750000 0.279465
O O14 0.066774 0.154073 0.617184
O O15 0.000000 0.000000 0.688744
#
# Coordination Sequence:
#
# PCOD9360520 Si02
#       8
#     8   4   8   8   4   8   4   4
#     4  10  23  40  65  95 138 175 220 284 343 407
#     4  10  23  45  62 102 143 182 227 278 344 410
#     4  10  24  44  72 101 126 172 232 279 352 415
#     4  10  21  40  64  92 136 175 218 290 337 405
#     4  10  19  40  61  95 130 177 234 272 340 398
#     4  10  20  37  56  90 132 179 230 271 335 402
#     4  10  20  36  57  89 132 176 237 273 319 403
#     4  10  24  45  72  98 143 179 226 297 353 409
#
# _framework density 22.469843000000001
#
# number of rings (size 3 to 8) (size 9 to 14) (size 15 to 20)
#    0.000    2.000    1.667    0.500    7.000    2.000 
#    6.000    0.833    0.000    0.000    0.000    0.000 
#    0.000    0.000    0.000    0.000    0.000    0.000 
#
# Total GULP energy -133841.580678 kJ/mol
# GULP energy per Si atom -5576.732528 kJ/mol
# Density = 2.241870 g / cm^3
# Si number density = 22.469843 Si / 1000 Ang^3
#
#
#
# Elastic Constant Matrix: (Units=GPa)
#
#
# Indices 1 2 3 4 5 6 
#
# 1 65.0924 35.7922 22.3017 0.0000 0.0000 0.0000
# 2 35.7922 192.1700 41.0462 0.0000 0.0000 0.0000
# 3 22.3017 41.0462 124.6123 0.0000 0.0000 0.0000
# 4 0.0000 0.0000 0.0000 12.0829 0.0000 0.0000
# 5 0.0000 0.0000 0.0000 0.0000 5.9729 0.0000
# 6 0.0000 0.0000 0.0000 0.0000 0.0000 -4.7421
#
#
#
# Elastic Compliance Matrix: (Units=1/GPa)
#
#
# Indices 1 2 3 4 5 6 
#
# 1 0.017677 -0.002815 -0.002236 0.000000 0.000000 0.000000
# 2 -0.002815 0.006046 -0.001488 0.000000 0.000000 0.000000
# 3 -0.002236 -0.001488 0.008915 0.000000 0.000000 0.000000
# 4 0.000000 0.000000 0.000000 0.082761 0.000000 0.000000
# 5 0.000000 0.000000 0.000000 0.000000 0.167422 0.000000
# 6 0.000000 0.000000 0.000000 0.000000 0.000000 -0.210876
#
#
# Mechanical properties :
#
#
# Convention : Reuss Voigt Hill
#
# Bulk Modulus (GPa) = 51.12463 64.46166 57.79315
# Shear Modulus (GPa) = 54.61945 21.51173 38.06559
#
# Velocity S-wave (km/s) = 4.93565 3.09748 4.12038
# Velocity P-wave (km/s) = 7.43524 6.44538 6.95793
#
# Compressibility (1/GPa) = 0.01956004
#
# Stress axis : x y z
#
# Youngs Moduli (GPa) = 56.57164 165.40634 112.16839
#
# Poissons Ratio (x) = 0.46556 0.25086
# Poissons Ratio (y) = 0.15923 0.16687
# Poissons Ratio (z) = 0.12652 0.24607
#
# Static dielectric constant tensor:
#      x y z
#    x 1.868380 0.000000 0.000000 
#    y 0.000000 1.935150 0.000000 
#    z 0.000000 0.000000 1.843680 
# 
# From -- ./inp_files/6455.got.cif
#   From: 2010.05.17/outbox.cif.g08.bks.cpg/sg39_4_cif.got.tgz:6455.got - 2010.06.03 18:22:40.
