data_PCOD9360718
_publ_section_title
;
Structure prediction by ZEFSAII (Michael W. Deem and Ramdas Pophale) SiO2 
 PCOD9360718
Probable space group: A B M 2
;
_chemical_formula_sum "Si O2"
_cell_formula_units_Z 64
_cell_length_a 14.353174
_cell_length_b 8.935851
_cell_length_c 28.816769
_cell_angle_alpha 90.000000
_cell_angle_beta 90.000000
_cell_angle_gamma 90.000000
_cell_volume 3695.976094
_symmetry_space_group_name_H-M "A B M 2"
_symmetry_group_IT_number 39
_symmetry_cell_setting 'orthorhombic'
loop_
_space_group_symop_operation_xyz
x,y,z
-x,-y,z
-x,1/2+y,z
x,1/2-y,z
x,1/2+y,1/2+z
-x,1/2-y,1/2+z
-x,y,1/2+z
x,-y,1/2+z
loop_
_atom_site_type_symbol
_atom_site_label
_atom_site_fract_x
_atom_site_fract_y
_atom_site_fract_z
Si Si1 0.260729 0.929379 0.646810
Si Si2 0.398790 0.429009 0.327450
Si Si3 0.399105 0.571893 0.075452
Si Si4 0.899105 0.571893 0.824815
Si Si5 0.760734 0.070621 0.753455
Si Si6 0.101210 0.570991 0.572813
Si Si7 0.759820 0.929185 0.500644
Si Si8 0.740175 0.429185 0.399621
O O1 0.275453 0.750000 0.645590
O O2 0.249996 0.975862 0.700133
O O3 0.167740 0.961418 0.616972
O O4 0.345588 0.007686 0.620285
O O5 0.500000 0.500000 0.321830
O O6 0.405258 0.250000 0.332635
O O7 0.332257 0.461418 0.283292
O O8 0.345925 0.499589 0.371576
O O9 0.500000 0.500000 0.070123
O O10 0.407434 0.750000 0.079308
O O11 0.331786 0.538055 0.031751
O O12 0.907435 0.750000 0.820960
O O13 0.845592 0.507686 0.779981
O O14 0.831784 0.538054 0.868515
O O15 0.000000 0.500000 0.830146
O O16 0.775458 0.250000 0.754675
O O17 0.094743 0.750000 0.567627
O O18 0.154078 0.500411 0.528687
O O19 0.000000 0.500000 0.578431
O O20 0.770612 0.750000 0.497853
O O21 0.749996 0.000000 0.450132
O O22 0.729383 0.250000 0.402411
#
# Coordination Sequence:
#
# PCOD9360718 Si02
#       8
#     8   8   8   8   8   8   8   8
#     4   9  19  36  56  79 108 141 177 218 264 313
#     4  10  20  35  55  78 107 141 177 219 265 314
#     4  10  21  36  55  79 107 140 177 218 263 313
#     4  10  21  36  55  79 107 140 177 218 263 313
#     4   9  19  36  56  79 108 141 177 218 264 313
#     4  10  20  35  55  78 107 141 177 219 265 314
#     4  10  21  37  56  79 107 139 177 219 265 316
#     4  10  21  37  56  79 107 139 177 219 265 316
#
# _framework density 17.316127999999999
#
# number of rings (size 3 to 8) (size 9 to 14) (size 15 to 20)
#    0.000    2.250    0.000    2.250    0.000    6.500 
#    0.000    5.000    0.000    0.000    0.000    0.000 
#    0.000    0.000    0.000    0.000    0.000    0.000 
#
# Total GULP energy -178656.238230 kJ/mol
# GULP energy per Si atom -5583.007445 kJ/mol
# Density = 1.727672 g / cm^3
# Si number density = 17.316128 Si / 1000 Ang^3
#
#
#
# Elastic Constant Matrix: (Units=GPa)
#
#
# Indices 1 2 3 4 5 6 
#
# 1 139.8617 64.5843 54.7436 0.0000 0.0000 0.0000
# 2 64.5843 63.0452 58.2852 0.0000 0.0000 0.0000
# 3 54.7436 58.2852 148.6799 0.0000 0.0000 0.0000
# 4 0.0000 0.0000 0.0000 28.3715 0.0000 0.0000
# 5 0.0000 0.0000 0.0000 0.0000 6.6863 0.0000
# 6 0.0000 0.0000 0.0000 0.0000 0.0000 35.7819
#
#
#
# Elastic Compliance Matrix: (Units=1/GPa)
#
#
# Indices 1 2 3 4 5 6 
#
# 1 0.013616 -0.014608 0.000713 0.000000 0.000000 0.000000
# 2 -0.014608 0.040550 -0.010518 0.000000 0.000000 0.000000
# 3 0.000713 -0.010518 0.010586 0.000000 0.000000 0.000000
# 4 0.000000 0.000000 0.000000 0.035247 0.000000 0.000000
# 5 0.000000 0.000000 0.000000 0.000000 0.149560 0.000000
# 6 0.000000 0.000000 0.000000 0.000000 0.000000 0.027947
#
#
# Mechanical properties :
#
#
# Convention : Reuss Voigt Hill
#
# Bulk Modulus (GPa) = 62.78462 78.53479 70.65971
# Shear Modulus (GPa) = 15.07654 25.76617 20.42135
#
# Velocity S-wave (km/s) = 2.95390 3.86163 3.43786
# Velocity P-wave (km/s) = 6.92609 8.08300 7.52680
#
# Compressibility (1/GPa) = 0.01592747
#
# Stress axis : x y z
#
# Youngs Moduli (GPa) = 73.44086 24.66103 94.46087
#
# Poissons Ratio (x) = 0.36025 -0.06736
# Poissons Ratio (y) = 1.07283 0.99350
# Poissons Ratio (z) = -0.05237 0.25937
#
# Static dielectric constant tensor:
#      x y z
#    x 1.558220 0.000000 0.000000 
#    y 0.000000 1.573660 0.000000 
#    z 0.000000 0.000000 1.565560 
# 
# From -- ./inp_files/17860.got.cif
#   From: 2010.05.17/outbox.cif.g08.bks.cpg/sg39_9_cif.got.tgz:17860.got - 2010.06.03 18:22:40.
