data_PCOD9360881
_publ_section_title
;
Structure prediction by ZEFSAII (Michael W. Deem and Ramdas Pophale) SiO2 
 PCOD9360881
Probable space group: A B M 2
;
_chemical_formula_sum "Si O2"
_cell_formula_units_Z 64
_cell_length_a 10.226306
_cell_length_b 13.923160
_cell_length_c 23.342027
_cell_angle_alpha 90.000000
_cell_angle_beta 90.000000
_cell_angle_gamma 90.000000
_cell_volume 3323.496034
_symmetry_space_group_name_H-M "A B M 2"
_symmetry_group_IT_number 39
_symmetry_cell_setting 'orthorhombic'
loop_
_space_group_symop_operation_xyz
x,y,z
-x,-y,z
-x,1/2+y,z
x,1/2-y,z
x,1/2+y,1/2+z
-x,1/2-y,1/2+z
-x,y,1/2+z
x,-y,1/2+z
loop_
_atom_site_type_symbol
_atom_site_label
_atom_site_fract_x
_atom_site_fract_y
_atom_site_fract_z
Si Si1 0.303536 0.067865 0.875000
Si Si2 0.092412 0.861904 0.026783
Si Si3 0.802802 0.440020 0.498736
Si Si4 0.026260 0.862885 0.153844
Si Si5 0.591508 0.356386 0.850491
Si Si6 0.259148 0.363794 0.114898
Si Si7 0.380630 0.574541 0.728150
Si Si8 0.134226 0.952092 0.269814
O O1 0.442901 0.118448 0.867056
O O2 0.205460 0.097528 0.823696
O O3 0.326830 0.951447 0.869294
O O4 0.250031 0.090909 0.937572
O O5 0.118408 0.750000 0.013986
O O6 0.106870 0.877621 0.095445
O O7 0.941899 0.887992 0.011377
O O8 0.175684 0.945122 0.997415
O O9 0.715978 0.413245 0.553973
O O10 0.008155 0.750000 0.159992
O O11 0.087719 0.896748 0.212949
O O12 0.881316 0.901767 0.139118
O O13 0.631102 0.250000 0.871592
O O14 0.595036 0.355605 0.781301
O O15 0.247267 0.250000 0.104571
O O16 0.361301 0.381760 0.165528
O O17 0.500000 0.500000 0.728139
O O18 0.245657 0.523006 0.746094
O O19 0.000000 0.000000 0.291831
#
# Coordination Sequence:
#
# PCOD9360881 Si02
#       8
#     8   8   8   8   8   8   8   8
#     4  10  23  40  58  89 114 158 208 244 294 368
#     4   9  19  34  55  86 120 158 199 244 311 368
#     4  10  20  36  60  80 121 164 200 251 295 352
#     4   9  18  33  54  87 119 147 190 242 303 362
#     4  10  21  42  64  81 113 158 199 251 310 366
#     4  10  20  36  61  91 118 156 204 246 304 373
#     4  11  20  39  59  90 121 154 199 244 307 366
#     4  11  20  34  60  84 120 154 194 240 301 352
#
# _framework density 19.256830000000001
#
# number of rings (size 3 to 8) (size 9 to 14) (size 15 to 20)
#    0.000    2.000    3.750    2.250    3.500    2.000 
#    2.250    0.000    0.000    0.750    0.000    0.000 
#    0.000    0.000    0.000    0.000    0.000    0.000 
#
# Total GULP energy -178320.943307 kJ/mol
# GULP energy per Si atom -5572.529478 kJ/mol
# Density = 1.921300 g / cm^3
# Si number density = 19.256830 Si / 1000 Ang^3
#
#
#
# Elastic Constant Matrix: (Units=GPa)
#
#
# Indices 1 2 3 4 5 6 
#
# 1 49.8824 6.1637 27.4457 0.0000 0.0000 0.0000
# 2 6.1637 72.7502 12.6602 0.0000 0.0000 0.0000
# 3 27.4457 12.6602 148.2000 0.0000 0.0000 0.0000
# 4 0.0000 0.0000 0.0000 9.5647 0.0000 0.0000
# 5 0.0000 0.0000 0.0000 0.0000 31.2424 0.0000
# 6 0.0000 0.0000 0.0000 0.0000 0.0000 3.4465
#
#
#
# Elastic Compliance Matrix: (Units=1/GPa)
#
#
# Indices 1 2 3 4 5 6 
#
# 1 0.022423 -0.001195 -0.004051 0.000000 0.000000 0.000000
# 2 -0.001195 0.014017 -0.000976 0.000000 0.000000 0.000000
# 3 -0.004051 -0.000976 0.007581 0.000000 0.000000 0.000000
# 4 0.000000 0.000000 0.000000 0.104552 0.000000 0.000000
# 5 0.000000 0.000000 0.000000 0.000000 0.032008 0.000000
# 6 0.000000 0.000000 0.000000 0.000000 0.000000 0.290150
#
#
# Mechanical properties :
#
#
# Convention : Reuss Voigt Hill
#
# Bulk Modulus (GPa) = 31.66746 40.37463 36.02105
# Shear Modulus (GPa) = 10.12760 23.82158 16.97459
#
# Velocity S-wave (km/s) = 2.29579 3.52098 2.97220
# Velocity P-wave (km/s) = 4.84851 6.12712 5.52493
#
# Compressibility (1/GPa) = 0.03157816
#
# Stress axis : x y z
#
# Youngs Moduli (GPa) = 44.59611 71.34313 131.90576
#
# Poissons Ratio (x) = 0.08525 0.53430
# Poissons Ratio (y) = 0.05329 0.12875
# Poissons Ratio (z) = 0.18064 0.06964
#
# Static dielectric constant tensor:
#      x y z
#    x 1.658610 0.000000 0.000000 
#    y 0.000000 1.699870 0.000000 
#    z 0.000000 0.000000 1.683070 
# 
# From -- ./inp_files/15729.got.cif
#   From: 2010.05.17/outbox.cif.g08.bks.cpg/sg39_8_cif.got.tgz:15729.got - 2010.06.03 18:22:40.
