data_PCOD9360800
_publ_section_title
;
Structure prediction by ZEFSAII (Michael W. Deem and Ramdas Pophale) SiO2 
 PCOD9360800
Probable space group: A B M 2
;
_chemical_formula_sum "Si O2"
_cell_formula_units_Z 64
_cell_length_a 24.252659
_cell_length_b 8.948902
_cell_length_c 15.747005
_cell_angle_alpha 90.000000
_cell_angle_beta 90.000000
_cell_angle_gamma 90.000000
_cell_volume 3417.646012
_symmetry_space_group_name_H-M "A B M 2"
_symmetry_group_IT_number 39
_symmetry_cell_setting 'orthorhombic'
loop_
_space_group_symop_operation_xyz
x,y,z
-x,-y,z
-x,1/2+y,z
x,1/2-y,z
x,1/2+y,1/2+z
-x,1/2-y,1/2+z
-x,y,1/2+z
x,-y,1/2+z
loop_
_atom_site_type_symbol
_atom_site_label
_atom_site_fract_x
_atom_site_fract_y
_atom_site_fract_z
Si Si1 0.245762 0.926710 0.151520
Si Si2 0.134872 0.571523 0.914823
Si Si3 0.560148 0.428955 0.756618
Si Si4 0.753474 0.073423 0.354907
Si Si5 0.939823 0.429984 0.753873
Si Si6 0.867470 0.071024 0.591257
Si Si7 0.370929 0.070757 0.907773
Si Si8 0.639267 0.929458 0.099735
O O1 0.241657 0.250000 0.634756
O O2 0.193270 0.009989 0.112847
O O3 0.302543 0.991054 0.115213
O O4 0.245907 0.949112 0.253404
O O5 0.133667 0.750000 0.922433
O O6 0.197079 0.517864 0.896418
O O7 0.097291 0.526258 0.834775
O O8 0.114900 0.496924 0.001585
O O9 0.500000 0.500000 0.750069
O O10 0.555986 0.250000 0.759471
O O11 0.590750 0.488269 0.840551
O O12 0.597382 0.470318 0.674910
O O13 0.762180 0.250000 0.371992
O O14 0.693084 0.032761 0.389274
O O15 0.944145 0.250000 0.754274
O O16 0.907806 0.473945 0.668025
O O17 0.000000 0.500000 0.757919
O O18 0.865925 0.250000 0.586693
O O19 0.376583 0.250000 0.895756
O O20 0.382900 0.034451 0.005848
O O21 0.648038 0.750000 0.102644
#
# Coordination Sequence:
#
# PCOD9360800 Si02
#       8
#     8   8   8   8   8   8   8   8
#     4  11  21  35  61  95 124 158 200 244 296 355
#     4  11  23  40  62  92 123 157 201 248 297 359
#     4  11  24  41  61  86 116 156 202 248 298 350
#     4  10  20  35  60  92 125 161 195 240 301 357
#     4  10  24  43  63  86 118 158 203 251 302 354
#     4  11  23  41  62  89 123 161 199 245 302 358
#     4  10  21  40  62  88 121 155 195 242 294 354
#     4  10  22  39  62  90 122 160 197 240 299 357
#
# _framework density 18.726341000000001
#
# number of rings (size 3 to 8) (size 9 to 14) (size 15 to 20)
#    0.000    1.500    2.500    2.250    0.000    6.000 
#    0.000    3.750    0.000    0.000    0.000    0.000 
#    0.000    0.000    0.000    0.000    0.000    0.000 
#
# Total GULP energy -178906.877380 kJ/mol
# GULP energy per Si atom -5590.839918 kJ/mol
# Density = 1.868372 g / cm^3
# Si number density = 18.726341 Si / 1000 Ang^3
#
#
#
# Elastic Constant Matrix: (Units=GPa)
#
#
# Indices 1 2 3 4 5 6 
#
# 1 103.6791 32.2883 44.5623 0.0000 0.0000 0.0000
# 2 32.2883 37.8828 44.2101 0.0000 0.0000 0.0000
# 3 44.5623 44.2101 127.6839 0.0000 0.0000 0.0000
# 4 0.0000 0.0000 0.0000 11.2556 0.0000 0.0000
# 5 0.0000 0.0000 0.0000 0.0000 -0.3591 0.0000
# 6 0.0000 0.0000 0.0000 0.0000 0.0000 31.4995
#
#
#
# Elastic Compliance Matrix: (Units=1/GPa)
#
#
# Indices 1 2 3 4 5 6 
#
# 1 0.013239 -0.009886 -0.001197 0.000000 0.000000 0.000000
# 2 -0.009886 0.051679 -0.014443 0.000000 0.000000 0.000000
# 3 -0.001197 -0.014443 0.013251 0.000000 0.000000 0.000000
# 4 0.000000 0.000000 0.000000 0.088845 0.000000 0.000000
# 5 0.000000 0.000000 0.000000 0.000000 -2.784655 0.000000
# 6 0.000000 0.000000 0.000000 0.000000 0.000000 0.031746
#
#
# Mechanical properties :
#
#
# Convention : Reuss Voigt Hill
#
# Bulk Modulus (GPa) = 36.88045 56.81859 46.84952
# Shear Modulus (GPa) = -1.97957 18.35820 8.18931
#
# Velocity S-wave (km/s) = -1.02927 3.13444 2.09348
# Velocity P-wave (km/s) = 4.28073 6.59598 5.56020
#
# Compressibility (1/GPa) = 0.02711464
#
# Stress axis : x y z
#
# Youngs Moduli (GPa) = 75.53677 19.35009 75.46791
#
# Poissons Ratio (x) = 0.19130 0.09035
# Poissons Ratio (y) = 0.74678 1.09001
# Poissons Ratio (z) = 0.09043 0.27948
#
# Static dielectric constant tensor:
#      x y z
#    x 1.601620 0.000000 0.000000 
#    y 0.000000 1.629320 0.000000 
#    z 0.000000 0.000000 1.653080 
# 
# From -- ./inp_files/10571.got.cif
#   From: 2010.05.17/outbox.cif.g08.bks.cpg/sg39_6_cif.got.tgz:10571.got - 2010.06.03 18:22:40.
