data_PCOD9360822
_publ_section_title
;
Structure prediction by ZEFSAII (Michael W. Deem and Ramdas Pophale) SiO2 
 PCOD9360822
Probable space group: A B M 2
;
_chemical_formula_sum "Si O2"
_cell_formula_units_Z 64
_cell_length_a 21.711395
_cell_length_b 9.121602
_cell_length_c 14.776192
_cell_angle_alpha 90.000000
_cell_angle_beta 90.000000
_cell_angle_gamma 90.000000
_cell_volume 2926.317019
_symmetry_space_group_name_H-M "A B M 2"
_symmetry_group_IT_number 39
_symmetry_cell_setting 'orthorhombic'
loop_
_space_group_symop_operation_xyz
x,y,z
-x,-y,z
-x,1/2+y,z
x,1/2-y,z
x,1/2+y,1/2+z
-x,1/2-y,1/2+z
-x,y,1/2+z
x,-y,1/2+z
loop_
_atom_site_type_symbol
_atom_site_label
_atom_site_fract_x
_atom_site_fract_y
_atom_site_fract_z
Si Si1 0.689681 0.420429 0.901490
Si Si2 0.937827 0.918255 0.393369
Si Si3 0.820132 0.586126 0.115006
Si Si4 0.444375 0.921651 0.658455
Si Si5 0.691239 0.581344 0.077795
Si Si6 0.562220 0.924953 0.850592
Si Si7 0.060971 0.585192 0.114933
Si Si8 0.186502 0.580737 0.393231
O O1 0.684887 0.250000 0.876436
O O2 0.626518 0.506878 0.882908
O O3 0.751566 0.496376 0.864047
O O4 0.696843 0.447926 0.008492
O O5 0.937590 0.750000 0.363917
O O6 0.938017 0.918335 0.504217
O O7 0.875854 0.000419 0.364125
O O8 0.000000 0.000000 0.365120
O O9 0.839395 0.750000 0.139457
O O10 0.749355 0.564331 0.144589
O O11 0.873711 0.479380 0.144721
O O12 0.815966 0.579304 0.004334
O O13 0.458541 0.750000 0.678892
O O14 0.377263 0.922202 0.615215
O O15 0.500000 0.000000 0.604599
O O16 0.438825 0.024517 0.746199
O O17 0.698595 0.750000 0.039090
O O18 0.560628 0.750000 0.863136
O O19 0.500000 0.000000 0.889513
O O20 0.055314 0.750000 0.145696
O O21 0.000000 0.500000 0.143254
O O22 0.187995 0.750000 0.365217
#
# Coordination Sequence:
#
# PCOD9360822 Si02
#       8
#     8   8   8   8   8   8   8   8
#     4  11  21  33  51  75 102 132 167 205 247 296
#     4   9  15  22  33  52  79 115 157 197 238 286
#     4   8  14  25  39  56  82 117 153 190 234 280
#     4  10  20  36  56  77 101 129 162 199 242 291
#     4   9  19  34  51  72 101 134 165 201 246 294
#     4  11  22  38  57  76 100 129 163 202 246 293
#     4   9  15  21  31  49  75 110 150 190 230 276
#     4   9  16  27  41  59  87 122 158 198 244 290
#
# _framework density 21.870494999999998
#
# number of rings (size 3 to 8) (size 9 to 14) (size 15 to 20)
#    0.000    2.500    0.000    5.250    0.000    7.500 
#    0.000    1.250    0.000    0.000    0.000    0.000 
#    0.000    1.000    0.000    8.500    0.000   13.500 
#
# Total GULP energy -178508.278657 kJ/mol
# GULP energy per Si atom -5578.383708 kJ/mol
# Density = 2.182072 g / cm^3
# Si number density = 21.870495 Si / 1000 Ang^3
#
#
#
# Elastic Constant Matrix: (Units=GPa)
#
#
# Indices 1 2 3 4 5 6 
#
# 1 236.8271 136.2974 3.3876 0.0000 0.0000 0.0000
# 2 136.2974 208.4929 10.7065 0.0000 0.0000 0.0000
# 3 3.3876 10.7065 29.9419 0.0000 0.0000 0.0000
# 4 0.0000 0.0000 0.0000 21.9960 0.0000 0.0000
# 5 0.0000 0.0000 0.0000 0.0000 60.2284 0.0000
# 6 0.0000 0.0000 0.0000 0.0000 0.0000 44.1178
#
#
#
# Elastic Compliance Matrix: (Units=1/GPa)
#
#
# Indices 1 2 3 4 5 6 
#
# 1 0.006790 -0.004481 0.000834 0.000000 0.000000 0.000000
# 2 -0.004481 0.007844 -0.002298 0.000000 0.000000 0.000000
# 3 0.000834 -0.002298 0.034125 0.000000 0.000000 0.000000
# 4 0.000000 0.000000 0.000000 0.045463 0.000000 0.000000
# 5 0.000000 0.000000 0.000000 0.000000 0.016603 0.000000
# 6 0.000000 0.000000 0.000000 0.000000 0.000000 0.022667
#
#
# Mechanical properties :
#
#
# Convention : Reuss Voigt Hill
#
# Bulk Modulus (GPa) = 27.12308 86.22722 56.67515
# Shear Modulus (GPa) = 31.71155 46.92646 39.31900
#
# Velocity S-wave (km/s) = 3.81198 4.63714 4.24466
# Velocity P-wave (km/s) = 5.63946 8.25728 7.07058
#
# Compressibility (1/GPa) = 0.03686897
#
# Stress axis : x y z
#
# Youngs Moduli (GPa) = 147.28203 127.48652 29.30385
#
# Poissons Ratio (x) = 0.57132 -0.02445
# Poissons Ratio (y) = 0.66004 0.06733
# Poissons Ratio (z) = -0.12287 0.29294
#
# Static dielectric constant tensor:
#      x y z
#    x 1.858320 0.000000 0.000000 
#    y 0.000000 1.743710 0.000000 
#    z 0.000000 0.000000 1.913150 
# 
# From -- ./inp_files/13166.got.cif
#   From: 2010.05.17/outbox.cif.g08.bks.cpg/sg39_7_cif.got.tgz:13166.got - 2010.06.03 18:22:40.
