data_PCOD9360117
_publ_section_title
;
Structure prediction by ZEFSAII (Michael W. Deem and Ramdas Pophale) SiO2 
 PCOD9360117
Probable space group: A B M 2
;
_chemical_formula_sum "Si O2"
_cell_formula_units_Z 64
_cell_length_a 14.605854
_cell_length_b 8.672520
_cell_length_c 32.135876
_cell_angle_alpha 90.000000
_cell_angle_beta 90.000000
_cell_angle_gamma 90.000000
_cell_volume 4070.637303
_symmetry_space_group_name_H-M "A B M 2"
_symmetry_group_IT_number 39
_symmetry_cell_setting 'orthorhombic'
loop_
_space_group_symop_operation_xyz
x,y,z
-x,-y,z
-x,1/2+y,z
x,1/2-y,z
x,1/2+y,1/2+z
-x,1/2-y,1/2+z
-x,y,1/2+z
x,-y,1/2+z
loop_
_atom_site_type_symbol
_atom_site_label
_atom_site_fract_x
_atom_site_fract_y
_atom_site_fract_z
Si Si1 0.896625 0.934835 0.537700
Si Si2 0.208367 0.563771 0.211887
Si Si3 0.784030 0.064776 0.369543
Si Si4 0.598154 0.434211 0.839662
Si Si5 0.596882 0.434800 0.246392
Si Si6 0.102467 0.565697 0.791573
Si Si7 0.102941 0.934389 0.451772
Si Si8 0.102948 0.564077 0.129394
O O1 0.898392 0.750000 0.534441
O O2 0.859637 0.978467 0.583415
O O3 0.856427 0.003351 0.495305
O O4 0.000000 0.000000 0.538299
O O5 0.199464 0.750000 0.215339
O O6 0.315228 0.526633 0.218475
O O7 0.151699 0.488723 0.249363
O O8 0.166248 0.515124 0.167732
O O9 0.779935 0.250000 0.366353
O O10 0.835907 0.023142 0.412117
O O11 0.682528 0.996285 0.366396
O O12 0.841197 0.000024 0.330601
O O13 0.500000 0.500000 0.853422
O O14 0.596314 0.250000 0.839256
O O15 0.612220 0.494876 0.792366
O O16 0.500000 0.500000 0.230943
O O17 0.590687 0.250000 0.250492
O O18 0.100606 0.750000 0.793556
O O19 0.000000 0.500000 0.792604
O O20 0.096311 0.750000 0.454046
O O21 0.000000 0.000000 0.446648
O O22 0.096673 0.750000 0.130203
O O23 0.000000 0.500000 0.134297
#
# Coordination Sequence:
#
# PCOD9360117 Si02
#       8
#     8   8   8   8   8   8   8   8
#     4   9  16  28  47  68  94 123 159 201 242 289
#     4  10  20  34  50  69  97 130 164 202 243 288
#     4  11  22  36  51  71  98 129 165 204 244 290
#     4  11  21  34  53  74  97 126 162 204 247 293
#     4  10  19  32  51  70  95 126 161 205 248 288
#     4  12  24  35  48  67  96 133 169 201 237 286
#     4  10  20  32  49  71  98 129 163 201 243 290
#     4   9  18  31  47  70  96 128 163 198 241 287
#
# _framework density 15.722353999999999
#
# number of rings (size 3 to 8) (size 9 to 14) (size 15 to 20)
#    0.000    1.750    1.250    6.000    0.000    5.500 
#    0.000    0.000    0.000    0.000    0.000    0.875 
#    0.000    4.000    0.000    0.000    0.000    0.000 
#
# Total GULP energy -178570.546610 kJ/mol
# GULP energy per Si atom -5580.329582 kJ/mol
# Density = 1.568657 g / cm^3
# Si number density = 15.722354 Si / 1000 Ang^3
#
#
#
# Elastic Constant Matrix: (Units=GPa)
#
#
# Indices 1 2 3 4 5 6 
#
# 1 119.9179 44.0524 75.3516 0.0000 0.0000 0.0000
# 2 44.0524 65.0515 49.6547 0.0000 0.0000 0.0000
# 3 75.3516 49.6547 150.6703 0.0000 0.0000 0.0000
# 4 0.0000 0.0000 0.0000 17.7553 0.0000 0.0000
# 5 0.0000 0.0000 0.0000 0.0000 6.8533 0.0000
# 6 0.0000 0.0000 0.0000 0.0000 0.0000 24.4726
#
#
#
# Elastic Compliance Matrix: (Units=1/GPa)
#
#
# Indices 1 2 3 4 5 6 
#
# 1 0.013396 -0.005288 -0.004957 0.000000 0.000000 0.000000
# 2 -0.005288 0.022627 -0.004812 0.000000 0.000000 0.000000
# 3 -0.004957 -0.004812 0.010702 0.000000 0.000000 0.000000
# 4 0.000000 0.000000 0.000000 0.056321 0.000000 0.000000
# 5 0.000000 0.000000 0.000000 0.000000 0.145915 0.000000
# 6 0.000000 0.000000 0.000000 0.000000 0.000000 0.040862
#
#
# Mechanical properties :
#
#
# Convention : Reuss Voigt Hill
#
# Bulk Modulus (GPa) = 60.20293 74.86189 67.53241
# Shear Modulus (GPa) = 15.36217 20.92164 18.14191
#
# Velocity S-wave (km/s) = 3.12924 3.65183 3.40058
# Velocity P-wave (km/s) = 7.17151 8.09317 7.64624
#
# Compressibility (1/GPa) = 0.01661049
#
# Stress axis : x y z
#
# Youngs Moduli (GPa) = 74.64688 44.19535 93.44175
#
# Poissons Ratio (x) = 0.23372 0.46318
# Poissons Ratio (y) = 0.39476 0.44965
# Poissons Ratio (z) = 0.37001 0.21267
#
# Static dielectric constant tensor:
#      x y z
#    x 1.500140 0.000000 0.000000 
#    y 0.000000 1.531170 0.000000 
#    z 0.000000 0.000000 1.537510 
# 
# From -- ./inp_files/17996.got.cif
#   From: 2010.05.17/outbox.cif.g08.bks.cpg/sg39_9_cif.got.tgz:17996.got - 2010.06.03 18:22:40.
