data_PCOD9360576
_publ_section_title
;
Structure prediction by ZEFSAII (Michael W. Deem and Ramdas Pophale) SiO2 
 PCOD9360576
Probable space group: A B M 2
;
_chemical_formula_sum "Si O2"
_cell_formula_units_Z 44
_cell_length_a 9.207361
_cell_length_b 14.334370
_cell_length_c 19.203506
_cell_angle_alpha 90.000000
_cell_angle_beta 90.000000
_cell_angle_gamma 90.000000
_cell_volume 2534.511738
_symmetry_space_group_name_H-M "A B M 2"
_symmetry_group_IT_number 39
_symmetry_cell_setting 'orthorhombic'
loop_
_space_group_symop_operation_xyz
x,y,z
-x,-y,z
-x,1/2+y,z
x,1/2-y,z
x,1/2+y,1/2+z
-x,1/2-y,1/2+z
-x,y,1/2+z
x,-y,1/2+z
loop_
_atom_site_type_symbol
_atom_site_label
_atom_site_fract_x
_atom_site_fract_y
_atom_site_fract_z
Si Si1 0.652430 0.750000 0.689700
Si Si2 0.919183 0.098017 0.979087
Si Si3 0.431805 0.750000 0.349777
Si Si4 0.510086 0.389326 0.593659
Si Si5 0.077988 0.750000 0.101523
Si Si6 0.130537 0.750000 0.431180
Si Si7 0.414367 0.096952 0.439728
Si Si8 0.759864 0.750000 0.089541
O O1 0.595680 0.750000 0.767769
O O2 0.589716 0.660188 0.649860
O O3 0.820104 0.750000 0.668376
O O4 0.759835 0.085307 0.945066
O O5 0.025186 0.160065 0.930151
O O6 0.900327 0.160682 0.049555
O O7 0.000000 0.000000 0.993078
O O8 0.268704 0.750000 0.381520
O O9 0.524063 0.836930 0.379573
O O10 0.500000 0.500000 0.598932
O O11 0.460553 0.363015 0.515455
O O12 0.666587 0.342190 0.604000
O O13 0.912933 0.750000 0.126756
O O14 0.200033 0.750000 0.508233
O O15 0.500000 0.000000 0.433531
#
# Coordination Sequence:
#
# PCOD9360576 Si02
#       8
#     4   8   4   8   4   4   8   4
#     4  11  23  38  56  83 122 161 189 235 291 365
#     4  10  20  34  59  88 116 142 192 257 302 335
#     4  12  22  39  58  83 127 160 192 239 297 362
#     4  10  20  36  60  85 113 146 198 254 285 334
#     4  10  21  33  52  83 119 148 194 225 294 362
#     4  10  20  33  52  83 114 146 187 237 288 359
#     4  11  21  35  63  90 114 146 203 253 293 343
#     4   9  18  33  56  84 112 139 192 246 294 334
#
# _framework density 17.360344999999999
#
# number of rings (size 3 to 8) (size 9 to 14) (size 15 to 20)
#    0.000    1.818    3.636    2.727    7.636    0.727 
#    0.000    3.636    0.000    5.455    0.000    0.000 
#    0.000    0.000    0.000    0.000    0.000    0.000 
#
# Total GULP energy -122627.386233 kJ/mol
# GULP energy per Si atom -5573.972102 kJ/mol
# Density = 1.732083 g / cm^3
# Si number density = 17.360345 Si / 1000 Ang^3
#
#
#
# Elastic Constant Matrix: (Units=GPa)
#
#
# Indices 1 2 3 4 5 6 
#
# 1 164.5046 61.8664 38.6491 0.0000 0.0000 0.0000
# 2 61.8664 139.6251 41.2573 0.0000 0.0000 0.0000
# 3 38.6491 41.2573 91.2103 0.0000 0.0000 0.0000
# 4 0.0000 0.0000 0.0000 -24.0061 0.0000 0.0000
# 5 0.0000 0.0000 0.0000 0.0000 21.1764 0.0000
# 6 0.0000 0.0000 0.0000 0.0000 0.0000 69.3756
#
#
#
# Elastic Compliance Matrix: (Units=1/GPa)
#
#
# Indices 1 2 3 4 5 6 
#
# 1 0.007585 -0.002783 -0.001955 0.000000 0.000000 0.000000
# 2 -0.002783 0.009288 -0.003022 0.000000 0.000000 0.000000
# 3 -0.001955 -0.003022 0.013159 0.000000 0.000000 0.000000
# 4 0.000000 0.000000 0.000000 -0.041656 0.000000 0.000000
# 5 0.000000 0.000000 0.000000 0.000000 0.047222 0.000000
# 6 0.000000 0.000000 0.000000 0.000000 0.000000 0.014414
#
#
# Mechanical properties :
#
#
# Convention : Reuss Voigt Hill
#
# Bulk Modulus (GPa) = 68.91004 75.43172 72.17088
# Shear Modulus (GPa) = 71.05276 30.21367 50.63321
#
# Velocity S-wave (km/s) = 6.40445 4.17632 5.40642
# Velocity P-wave (km/s) = 9.71954 8.17315 8.97970
#
# Compressibility (1/GPa) = 0.01451167
#
# Stress axis : x y z
#
# Youngs Moduli (GPa) = 131.84197 107.66409 75.99307
#
# Poissons Ratio (x) = 0.29963 0.14857
# Poissons Ratio (y) = 0.36692 0.22965
# Poissons Ratio (z) = 0.25777 0.32537
#
# Static dielectric constant tensor:
#      x y z
#    x 1.634510 0.000000 0.000000 
#    y 0.000000 1.610380 0.000000 
#    z 0.000000 0.000000 1.561810 
# 
# From -- ./inp_files/11567.got.cif
#   From: 2010.05.17/outbox.cif.g08.bks.cpg/sg39_6_cif.got.tgz:11567.got - 2010.06.03 18:22:40.
