data_PCOD9360213
_publ_section_title
;
Structure prediction by ZEFSAII (Michael W. Deem and Ramdas Pophale) SiO2 
 PCOD9360213
Probable space group: A B M 2
;
_chemical_formula_sum "Si O2"
_cell_formula_units_Z 64
_cell_length_a 24.767401
_cell_length_b 8.063955
_cell_length_c 15.978951
_cell_angle_alpha 90.000000
_cell_angle_beta 90.000000
_cell_angle_gamma 90.000000
_cell_volume 3191.367340
_symmetry_space_group_name_H-M "A B M 2"
_symmetry_group_IT_number 39
_symmetry_cell_setting 'orthorhombic'
loop_
_space_group_symop_operation_xyz
x,y,z
-x,-y,z
-x,1/2+y,z
x,1/2-y,z
x,1/2+y,1/2+z
-x,1/2-y,1/2+z
-x,y,1/2+z
x,-y,1/2+z
loop_
_atom_site_type_symbol
_atom_site_label
_atom_site_fract_x
_atom_site_fract_y
_atom_site_fract_z
Si Si1 0.438036 0.947547 0.338530
Si Si2 0.173165 0.550259 0.336079
Si Si3 0.058333 0.050528 0.091961
Si Si4 0.438036 0.552453 0.651096
Si Si5 0.173165 0.449741 0.153548
Si Si6 0.632728 0.453536 0.494813
Si Si7 0.757016 0.546981 0.994813
Si Si8 0.941667 0.449472 0.397666
O O1 0.436740 0.750000 0.340940
O O2 0.399185 0.010053 0.412016
O O3 0.500000 0.000000 0.352959
O O4 0.422253 0.000000 0.244813
O O5 0.171948 0.750000 0.340062
O O6 0.192757 0.500000 0.244813
O O7 0.210795 0.492657 0.412122
O O8 0.111669 0.489362 0.350628
O O9 0.171948 0.250000 0.149565
O O10 0.111669 0.989362 0.138999
O O11 0.061317 0.993559 0.994813
O O12 0.000000 0.000000 0.126458
O O13 0.500000 0.500000 0.636667
O O14 0.436740 0.750000 0.648686
O O15 0.399185 0.489947 0.577610
O O16 0.242494 0.250000 0.994813
O O17 0.210795 0.507342 0.077505
O O18 0.632344 0.250000 0.494813
O O19 0.694926 0.505990 0.494813
O O20 0.060098 0.250000 0.090980
O O21 0.939902 0.250000 0.398647
O O22 0.000000 0.500000 0.363169
#
# Coordination Sequence:
#
# PCOD9360213 Si02
#       8
#     8   8   8   8   8   8   8   8
#     4  10  19  33  53  80 110 140 173 211 255 305
#     4  10  20  35  56  77 101 134 173 212 257 310
#     4   9  17  31  51  75 100 131 167 205 253 309
#     4  10  19  33  53  80 110 140 173 211 255 305
#     4  10  20  35  56  77 101 134 173 212 257 310
#     4   9  19  33  54  79 103 137 180 215 252 304
#     4   9  18  37  57  73 101 141 176 211 256 310
#     4   9  17  31  51  75 100 131 167 205 253 309
#
# _framework density 20.054099999999998
#
# number of rings (size 3 to 8) (size 9 to 14) (size 15 to 20)
#    0.000    2.500    1.250    1.875    0.000    2.500 
#    0.000    5.000    0.000    4.500    0.000    0.000 
#    0.000    0.000    0.000    0.000    0.000    0.000 
#
# Total GULP energy -178610.784459 kJ/mol
# GULP energy per Si atom -5581.587014 kJ/mol
# Density = 2.000846 g / cm^3
# Si number density = 20.054100 Si / 1000 Ang^3
#
#
#
# Elastic Constant Matrix: (Units=GPa)
#
#
# Indices 1 2 3 4 5 6 
#
# 1 160.0534 12.9598 122.7279 0.0000 0.0000 0.0000
# 2 12.9598 16.1290 11.3141 0.0000 0.0000 0.0000
# 3 122.7279 11.3141 181.7121 0.0000 0.0000 0.0000
# 4 0.0000 0.0000 0.0000 12.2691 0.0000 0.0000
# 5 0.0000 0.0000 0.0000 0.0000 1.4125 0.0000
# 6 0.0000 0.0000 0.0000 0.0000 0.0000 15.8064
#
#
#
# Elastic Compliance Matrix: (Units=1/GPa)
#
#
# Indices 1 2 3 4 5 6 
#
# 1 0.013275 -0.004577 -0.008681 0.000000 0.000000 0.000000
# 2 -0.004577 0.066410 -0.001044 0.000000 0.000000 0.000000
# 3 -0.008681 -0.001044 0.011431 0.000000 0.000000 0.000000
# 4 0.000000 0.000000 0.000000 0.081506 0.000000 0.000000
# 5 0.000000 0.000000 0.000000 0.000000 0.707949 0.000000
# 6 0.000000 0.000000 0.000000 0.000000 0.000000 0.063266
#
#
# Mechanical properties :
#
#
# Convention : Reuss Voigt Hill
#
# Bulk Modulus (GPa) = 15.99670 72.43313 44.21492
# Shear Modulus (GPa) = 5.03384 19.95710 12.49547
#
# Velocity S-wave (km/s) = 1.58606 3.15804 2.49888
# Velocity P-wave (km/s) = 3.36871 7.03526 5.51557
#
# Compressibility (1/GPa) = 0.06251289
#
# Stress axis : x y z
#
# Youngs Moduli (GPa) = 75.32947 15.05801 87.47942
#
# Poissons Ratio (x) = 0.06892 0.75940
# Poissons Ratio (y) = 0.34480 0.09129
# Poissons Ratio (z) = 0.65393 0.01571
#
# Static dielectric constant tensor:
#      x y z
#    x 1.698160 0.000000 0.000000 
#    y 0.000000 1.723550 0.000000 
#    z 0.000000 0.000000 1.709010 
# 
# From -- ./inp_files/10649.got.cif
#   From: 2010.05.17/outbox.cif.g08.bks.cpg/sg39_6_cif.got.tgz:10649.got - 2010.06.03 18:22:40.
