data_PCOD9360128
_publ_section_title
;
Structure prediction by ZEFSAII (Michael W. Deem and Ramdas Pophale) SiO2 
 PCOD9360128
Probable space group: A B M 2
;
_chemical_formula_sum "Si O2"
_cell_formula_units_Z 64
_cell_length_a 8.278338
_cell_length_b 16.114305
_cell_length_c 23.883061
_cell_angle_alpha 90.000000
_cell_angle_beta 90.000000
_cell_angle_gamma 90.000000
_cell_volume 3185.992299
_symmetry_space_group_name_H-M "A B M 2"
_symmetry_group_IT_number 39
_symmetry_cell_setting 'orthorhombic'
loop_
_space_group_symop_operation_xyz
x,y,z
-x,-y,z
-x,1/2+y,z
x,1/2-y,z
x,1/2+y,1/2+z
-x,1/2-y,1/2+z
-x,y,1/2+z
x,-y,1/2+z
loop_
_atom_site_type_symbol
_atom_site_label
_atom_site_fract_x
_atom_site_fract_y
_atom_site_fract_z
Si Si1 0.303989 0.492411 0.303040
Si Si2 0.697655 0.490496 0.429266
Si Si3 0.296943 0.582794 0.193357
Si Si4 0.351043 0.655024 0.510298
Si Si5 0.732931 0.157861 0.989183
Si Si6 0.759130 0.416332 0.624956
Si Si7 0.358390 0.656357 0.731720
Si Si8 0.082337 0.157427 0.605187
O O1 0.500000 0.500000 0.302864
O O2 0.249659 0.516155 0.364735
O O3 0.234357 0.548587 0.252932
O O4 0.284743 0.398390 0.281624
O O5 0.500000 0.500000 0.429654
O O6 0.731871 0.410099 0.467640
O O7 0.770487 0.575615 0.453901
O O8 0.296929 0.503963 0.150812
O O9 0.472487 0.618457 0.208504
O O10 0.187136 0.647814 0.161237
O O11 0.287373 0.750000 0.509203
O O12 0.538971 0.659492 0.494039
O O13 0.341936 0.616078 0.572375
O O14 0.784071 0.250000 0.968203
O O15 0.805068 0.147459 0.051110
O O16 0.751882 0.353528 0.677242
O O17 0.942865 0.410638 0.604979
O O18 0.383332 0.750000 0.749029
O O19 0.011977 0.250000 0.601730
#
# Coordination Sequence:
#
# PCOD9360128 Si02
#       8
#     8   8   8   8   8   8   8   8
#     4   8  17  32  50  74 101 129 168 212 255 304
#     4   9  17  32  52  74 102 133 170 216 260 306
#     4  10  20  34  52  75 104 136 169 210 260 312
#     4  10  19  32  51  76 103 136 175 217 263 313
#     4   9  19  32  50  76 104 133 169 211 260 313
#     4  11  21  34  52  75 106 139 172 211 260 314
#     4  10  19  33  54  80 105 134 171 213 259 312
#     4  11  21  33  50  76 105 134 170 214 260 312
#
# _framework density 20.087933
#
# number of rings (size 3 to 8) (size 9 to 14) (size 15 to 20)
#    0.000    2.250    0.000    4.500    0.000    3.500 
#    0.000    6.875    0.000    6.000    0.000    5.250 
#    0.000    0.000    0.000    0.000    0.000    0.000 
#
# Total GULP energy -178404.414273 kJ/mol
# GULP energy per Si atom -5575.137946 kJ/mol
# Density = 2.004221 g / cm^3
# Si number density = 20.087933 Si / 1000 Ang^3
#
#
#
# Elastic Constant Matrix: (Units=GPa)
#
#
# Indices 1 2 3 4 5 6 
#
# 1 12.1710 4.5511 -12.0884 0.0000 0.0000 0.0000
# 2 4.5511 124.6312 64.3096 0.0000 0.0000 0.0000
# 3 -12.0884 64.3096 121.2883 0.0000 0.0000 0.0000
# 4 0.0000 0.0000 0.0000 11.1508 0.0000 0.0000
# 5 0.0000 0.0000 0.0000 0.0000 -5.6475 0.0000
# 6 0.0000 0.0000 0.0000 0.0000 0.0000 12.6336
#
#
#
# Elastic Compliance Matrix: (Units=1/GPa)
#
#
# Indices 1 2 3 4 5 6 
#
# 1 0.103742 -0.012560 0.016999 0.000000 0.000000 0.000000
# 2 -0.012560 0.012566 -0.007915 0.000000 0.000000 0.000000
# 3 0.016999 -0.007915 0.014136 0.000000 0.000000 0.000000
# 4 0.000000 0.000000 0.000000 0.089680 0.000000 0.000000
# 5 0.000000 0.000000 0.000000 0.000000 -0.177071 0.000000
# 6 0.000000 0.000000 0.000000 0.000000 0.000000 0.079154
#
#
# Mechanical properties :
#
#
# Convention : Reuss Voigt Hill
#
# Bulk Modulus (GPa) = 8.09760 41.29280 24.69520
# Shear Modulus (GPa) = 29.35608 17.04859 23.20234
#
# Velocity S-wave (km/s) = 3.82695 2.91640 3.40227
# Velocity P-wave (km/s) = 4.85460 5.65165 5.26822
#
# Compressibility (1/GPa) = 0.12349333
#
# Stress axis : x y z
#
# Youngs Moduli (GPa) = 9.63927 79.57795 70.74337
#
# Poissons Ratio (x) = 0.99948 -1.20257
# Poissons Ratio (y) = 0.12107 0.55991
# Poissons Ratio (z) = -0.16386 0.62984
#
# Static dielectric constant tensor:
#      x y z
#    x 1.743590 0.000000 0.000000 
#    y 0.000000 1.758640 0.000000 
#    z 0.000000 0.000000 1.688630 
# 
# From -- ./inp_files/15703.got.cif
#   From: 2010.05.17/outbox.cif.g08.bks.cpg/sg39_8_cif.got.tgz:15703.got - 2010.06.03 18:22:40.
