data_PCOD9360175
_publ_section_title
;
Structure prediction by ZEFSAII (Michael W. Deem and Ramdas Pophale) SiO2 
 PCOD9360175
Probable space group: A B M 2
;
_chemical_formula_sum "Si O2"
_cell_formula_units_Z 64
_cell_length_a 15.055247
_cell_length_b 8.475545
_cell_length_c 25.420470
_cell_angle_alpha 90.000000
_cell_angle_beta 90.000000
_cell_angle_gamma 90.000000
_cell_volume 3243.688156
_symmetry_space_group_name_H-M "A B M 2"
_symmetry_group_IT_number 39
_symmetry_cell_setting 'orthorhombic'
loop_
_space_group_symop_operation_xyz
x,y,z
-x,-y,z
-x,1/2+y,z
x,1/2-y,z
x,1/2+y,1/2+z
-x,1/2-y,1/2+z
-x,y,1/2+z
x,-y,1/2+z
loop_
_atom_site_type_symbol
_atom_site_label
_atom_site_fract_x
_atom_site_fract_y
_atom_site_fract_z
Si Si1 0.787892 0.560175 0.816490
Si Si2 0.594675 0.562746 0.345134
Si Si3 0.898786 0.437221 0.717240
Si Si4 0.839274 0.936104 0.929325
Si Si5 0.091820 0.940202 0.535192
Si Si6 0.780660 0.438271 0.121466
Si Si7 0.348326 0.560193 0.962447
Si Si8 0.405173 0.060327 0.579411
O O1 0.788397 0.750000 0.816818
O O2 0.684578 0.507371 0.819529
O O3 0.844431 0.501040 0.767440
O O4 0.834316 0.498504 0.870452
O O5 0.500000 0.500000 0.325115
O O6 0.598010 0.750000 0.338464
O O7 0.599589 0.528860 0.408142
O O8 0.903850 0.250000 0.720071
O O9 0.839713 0.485922 0.667007
O O10 0.000000 0.500000 0.714672
O O11 0.856138 0.750000 0.924561
O O12 0.742463 0.966553 0.953796
O O13 0.902965 0.998234 0.974775
O O14 0.097283 0.750000 0.537370
O O15 0.171551 0.016777 0.567185
O O16 0.000000 0.000000 0.559251
O O17 0.781213 0.250000 0.128788
O O18 0.678732 0.492445 0.114436
O O19 0.331459 0.750000 0.964465
O O20 0.391054 0.512734 0.018004
O O21 0.405125 0.250000 0.579944
O O22 0.500000 0.000000 0.597953
#
# Coordination Sequence:
#
# PCOD9360175 Si02
#       8
#     8   8   8   8   8   8   8   8
#     4  10  21  40  63  90 123 158 202 254 305 361
#     4  10  19  32  54  86 125 167 210 251 300 357
#     4  12  26  46  70  94 117 151 200 253 310 368
#     4   9  19  34  55  84 120 159 197 241 297 354
#     4  11  22  36  56  86 120 158 197 241 298 362
#     4  11  23  42  64  88 120 157 200 252 303 355
#     4   9  17  31  51  80 118 162 205 245 291 348
#     4  10  21  35  56  86 121 160 201 243 294 351
#
# _framework density 19.730627999999999
#
# number of rings (size 3 to 8) (size 9 to 14) (size 15 to 20)
#    0.000    1.750    1.250    3.375    0.000    3.500 
#    0.000    1.875    0.000    1.500    0.000    0.000 
#    0.000    0.000    0.000    0.000    0.000    0.000 
#
# Total GULP energy -178567.136588 kJ/mol
# GULP energy per Si atom -5580.223018 kJ/mol
# Density = 1.968572 g / cm^3
# Si number density = 19.730628 Si / 1000 Ang^3
#
#
#
# Elastic Constant Matrix: (Units=GPa)
#
#
# Indices 1 2 3 4 5 6 
#
# 1 149.9093 35.4282 68.1818 0.0000 0.0000 0.0000
# 2 35.4282 40.1270 22.3367 0.0000 0.0000 0.0000
# 3 68.1818 22.3367 108.6505 0.0000 0.0000 0.0000
# 4 0.0000 0.0000 0.0000 19.9598 0.0000 0.0000
# 5 0.0000 0.0000 0.0000 0.0000 19.4592 0.0000
# 6 0.0000 0.0000 0.0000 0.0000 0.0000 30.5458
#
#
#
# Elastic Compliance Matrix: (Units=1/GPa)
#
#
# Indices 1 2 3 4 5 6 
#
# 1 0.010613 -0.006395 -0.005345 0.000000 0.000000 0.000000
# 2 -0.006395 0.031994 -0.002564 0.000000 0.000000 0.000000
# 3 -0.005345 -0.002564 0.013086 0.000000 0.000000 0.000000
# 4 0.000000 0.000000 0.000000 0.050101 0.000000 0.000000
# 5 0.000000 0.000000 0.000000 0.000000 0.051390 0.000000
# 6 0.000000 0.000000 0.000000 0.000000 0.000000 0.032738
#
#
# Mechanical properties :
#
#
# Convention : Reuss Voigt Hill
#
# Bulk Modulus (GPa) = 36.92291 61.17557 49.04924
# Shear Modulus (GPa) = 21.97235 25.50897 23.74066
#
# Velocity S-wave (km/s) = 3.34071 3.59954 3.47254
# Velocity P-wave (km/s) = 5.79953 6.95329 6.40245
#
# Compressibility (1/GPa) = 0.02708346
#
# Stress axis : x y z
#
# Youngs Moduli (GPa) = 94.22181 31.25543 76.42036
#
# Poissons Ratio (x) = 0.19987 0.40850
# Poissons Ratio (y) = 0.60254 0.19598
# Poissons Ratio (z) = 0.50366 0.08015
#
# Static dielectric constant tensor:
#      x y z
#    x 1.479240 0.000000 0.000000 
#    y 0.000000 1.677860 0.000000 
#    z 0.000000 0.000000 1.720930 
# 
# From -- ./inp_files/16143.got.cif
#   From: 2010.05.17/outbox.cif.g08.bks.cpg/sg39_9_cif.got.tgz:16143.got - 2010.06.03 18:22:40.
