data_PCOD9360659
_publ_section_title
;
Structure prediction by ZEFSAII (Michael W. Deem and Ramdas Pophale) SiO2 
 PCOD9360659
Probable space group: A B M 2
;
_chemical_formula_sum "Si O2"
_cell_formula_units_Z 56
_cell_length_a 14.076112
_cell_length_b 7.754573
_cell_length_c 22.472190
_cell_angle_alpha 90.000000
_cell_angle_beta 90.000000
_cell_angle_gamma 90.000000
_cell_volume 2452.934777
_symmetry_space_group_name_H-M "A B M 2"
_symmetry_group_IT_number 39
_symmetry_cell_setting 'orthorhombic'
loop_
_space_group_symop_operation_xyz
x,y,z
-x,-y,z
-x,1/2+y,z
x,1/2-y,z
x,1/2+y,1/2+z
-x,1/2-y,1/2+z
-x,y,1/2+z
x,-y,1/2+z
loop_
_atom_site_type_symbol
_atom_site_label
_atom_site_fract_x
_atom_site_fract_y
_atom_site_fract_z
Si Si1 0.888509 0.045544 0.441740
Si Si2 0.889215 0.953258 0.311556
Si Si3 0.206227 0.462034 0.190699
Si Si4 0.609620 0.956943 0.250224
Si Si5 0.199845 0.951642 0.562558
Si Si6 0.387778 0.956911 0.880357
Si Si7 0.389184 0.543389 0.011389
O O1 0.879335 0.250000 0.443615
O O2 0.842638 0.969972 0.501875
O O3 0.847828 0.994767 0.376983
O O4 0.000000 0.000000 0.442384
O O5 0.879017 0.750000 0.306595
O O6 0.846858 0.024645 0.250132
O O7 0.000000 0.000000 0.313712
O O8 0.202218 0.250000 0.189275
O O9 0.315737 0.514081 0.201122
O O10 0.170005 0.524110 0.126684
O O11 0.614848 0.750000 0.253267
O O12 0.643750 0.021882 0.315590
O O13 0.500000 0.000000 0.239961
O O14 0.173490 0.750000 0.562675
O O15 0.313725 0.966472 0.556784
O O16 0.374512 0.750000 0.881231
O O17 0.500000 0.000000 0.879512
O O18 0.357792 0.022486 0.945237
O O19 0.500000 0.500000 0.020833
O O20 0.381057 0.750000 0.012438
#
# Coordination Sequence:
#
# PCOD9360659 Si02
#       7
#     8   8   8   8   8   8   8
#     4  10  21  38  61  87 115 146 184 232 285 341
#     4  10  20  37  63  88 113 144 183 230 284 340
#     4   9  20  37  57  80 111 152 188 225 277 335
#     4   9  17  32  52  75 104 141 183 225 270 319
#     4  10  22  39  56  81 116 152 192 233 281 337
#     4   8  15  27  46  71  98 128 173 223 268 316
#     4  10  20  34  54  80 112 151 194 236 283 334
#
# _framework density 22.829796000000002
#
# number of rings (size 3 to 8) (size 9 to 14) (size 15 to 20)
#    0.000    2.571    0.000    2.143    2.000    2.857 
#    0.000    5.000    0.000    0.000    0.000    0.000 
#    0.000    0.000    0.000    0.000    0.000    0.000 
#
# Total GULP energy -156192.210619 kJ/mol
# GULP energy per Si atom -5578.293236 kJ/mol
# Density = 2.277783 g / cm^3
# Si number density = 22.829796 Si / 1000 Ang^3
#
#
#
# Elastic Constant Matrix: (Units=GPa)
#
#
# Indices 1 2 3 4 5 6 
#
# 1 63.2787 -10.0166 61.8877 0.0000 0.0000 0.0000
# 2 -10.0166 43.5496 12.4888 0.0000 0.0000 0.0000
# 3 61.8877 12.4888 214.5233 0.0000 0.0000 0.0000
# 4 0.0000 0.0000 0.0000 11.3536 0.0000 0.0000
# 5 0.0000 0.0000 0.0000 0.0000 22.2485 0.0000
# 6 0.0000 0.0000 0.0000 0.0000 0.0000 16.0546
#
#
#
# Elastic Compliance Matrix: (Units=1/GPa)
#
#
# Indices 1 2 3 4 5 6 
#
# 1 0.024335 0.007740 -0.007471 0.000000 0.000000 0.000000
# 2 0.007740 0.025814 -0.003736 0.000000 0.000000 0.000000
# 3 -0.007471 -0.003736 0.007034 0.000000 0.000000 0.000000
# 4 0.000000 0.000000 0.000000 0.088078 0.000000 0.000000
# 5 0.000000 0.000000 0.000000 0.000000 0.044947 0.000000
# 6 0.000000 0.000000 0.000000 0.000000 0.000000 0.062287
#
#
# Mechanical properties :
#
#
# Convention : Reuss Voigt Hill
#
# Bulk Modulus (GPa) = 19.90085 50.00792 34.95439
# Shear Modulus (GPa) = 18.10422 27.06412 22.58417
#
# Velocity S-wave (km/s) = 2.81910 3.44681 3.14863
# Velocity P-wave (km/s) = 4.39686 6.14759 5.34440
#
# Compressibility (1/GPa) = 0.05024912
#
# Stress axis : x y z
#
# Youngs Moduli (GPa) = 41.09317 38.73904 142.16140
#
# Poissons Ratio (x) = -0.29982 1.06208
# Poissons Ratio (y) = -0.31805 0.53106
# Poissons Ratio (z) = 0.30700 0.14471
#
# Static dielectric constant tensor:
#      x y z
#    x 1.734160 0.000000 0.000000 
#    y 0.000000 1.802210 0.000000 
#    z 0.000000 0.000000 1.929380 
# 
# From -- ./inp_files/14745.got.cif
#   From: 2010.05.17/outbox.cif.g08.bks.cpg/sg39_8_cif.got.tgz:14745.got - 2010.06.03 18:22:40.
