data_PCOD9360943
_publ_section_title
;
Structure prediction by ZEFSAII (Michael W. Deem and Ramdas Pophale) SiO2 
 PCOD9360943
Probable space group: A B M 2
;
_chemical_formula_sum "Si O2"
_cell_formula_units_Z 64
_cell_length_a 25.090002
_cell_length_b 9.114922
_cell_length_c 14.715490
_cell_angle_alpha 90.000000
_cell_angle_beta 90.000000
_cell_angle_gamma 90.000000
_cell_volume 3365.335606
_symmetry_space_group_name_H-M "A B M 2"
_symmetry_group_IT_number 39
_symmetry_cell_setting 'orthorhombic'
loop_
_space_group_symop_operation_xyz
x,y,z
-x,-y,z
-x,1/2+y,z
x,1/2-y,z
x,1/2+y,1/2+z
-x,1/2-y,1/2+z
-x,y,1/2+z
x,-y,1/2+z
loop_
_atom_site_type_symbol
_atom_site_label
_atom_site_fract_x
_atom_site_fract_y
_atom_site_fract_z
Si Si1 0.138612 0.073204 0.868590
Si Si2 0.339304 0.422489 0.224397
Si Si3 0.056213 0.925811 0.734479
Si Si4 0.746194 0.574056 0.375524
Si Si5 0.945400 0.576682 0.020204
Si Si6 0.664009 0.075242 0.509216
Si Si7 0.553876 0.581243 0.507366
Si Si8 0.446945 0.083796 0.729358
O O1 0.141555 0.250000 0.860057
O O2 0.103757 0.002306 0.788404
O O3 0.196745 0.002740 0.871789
O O4 0.105083 0.035861 0.959513
O O5 0.350860 0.250000 0.234832
O O6 0.287906 0.457189 0.284394
O O7 0.330102 0.449541 0.117573
O O8 0.391620 0.508863 0.255683
O O9 0.054781 0.750000 0.749914
O O10 0.063129 0.953052 0.626728
O O11 0.000000 0.000000 0.761079
O O12 0.751466 0.750000 0.384790
O O13 0.710646 0.506701 0.456032
O O14 0.953404 0.750000 0.009722
O O15 0.000000 0.500000 0.990635
O O16 0.665046 0.250000 0.492558
O O17 0.606969 0.006942 0.481866
O O18 0.500000 0.500000 0.478071
O O19 0.555972 0.750000 0.476402
O O20 0.552693 0.583483 0.618341
O O21 0.448624 0.250000 0.761270
O O22 0.500000 0.000000 0.758625
#
# Coordination Sequence:
#
# PCOD9360943 Si02
#       8
#     8   8   8   8   8   8   8   8
#     4  11  23  39  58  83 114 151 191 233 277 325
#     4   9  20  38  58  78 107 145 183 225 280 336
#     4  10  20  37  60  88 119 151 185 225 273 326
#     4  11  24  41  58  80 110 147 190 235 278 329
#     4   9  20  37  59  86 118 151 184 223 272 326
#     4  10  20  37  59  81 107 143 183 229 281 334
#     4   9  16  28  49  79 110 141 177 221 274 335
#     4   9  16  27  49  79 109 139 176 221 274 333
#
# _framework density 19.017420000000001
#
# number of rings (size 3 to 8) (size 9 to 14) (size 15 to 20)
#    0.000    2.250    0.000    2.625    0.000    8.000 
#    0.000    5.625    0.000    3.000    0.000    0.000 
#    0.000    0.000    0.000    0.000    0.000    0.000 
#
# Total GULP energy -178790.880342 kJ/mol
# GULP energy per Si atom -5587.215011 kJ/mol
# Density = 1.897414 g / cm^3
# Si number density = 19.017420 Si / 1000 Ang^3
#
#
#
# Elastic Constant Matrix: (Units=GPa)
#
#
# Indices 1 2 3 4 5 6 
#
# 1 224.5034 113.3746 76.1762 0.0000 0.0000 0.0000
# 2 113.3746 111.5607 65.3915 0.0000 0.0000 0.0000
# 3 76.1762 65.3915 72.0498 0.0000 0.0000 0.0000
# 4 0.0000 0.0000 0.0000 22.2399 0.0000 0.0000
# 5 0.0000 0.0000 0.0000 0.0000 76.5634 0.0000
# 6 0.0000 0.0000 0.0000 0.0000 0.0000 43.5908
#
#
#
# Elastic Compliance Matrix: (Units=1/GPa)
#
#
# Indices 1 2 3 4 5 6 
#
# 1 0.009391 -0.007957 -0.002707 0.000000 0.000000 0.000000
# 2 -0.007957 0.025894 -0.015089 0.000000 0.000000 0.000000
# 3 -0.002707 -0.015089 0.030436 0.000000 0.000000 0.000000
# 4 0.000000 0.000000 0.000000 0.044964 0.000000 0.000000
# 5 0.000000 0.000000 0.000000 0.000000 0.013061 0.000000
# 6 0.000000 0.000000 0.000000 0.000000 0.000000 0.022941
#
#
# Mechanical properties :
#
#
# Convention : Reuss Voigt Hill
#
# Bulk Modulus (GPa) = 70.34593 101.99985 86.17289
# Shear Modulus (GPa) = 24.63874 38.69024 31.66449
#
# Velocity S-wave (km/s) = 3.60333 4.51540 4.08490
# Velocity P-wave (km/s) = 7.37445 8.99647 8.22554
#
# Compressibility (1/GPa) = 0.01421546
#
# Stress axis : x y z
#
# Youngs Moduli (GPa) = 106.48267 38.61845 32.85561
#
# Poissons Ratio (x) = 0.30728 0.08895
# Poissons Ratio (y) = 0.84727 0.49575
# Poissons Ratio (z) = 0.28830 0.58271
#
# Static dielectric constant tensor:
#      x y z
#    x 1.610740 0.000000 0.000000 
#    y 0.000000 1.636520 0.000000 
#    z 0.000000 0.000000 1.698960 
# 
# From -- ./inp_files/10578.got.cif
#   From: 2010.05.17/outbox.cif.g08.bks.cpg/sg39_6_cif.got.tgz:10578.got - 2010.06.03 18:22:40.
