data_PCOD9360352
_publ_section_title
;
Structure prediction by ZEFSAII (Michael W. Deem and Ramdas Pophale) SiO2 
 PCOD9360352
Probable space group: A B M 2
;
_chemical_formula_sum "Si O2"
_cell_formula_units_Z 64
_cell_length_a 11.012776
_cell_length_b 18.378693
_cell_length_c 16.759369
_cell_angle_alpha 90.000000
_cell_angle_beta 90.000000
_cell_angle_gamma 90.000000
_cell_volume 3392.103478
_symmetry_space_group_name_H-M "A B M 2"
_symmetry_group_IT_number 39
_symmetry_cell_setting 'orthorhombic'
loop_
_space_group_symop_operation_xyz
x,y,z
-x,-y,z
-x,1/2+y,z
x,1/2-y,z
x,1/2+y,1/2+z
-x,1/2-y,1/2+z
-x,y,1/2+z
x,-y,1/2+z
loop_
_atom_site_type_symbol
_atom_site_label
_atom_site_fract_x
_atom_site_fract_y
_atom_site_fract_z
Si Si1 0.933266 0.573467 0.430770
Si Si2 0.733771 0.409078 0.253661
Si Si3 0.340871 0.333520 0.051848
Si Si4 0.083664 0.930971 0.112707
Si Si5 0.111440 0.331042 0.169940
Si Si6 0.523609 0.087091 0.690944
Si Si7 0.243930 0.075206 0.294992
Si Si8 0.175209 0.336153 0.908973
O O1 0.888269 0.558470 0.520172
O O2 0.816160 0.594828 0.379184
O O3 0.000000 0.500000 0.398808
O O4 0.044794 0.629939 0.430861
O O5 0.805368 0.423581 0.171997
O O6 0.600727 0.383265 0.227953
O O7 0.736906 0.488620 0.294520
O O8 0.795492 0.356499 0.317685
O O9 0.385121 0.250000 0.041533
O O10 0.221425 0.330712 0.107598
O O11 0.434670 0.380120 0.105526
O O12 0.285243 0.362289 0.967946
O O13 0.006681 0.857850 0.124476
O O14 0.000000 0.000000 0.134991
O O15 0.098974 0.250000 0.204202
O O16 0.143615 0.391481 0.235245
O O17 0.630222 0.102645 0.755733
O O18 0.500000 0.000000 0.682925
O O19 0.169946 0.250000 0.920011
#
# Coordination Sequence:
#
# PCOD9360352 Si02
#       8
#     8   8   8   8   8   8   8   8
#     4  11  22  35  58  89 119 157 200 244 313 373
#     4  11  22  39  58  89 122 159 206 256 300 359
#     4   9  19  39  62  86 120 161 201 248 305 366
#     4  11  22  35  57  86 125 158 192 251 313 367
#     4  10  19  34  59  85 112 154 200 241 306 373
#     4   9  21  39  61  87 121 160 212 253 292 360
#     4  10  20  38  58  83 122 158 198 250 301 356
#     4  11  23  39  62  91 123 157 201 255 311 373
#
# _framework density 18.867349000000001
#
# number of rings (size 3 to 8) (size 9 to 14) (size 15 to 20)
#    0.000    1.750    3.750    0.750    0.000    2.500 
#    2.250    0.625    0.000    0.000    0.000    0.000 
#    0.000    0.000    0.000    0.000    0.000    0.000 
#
# Total GULP energy -178281.408421 kJ/mol
# GULP energy per Si atom -5571.294013 kJ/mol
# Density = 1.882441 g / cm^3
# Si number density = 18.867349 Si / 1000 Ang^3
#
#
#
# Elastic Constant Matrix: (Units=GPa)
#
#
# Indices 1 2 3 4 5 6 
#
# 1 78.9271 13.0234 52.4860 0.0000 0.0000 0.0000
# 2 13.0234 44.2856 11.7142 0.0000 0.0000 0.0000
# 3 52.4860 11.7142 93.4516 0.0000 0.0000 0.0000
# 4 0.0000 0.0000 0.0000 19.7501 0.0000 0.0000
# 5 0.0000 0.0000 0.0000 0.0000 30.9289 0.0000
# 6 0.0000 0.0000 0.0000 0.0000 0.0000 19.2897
#
#
#
# Elastic Compliance Matrix: (Units=1/GPa)
#
#
# Indices 1 2 3 4 5 6 
#
# 1 0.020627 -0.003105 -0.011196 0.000000 0.000000 0.000000
# 2 -0.003105 0.023822 -0.001242 0.000000 0.000000 0.000000
# 3 -0.011196 -0.001242 0.017145 0.000000 0.000000 0.000000
# 4 0.000000 0.000000 0.000000 0.050633 0.000000 0.000000
# 5 0.000000 0.000000 0.000000 0.000000 0.032332 0.000000
# 6 0.000000 0.000000 0.000000 0.000000 0.000000 0.051841
#
#
# Mechanical properties :
#
#
# Convention : Reuss Voigt Hill
#
# Bulk Modulus (GPa) = 32.77804 41.23461 37.00632
# Shear Modulus (GPa) = 21.03883 23.28981 22.16432
#
# Velocity S-wave (km/s) = 3.34292 3.51721 3.43117
# Velocity P-wave (km/s) = 5.68426 6.19652 5.94591
#
# Compressibility (1/GPa) = 0.03050823
#
# Stress axis : x y z
#
# Youngs Moduli (GPa) = 48.47908 41.97741 58.32752
#
# Poissons Ratio (x) = 0.13032 0.65303
# Poissons Ratio (y) = 0.15051 0.07247
# Poissons Ratio (z) = 0.54277 0.05216
#
# Static dielectric constant tensor:
#      x y z
#    x 1.662450 0.000000 0.000000 
#    y 0.000000 1.673640 0.000000 
#    z 0.000000 0.000000 1.686290 
# 
# From -- ./inp_files/9448.got.cif
#   From: 2010.05.17/outbox.cif.g08.bks.cpg/sg39_5_cif.got.tgz:9448.got - 2010.06.03 18:22:40.
