data_PCOD9360631
_publ_section_title
;
Structure prediction by ZEFSAII (Michael W. Deem and Ramdas Pophale) SiO2 
 PCOD9360631
Probable space group: A B M 2
;
_chemical_formula_sum "Si O2"
_cell_formula_units_Z 60
_cell_length_a 27.194238
_cell_length_b 12.435738
_cell_length_c 8.252393
_cell_angle_alpha 90.000000
_cell_angle_beta 90.000000
_cell_angle_gamma 90.000000
_cell_volume 2790.797721
_symmetry_space_group_name_H-M "A B M 2"
_symmetry_group_IT_number 39
_symmetry_cell_setting 'orthorhombic'
loop_
_space_group_symop_operation_xyz
x,y,z
-x,-y,z
-x,1/2+y,z
x,1/2-y,z
x,1/2+y,1/2+z
-x,1/2-y,1/2+z
-x,y,1/2+z
x,-y,1/2+z
loop_
_atom_site_type_symbol
_atom_site_label
_atom_site_fract_x
_atom_site_fract_y
_atom_site_fract_z
Si Si1 0.399431 0.134120 0.093610
Si Si2 0.000000 0.000000 0.877257
Si Si3 0.709594 0.632665 0.526142
Si Si4 0.764308 0.039813 0.330833
Si Si5 0.495920 0.625552 0.237597
Si Si6 0.062505 0.124721 0.126047
Si Si7 0.823605 0.626478 0.128077
Si Si8 0.386128 0.910682 0.218466
O O1 0.382893 0.250000 0.153030
O O2 0.458645 0.127163 0.112217
O O3 0.380469 0.038443 0.202653
O O4 0.384221 0.121860 0.906622
O O5 0.973868 0.908731 0.982614
O O6 0.042929 0.946998 0.772469
O O7 0.720558 0.750000 0.454981
O O8 0.721195 0.534563 0.406156
O O9 0.655175 0.633321 0.600640
O O10 0.744025 0.609601 0.682789
O O11 0.789051 0.108326 0.472318
O O12 0.804120 0.955815 0.262096
O O13 0.500000 0.500000 0.312108
O O14 0.499401 0.750000 0.312354
O O15 0.441165 0.621397 0.164304
O O16 0.057705 0.250000 0.164067
O O17 0.119523 0.103347 0.087729
O O18 0.820345 0.750000 0.182200
#
# Coordination Sequence:
#
# PCOD9360631 Si02
#       8
#     8   4   8   8   8   8   8   8
#     4  10  22  40  59  83 115 147 183 228 273 330
#     4  10  20  34  52  82 120 152 186 230 274 324
#     4  11  22  38  59  82 111 144 179 229 287 338
#     4  10  22  38  57  83 110 141 187 234 282 334
#     4   9  19  34  55  81 109 143 182 223 270 329
#     4  10  20  34  55  81 113 153 191 229 276 326
#     4  10  20  37  59  82 110 147 190 234 277 325
#     4  11  22  39  61  85 113 148 186 226 281 344
#
# _framework density 21.499230000000001
#
# number of rings (size 3 to 8) (size 9 to 14) (size 15 to 20)
#    0.000    1.867    0.000    4.000    0.000    4.800 
#    0.000   11.333    0.000   12.800    0.000    0.000 
#    0.000    0.000    0.000    0.000    0.000    0.000 
#
# Total GULP energy -167448.990488 kJ/mol
# GULP energy per Si atom -5581.633016 kJ/mol
# Density = 2.145030 g / cm^3
# Si number density = 21.499230 Si / 1000 Ang^3
#
#
#
# Elastic Constant Matrix: (Units=GPa)
#
#
# Indices 1 2 3 4 5 6 
#
# 1 78.0873 13.5782 -9.4294 0.0000 0.0000 0.0000
# 2 13.5782 138.9092 2.7384 0.0000 0.0000 0.0000
# 3 -9.4294 2.7384 22.2684 0.0000 0.0000 0.0000
# 4 0.0000 0.0000 0.0000 -29.8037 0.0000 0.0000
# 5 0.0000 0.0000 0.0000 0.0000 27.2254 0.0000
# 6 0.0000 0.0000 0.0000 0.0000 0.0000 23.7287
#
#
#
# Elastic Compliance Matrix: (Units=1/GPa)
#
#
# Indices 1 2 3 4 5 6 
#
# 1 0.013788 -0.001466 0.006019 0.000000 0.000000 0.000000
# 2 -0.001466 0.007372 -0.001528 0.000000 0.000000 0.000000
# 3 0.006019 -0.001528 0.047643 0.000000 0.000000 0.000000
# 4 0.000000 0.000000 0.000000 -0.033553 0.000000 0.000000
# 5 0.000000 0.000000 0.000000 0.000000 0.036730 0.000000
# 6 0.000000 0.000000 0.000000 0.000000 0.000000 0.042143
#
#
# Mechanical properties :
#
#
# Convention : Reuss Voigt Hill
#
# Bulk Modulus (GPa) = 13.35950 28.11547 20.73748
# Shear Modulus (GPa) = 37.58676 19.72192 28.65434
#
# Velocity S-wave (km/s) = 4.18578 3.03203 3.65472
# Velocity P-wave (km/s) = 5.43953 5.03621 5.24175
#
# Compressibility (1/GPa) = 0.07485310
#
# Stress axis : x y z
#
# Youngs Moduli (GPa) = 72.52699 135.64099 20.98939
#
# Poissons Ratio (x) = 0.19891 -0.12633
# Poissons Ratio (y) = 0.10635 0.03206
# Poissons Ratio (z) = -0.43652 0.20720
#
# Static dielectric constant tensor:
#      x y z
#    x 1.755760 0.000000 0.000000 
#    y 0.000000 2.008470 0.000000 
#    z 0.000000 0.000000 1.770530 
# 
# From -- ./inp_files/4121.got.cif
#   From: 2010.05.17/outbox.cif.g08.bks.cpg/sg39_3_cif.got.tgz:4121.got - 2010.06.03 18:22:40.
