data_PCOD9360002
_publ_section_title
;
Structure prediction by ZEFSAII (Michael W. Deem and Ramdas Pophale) SiO2 
 PCOD9360002
Probable space group: A B M 2
;
_chemical_formula_sum "Si O2"
_cell_formula_units_Z 64
_cell_length_a 10.658194
_cell_length_b 15.996861
_cell_length_c 19.729755
_cell_angle_alpha 90.000000
_cell_angle_beta 90.000000
_cell_angle_gamma 90.000000
_cell_volume 3363.876822
_symmetry_space_group_name_H-M "A B M 2"
_symmetry_group_IT_number 39
_symmetry_cell_setting 'orthorhombic'
loop_
_space_group_symop_operation_xyz
x,y,z
-x,-y,z
-x,1/2+y,z
x,1/2-y,z
x,1/2+y,1/2+z
-x,1/2-y,1/2+z
-x,y,1/2+z
x,-y,1/2+z
loop_
_atom_site_type_symbol
_atom_site_label
_atom_site_fract_x
_atom_site_fract_y
_atom_site_fract_z
Si Si1 0.943460 0.653884 0.576440
Si Si2 0.471226 0.348719 0.514818
Si Si3 0.619999 0.953068 0.382591
Si Si4 0.284475 0.049557 0.601268
Si Si5 0.113913 0.439257 0.178901
Si Si6 0.001097 0.100902 0.934029
Si Si7 0.264990 0.582534 0.481972
Si Si8 0.829846 0.346686 0.812288
O O1 0.969240 0.750000 0.586151
O O2 0.814958 0.624044 0.610212
O O3 0.055286 0.601177 0.610546
O O4 0.921575 0.633762 0.497483
O O5 0.439425 0.250000 0.519759
O O6 0.420759 0.391789 0.445075
O O7 0.412635 0.405265 0.576224
O O8 0.621181 0.361188 0.509387
O O9 0.711932 0.902715 0.334618
O O10 0.500000 0.000000 0.351071
O O11 0.692896 0.029559 0.416966
O O12 0.243909 0.988640 0.663319
O O13 0.247872 0.989243 0.538482
O O14 0.133230 0.371271 0.236483
O O15 0.000000 0.500000 0.201967
O O16 0.140013 0.128202 0.957437
O O17 0.943015 0.133375 0.864643
O O18 0.000000 0.000000 0.933120
O O19 0.797822 0.250000 0.818043
#
# Coordination Sequence:
#
# PCOD9360002 Si02
#       8
#     8   8   8   8   8   8   8   8
#     4  11  20  33  57  86 117 148 192 252 312 361
#     4  10  20  34  57  92 124 148 194 260 309 351
#     4   9  19  36  58  82 114 160 204 242 302 373
#     4  10  18  37  57  78 110 161 202 234 297 377
#     4  10  22  39  58  82 119 165 205 253 314 382
#     4  12  19  35  59  89 121 158 200 241 306 383
#     4  10  19  34  58  86 120 155 193 247 304 369
#     4  12  24  37  59  91 121 154 209 269 314 367
#
# _framework density 19.025668
#
# number of rings (size 3 to 8) (size 9 to 14) (size 15 to 20)
#    0.000    1.500    3.750    4.125    0.000    1.000 
#    0.000    1.250    0.000    0.000    0.000    0.000 
#    0.000    0.000    0.000    0.000    0.000    0.000 
#
# Total GULP energy -178247.167851 kJ/mol
# GULP energy per Si atom -5570.223995 kJ/mol
# Density = 1.898236 g / cm^3
# Si number density = 19.025668 Si / 1000 Ang^3
#
#
#
# Elastic Constant Matrix: (Units=GPa)
#
#
# Indices 1 2 3 4 5 6 
#
# 1 79.9907 16.3743 16.7020 0.0000 0.0000 0.0000
# 2 16.3743 76.2992 9.6413 0.0000 0.0000 0.0000
# 3 16.7020 9.6413 51.8140 0.0000 0.0000 0.0000
# 4 0.0000 0.0000 0.0000 18.6921 0.0000 0.0000
# 5 0.0000 0.0000 0.0000 0.0000 10.1105 0.0000
# 6 0.0000 0.0000 0.0000 0.0000 0.0000 15.6152
#
#
#
# Elastic Compliance Matrix: (Units=1/GPa)
#
#
# Indices 1 2 3 4 5 6 
#
# 1 0.013842 -0.002465 -0.004003 0.000000 0.000000 0.000000
# 2 -0.002465 0.013861 -0.001785 0.000000 0.000000 0.000000
# 3 -0.004003 -0.001785 0.020922 0.000000 0.000000 0.000000
# 4 0.000000 0.000000 0.000000 0.053499 0.000000 0.000000
# 5 0.000000 0.000000 0.000000 0.000000 0.098907 0.000000
# 6 0.000000 0.000000 0.000000 0.000000 0.000000 0.064040
#
#
# Mechanical properties :
#
#
# Convention : Reuss Voigt Hill
#
# Bulk Modulus (GPa) = 31.13351 32.61545 31.87448
# Shear Modulus (GPa) = 17.10674 19.90931 18.50802
#
# Velocity S-wave (km/s) = 3.00182 3.23839 3.12235
# Velocity P-wave (km/s) = 5.33048 5.58238 5.45788
#
# Compressibility (1/GPa) = 0.03211973
#
# Stress axis : x y z
#
# Youngs Moduli (GPa) = 72.24459 72.14616 47.79588
#
# Poissons Ratio (x) = 0.17782 0.19134
# Poissons Ratio (y) = 0.17806 0.08530
# Poissons Ratio (z) = 0.28921 0.12876
#
# Static dielectric constant tensor:
#      x y z
#    x 1.762730 0.000000 0.000000 
#    y 0.000000 1.655360 0.000000 
#    z 0.000000 0.000000 1.654340 
# 
# From -- ./inp_files/12384.got.cif
#   From: 2010.05.17/outbox.cif.g08.bks.cpg/sg39_7_cif.got.tgz:12384.got - 2010.06.03 18:22:40.
