data_PCOD9360070
_publ_section_title
;
Structure prediction by ZEFSAII (Michael W. Deem and Ramdas Pophale) SiO2 
 PCOD9360070
Probable space group: A B M 2
;
_chemical_formula_sum "Si O2"
_cell_formula_units_Z 48
_cell_length_a 9.765273
_cell_length_b 8.655545
_cell_length_c 32.413153
_cell_angle_alpha 90.000000
_cell_angle_beta 90.000000
_cell_angle_gamma 90.000000
_cell_volume 2739.681561
_symmetry_space_group_name_H-M "A B M 2"
_symmetry_group_IT_number 39
_symmetry_cell_setting 'orthorhombic'
loop_
_space_group_symop_operation_xyz
x,y,z
-x,-y,z
-x,1/2+y,z
x,1/2-y,z
x,1/2+y,1/2+z
-x,1/2-y,1/2+z
-x,y,1/2+z
x,-y,1/2+z
loop_
_atom_site_type_symbol
_atom_site_label
_atom_site_fract_x
_atom_site_fract_y
_atom_site_fract_z
Si Si1 0.845981 0.435466 0.282020
Si Si2 0.651532 0.935992 0.707717
Si Si3 0.154403 0.565804 0.542857
Si Si4 0.844693 0.435213 0.867301
Si Si5 0.652901 0.935827 0.613882
Si Si6 0.844730 0.435390 0.957381
O O1 0.852136 0.250000 0.283055
O O2 0.756127 0.486939 0.243047
O O3 0.784237 0.494647 0.325497
O O4 0.000000 0.500000 0.278356
O O5 0.645594 0.750000 0.708918
O O6 0.692454 0.979741 0.660966
O O7 0.500000 0.000000 0.715311
O O8 0.148297 0.750000 0.542519
O O9 0.244655 0.505202 0.580513
O O10 0.215215 0.506746 0.499070
O O11 0.000000 0.500000 0.546381
O O12 0.849574 0.250000 0.863855
O O13 0.782936 0.474367 0.912334
O O14 0.000000 0.500000 0.868170
O O15 0.651986 0.750000 0.610836
O O16 0.500000 0.000000 0.607048
O O17 0.848952 0.250000 0.961136
O O18 0.000000 0.500000 0.956271
#
# Coordination Sequence:
#
# PCOD9360070 Si02
#       6
#     8   8   8   8   8   8
#     4  10  19  31  48  74 103 130 163 203 246 290
#     4   9  20  36  54  74  97 129 167 204 244 295
#     4  11  21  33  51  77 105 134 168 208 254 297
#     4   9  16  26  43  68  97 130 164 199 242 290
#     4  10  20  37  56  75 100 131 169 208 250 303
#     4   9  16  27  44  68  98 130 164 202 244 293
#
# _framework density 17.520284
#
# number of rings (size 3 to 8) (size 9 to 14) (size 15 to 20)
#    0.000    2.333    0.000    5.500    0.000    4.667 
#    0.000    1.667    0.000    1.000    0.000    2.333 
#    0.000    0.000    0.000    0.000    0.000    0.000 
#
# Total GULP energy -133761.313724 kJ/mol
# GULP energy per Si atom -5573.388072 kJ/mol
# Density = 1.748041 g / cm^3
# Si number density = 17.520284 Si / 1000 Ang^3
#
#
#
# Elastic Constant Matrix: (Units=GPa)
#
#
# Indices 1 2 3 4 5 6 
#
# 1 44.5096 26.9706 78.4634 0.0000 0.0000 0.0000
# 2 26.9706 84.8558 64.6613 0.0000 0.0000 0.0000
# 3 78.4634 64.6613 209.2962 0.0000 0.0000 0.0000
# 4 0.0000 0.0000 0.0000 33.4216 0.0000 0.0000
# 5 0.0000 0.0000 0.0000 0.0000 -8.1493 0.0000
# 6 0.0000 0.0000 0.0000 0.0000 0.0000 21.7048
#
#
#
# Elastic Compliance Matrix: (Units=1/GPa)
#
#
# Indices 1 2 3 4 5 6 
#
# 1 0.066758 -0.002809 -0.024159 0.000000 0.000000 0.000000
# 2 -0.002809 0.015531 -0.003745 0.000000 0.000000 0.000000
# 3 -0.024159 -0.003745 0.014992 0.000000 0.000000 0.000000
# 4 0.000000 0.000000 0.000000 0.029921 0.000000 0.000000
# 5 0.000000 0.000000 0.000000 0.000000 -0.122710 0.000000
# 6 0.000000 0.000000 0.000000 0.000000 0.000000 0.046073
#
#
# Mechanical properties :
#
#
# Convention : Reuss Voigt Hill
#
# Bulk Modulus (GPa) = 27.89029 75.42803 51.65916
# Shear Modulus (GPa) = 40.34099 20.63317 30.48708
#
# Velocity S-wave (km/s) = 4.80367 3.43545 4.17598
# Velocity P-wave (km/s) = 6.83524 7.67344 7.26644
#
# Compressibility (1/GPa) = 0.03585478
#
# Stress axis : x y z
#
# Youngs Moduli (GPa) = 14.97951 64.38533 66.70163
#
# Poissons Ratio (x) = 0.18084 1.61146
# Poissons Ratio (y) = 0.04207 0.24983
# Poissons Ratio (z) = 0.36189 0.24115
#
# Static dielectric constant tensor:
#      x y z
#    x 1.556310 0.000000 0.000000 
#    y 0.000000 1.584300 0.000000 
#    z 0.000000 0.000000 1.656970 
# 
# From -- ./inp_files/17775.got.cif
#   From: 2010.05.17/outbox.cif.g08.bks.cpg/sg39_9_cif.got.tgz:17775.got - 2010.06.03 18:22:40.
