data_PCOD9360477
_publ_section_title
;
Structure prediction by ZEFSAII (Michael W. Deem and Ramdas Pophale) SiO2 
 PCOD9360477
Probable space group: A B M 2
;
_chemical_formula_sum "Si O2"
_cell_formula_units_Z 64
_cell_length_a 5.161481
_cell_length_b 27.050054
_cell_length_c 23.944729
_cell_angle_alpha 90.000000
_cell_angle_beta 90.000000
_cell_angle_gamma 90.000000
_cell_volume 3343.123309
_symmetry_space_group_name_H-M "A B M 2"
_symmetry_group_IT_number 39
_symmetry_cell_setting 'orthorhombic'
loop_
_space_group_symop_operation_xyz
x,y,z
-x,-y,z
-x,1/2+y,z
x,1/2-y,z
x,1/2+y,1/2+z
-x,1/2-y,1/2+z
-x,y,1/2+z
x,-y,1/2+z
loop_
_atom_site_type_symbol
_atom_site_label
_atom_site_fract_x
_atom_site_fract_y
_atom_site_fract_z
Si Si1 0.579612 0.192915 0.647140
Si Si2 0.677212 0.193909 0.023292
Si Si3 0.934969 0.132382 0.576669
Si Si4 0.078329 0.055163 0.649931
Si Si5 0.086727 0.054880 0.437364
Si Si6 0.565051 0.594197 0.210108
Si Si7 0.593404 0.395848 0.485532
Si Si8 0.244948 0.033765 0.311596
O O1 0.588413 0.250000 0.666305
O O2 0.421184 0.192549 0.588331
O O3 0.852119 0.171601 0.623882
O O4 0.500488 0.151173 0.692721
O O5 0.696509 0.250000 0.006087
O O6 0.946806 0.165496 0.027821
O O7 0.498451 0.161004 0.983820
O O8 0.702118 0.101279 0.549031
O O9 0.135012 0.091893 0.598795
O O10 0.317603 0.061220 0.692136
O O11 0.813787 0.078182 0.674072
O O12 0.000000 0.000000 0.634810
O O13 0.342013 0.072167 0.470286
O O14 0.157689 0.052751 0.372048
O O15 0.834721 0.088335 0.447794
O O16 0.000000 0.000000 0.455008
O O17 0.662875 0.578322 0.271358
O O18 0.500000 0.000000 0.318115
O O19 0.000000 0.000000 0.290003
#
# Coordination Sequence:
#
# PCOD9360477 Si02
#       8
#     8   8   8   8   8   8   8   8
#     4   9  19  34  57  86 119 156 198 241 287 346
#     4  10  19  37  61  86 118 159 202 248 290 352
#     4  10  20  36  56  86 122 156 205 239 291 355
#     4  11  22  35  52  81 122 159 189 231 290 354
#     4  11  23  41  60  86 118 156 200 257 307 361
#     4  11  21  37  58  84 117 153 196 242 291 347
#     4  11  22  39  59  87 119 151 204 251 302 359
#     4  11  22  39  63  89 114 153 204 249 303 358
#
# _framework density 19.143774000000001
#
# number of rings (size 3 to 8) (size 9 to 14) (size 15 to 20)
#    0.000    1.500    2.500    4.500    0.000    1.000 
#    2.250    0.000    0.000    1.500    0.000    0.000 
#    0.000    0.000    0.000    0.000    0.000    0.000 
#
# Total GULP energy -178275.573886 kJ/mol
# GULP energy per Si atom -5571.111684 kJ/mol
# Density = 1.910020 g / cm^3
# Si number density = 19.143774 Si / 1000 Ang^3
#
#
#
# Elastic Constant Matrix: (Units=GPa)
#
#
# Indices 1 2 3 4 5 6 
#
# 1 122.0412 56.1937 30.4787 0.0000 0.0000 0.0000
# 2 56.1937 150.4906 52.8653 0.0000 0.0000 0.0000
# 3 30.4787 52.8653 59.9775 0.0000 0.0000 0.0000
# 4 0.0000 0.0000 0.0000 16.0806 0.0000 0.0000
# 5 0.0000 0.0000 0.0000 0.0000 29.8217 0.0000
# 6 0.0000 0.0000 0.0000 0.0000 0.0000 24.9161
#
#
#
# Elastic Compliance Matrix: (Units=1/GPa)
#
#
# Indices 1 2 3 4 5 6 
#
# 1 0.010176 -0.002873 -0.002639 0.000000 0.000000 0.000000
# 2 -0.002873 0.010436 -0.007739 0.000000 0.000000 0.000000
# 3 -0.002639 -0.007739 0.024835 0.000000 0.000000 0.000000
# 4 0.000000 0.000000 0.000000 0.062187 0.000000 0.000000
# 5 0.000000 0.000000 0.000000 0.000000 0.033533 0.000000
# 6 0.000000 0.000000 0.000000 0.000000 0.000000 0.040135
#
#
# Mechanical properties :
#
#
# Convention : Reuss Voigt Hill
#
# Bulk Modulus (GPa) = 52.78139 67.95385 60.36762
# Shear Modulus (GPa) = 23.35172 27.02847 25.19009
#
# Velocity S-wave (km/s) = 3.49636 3.76156 3.63138
# Velocity P-wave (km/s) = 6.62799 7.37831 7.01319
#
# Compressibility (1/GPa) = 0.01894607
#
# Stress axis : x y z
#
# Youngs Moduli (GPa) = 98.27333 95.82113 40.26557
#
# Poissons Ratio (x) = 0.27525 0.10626
# Poissons Ratio (y) = 0.28230 0.31161
# Poissons Ratio (z) = 0.25934 0.74154
#
# Static dielectric constant tensor:
#      x y z
#    x 1.759480 0.000000 0.000000 
#    y 0.000000 1.691370 0.000000 
#    z 0.000000 0.000000 1.720270 
# 
# From -- ./inp_files/15399.got.cif
#   From: 2010.05.17/outbox.cif.g08.bks.cpg/sg39_8_cif.got.tgz:15399.got - 2010.06.03 18:22:40.
