data_PCOD9360434
_publ_section_title
;
Structure prediction by ZEFSAII (Michael W. Deem and Ramdas Pophale) SiO2 
 PCOD9360434
Probable space group: A B M 2
;
_chemical_formula_sum "Si O2"
_cell_formula_units_Z 56
_cell_length_a 24.455739
_cell_length_b 8.582056
_cell_length_c 14.763427
_cell_angle_alpha 90.000000
_cell_angle_beta 90.000000
_cell_angle_gamma 90.000000
_cell_volume 3098.555760
_symmetry_space_group_name_H-M "A B M 2"
_symmetry_group_IT_number 39
_symmetry_cell_setting 'orthorhombic'
loop_
_space_group_symop_operation_xyz
x,y,z
-x,-y,z
-x,1/2+y,z
x,1/2-y,z
x,1/2+y,1/2+z
-x,1/2-y,1/2+z
-x,y,1/2+z
x,-y,1/2+z
loop_
_atom_site_type_symbol
_atom_site_label
_atom_site_fract_x
_atom_site_fract_y
_atom_site_fract_z
Si Si1 0.558440 0.562949 0.067170
Si Si2 0.147608 0.060865 0.565699
Si Si3 0.355537 0.563158 0.419103
Si Si4 0.061200 0.062813 0.415781
Si Si5 0.766638 0.563084 0.414935
Si Si6 0.440867 0.562920 0.777471
Si Si7 0.852577 0.562537 0.773917
O O1 0.500000 0.500000 0.034489
O O2 0.556161 0.750000 0.063143
O O3 0.564948 0.517493 0.171959
O O4 0.608951 0.510770 0.006095
O O5 0.147702 0.250000 0.568350
O O6 0.094949 0.013969 0.505949
O O7 0.200034 0.013640 0.505442
O O8 0.147688 0.007479 0.669500
O O9 0.351322 0.750000 0.420128
O O10 0.295422 0.492181 0.417454
O O11 0.391969 0.509181 0.334585
O O12 0.060978 0.250000 0.412652
O O13 0.095654 0.000775 0.330199
O O14 0.000000 0.000000 0.416396
O O15 0.769184 0.750000 0.409662
O O16 0.799649 0.494651 0.329516
O O17 0.500000 0.500000 0.808352
O O18 0.440218 0.750000 0.784701
O O19 0.853897 0.750000 0.774794
#
# Coordination Sequence:
#
# PCOD9360434 Si02
#       7
#     8   8   8   8   8   8   8
#     4   9  20  36  54  76 105 136 172 214 263 318
#     4   8  18  36  57  78 106 141 179 218 264 314
#     4  11  22  36  54  79 106 138 177 219 263 314
#     4  10  20  36  55  82 115 146 179 219 261 309
#     4  10  21  38  55  77 107 140 176 220 266 315
#     4  10  20  36  55  78 106 138 172 214 264 319
#     4  10  19  36  59  82 107 141 179 220 265 313
#
# _framework density 18.072935000000001
#
# number of rings (size 3 to 8) (size 9 to 14) (size 15 to 20)
#    0.000    2.286    0.000    3.429    0.000    4.571 
#    0.000   12.857    0.000    0.000    0.000    0.000 
#    0.000    0.000    0.000    0.000    0.000    0.000 
#
# Total GULP energy -156283.220098 kJ/mol
# GULP energy per Si atom -5581.543575 kJ/mol
# Density = 1.803180 g / cm^3
# Si number density = 18.072935 Si / 1000 Ang^3
#
#
#
# Elastic Constant Matrix: (Units=GPa)
#
#
# Indices 1 2 3 4 5 6 
#
# 1 194.8013 39.2877 100.0153 0.0000 0.0000 0.0000
# 2 39.2877 49.4623 35.7922 0.0000 0.0000 0.0000
# 3 100.0153 35.7922 165.8228 0.0000 0.0000 0.0000
# 4 0.0000 0.0000 0.0000 21.2599 0.0000 0.0000
# 5 0.0000 0.0000 0.0000 0.0000 15.1738 0.0000
# 6 0.0000 0.0000 0.0000 0.0000 0.0000 31.8837
#
#
#
# Elastic Compliance Matrix: (Units=1/GPa)
#
#
# Indices 1 2 3 4 5 6 
#
# 1 0.007876 -0.003340 -0.004029 0.000000 0.000000 0.000000
# 2 -0.003340 0.025376 -0.003463 0.000000 0.000000 0.000000
# 3 -0.004029 -0.003463 0.009208 0.000000 0.000000 0.000000
# 4 0.000000 0.000000 0.000000 0.047037 0.000000 0.000000
# 5 0.000000 0.000000 0.000000 0.000000 0.065903 0.000000
# 6 0.000000 0.000000 0.000000 0.000000 0.000000 0.031364
#
#
# Mechanical properties :
#
#
# Convention : Reuss Voigt Hill
#
# Bulk Modulus (GPa) = 48.08644 84.47521 66.28082
# Shear Modulus (GPa) = 23.21688 29.32956 26.27322
#
# Velocity S-wave (km/s) = 3.58805 4.03282 3.81692
# Velocity P-wave (km/s) = 6.62043 8.27814 7.49526
#
# Compressibility (1/GPa) = 0.02079589
#
# Stress axis : x y z
#
# Youngs Moduli (GPa) = 126.97136 39.40704 108.59830
#
# Poissons Ratio (x) = 0.13162 0.43758
# Poissons Ratio (y) = 0.42408 0.37606
# Poissons Ratio (z) = 0.51161 0.13646
#
# Static dielectric constant tensor:
#      x y z
#    x 1.583910 0.000000 0.000000 
#    y 0.000000 1.616220 0.000000 
#    z 0.000000 0.000000 1.627960 
# 
# From -- ./inp_files/10381.got.cif
#   From: 2010.05.17/outbox.cif.g08.bks.cpg/sg39_6_cif.got.tgz:10381.got - 2010.06.03 18:22:40.
