data_PCOD9360131
_publ_section_title
;
Structure prediction by ZEFSAII (Michael W. Deem and Ramdas Pophale) SiO2 
 PCOD9360131
Probable space group: A B M 2
;
_chemical_formula_sum "Si O2"
_cell_formula_units_Z 48
_cell_length_a 9.804625
_cell_length_b 8.665852
_cell_length_c 32.410058
_cell_angle_alpha 90.000000
_cell_angle_beta 90.000000
_cell_angle_gamma 90.000000
_cell_volume 2753.734487
_symmetry_space_group_name_H-M "A B M 2"
_symmetry_group_IT_number 39
_symmetry_cell_setting 'orthorhombic'
loop_
_space_group_symop_operation_xyz
x,y,z
-x,-y,z
-x,1/2+y,z
x,1/2-y,z
x,1/2+y,1/2+z
-x,1/2-y,1/2+z
-x,y,1/2+z
x,-y,1/2+z
loop_
_atom_site_type_symbol
_atom_site_label
_atom_site_fract_x
_atom_site_fract_y
_atom_site_fract_z
Si Si1 0.846118 0.564282 0.705940
Si Si2 0.153622 0.435371 0.615595
Si Si3 0.846377 0.566009 0.380772
Si Si4 0.651828 0.564776 0.950943
Si Si5 0.651117 0.565455 0.045642
Si Si6 0.155038 0.564233 0.295140
O O1 0.852855 0.750000 0.706304
O O2 0.788794 0.518506 0.661169
O O3 0.783106 0.519567 0.750354
O O4 0.000000 0.500000 0.705929
O O5 0.148814 0.250000 0.613695
O O6 0.245223 0.498813 0.578906
O O7 0.000000 0.500000 0.612399
O O8 0.852882 0.750000 0.380121
O O9 0.755714 0.506604 0.418398
O O10 0.786052 0.505976 0.337067
O O11 0.000000 0.500000 0.384531
O O12 0.500000 0.500000 0.943759
O O13 0.650705 0.750000 0.947127
O O14 0.689414 0.524952 0.998352
O O15 0.500000 0.500000 0.053001
O O16 0.647760 0.750000 0.048681
O O17 0.152426 0.750000 0.298560
O O18 0.000000 0.500000 0.294061
#
# Coordination Sequence:
#
# PCOD9360131 Si02
#       6
#     8   8   8   8   8   8
#     4   8  15  26  43  68  98 132 166 202 244 292
#     4  10  19  32  51  77 107 136 169 209 252 295
#     4  11  21  33  51  77 106 135 169 209 253 296
#     4  10  21  38  57  76  99 130 168 207 251 305
#     4  10  21  37  56  76  99 131 169 207 251 304
#     4   9  15  26  44  68  99 132 166 204 247 294
#
# _framework density 17.430873999999999
#
# number of rings (size 3 to 8) (size 9 to 14) (size 15 to 20)
#    0.000    2.333    0.000    4.500    0.000    4.000 
#    0.000    0.000    0.000    1.000    0.000    4.667 
#    0.000    0.000    0.000    0.000    0.000    0.000 
#
# Total GULP energy -133730.866236 kJ/mol
# GULP energy per Si atom -5572.119426 kJ/mol
# Density = 1.739120 g / cm^3
# Si number density = 17.430874 Si / 1000 Ang^3
#
#
#
# Elastic Constant Matrix: (Units=GPa)
#
#
# Indices 1 2 3 4 5 6 
#
# 1 50.2516 32.2032 84.7095 0.0000 0.0000 0.0000
# 2 32.2032 80.9136 70.8251 0.0000 0.0000 0.0000
# 3 84.7095 70.8251 207.6762 0.0000 0.0000 0.0000
# 4 0.0000 0.0000 0.0000 39.0591 0.0000 0.0000
# 5 0.0000 0.0000 0.0000 0.0000 -14.6789 0.0000
# 6 0.0000 0.0000 0.0000 0.0000 0.0000 26.0033
#
#
#
# Elastic Compliance Matrix: (Units=1/GPa)
#
#
# Indices 1 2 3 4 5 6 
#
# 1 0.064492 -0.003766 -0.025022 0.000000 0.000000 0.000000
# 2 -0.003766 0.017838 -0.004547 0.000000 0.000000 0.000000
# 3 -0.025022 -0.004547 0.016572 0.000000 0.000000 0.000000
# 4 0.000000 0.000000 0.000000 0.025602 0.000000 0.000000
# 5 0.000000 0.000000 0.000000 0.000000 -0.068125 0.000000
# 6 0.000000 0.000000 0.000000 0.000000 0.000000 0.038457
#
#
# Mechanical properties :
#
#
# Convention : Reuss Voigt Hill
#
# Bulk Modulus (GPa) = 31.02423 79.36856 55.19640
# Shear Modulus (GPa) = 29.02757 20.15026 24.58892
#
# Velocity S-wave (km/s) = 4.08523 3.40370 3.75994
# Velocity P-wave (km/s) = 6.33161 7.81531 7.11225
#
# Compressibility (1/GPa) = 0.03223287
#
# Stress axis : x y z
#
# Youngs Moduli (GPa) = 15.50576 56.06000 60.34229
#
# Poissons Ratio (x) = 0.21111 1.50986
# Poissons Ratio (y) = 0.05839 0.27440
# Poissons Ratio (z) = 0.38798 0.25493
#
# Static dielectric constant tensor:
#      x y z
#    x 1.557790 0.000000 0.000000 
#    y 0.000000 1.583020 0.000000 
#    z 0.000000 0.000000 1.654200 
# 
# From -- ./inp_files/16902.got.cif
#   From: 2010.05.17/outbox.cif.g08.bks.cpg/sg39_9_cif.got.tgz:16902.got - 2010.06.03 18:22:40.
