data_PCOD9360726
_publ_section_title
;
Structure prediction by ZEFSAII (Michael W. Deem and Ramdas Pophale) SiO2 
 PCOD9360726
Probable space group: A B M 2
;
_chemical_formula_sum "Si O2"
_cell_formula_units_Z 64
_cell_length_a 24.657202
_cell_length_b 8.797690
_cell_length_c 15.705840
_cell_angle_alpha 90.000000
_cell_angle_beta 90.000000
_cell_angle_gamma 90.000000
_cell_volume 3407.011636
_symmetry_space_group_name_H-M "A B M 2"
_symmetry_group_IT_number 39
_symmetry_cell_setting 'orthorhombic'
loop_
_space_group_symop_operation_xyz
x,y,z
-x,-y,z
-x,1/2+y,z
x,1/2-y,z
x,1/2+y,1/2+z
-x,1/2-y,1/2+z
-x,y,1/2+z
x,-y,1/2+z
loop_
_atom_site_type_symbol
_atom_site_label
_atom_site_fract_x
_atom_site_fract_y
_atom_site_fract_z
Si Si1 0.059069 0.567227 0.733720
Si Si2 0.133930 0.565738 0.576624
Si Si3 0.330315 0.567968 0.739849
Si Si4 0.557270 0.428016 0.976176
Si Si5 0.669627 0.068021 0.418302
Si Si6 0.940381 0.932633 0.429444
Si Si7 0.741106 0.064995 0.579139
Si Si8 0.442722 0.071991 0.682040
O O1 0.055165 0.750000 0.731279
O O2 0.102567 0.520109 0.663026
O O3 0.072979 0.524848 0.831249
O O4 0.000000 0.500000 0.713561
O O5 0.132540 0.750000 0.571552
O O6 0.102201 0.498442 0.496247
O O7 0.196525 0.516399 0.578478
O O8 0.329982 0.750000 0.743065
O O9 0.311705 0.500403 0.829195
O O10 0.291778 0.516222 0.662695
O O11 0.391189 0.511491 0.721359
O O12 0.500000 0.500000 0.949693
O O13 0.558712 0.250000 0.954713
O O14 0.608739 0.511657 0.936796
O O15 0.560929 0.442690 0.079107
O O16 0.669982 0.250000 0.414797
O O17 0.708037 0.016694 0.495688
O O18 0.942329 0.750000 0.435467
O O19 0.000000 0.000000 0.448017
O O20 0.740931 0.250000 0.579589
O O21 0.441316 0.250000 0.703509
O O22 0.500000 0.000000 0.708526
#
# Coordination Sequence:
#
# PCOD9360726 Si02
#       8
#     8   8   8   8   8   8   8   8
#     4   9  19  34  55  81 115 149 184 225 275 330
#     4  10  20  37  59  83 111 151 193 234 280 335
#     4  11  22  39  61  85 112 150 193 236 287 345
#     4  10  20  35  58  87 116 148 184 230 286 346
#     4  11  22  39  60  84 113 150 192 238 287 342
#     4  10  20  35  55  85 118 152 186 231 281 333
#     4   9  21  40  60  80 112 152 191 233 286 339
#     4  10  20  35  58  87 117 148 184 231 286 346
#
# _framework density 18.784790000000001
#
# number of rings (size 3 to 8) (size 9 to 14) (size 15 to 20)
#    0.000    2.000    1.250    2.250    0.000    4.500 
#    0.000    6.250    0.000    0.000    0.000    0.000 
#    0.000    0.000    0.000    0.000    0.000    0.000 
#
# Total GULP energy -178779.827660 kJ/mol
# GULP energy per Si atom -5586.869614 kJ/mol
# Density = 1.874204 g / cm^3
# Si number density = 18.784790 Si / 1000 Ang^3
#
#
#
# Elastic Constant Matrix: (Units=GPa)
#
#
# Indices 1 2 3 4 5 6 
#
# 1 164.3782 36.4437 112.3039 0.0000 0.0000 0.0000
# 2 36.4437 54.7046 49.6563 0.0000 0.0000 0.0000
# 3 112.3039 49.6563 147.0858 0.0000 0.0000 0.0000
# 4 0.0000 0.0000 0.0000 25.9257 0.0000 0.0000
# 5 0.0000 0.0000 0.0000 0.0000 -15.1905 0.0000
# 6 0.0000 0.0000 0.0000 0.0000 0.0000 23.3836
#
#
#
# Elastic Compliance Matrix: (Units=1/GPa)
#
#
# Indices 1 2 3 4 5 6 
#
# 1 0.012727 0.000493 -0.009884 0.000000 0.000000 0.000000
# 2 0.000493 0.026376 -0.009281 0.000000 0.000000 0.000000
# 3 -0.009884 -0.009281 0.017479 0.000000 0.000000 0.000000
# 4 0.000000 0.000000 0.000000 0.038572 0.000000 0.000000
# 5 0.000000 0.000000 0.000000 0.000000 -0.065830 0.000000
# 6 0.000000 0.000000 0.000000 0.000000 0.000000 0.042765
#
#
# Mechanical properties :
#
#
# Convention : Reuss Voigt Hill
#
# Bulk Modulus (GPa) = 51.98036 84.77516 68.37776
# Shear Modulus (GPa) = 43.16151 18.00807 30.58479
#
# Velocity S-wave (km/s) = 4.79862 3.09957 4.03943
# Velocity P-wave (km/s) = 7.64421 7.61823 7.63123
#
# Compressibility (1/GPa) = 0.01923804
#
# Stress axis : x y z
#
# Youngs Moduli (GPa) = 78.57422 37.91313 57.21284
#
# Poissons Ratio (x) = -0.01870 0.56548
# Poissons Ratio (y) = -0.03875 0.53100
# Poissons Ratio (z) = 0.77661 0.35188
#
# Static dielectric constant tensor:
#      x y z
#    x 1.610390 0.000000 0.000000 
#    y 0.000000 1.630360 0.000000 
#    z 0.000000 0.000000 1.663050 
# 
# From -- ./inp_files/10623.got.cif
#   From: 2010.05.17/outbox.cif.g08.bks.cpg/sg39_6_cif.got.tgz:10623.got - 2010.06.03 18:22:40.
