data_PCOD9360630
_publ_section_title
;
Structure prediction by ZEFSAII (Michael W. Deem and Ramdas Pophale) SiO2 
 PCOD9360630
Probable space group: A B M 2
;
_chemical_formula_sum "Si O2"
_cell_formula_units_Z 56
_cell_length_a 15.633360
_cell_length_b 9.017904
_cell_length_c 20.211841
_cell_angle_alpha 90.000000
_cell_angle_beta 90.000000
_cell_angle_gamma 90.000000
_cell_volume 2849.468167
_symmetry_space_group_name_H-M "A B M 2"
_symmetry_group_IT_number 39
_symmetry_cell_setting 'orthorhombic'
loop_
_space_group_symop_operation_xyz
x,y,z
-x,-y,z
-x,1/2+y,z
x,1/2-y,z
x,1/2+y,1/2+z
-x,1/2-y,1/2+z
-x,y,1/2+z
x,-y,1/2+z
loop_
_atom_site_type_symbol
_atom_site_label
_atom_site_fract_x
_atom_site_fract_y
_atom_site_fract_z
Si Si1 0.325726 0.075629 0.343100
Si Si2 0.869868 0.582552 0.296172
Si Si3 0.086823 0.074734 0.664466
Si Si4 0.587151 0.573607 0.722028
Si Si5 0.913517 0.576909 0.448550
Si Si6 0.271856 0.927474 0.110293
Si Si7 0.267954 0.073207 0.975590
O O1 0.344025 0.250000 0.351094
O O2 0.230928 0.063367 0.310606
O O3 0.389522 0.998187 0.292444
O O4 0.318811 0.996192 0.413795
O O5 0.884649 0.750000 0.270622
O O6 0.901678 0.468573 0.241657
O O7 0.912087 0.571219 0.368293
O O8 0.079756 0.250000 0.657589
O O9 0.175004 0.026911 0.629404
O O10 0.000000 0.000000 0.639722
O O11 0.500000 0.500000 0.697119
O O12 0.577399 0.750000 0.728462
O O13 0.664965 0.544810 0.671485
O O14 0.908388 0.750000 0.468062
O O15 0.828595 0.491360 0.470446
O O16 0.000000 0.500000 0.472361
O O17 0.271420 0.750000 0.097545
O O18 0.301449 0.014543 0.045599
O O19 0.267240 0.250000 0.971477
#
# Coordination Sequence:
#
# PCOD9360630 Si02
#       7
#     8   8   8   8   8   8   8
#     4  10  20  38  64  92 123 158 200 254 307 365
#     4   9  18  32  53  81 114 153 197 250 306 357
#     4  11  22  35  54  82 118 162 208 256 306 361
#     4  11  23  42  69 100 129 161 202 252 311 374
#     4  10  20  34  52  79 115 158 207 260 313 367
#     4  10  23  43  62  86 126 169 208 257 311 369
#     4  11  23  38  61  88 119 163 208 255 312 373
#
# _framework density 19.652791000000001
#
# number of rings (size 3 to 8) (size 9 to 14) (size 15 to 20)
#    0.000    1.714    1.429    4.286    0.000    6.857 
#    0.000    2.143    0.000    1.714    0.000    0.000 
#    0.000    0.000    0.000    0.000    0.000    0.000 
#
# Total GULP energy -156510.249446 kJ/mol
# GULP energy per Si atom -5589.651766 kJ/mol
# Density = 1.960806 g / cm^3
# Si number density = 19.652791 Si / 1000 Ang^3
#
#
#
# Elastic Constant Matrix: (Units=GPa)
#
#
# Indices 1 2 3 4 5 6 
#
# 1 76.0617 48.5514 27.1156 0.0000 0.0000 0.0000
# 2 48.5514 111.3533 64.0515 0.0000 0.0000 0.0000
# 3 27.1156 64.0515 104.5012 0.0000 0.0000 0.0000
# 4 0.0000 0.0000 0.0000 26.7255 0.0000 0.0000
# 5 0.0000 0.0000 0.0000 0.0000 -2.1478 0.0000
# 6 0.0000 0.0000 0.0000 0.0000 0.0000 30.7645
#
#
#
# Elastic Compliance Matrix: (Units=1/GPa)
#
#
# Indices 1 2 3 4 5 6 
#
# 1 0.018221 -0.008070 0.000219 0.000000 0.000000 0.000000
# 2 -0.008070 0.017445 -0.008599 0.000000 0.000000 0.000000
# 3 0.000219 -0.008599 0.014783 0.000000 0.000000 0.000000
# 4 0.000000 0.000000 0.000000 0.037417 0.000000 0.000000
# 5 0.000000 0.000000 0.000000 0.000000 -0.465603 0.000000
# 6 0.000000 0.000000 0.000000 0.000000 0.000000 0.032505
#
#
# Mechanical properties :
#
#
# Convention : Reuss Voigt Hill
#
# Bulk Modulus (GPa) = 56.98552 63.48369 60.23461
# Shear Modulus (GPa) = -16.31416 21.21496 2.45040
#
# Velocity S-wave (km/s) = -2.88430 3.28912 1.11783
# Velocity P-wave (km/s) = 4.23873 6.84085 5.69052
#
# Compressibility (1/GPa) = 0.01754832
#
# Stress axis : x y z
#
# Youngs Moduli (GPa) = 54.88291 57.32273 67.64610
#
# Poissons Ratio (x) = 0.46260 -0.01479
# Poissons Ratio (y) = 0.44291 0.58166
# Poissons Ratio (z) = -0.01200 0.49289
#
# Static dielectric constant tensor:
#      x y z
#    x 1.694370 0.000000 0.000000 
#    y 0.000000 1.655930 0.000000 
#    z 0.000000 0.000000 1.686350 
# 
# From -- ./inp_files/14766.got.cif
#   From: 2010.05.17/outbox.cif.g08.bks.cpg/sg39_8_cif.got.tgz:14766.got - 2010.06.03 18:22:40.
