data_PCOD9360306
_publ_section_title
;
Structure prediction by ZEFSAII (Michael W. Deem and Ramdas Pophale) SiO2 
 PCOD9360306
Probable space group: A B M 2
;
_chemical_formula_sum "Si O2"
_cell_formula_units_Z 64
_cell_length_a 15.157993
_cell_length_b 8.652994
_cell_length_c 25.177545
_cell_angle_alpha 90.000000
_cell_angle_beta 90.000000
_cell_angle_gamma 90.000000
_cell_volume 3302.337723
_symmetry_space_group_name_H-M "A B M 2"
_symmetry_group_IT_number 39
_symmetry_cell_setting 'orthorhombic'
loop_
_space_group_symop_operation_xyz
x,y,z
-x,-y,z
-x,1/2+y,z
x,1/2-y,z
x,1/2+y,1/2+z
-x,1/2-y,1/2+z
-x,y,1/2+z
x,-y,1/2+z
loop_
_atom_site_type_symbol
_atom_site_label
_atom_site_fract_x
_atom_site_fract_y
_atom_site_fract_z
Si Si1 0.151368 0.564914 0.981330
Si Si2 0.710784 0.565289 0.334241
Si Si3 0.333582 0.069427 0.945705
Si Si4 0.093120 0.935720 0.099770
Si Si5 0.279335 0.562610 0.138245
Si Si6 0.400302 0.435723 0.736437
Si Si7 0.588157 0.934173 0.546547
Si Si8 0.092389 0.566382 0.863185
O O1 0.172699 0.750000 0.982954
O O2 0.239766 0.468573 0.972797
O O3 0.098336 0.537238 0.926850
O O4 0.107139 0.524258 0.037260
O O5 0.711056 0.750000 0.327344
O O6 0.667614 0.523383 0.390833
O O7 0.653559 0.487495 0.288449
O O8 0.813958 0.511509 0.338354
O O9 0.343618 0.250000 0.935123
O O10 0.401839 0.010470 0.989192
O O11 0.091142 0.750000 0.102418
O O12 0.178529 0.991473 0.132710
O O13 0.000000 0.000000 0.118367
O O14 0.276243 0.750000 0.141708
O O15 0.340095 0.509181 0.186777
O O16 0.329521 0.525335 0.083721
O O17 0.500000 0.500000 0.735329
O O18 0.405787 0.250000 0.734606
O O19 0.584079 0.750000 0.541792
O O20 0.500000 0.000000 0.572795
O O21 0.090634 0.750000 0.856108
O O22 0.000000 0.500000 0.842699
#
# Coordination Sequence:
#
# PCOD9360306 Si02
#       8
#     8   8   8   8   8   8   8   8
#     4   9  17  32  52  76 116 163 199 237 287 340
#     4  10  22  41  61  85 118 156 195 244 298 351
#     4  11  21  34  55  86 119 154 195 240 289 348
#     4  10  19  34  55  83 118 160 201 240 289 343
#     4   9  20  39  62  84 118 157 192 239 297 350
#     4  11  23  42  67  92 113 147 196 249 302 357
#     4  11  21  37  58  84 118 156 191 234 291 356
#     4   9  18  31  52  82 116 155 196 237 285 339
#
# _framework density 19.380209000000001
#
# number of rings (size 3 to 8) (size 9 to 14) (size 15 to 20)
#    0.000    2.000    1.250    3.750    0.000    3.500 
#    0.000    6.250    0.000    3.000    0.000    0.000 
#    0.000    0.000    0.000    0.000    0.000    0.000 
#
# Total GULP energy -178548.219306 kJ/mol
# GULP energy per Si atom -5579.631853 kJ/mol
# Density = 1.933610 g / cm^3
# Si number density = 19.380209 Si / 1000 Ang^3
#
#
#
# Elastic Constant Matrix: (Units=GPa)
#
#
# Indices 1 2 3 4 5 6 
#
# 1 163.7619 35.6705 61.8878 0.0000 0.0000 0.0000
# 2 35.6705 25.1482 13.9100 0.0000 0.0000 0.0000
# 3 61.8878 13.9100 87.5155 0.0000 0.0000 0.0000
# 4 0.0000 0.0000 0.0000 12.8095 0.0000 0.0000
# 5 0.0000 0.0000 0.0000 0.0000 17.7205 0.0000
# 6 0.0000 0.0000 0.0000 0.0000 0.0000 33.6488
#
#
#
# Elastic Compliance Matrix: (Units=1/GPa)
#
#
# Indices 1 2 3 4 5 6 
#
# 1 0.011001 -0.012390 -0.005810 0.000000 0.000000 0.000000
# 2 -0.012390 0.057552 -0.000386 0.000000 0.000000 0.000000
# 3 -0.005810 -0.000386 0.015597 0.000000 0.000000 0.000000
# 4 0.000000 0.000000 0.000000 0.078067 0.000000 0.000000
# 5 0.000000 0.000000 0.000000 0.000000 0.056432 0.000000
# 6 0.000000 0.000000 0.000000 0.000000 0.000000 0.029719
#
#
# Mechanical properties :
#
#
# Convention : Reuss Voigt Hill
#
# Bulk Modulus (GPa) = 21.28670 55.48467 38.38569
# Shear Modulus (GPa) = 16.60036 23.83292 20.21664
#
# Velocity S-wave (km/s) = 2.92988 3.51059 3.23330
# Velocity P-wave (km/s) = 4.73848 6.71744 5.81280
#
# Compressibility (1/GPa) = 0.04697768
#
# Stress axis : x y z
#
# Youngs Moduli (GPa) = 90.90088 17.37557 64.11665
#
# Poissons Ratio (x) = 0.21529 0.37253
# Poissons Ratio (y) = 1.12628 0.02472
# Poissons Ratio (z) = 0.52815 0.00670
#
# Static dielectric constant tensor:
#      x y z
#    x 1.671200 0.000000 0.000000 
#    y 0.000000 1.659850 0.000000 
#    z 0.000000 0.000000 1.679550 
# 
# From -- ./inp_files/16230.got.cif
#   From: 2010.05.17/outbox.cif.g08.bks.cpg/sg39_9_cif.got.tgz:16230.got - 2010.06.03 18:22:40.
