data_PCOD9360407
_publ_section_title
;
Structure prediction by ZEFSAII (Michael W. Deem and Ramdas Pophale) SiO2 
 PCOD9360407
Probable space group: A B M 2
;
_chemical_formula_sum "Si O2"
_cell_formula_units_Z 64
_cell_length_a 24.471439
_cell_length_b 8.534445
_cell_length_c 15.958239
_cell_angle_alpha 90.000000
_cell_angle_beta 90.000000
_cell_angle_gamma 90.000000
_cell_volume 3332.880612
_symmetry_space_group_name_H-M "A B M 2"
_symmetry_group_IT_number 39
_symmetry_cell_setting 'orthorhombic'
loop_
_space_group_symop_operation_xyz
x,y,z
-x,-y,z
-x,1/2+y,z
x,1/2-y,z
x,1/2+y,1/2+z
-x,1/2-y,1/2+z
-x,y,1/2+z
x,-y,1/2+z
loop_
_atom_site_type_symbol
_atom_site_label
_atom_site_fract_x
_atom_site_fract_y
_atom_site_fract_z
Si Si1 0.752718 0.562412 0.594380
Si Si2 0.868824 0.561026 0.835251
Si Si3 0.248023 0.939320 0.405003
Si Si4 0.438608 0.562195 0.996561
Si Si5 0.366789 0.941060 0.154618
Si Si6 0.938548 0.560487 0.996744
Si Si7 0.132698 0.062899 0.155768
Si Si8 0.367912 0.060716 0.842169
O O1 0.754719 0.750000 0.599365
O O2 0.753515 0.509598 0.497852
O O3 0.695305 0.509923 0.634420
O O4 0.805836 0.495566 0.639682
O O5 0.869734 0.750000 0.831747
O O6 0.806347 0.512606 0.855292
O O7 0.886673 0.496070 0.745914
O O8 0.906529 0.510374 0.912836
O O9 0.246613 0.750000 0.412221
O O10 0.304831 0.982579 0.360872
O O11 0.500000 0.500000 0.995723
O O12 0.439319 0.750000 0.997845
O O13 0.406270 0.506518 0.079761
O O14 0.405840 0.507302 0.914603
O O15 0.366995 0.750000 0.154113
O O16 0.382956 0.990807 0.248129
O O17 0.938887 0.750000 0.997201
O O18 0.905033 0.507304 0.078737
O O19 0.000000 0.500000 0.997686
O O20 0.132667 0.250000 0.154596
O O21 0.371304 0.250000 0.845591
#
# Coordination Sequence:
#
# PCOD9360407 Si02
#       8
#     8   8   8   8   8   8   8   8
#     4  11  20  35  61  90 121 158 194 235 293 354
#     4  10  21  40  62  87 120 158 193 238 297 352
#     4  10  19  35  60  88 124 157 189 235 296 355
#     4  11  23  41  60  83 115 151 197 246 289 341
#     4   9  20  38  60  86 119 153 189 235 288 345
#     4  10  23  42  62  83 117 156 199 248 297 346
#     4  11  23  40  60  89 122 155 196 245 293 350
#     4  10  20  37  62  88 116 154 190 231 290 349
#
# _framework density 19.202608000000001
#
# number of rings (size 3 to 8) (size 9 to 14) (size 15 to 20)
#    0.000    1.750    2.500    1.875    0.000    5.000 
#    0.000    7.500    0.000    0.000    0.000    0.000 
#    0.000    0.000    0.000    0.000    0.000    0.000 
#
# Total GULP energy -178791.484071 kJ/mol
# GULP energy per Si atom -5587.233877 kJ/mol
# Density = 1.915890 g / cm^3
# Si number density = 19.202608 Si / 1000 Ang^3
#
#
#
# Elastic Constant Matrix: (Units=GPa)
#
#
# Indices 1 2 3 4 5 6 
#
# 1 158.0403 27.4848 93.0697 0.0000 0.0000 0.0000
# 2 27.4848 12.8063 32.6252 0.0000 0.0000 0.0000
# 3 93.0697 32.6252 202.1160 0.0000 0.0000 0.0000
# 4 0.0000 0.0000 0.0000 24.3201 0.0000 0.0000
# 5 0.0000 0.0000 0.0000 0.0000 1.0449 0.0000
# 6 0.0000 0.0000 0.0000 0.0000 0.0000 21.1119
#
#
#
# Elastic Compliance Matrix: (Units=1/GPa)
#
#
# Indices 1 2 3 4 5 6 
#
# 1 0.010572 -0.017473 -0.002048 0.000000 0.000000 0.000000
# 2 -0.017473 0.161503 -0.018024 0.000000 0.000000 0.000000
# 3 -0.002048 -0.018024 0.008800 0.000000 0.000000 0.000000
# 4 0.000000 0.000000 0.000000 0.041118 0.000000 0.000000
# 5 0.000000 0.000000 0.000000 0.000000 0.957022 0.000000
# 6 0.000000 0.000000 0.000000 0.000000 0.000000 0.047367
#
#
# Mechanical properties :
#
#
# Convention : Reuss Voigt Hill
#
# Bulk Modulus (GPa) = 9.45299 75.48022 42.46661
# Shear Modulus (GPa) = 3.74046 23.94757 13.84402
#
# Velocity S-wave (km/s) = 1.39718 3.53526 2.68795
# Velocity P-wave (km/s) = 2.74523 7.48710 5.63884
#
# Compressibility (1/GPa) = 0.10578659
#
# Stress axis : x y z
#
# Youngs Moduli (GPa) = 94.58818 6.19183 113.63682
#
# Poissons Ratio (x) = 0.10819 0.23270
# Poissons Ratio (y) = 1.65273 2.04815
# Poissons Ratio (z) = 0.19370 0.11160
#
# Static dielectric constant tensor:
#      x y z
#    x 1.643530 0.000000 0.000000 
#    y 0.000000 1.658930 0.000000 
#    z 0.000000 0.000000 1.662640 
# 
# From -- ./inp_files/10632.got.cif
#   From: 2010.05.17/outbox.cif.g08.bks.cpg/sg39_6_cif.got.tgz:10632.got - 2010.06.03 18:22:40.
