data_PCOD9360324
_publ_section_title
;
Structure prediction by ZEFSAII (Michael W. Deem and Ramdas Pophale) SiO2 
 PCOD9360324
Probable space group: A B M 2
;
_chemical_formula_sum "Si O2"
_cell_formula_units_Z 64
_cell_length_a 19.728936
_cell_length_b 8.698297
_cell_length_c 20.854566
_cell_angle_alpha 90.000000
_cell_angle_beta 90.000000
_cell_angle_gamma 90.000000
_cell_volume 3578.813382
_symmetry_space_group_name_H-M "A B M 2"
_symmetry_group_IT_number 39
_symmetry_cell_setting 'orthorhombic'
loop_
_space_group_symop_operation_xyz
x,y,z
-x,-y,z
-x,1/2+y,z
x,1/2-y,z
x,1/2+y,1/2+z
-x,1/2-y,1/2+z
-x,y,1/2+z
x,-y,1/2+z
loop_
_atom_site_type_symbol
_atom_site_label
_atom_site_fract_x
_atom_site_fract_y
_atom_site_fract_z
Si Si1 0.427781 0.934504 0.951780
Si Si2 0.211523 0.565474 0.137441
Si Si3 0.292609 0.567131 0.758210
Si Si4 0.427353 0.066267 0.808349
Si Si5 0.785650 0.932464 0.879411
Si Si6 0.716548 0.065146 0.004574
Si Si7 0.072989 0.933648 0.679616
Si Si8 0.070913 0.066913 0.822594
O O1 0.432585 0.750000 0.946140
O O2 0.500000 0.000000 0.974526
O O3 0.415633 0.003448 0.880731
O O4 0.362841 0.973897 0.995080
O O5 0.207688 0.750000 0.142210
O O6 0.251263 0.500679 0.198753
O O7 0.252086 0.523733 0.073049
O O8 0.135863 0.497477 0.139238
O O9 0.296733 0.750000 0.753427
O O10 0.366996 0.494296 0.764244
O O11 0.254106 0.520150 0.823358
O O12 0.428722 0.250000 0.809947
O O13 0.500000 0.000000 0.787989
O O14 0.774029 0.750000 0.871311
O O15 0.865253 0.962417 0.868102
O O16 0.758166 0.986772 0.947494
O O17 0.721891 0.250000 0.997241
O O18 0.071681 0.750000 0.678456
O O19 0.083530 0.990592 0.753073
O O20 0.000000 0.000000 0.659271
O O21 0.064667 0.250000 0.812830
O O22 0.000000 0.000000 0.847173
#
# Coordination Sequence:
#
# PCOD9360324 Si02
#       8
#     8   8   8   8   8   8   8   8
#     4  10  19  34  56  85 115 150 193 237 288 350
#     4  11  23  41  60  85 119 158 200 247 297 348
#     4  12  23  37  59  87 117 153 196 243 294 350
#     4  11  21  35  57  87 119 154 192 245 297 348
#     4  11  22  36  59  87 117 151 193 243 292 347
#     4  10  23  40  60  84 118 157 197 243 293 352
#     4  11  21  35  58  86 115 152 193 243 293 353
#     4  10  20  34  55  85 118 151 191 241 293 349
#
# _framework density 17.883022
#
# number of rings (size 3 to 8) (size 9 to 14) (size 15 to 20)
#    0.000    1.250    2.500    6.375    0.000    3.000 
#    0.000    1.250    0.000    3.000    0.000    0.000 
#    0.000    0.000    0.000    0.000    0.000    0.000 
#
# Total GULP energy -178833.774838 kJ/mol
# GULP energy per Si atom -5588.555464 kJ/mol
# Density = 1.784232 g / cm^3
# Si number density = 17.883022 Si / 1000 Ang^3
#
#
#
# Elastic Constant Matrix: (Units=GPa)
#
#
# Indices 1 2 3 4 5 6 
#
# 1 171.1079 72.8620 61.3441 0.0000 0.0000 0.0000
# 2 72.8620 111.9738 46.7034 0.0000 0.0000 0.0000
# 3 61.3441 46.7034 76.9884 0.0000 0.0000 0.0000
# 4 0.0000 0.0000 0.0000 21.2160 0.0000 0.0000
# 5 0.0000 0.0000 0.0000 0.0000 28.2162 0.0000
# 6 0.0000 0.0000 0.0000 0.0000 0.0000 34.6062
#
#
#
# Elastic Compliance Matrix: (Units=1/GPa)
#
#
# Indices 1 2 3 4 5 6 
#
# 1 0.009343 -0.003982 -0.005029 0.000000 0.000000 0.000000
# 2 -0.003982 0.013653 -0.005109 0.000000 0.000000 0.000000
# 3 -0.005029 -0.005109 0.020095 0.000000 0.000000 0.000000
# 4 0.000000 0.000000 0.000000 0.047134 0.000000 0.000000
# 5 0.000000 0.000000 0.000000 0.000000 0.035441 0.000000
# 6 0.000000 0.000000 0.000000 0.000000 0.000000 0.028897
#
#
# Mechanical properties :
#
#
# Convention : Reuss Voigt Hill
#
# Bulk Modulus (GPa) = 67.33642 80.20988 73.77315
# Shear Modulus (GPa) = 26.63081 28.75173 27.69127
#
# Velocity S-wave (km/s) = 3.86316 4.01405 3.93933
# Velocity P-wave (km/s) = 7.59172 8.15066 7.87615
#
# Compressibility (1/GPa) = 0.01485080
#
# Stress axis : x y z
#
# Youngs Moduli (GPa) = 107.03536 73.24496 49.76288
#
# Poissons Ratio (x) = 0.29166 0.25024
# Poissons Ratio (y) = 0.42621 0.25426
# Poissons Ratio (z) = 0.53825 0.37424
#
# Static dielectric constant tensor:
#      x y z
#    x 1.632990 0.000000 0.000000 
#    y 0.000000 1.598230 0.000000 
#    z 0.000000 0.000000 1.571620 
# 
# From -- ./inp_files/15069.got.cif
#   From: 2010.05.17/outbox.cif.g08.bks.cpg/sg39_8_cif.got.tgz:15069.got - 2010.06.03 18:22:40.
