data_PCOD9360772
_publ_section_title
;
Structure prediction by ZEFSAII (Michael W. Deem and Ramdas Pophale) SiO2 
 PCOD9360772
Probable space group: A B M 2
;
_chemical_formula_sum "Si O2"
_cell_formula_units_Z 44
_cell_length_a 12.033223
_cell_length_b 15.824035
_cell_length_c 11.005868
_cell_angle_alpha 90.000000
_cell_angle_beta 90.000000
_cell_angle_gamma 90.000000
_cell_volume 2095.672911
_symmetry_space_group_name_H-M "A B M 2"
_symmetry_group_IT_number 39
_symmetry_cell_setting 'orthorhombic'
loop_
_space_group_symop_operation_xyz
x,y,z
-x,-y,z
-x,1/2+y,z
x,1/2-y,z
x,1/2+y,1/2+z
-x,1/2-y,1/2+z
-x,y,1/2+z
x,-y,1/2+z
loop_
_atom_site_type_symbol
_atom_site_label
_atom_site_fract_x
_atom_site_fract_y
_atom_site_fract_z
Si Si1 0.944506 0.407013 0.342550
Si Si2 0.314655 0.105092 0.847419
Si Si3 0.500000 0.500000 0.741004
Si Si4 0.532456 0.154990 0.562860
Si Si5 0.056481 0.592706 0.073814
Si Si6 0.288154 0.343489 0.573237
O O1 0.813765 0.414864 0.368800
O O2 0.958626 0.368187 0.208063
O O3 0.000000 0.500000 0.335011
O O4 0.001356 0.363251 0.457789
O O5 0.394978 0.026573 0.820574
O O6 0.315099 0.153253 0.717692
O O7 0.373942 0.149744 0.960028
O O8 0.460113 0.578257 0.657420
O O9 0.535302 0.250000 0.616509
O O10 0.406915 0.143782 0.509847
O O11 0.189312 0.590696 0.052497
O O12 0.000000 0.500000 0.079372
O O13 0.245942 0.250000 0.542570
#
# Coordination Sequence:
#
# PCOD9360772 Si02
#       6
#     8   8   4   8   8   8
#     4   9  19  33  54  80 111 152 198 249 301 359
#     4  10  20  35  57  86 121 158 200 252 313 371
#     4  10  22  36  58  90 124 160 204 252 312 380
#     4  10  21  38  61  90 122 158 203 253 308 379
#     4   9  18  34  55  79 107 147 195 241 294 355
#     4   9  19  37  58  81 114 155 196 246 312 374
#
# _framework density 20.995645
#
# number of rings (size 3 to 8) (size 9 to 14) (size 15 to 20)
#    0.000    2.545    0.000    1.091    0.000   13.818 
#    0.000    6.364    0.000    0.000    0.000    1.273 
#    0.000    0.000    0.000    0.000    0.000    0.000 
#
# Total GULP energy -122543.815512 kJ/mol
# GULP energy per Si atom -5570.173432 kJ/mol
# Density = 2.094786 g / cm^3
# Si number density = 20.995645 Si / 1000 Ang^3
#
#
#
# Elastic Constant Matrix: (Units=GPa)
#
#
# Indices 1 2 3 4 5 6 
#
# 1 114.7034 5.5710 22.6178 0.0000 0.0000 0.0000
# 2 5.5710 72.8634 -4.4018 0.0000 0.0000 0.0000
# 3 22.6178 -4.4018 96.5006 0.0000 0.0000 0.0000
# 4 0.0000 0.0000 0.0000 3.8099 0.0000 0.0000
# 5 0.0000 0.0000 0.0000 0.0000 39.5066 0.0000
# 6 0.0000 0.0000 0.0000 0.0000 0.0000 11.6282
#
#
#
# Elastic Compliance Matrix: (Units=1/GPa)
#
#
# Indices 1 2 3 4 5 6 
#
# 1 0.009191 -0.000835 -0.002192 0.000000 0.000000 0.000000
# 2 -0.000835 0.013838 0.000827 0.000000 0.000000 0.000000
# 3 -0.002192 0.000827 0.010914 0.000000 0.000000 0.000000
# 4 0.000000 0.000000 0.000000 0.262477 0.000000 0.000000
# 5 0.000000 0.000000 0.000000 0.000000 0.025312 0.000000
# 6 0.000000 0.000000 0.000000 0.000000 0.000000 0.085998
#
#
# Mechanical properties :
#
#
# Convention : Reuss Voigt Hill
#
# Bulk Modulus (GPa) = 33.84973 36.84904 35.34938
# Shear Modulus (GPa) = 11.84894 28.34094 20.09494
#
# Velocity S-wave (km/s) = 2.37819 3.67801 3.09706
# Velocity P-wave (km/s) = 4.86809 5.96875 5.44629
#
# Compressibility (1/GPa) = 0.02954233
#
# Stress axis : x y z
#
# Youngs Moduli (GPa) = 108.80223 72.26409 91.62393
#
# Poissons Ratio (x) = 0.06035 0.20087
# Poissons Ratio (y) = 0.09087 -0.07577
# Poissons Ratio (z) = 0.23853 -0.05976
#
# Static dielectric constant tensor:
#      x y z
#    x 1.754360 0.000000 0.000000 
#    y 0.000000 1.787720 0.000000 
#    z 0.000000 0.000000 1.812000 
# 
# From -- ./inp_files/5839.got.cif
#   From: 2010.05.17/outbox.cif.g08.bks.cpg/sg39_3_cif.got.tgz:5839.got - 2010.06.03 18:22:40.
