data_PCOD9360436
_publ_section_title
;
Structure prediction by ZEFSAII (Michael W. Deem and Ramdas Pophale) SiO2 
 PCOD9360436
Probable space group: A B M 2
;
_chemical_formula_sum "Si O2"
_cell_formula_units_Z 56
_cell_length_a 24.319809
_cell_length_b 8.495615
_cell_length_c 14.698817
_cell_angle_alpha 90.000000
_cell_angle_beta 90.000000
_cell_angle_gamma 90.000000
_cell_volume 3036.948070
_symmetry_space_group_name_H-M "A B M 2"
_symmetry_group_IT_number 39
_symmetry_cell_setting 'orthorhombic'
loop_
_space_group_symop_operation_xyz
x,y,z
-x,-y,z
-x,1/2+y,z
x,1/2-y,z
x,1/2+y,1/2+z
-x,1/2-y,1/2+z
-x,y,1/2+z
x,-y,1/2+z
loop_
_atom_site_type_symbol
_atom_site_label
_atom_site_fract_x
_atom_site_fract_y
_atom_site_fract_z
Si Si1 0.639460 0.935513 0.750000
Si Si2 0.762634 0.060818 0.756186
Si Si3 0.850207 0.060434 0.398604
Si Si4 0.851198 0.558933 0.107615
Si Si5 0.938131 0.060725 0.757657
Si Si6 0.558128 0.936088 0.102197
Si Si7 0.560267 0.436613 0.899957
O O1 0.635621 0.750000 0.733710
O O2 0.702446 0.987893 0.755462
O O3 0.607113 0.025494 0.670319
O O4 0.607178 0.980167 0.841711
O O5 0.758843 0.250000 0.756877
O O6 0.798014 0.012372 0.667058
O O7 0.798314 0.006122 0.842795
O O8 0.848029 0.250000 0.397075
O O9 0.850934 0.005589 0.503433
O O10 0.903809 0.004110 0.343356
O O11 0.851485 0.750000 0.105637
O O12 0.904111 0.510663 0.167353
O O13 0.937473 0.250000 0.761468
O O14 0.000000 0.000000 0.756449
O O15 0.553329 0.750000 0.086710
O O16 0.500000 0.000000 0.140022
O O17 0.566814 0.021827 0.006035
O O18 0.500000 0.500000 0.872949
O O19 0.562440 0.250000 0.885634
#
# Coordination Sequence:
#
# PCOD9360436 Si02
#       7
#     8   8   8   8   8   8   8
#     4  12  24  39  58  84 114 150 192 236 284 339
#     4  10  21  39  57  80 111 145 184 232 281 332
#     4  10  19  36  59  83 109 145 185 227 276 331
#     4   8  18  36  58  79 108 145 183 223 273 326
#     4  10  20  36  55  82 115 148 183 227 273 324
#     4  11  22  39  60  85 115 149 186 232 285 344
#     4  11  22  39  60  85 114 148 187 233 286 344
#
# _framework density 18.439564000000001
#
# number of rings (size 3 to 8) (size 9 to 14) (size 15 to 20)
#    0.000    1.714    0.000    7.286    0.000    1.714 
#    0.000   14.286    0.000    0.000    0.000    0.000 
#    0.000    0.000    0.000    0.000    0.000    0.000 
#
# Total GULP energy -156442.463633 kJ/mol
# GULP energy per Si atom -5587.230844 kJ/mol
# Density = 1.839759 g / cm^3
# Si number density = 18.439564 Si / 1000 Ang^3
#
#
#
# Elastic Constant Matrix: (Units=GPa)
#
#
# Indices 1 2 3 4 5 6 
#
# 1 145.1064 2.6834 58.1531 0.0000 0.0000 0.0000
# 2 2.6834 58.3843 -3.5197 0.0000 0.0000 0.0000
# 3 58.1531 -3.5197 127.6441 0.0000 0.0000 0.0000
# 4 0.0000 0.0000 0.0000 29.1721 0.0000 0.0000
# 5 0.0000 0.0000 0.0000 0.0000 10.9068 0.0000
# 6 0.0000 0.0000 0.0000 0.0000 0.0000 32.2402
#
#
#
# Elastic Compliance Matrix: (Units=1/GPa)
#
#
# Indices 1 2 3 4 5 6 
#
# 1 0.008453 -0.000622 -0.003868 0.000000 0.000000 0.000000
# 2 -0.000622 0.017202 0.000758 0.000000 0.000000 0.000000
# 3 -0.003868 0.000758 0.009618 0.000000 0.000000 0.000000
# 4 0.000000 0.000000 0.000000 0.034279 0.000000 0.000000
# 5 0.000000 0.000000 0.000000 0.000000 0.091686 0.000000
# 6 0.000000 0.000000 0.000000 0.000000 0.000000 0.031017
#
#
# Mechanical properties :
#
#
# Convention : Reuss Voigt Hill
#
# Bulk Modulus (GPa) = 35.96089 49.52981 42.74535
# Shear Modulus (GPa) = 23.92458 32.71836 28.32147
#
# Velocity S-wave (km/s) = 3.60593 4.21688 3.92332
# Velocity P-wave (km/s) = 6.07300 7.11536 6.61475
#
# Compressibility (1/GPa) = 0.02780799
#
# Stress axis : x y z
#
# Youngs Moduli (GPa) = 118.29731 58.13232 103.97667
#
# Poissons Ratio (x) = 0.03614 0.40222
# Poissons Ratio (y) = 0.07355 -0.07877
# Poissons Ratio (z) = 0.45762 -0.04404
#
# Static dielectric constant tensor:
#      x y z
#    x 1.599960 0.000000 0.000000 
#    y 0.000000 1.622370 0.000000 
#    z 0.000000 0.000000 1.629460 
# 
# From -- ./inp_files/10348.got.cif
#   From: 2010.05.17/outbox.cif.g08.bks.cpg/sg39_6_cif.got.tgz:10348.got - 2010.06.03 18:22:40.
