data_PCOD9360346
_publ_section_title
;
Structure prediction by ZEFSAII (Michael W. Deem and Ramdas Pophale) SiO2 
 PCOD9360346
Probable space group: A B M 2
;
_chemical_formula_sum "Si O2"
_cell_formula_units_Z 48
_cell_length_a 14.541749
_cell_length_b 15.632095
_cell_length_c 8.226682
_cell_angle_alpha 90.000000
_cell_angle_beta 90.000000
_cell_angle_gamma 90.000000
_cell_volume 1870.072914
_symmetry_space_group_name_H-M "A B M 2"
_symmetry_group_IT_number 39
_symmetry_cell_setting 'orthorhombic'
loop_
_space_group_symop_operation_xyz
x,y,z
-x,-y,z
-x,1/2+y,z
x,1/2-y,z
x,1/2+y,1/2+z
-x,1/2-y,1/2+z
-x,y,1/2+z
x,-y,1/2+z
loop_
_atom_site_type_symbol
_atom_site_label
_atom_site_fract_x
_atom_site_fract_y
_atom_site_fract_z
Si Si1 0.689040 0.425591 0.397900
Si Si2 0.798489 0.346285 0.105941
Si Si3 0.356087 0.624530 0.896915
Si Si4 0.977233 0.147421 0.259471
Si Si5 0.478075 0.603166 0.594397
Si Si6 0.855391 0.147394 0.581624
O O1 0.737226 0.399406 0.231424
O O2 0.590168 0.386311 0.440061
O O3 0.665760 0.524459 0.394069
O O4 0.761346 0.400809 0.539814
O O5 0.800961 0.250000 0.173952
O O6 0.903150 0.377165 0.119230
O O7 0.744644 0.340310 0.936556
O O8 0.416890 0.641101 0.738753
O O9 0.425557 0.644147 0.045266
O O10 0.991892 0.250000 0.248315
O O11 0.922244 0.132845 0.425031
O O12 0.079280 0.112980 0.226199
O O13 0.500000 0.500000 0.620810
O O14 0.836655 0.250000 0.591737
#
# Coordination Sequence:
#
# PCOD9360346 Si02
#       6
#     8   8   8   8   8   8
#     4  10  19  34  58  84 110 146 193 238 279 332
#     4  10  21  39  59  85 119 153 187 235 290 337
#     4  11  21  37  60  83 110 149 193 235 281 342
#     4   8  16  31  53  77 110 152 187 220 277 345
#     4  10  20  35  57  83 111 146 188 229 281 348
#     4   9  17  32  53  80 110 146 188 231 276 332
#
# _framework density 25.667449000000001
#
# number of rings (size 3 to 8) (size 9 to 14) (size 15 to 20)
#    0.000    2.333    0.000    6.000    0.000    1.333 
#    0.000    8.333    0.000    4.000    0.000    0.000 
#    0.000    0.000    0.000    0.000    0.000    0.000 
#
# Total GULP energy -134068.868722 kJ/mol
# GULP energy per Si atom -5586.202863 kJ/mol
# Density = 2.560903 g / cm^3
# Si number density = 25.667449 Si / 1000 Ang^3
#
#
#
# Elastic Constant Matrix: (Units=GPa)
#
#
# Indices 1 2 3 4 5 6 
#
# 1 155.4978 16.3139 21.3914 0.0000 0.0000 0.0000
# 2 16.3139 42.4928 8.1781 0.0000 0.0000 0.0000
# 3 21.3914 8.1781 68.5852 0.0000 0.0000 0.0000
# 4 0.0000 0.0000 0.0000 10.4344 0.0000 0.0000
# 5 0.0000 0.0000 0.0000 0.0000 65.2231 0.0000
# 6 0.0000 0.0000 0.0000 0.0000 0.0000 24.1696
#
#
#
# Elastic Compliance Matrix: (Units=1/GPa)
#
#
# Indices 1 2 3 4 5 6 
#
# 1 0.006932 -0.002298 -0.001888 0.000000 0.000000 0.000000
# 2 -0.002298 0.024848 -0.002246 0.000000 0.000000 0.000000
# 3 -0.001888 -0.002246 0.015437 0.000000 0.000000 0.000000
# 4 0.000000 0.000000 0.000000 0.095837 0.000000 0.000000
# 5 0.000000 0.000000 0.000000 0.000000 0.015332 0.000000
# 6 0.000000 0.000000 0.000000 0.000000 0.000000 0.041374
#
#
# Mechanical properties :
#
#
# Convention : Reuss Voigt Hill
#
# Bulk Modulus (GPa) = 29.10981 39.81583 34.46282
# Shear Modulus (GPa) = 22.31395 34.67824 28.49610
#
# Velocity S-wave (km/s) = 2.95167 3.67966 3.33559
# Velocity P-wave (km/s) = 4.79398 5.79647 5.31890
#
# Compressibility (1/GPa) = 0.03435268
#
# Stress axis : x y z
#
# Youngs Moduli (GPa) = 144.26339 40.24487 64.77910
#
# Poissons Ratio (x) = 0.09248 0.12230
# Poissons Ratio (y) = 0.33150 0.14550
# Poissons Ratio (z) = 0.27237 0.09040
#
# Static dielectric constant tensor:
#      x y z
#    x 1.976820 0.000000 0.000000 
#    y 0.000000 2.055330 0.000000 
#    z 0.000000 0.000000 2.147950 
# 
# From -- ./inp_files/3303.got.cif
#   From: 2010.05.17/outbox.cif.g08.bks.cpg/sg39_2_cif.got.tgz:3303.got - 2010.06.03 18:22:40.
