data_PCOD9360420
_publ_section_title
;
Structure prediction by ZEFSAII (Michael W. Deem and Ramdas Pophale) SiO2 
 PCOD9360420
Probable space group: A B M 2
;
_chemical_formula_sum "Si O2"
_cell_formula_units_Z 64
_cell_length_a 7.865936
_cell_length_b 15.528693
_cell_length_c 23.482061
_cell_angle_alpha 90.000000
_cell_angle_beta 90.000000
_cell_angle_gamma 90.000000
_cell_volume 2868.279867
_symmetry_space_group_name_H-M "A B M 2"
_symmetry_group_IT_number 39
_symmetry_cell_setting 'orthorhombic'
loop_
_space_group_symop_operation_xyz
x,y,z
-x,-y,z
-x,1/2+y,z
x,1/2-y,z
x,1/2+y,1/2+z
-x,1/2-y,1/2+z
-x,y,1/2+z
x,-y,1/2+z
loop_
_atom_site_type_symbol
_atom_site_label
_atom_site_fract_x
_atom_site_fract_y
_atom_site_fract_z
Si Si1 0.716196 0.345950 0.962780
Si Si2 0.795474 0.345361 0.191854
Si Si3 0.606447 0.655298 0.160628
Si Si4 0.702142 0.015779 0.745469
Si Si5 0.636802 0.938663 0.048469
Si Si6 0.135783 0.923999 0.077721
Si Si7 0.311767 0.348520 0.944706
Si Si8 0.798782 0.506950 0.372690
O O1 0.774582 0.250000 0.946274
O O2 0.510188 0.342102 0.963504
O O3 0.756030 0.419957 0.918202
O O4 0.805739 0.371478 0.022265
O O5 0.840910 0.250000 0.213933
O O6 0.591349 0.344140 0.179869
O O7 0.811063 0.430310 0.230528
O O8 0.890224 0.364498 0.132121
O O9 0.677366 0.750000 0.169035
O O10 0.718966 0.590319 0.198408
O O11 0.597075 0.634895 0.093394
O O12 0.500000 0.000000 0.743034
O O13 0.739524 0.036756 0.810697
O O14 0.500000 0.000000 0.016635
O O15 0.704104 0.013914 0.090339
O O16 0.759537 0.897625 0.000821
O O17 0.000000 0.000000 0.068396
O O18 0.252431 0.250000 0.935531
O O19 0.281196 0.415042 0.893103
O O20 0.000000 0.500000 0.372127
#
# Coordination Sequence:
#
# PCOD9360420 Si02
#       8
#     8   8   8   8   8   8   8   8
#     4  11  23  42  67  95 124 165 216 266 313 372
#     4  10  20  38  65  93 124 164 210 260 308 367
#     4  10  19  35  63  98 126 158 210 262 309 363
#     4  10  21  40  65  90 118 164 222 272 312 366
#     4  12  18  36  64  92 128 165 202 249 308 371
#     4  12  23  37  61  94 133 171 201 246 319 388
#     4  11  23  40  68  98 125 163 216 266 311 374
#     4  12  26  44  64  90 129 170 207 263 332 393
#
# _framework density 22.313025
#
# number of rings (size 3 to 8) (size 9 to 14) (size 15 to 20)
#    0.000    1.000    5.000    2.625    0.000    4.000 
#    0.000    4.375    0.000    0.000    0.000    0.000 
#    0.000    0.000    0.000    0.000    0.000    0.000 
#
# Total GULP energy -178420.020803 kJ/mol
# GULP energy per Si atom -5575.625650 kJ/mol
# Density = 2.226224 g / cm^3
# Si number density = 22.313025 Si / 1000 Ang^3
#
#
#
# Elastic Constant Matrix: (Units=GPa)
#
#
# Indices 1 2 3 4 5 6 
#
# 1 32.6923 24.5166 5.5632 0.0000 0.0000 0.0000
# 2 24.5166 161.6693 47.3928 0.0000 0.0000 0.0000
# 3 5.5632 47.3928 106.9021 0.0000 0.0000 0.0000
# 4 0.0000 0.0000 0.0000 11.6556 0.0000 0.0000
# 5 0.0000 0.0000 0.0000 0.0000 -13.2357 0.0000
# 6 0.0000 0.0000 0.0000 0.0000 0.0000 15.4954
#
#
#
# Elastic Compliance Matrix: (Units=1/GPa)
#
#
# Indices 1 2 3 4 5 6 
#
# 1 0.034547 -0.005416 0.000603 0.000000 0.000000 0.000000
# 2 -0.005416 0.007958 -0.003246 0.000000 0.000000 0.000000
# 3 0.000603 -0.003246 0.010762 0.000000 0.000000 0.000000
# 4 0.000000 0.000000 0.000000 0.085796 0.000000 0.000000
# 5 0.000000 0.000000 0.000000 0.000000 -0.075553 0.000000
# 6 0.000000 0.000000 0.000000 0.000000 0.000000 0.064535
#
#
# Mechanical properties :
#
#
# Convention : Reuss Voigt Hill
#
# Bulk Modulus (GPa) = 26.91822 50.68988 38.80405
# Shear Modulus (GPa) = 31.93936 17.70246 24.82091
#
# Velocity S-wave (km/s) = 3.78752 2.81974 3.33888
# Velocity P-wave (km/s) = 5.58723 5.77652 5.68266
#
# Compressibility (1/GPa) = 0.03714956
#
# Stress axis : x y z
#
# Youngs Moduli (GPa) = 28.94615 125.65343 92.91804
#
# Poissons Ratio (x) = 0.68050 -0.05604
# Poissons Ratio (y) = 0.15676 0.30164
# Poissons Ratio (z) = -0.01746 0.40792
#
# Static dielectric constant tensor:
#      x y z
#    x 2.211540 0.000000 0.000000 
#    y 0.000000 1.880490 0.000000 
#    z 0.000000 0.000000 1.849670 
# 
# From -- ./inp_files/15673.got.cif
#   From: 2010.05.17/outbox.cif.g08.bks.cpg/sg39_8_cif.got.tgz:15673.got - 2010.06.03 18:22:40.
