data_PCOD9360255
_publ_section_title
;
Structure prediction by ZEFSAII (Michael W. Deem and Ramdas Pophale) SiO2 
 PCOD9360255
Probable space group: A B M 2
;
_chemical_formula_sum "Si O2"
_cell_formula_units_Z 64
_cell_length_a 19.894754
_cell_length_b 8.794868
_cell_length_c 20.948155
_cell_angle_alpha 90.000000
_cell_angle_beta 90.000000
_cell_angle_gamma 90.000000
_cell_volume 3665.335032
_symmetry_space_group_name_H-M "A B M 2"
_symmetry_group_IT_number 39
_symmetry_cell_setting 'orthorhombic'
loop_
_space_group_symop_operation_xyz
x,y,z
-x,-y,z
-x,1/2+y,z
x,1/2-y,z
x,1/2+y,1/2+z
-x,1/2-y,1/2+z
-x,y,1/2+z
x,-y,1/2+z
loop_
_atom_site_type_symbol
_atom_site_label
_atom_site_fract_x
_atom_site_fract_y
_atom_site_fract_z
Si Si1 0.284169 0.567823 0.688930
Si Si2 0.929440 0.431936 0.009038
Si Si3 0.286824 0.933637 0.444496
Si Si4 0.429499 0.067821 0.992972
Si Si5 0.428458 0.933185 0.641999
Si Si6 0.071620 0.432883 0.867453
Si Si7 0.211160 0.431280 0.566290
Si Si8 0.786276 0.566965 0.812927
O O1 0.283791 0.750000 0.689322
O O2 0.362190 0.518110 0.680522
O O3 0.243701 0.510026 0.627289
O O4 0.248621 0.505698 0.751946
O O5 0.934731 0.250000 0.001612
O O6 0.867469 0.466206 0.055392
O O7 0.000000 0.500000 0.031773
O O8 0.916437 0.504076 0.939119
O O9 0.281616 0.750000 0.451601
O O10 0.364956 0.976490 0.451738
O O11 0.253929 0.975315 0.377281
O O12 0.248056 0.010364 0.502795
O O13 0.434259 0.250000 0.992298
O O14 0.500000 0.000000 0.971171
O O15 0.418664 0.021923 0.067299
O O16 0.432379 0.750000 0.644005
O O17 0.500000 0.000000 0.663296
O O18 0.067611 0.250000 0.870601
O O19 0.135670 0.475401 0.824376
O O20 0.000000 0.500000 0.845980
O O21 0.218687 0.250000 0.571922
O O22 0.783695 0.750000 0.806822
#
# Coordination Sequence:
#
# PCOD9360255 Si02
#       8
#     8   8   8   8   8   8   8   8
#     4  11  23  39  58  81 113 150 188 232 280 331
#     4  10  20  33  53  83 114 144 182 229 277 328
#     4  10  19  36  58  80 111 147 182 224 278 331
#     4   9  17  31  52  79 110 141 181 226 273 329
#     4   9  18  33  54  80 107 140 182 226 273 331
#     4  10  19  33  56  82 111 146 184 227 275 330
#     4  11  22  35  56  85 113 141 183 232 275 328
#     4  10  22  38  57  82 113 151 188 228 279 332
#
# _framework density 17.460887
#
# number of rings (size 3 to 8) (size 9 to 14) (size 15 to 20)
#    0.000    2.000    2.500    2.250    0.000    4.500 
#    0.000    1.250    0.000    3.000    0.000    0.000 
#    0.000    0.000    0.000    0.000    0.000    0.000 
#
# Total GULP energy -178577.874923 kJ/mol
# GULP energy per Si atom -5580.558591 kJ/mol
# Density = 1.742115 g / cm^3
# Si number density = 17.460887 Si / 1000 Ang^3
#
#
#
# Elastic Constant Matrix: (Units=GPa)
#
#
# Indices 1 2 3 4 5 6 
#
# 1 192.8431 54.0636 84.3152 0.0000 0.0000 0.0000
# 2 54.0636 35.1508 36.5849 0.0000 0.0000 0.0000
# 3 84.3152 36.5849 106.8352 0.0000 0.0000 0.0000
# 4 0.0000 0.0000 0.0000 26.9549 0.0000 0.0000
# 5 0.0000 0.0000 0.0000 0.0000 25.7371 0.0000
# 6 0.0000 0.0000 0.0000 0.0000 0.0000 30.7556
#
#
#
# Elastic Compliance Matrix: (Units=1/GPa)
#
#
# Indices 1 2 3 4 5 6 
#
# 1 0.010178 -0.011333 -0.004152 0.000000 0.000000 0.000000
# 2 -0.011333 0.056824 -0.010514 0.000000 0.000000 0.000000
# 3 -0.004152 -0.010514 0.016237 0.000000 0.000000 0.000000
# 4 0.000000 0.000000 0.000000 0.037099 0.000000 0.000000
# 5 0.000000 0.000000 0.000000 0.000000 0.038854 0.000000
# 6 0.000000 0.000000 0.000000 0.000000 0.000000 0.032514
#
#
# Mechanical properties :
#
#
# Convention : Reuss Voigt Hill
#
# Bulk Modulus (GPa) = 32.01012 76.08405 54.04708
# Shear Modulus (GPa) = 19.67585 27.34722 23.51153
#
# Velocity S-wave (km/s) = 3.36050 3.96182 3.67348
# Velocity P-wave (km/s) = 5.78183 8.03720 7.00093
#
# Compressibility (1/GPa) = 0.03124012
#
# Stress axis : x y z
#
# Youngs Moduli (GPa) = 98.25113 17.59835 61.58683
#
# Poissons Ratio (x) = 0.19945 0.25568
# Poissons Ratio (y) = 1.11351 0.64755
# Poissons Ratio (z) = 0.40789 0.18504
#
# Static dielectric constant tensor:
#      x y z
#    x 1.613110 0.000000 0.000000 
#    y 0.000000 1.589310 0.000000 
#    z 0.000000 0.000000 1.556210 
# 
# From -- ./inp_files/13188.got.cif
#   From: 2010.05.17/outbox.cif.g08.bks.cpg/sg39_7_cif.got.tgz:13188.got - 2010.06.03 18:22:40.
