data_PCOD9360789
_publ_section_title
;
Structure prediction by ZEFSAII (Michael W. Deem and Ramdas Pophale) SiO2 
 PCOD9360789
Probable space group: A B M 2
;
_chemical_formula_sum "Si O2"
_cell_formula_units_Z 48
_cell_length_a 15.243206
_cell_length_b 14.620033
_cell_length_c 10.723451
_cell_angle_alpha 90.000000
_cell_angle_beta 90.000000
_cell_angle_gamma 90.000000
_cell_volume 2389.787270
_symmetry_space_group_name_H-M "A B M 2"
_symmetry_group_IT_number 39
_symmetry_cell_setting 'orthorhombic'
loop_
_space_group_symop_operation_xyz
x,y,z
-x,-y,z
-x,1/2+y,z
x,1/2-y,z
x,1/2+y,1/2+z
-x,1/2-y,1/2+z
-x,y,1/2+z
x,-y,1/2+z
loop_
_atom_site_type_symbol
_atom_site_label
_atom_site_fract_x
_atom_site_fract_y
_atom_site_fract_z
Si Si1 0.050515 0.404989 0.997400
Si Si2 0.619915 0.958519 0.467331
Si Si3 0.073160 0.849399 0.774407
Si Si4 0.312360 0.853033 0.201787
Si Si5 0.800187 0.485006 0.346395
Si Si6 0.453464 0.855004 0.425251
O O1 0.149169 0.430370 0.955572
O O2 0.000000 0.500000 0.017197
O O3 0.004376 0.359504 0.876661
O O4 0.044945 0.354627 0.129570
O O5 0.639708 0.899925 0.587950
O O6 0.547274 0.900147 0.391373
O O7 0.710032 0.971573 0.394119
O O8 0.586008 0.060367 0.505587
O O9 0.115499 0.750000 0.795335
O O10 0.136311 0.935567 0.797916
O O11 0.285665 0.750000 0.172972
O O12 0.229031 0.912857 0.242067
O O13 0.383911 0.851007 0.312831
O O14 0.462469 0.750000 0.473036
#
# Coordination Sequence:
#
# PCOD9360789 Si02
#       6
#     8   8   8   8   8   8
#     4  10  21  41  63  85 119 159 199 245 298 357
#     4  10  20  35  59  85 115 151 197 246 291 349
#     4  11  23  39  62  91 121 155 198 246 300 362
#     4  10  21  38  59  83 113 153 198 242 295 354
#     4  10  22  39  58  86 120 153 192 243 299 354
#     4   9  20  37  56  81 113 152 196 242 293 346
#
# _framework density 20.085470000000001
#
# number of rings (size 3 to 8) (size 9 to 14) (size 15 to 20)
#    0.000    2.000    0.000    3.500    0.000    9.333 
#    0.000    4.167    0.000    1.000    0.000    0.000 
#    0.000    0.000    0.000    0.000    0.000    0.000 
#
# Total GULP energy -133782.578528 kJ/mol
# GULP energy per Si atom -5574.274105 kJ/mol
# Density = 2.003975 g / cm^3
# Si number density = 20.085470 Si / 1000 Ang^3
#
#
#
# Elastic Constant Matrix: (Units=GPa)
#
#
# Indices 1 2 3 4 5 6 
#
# 1 77.4505 30.2379 13.3124 0.0000 0.0000 0.0000
# 2 30.2379 161.2545 38.3312 0.0000 0.0000 0.0000
# 3 13.3124 38.3312 66.9104 0.0000 0.0000 0.0000
# 4 0.0000 0.0000 0.0000 13.1501 0.0000 0.0000
# 5 0.0000 0.0000 0.0000 0.0000 1.0741 0.0000
# 6 0.0000 0.0000 0.0000 0.0000 0.0000 8.1293
#
#
#
# Elastic Compliance Matrix: (Units=1/GPa)
#
#
# Indices 1 2 3 4 5 6 
#
# 1 0.014058 -0.002282 -0.001490 0.000000 0.000000 0.000000
# 2 -0.002282 0.007549 -0.003871 0.000000 0.000000 0.000000
# 3 -0.001490 -0.003871 0.017459 0.000000 0.000000 0.000000
# 4 0.000000 0.000000 0.000000 0.076045 0.000000 0.000000
# 5 0.000000 0.000000 0.000000 0.000000 0.930974 0.000000
# 6 0.000000 0.000000 0.000000 0.000000 0.000000 0.123012
#
#
# Mechanical properties :
#
#
# Convention : Reuss Voigt Hill
#
# Bulk Modulus (GPa) = 42.04877 52.15316 47.10096
# Shear Modulus (GPa) = 4.19354 19.38630 11.78992
#
# Velocity S-wave (km/s) = 1.44651 3.11012 2.42541
# Velocity P-wave (km/s) = 4.87547 6.23852 5.59863
#
# Compressibility (1/GPa) = 0.02378191
#
# Stress axis : x y z
#
# Youngs Moduli (GPa) = 71.13138 132.46040 57.27623
#
# Poissons Ratio (x) = 0.30229 0.08533
# Poissons Ratio (y) = 0.16233 0.22171
# Poissons Ratio (z) = 0.10597 0.51273
#
# Static dielectric constant tensor:
#      x y z
#    x 1.735960 0.000000 0.000000 
#    y 0.000000 1.726390 0.000000 
#    z 0.000000 0.000000 1.711080 
# 
# From -- ./inp_files/6396.got.cif
#   From: 2010.05.17/outbox.cif.g08.bks.cpg/sg39_4_cif.got.tgz:6396.got - 2010.06.03 18:22:40.
