data_PCOD9360470
_publ_section_title
;
Structure prediction by ZEFSAII (Michael W. Deem and Ramdas Pophale) SiO2 
 PCOD9360470
Probable space group: A B M 2
;
_chemical_formula_sum "Si O2"
_cell_formula_units_Z 56
_cell_length_a 11.303044
_cell_length_b 14.400298
_cell_length_c 14.698636
_cell_angle_alpha 90.000000
_cell_angle_beta 90.000000
_cell_angle_gamma 90.000000
_cell_volume 2392.455854
_symmetry_space_group_name_H-M "A B M 2"
_symmetry_group_IT_number 39
_symmetry_cell_setting 'orthorhombic'
loop_
_space_group_symop_operation_xyz
x,y,z
-x,-y,z
-x,1/2+y,z
x,1/2-y,z
x,1/2+y,1/2+z
-x,1/2-y,1/2+z
-x,y,1/2+z
x,-y,1/2+z
loop_
_atom_site_type_symbol
_atom_site_label
_atom_site_fract_x
_atom_site_fract_y
_atom_site_fract_z
Si Si1 0.922144 0.140873 0.540610
Si Si2 0.429304 0.142424 0.204806
Si Si3 0.809809 0.356831 0.360642
Si Si4 0.183724 0.138249 0.548303
Si Si5 0.277474 0.640779 0.867966
Si Si6 0.679464 0.948097 0.702459
Si Si7 0.953198 0.602387 0.251969
O O1 0.920788 0.250000 0.520111
O O2 0.832162 0.105860 0.463437
O O3 0.916401 0.135175 0.650368
O O4 0.054089 0.107019 0.517761
O O5 0.402005 0.250000 0.177822
O O6 0.398150 0.133795 0.312189
O O7 0.563564 0.115011 0.185641
O O8 0.351874 0.053511 0.173195
O O9 0.763373 0.250000 0.360349
O O10 0.721916 0.424059 0.304709
O O11 0.937480 0.352357 0.307881
O O12 0.182922 0.250000 0.562850
O O13 0.276756 0.110087 0.471432
O O14 0.215924 0.089242 0.640722
O O15 0.249816 0.750000 0.873036
O O16 0.165137 0.604216 0.811873
O O17 0.000000 0.500000 0.239268
#
# Coordination Sequence:
#
# PCOD9360470 Si02
#       7
#     8   8   8   8   8   8   8
#     4  10  21  37  59  94 135 174 218 277 346 406
#     4  10  23  44  66  94 136 181 228 283 343 398
#     4  11  21  38  65  97 133 171 221 286 340 400
#     4  10  19  36  66  98 129 172 226 279 337 409
#     4  10  21  40  62  87 130 181 221 270 341 407
#     4  11  22  41  71 105 133 177 234 282 335 406
#     4  12  23  36  57  90 131 178 222 274 336 409
#
# _framework density 23.406911999999998
#
# number of rings (size 3 to 8) (size 9 to 14) (size 15 to 20)
#    0.000    1.429    2.857    3.429    0.000    0.571 
#    2.571    4.286    0.000    3.429    0.000    3.000 
#    0.000    0.000    0.000    0.000    0.000    0.000 
#
# Total GULP energy -156268.978815 kJ/mol
# GULP energy per Si atom -5581.034958 kJ/mol
# Density = 2.335364 g / cm^3
# Si number density = 23.406912 Si / 1000 Ang^3
#
#
#
# Elastic Constant Matrix: (Units=GPa)
#
#
# Indices 1 2 3 4 5 6 
#
# 1 33.2599 15.9269 -7.2193 0.0000 0.0000 0.0000
# 2 15.9269 117.5543 7.0084 0.0000 0.0000 0.0000
# 3 -7.2193 7.0084 92.7742 0.0000 0.0000 0.0000
# 4 0.0000 0.0000 0.0000 -18.2827 0.0000 0.0000
# 5 0.0000 0.0000 0.0000 0.0000 14.9372 0.0000
# 6 0.0000 0.0000 0.0000 0.0000 0.0000 29.5620
#
#
#
# Elastic Compliance Matrix: (Units=1/GPa)
#
#
# Indices 1 2 3 4 5 6 
#
# 1 0.032917 -0.004633 0.002911 0.000000 0.000000 0.000000
# 2 -0.004633 0.009197 -0.001055 0.000000 0.000000 0.000000
# 3 0.002911 -0.001055 0.011085 0.000000 0.000000 0.000000
# 4 0.000000 0.000000 0.000000 -0.054697 0.000000 0.000000
# 5 0.000000 0.000000 0.000000 0.000000 0.066947 0.000000
# 6 0.000000 0.000000 0.000000 0.000000 0.000000 0.033827
#
#
# Mechanical properties :
#
#
# Convention : Reuss Voigt Hill
#
# Bulk Modulus (GPa) = 20.98856 30.55784 25.77320
# Shear Modulus (GPa) = 41.42056 20.43480 30.92768
#
# Velocity S-wave (km/s) = 4.21121 2.95790 3.63892
# Velocity P-wave (km/s) = 5.71244 4.97483 5.35635
#
# Compressibility (1/GPa) = 0.04764501
#
# Stress axis : x y z
#
# Youngs Moduli (GPa) = 30.37949 108.72669 90.21087
#
# Poissons Ratio (x) = 0.50377 -0.26265
# Poissons Ratio (y) = 0.14076 0.09520
# Poissons Ratio (z) = -0.08845 0.11474
#
# Static dielectric constant tensor:
#      x y z
#    x 1.847630 0.000000 0.000000 
#    y 0.000000 1.946820 0.000000 
#    z 0.000000 0.000000 1.945830 
# 
# From -- ./inp_files/9270.got.cif
#   From: 2010.05.17/outbox.cif.g08.bks.cpg/sg39_5_cif.got.tgz:9270.got - 2010.06.03 18:22:40.
