data_PCOD9360196
_publ_section_title
;
Structure prediction by ZEFSAII (Michael W. Deem and Ramdas Pophale) SiO2 
 PCOD9360196
Probable space group: A B M 2
;
_chemical_formula_sum "Si O2"
_cell_formula_units_Z 64
_cell_length_a 22.043215
_cell_length_b 9.009493
_cell_length_c 14.887878
_cell_angle_alpha 90.000000
_cell_angle_beta 90.000000
_cell_angle_gamma 90.000000
_cell_volume 2956.705642
_symmetry_space_group_name_H-M "A B M 2"
_symmetry_group_IT_number 39
_symmetry_cell_setting 'orthorhombic'
loop_
_space_group_symop_operation_xyz
x,y,z
-x,-y,z
-x,1/2+y,z
x,1/2-y,z
x,1/2+y,1/2+z
-x,1/2-y,1/2+z
-x,y,1/2+z
x,-y,1/2+z
loop_
_atom_site_type_symbol
_atom_site_label
_atom_site_fract_x
_atom_site_fract_y
_atom_site_fract_z
Si Si1 0.820022 0.429403 0.860470
Si Si2 0.941952 0.915576 0.908436
Si Si3 0.561389 0.923227 0.160910
Si Si4 0.438889 0.923654 0.879871
Si Si5 0.691081 0.575181 0.378822
Si Si6 0.305763 0.425259 0.159962
Si Si7 0.058594 0.584782 0.619580
Si Si8 0.182746 0.926873 0.163875
O O1 0.819030 0.250000 0.851554
O O2 0.757340 0.477582 0.909254
O O3 0.818660 0.510041 0.764826
O O4 0.882102 0.485119 0.902233
O O5 0.932954 0.750000 0.869324
O O6 0.953829 0.897058 0.014023
O O7 0.000000 0.000000 0.868980
O O8 0.559182 0.750000 0.137979
O O9 0.560978 0.932660 0.270390
O O10 0.627542 0.981522 0.130885
O O11 0.500000 0.000000 0.128759
O O12 0.441258 0.750000 0.902919
O O13 0.373567 0.990244 0.908473
O O14 0.500000 0.000000 0.912505
O O15 0.687987 0.750000 0.400234
O O16 0.693244 0.564852 0.269526
O O17 0.300174 0.250000 0.138944
O O18 0.246823 0.512092 0.126310
O O19 0.066298 0.750000 0.659665
O O20 0.120859 0.493745 0.624938
O O21 0.000000 0.500000 0.657962
O O22 0.182104 0.750000 0.159561
#
# Coordination Sequence:
#
# PCOD9360196 Si02
#       8
#     8   8   8   8   8   8   8   8
#     4  10  19  33  52  72  98 131 163 196 239 287
#     4  10  21  37  56  77  99 124 156 194 236 284
#     4   8  13  20  32  50  76 112 152 191 230 277
#     4   8  12  19  30  47  73 107 147 184 220 263
#     4   7  12  23  38  55  80 116 152 185 224 272
#     4   8  14  26  40  56  84 122 158 192 237 285
#     4  10  21  38  57  75  98 126 156 193 238 287
#     4  11  21  32  49  74 101 128 163 203 241 285
#
# _framework density 21.645713000000001
#
# number of rings (size 3 to 8) (size 9 to 14) (size 15 to 20)
#    0.000    3.000    0.000    4.500    0.000    2.500 
#    0.000    9.375    0.000    0.000    0.000    0.000 
#    0.000    1.000    0.000    7.500    0.000   12.875 
#
# Total GULP energy -178321.436971 kJ/mol
# GULP energy per Si atom -5572.544905 kJ/mol
# Density = 2.159645 g / cm^3
# Si number density = 21.645713 Si / 1000 Ang^3
#
#
#
# Elastic Constant Matrix: (Units=GPa)
#
#
# Indices 1 2 3 4 5 6 
#
# 1 256.9165 96.3315 6.4368 0.0000 0.0000 0.0000
# 2 96.3315 116.7972 5.4989 0.0000 0.0000 0.0000
# 3 6.4368 5.4989 37.6296 0.0000 0.0000 0.0000
# 4 0.0000 0.0000 0.0000 7.5251 0.0000 0.0000
# 5 0.0000 0.0000 0.0000 0.0000 10.1395 0.0000
# 6 0.0000 0.0000 0.0000 0.0000 0.0000 30.9933
#
#
#
# Elastic Compliance Matrix: (Units=1/GPa)
#
#
# Indices 1 2 3 4 5 6 
#
# 1 0.005638 -0.004637 -0.000287 0.000000 0.000000 0.000000
# 2 -0.004637 0.012434 -0.001024 0.000000 0.000000 0.000000
# 3 -0.000287 -0.001024 0.026774 0.000000 0.000000 0.000000
# 4 0.000000 0.000000 0.000000 0.132889 0.000000 0.000000
# 5 0.000000 0.000000 0.000000 0.000000 0.098624 0.000000
# 6 0.000000 0.000000 0.000000 0.000000 0.000000 0.032265
#
#
# Mechanical properties :
#
#
# Convention : Reuss Voigt Hill
#
# Bulk Modulus (GPa) = 30.34812 69.76418 50.05615
# Shear Modulus (GPa) = 15.08286 29.93665 22.50975
#
# Velocity S-wave (km/s) = 2.64257 3.72294 3.22827
# Velocity P-wave (km/s) = 4.83340 7.12604 6.08860
#
# Compressibility (1/GPa) = 0.03295097
#
# Stress axis : x y z
#
# Youngs Moduli (GPa) = 177.36781 80.42334 37.35036
#
# Poissons Ratio (x) = 0.37289 0.01071
# Poissons Ratio (y) = 0.82238 0.03824
# Poissons Ratio (z) = 0.05088 0.08235
#
# Static dielectric constant tensor:
#      x y z
#    x 1.845560 0.000000 0.000000 
#    y 0.000000 1.761100 0.000000 
#    z 0.000000 0.000000 1.817040 
# 
# From -- ./inp_files/15050.got.cif
#   From: 2010.05.17/outbox.cif.g08.bks.cpg/sg39_8_cif.got.tgz:15050.got - 2010.06.03 18:22:40.
