data_PCOD9360236
_publ_section_title
;
Structure prediction by ZEFSAII (Michael W. Deem and Ramdas Pophale) SiO2 
 PCOD9360236
Probable space group: A B M 2
;
_chemical_formula_sum "Si O2"
_cell_formula_units_Z 64
_cell_length_a 8.755506
_cell_length_b 15.681326
_cell_length_c 24.387703
_cell_angle_alpha 90.000000
_cell_angle_beta 90.000000
_cell_angle_gamma 90.000000
_cell_volume 3348.381478
_symmetry_space_group_name_H-M "A B M 2"
_symmetry_group_IT_number 39
_symmetry_cell_setting 'orthorhombic'
loop_
_space_group_symop_operation_xyz
x,y,z
-x,-y,z
-x,1/2+y,z
x,1/2-y,z
x,1/2+y,1/2+z
-x,1/2-y,1/2+z
-x,y,1/2+z
x,-y,1/2+z
loop_
_atom_site_type_symbol
_atom_site_label
_atom_site_fract_x
_atom_site_fract_y
_atom_site_fract_z
Si Si1 0.816415 0.506807 0.484450
Si Si2 0.112921 0.918875 0.193169
Si Si3 0.334208 0.853557 0.782149
Si Si4 0.810893 0.345917 0.667214
Si Si5 0.317626 0.352257 0.789583
Si Si6 0.809380 0.347914 0.409159
Si Si7 0.173832 0.349979 0.395406
Si Si8 0.681326 0.500509 0.103420
O O1 0.772610 0.418459 0.454416
O O2 0.781661 0.585337 0.443624
O O3 0.733505 0.518888 0.541941
O O4 0.000000 0.500000 0.493332
O O5 0.197291 0.895769 0.249179
O O6 0.238362 0.937705 0.146890
O O7 0.993510 0.848353 0.172535
O O8 0.000000 0.000000 0.198486
O O9 0.333225 0.750000 0.783509
O O10 0.252139 0.878434 0.725980
O O11 0.509336 0.881916 0.779961
O O12 0.246466 0.879177 0.837573
O O13 0.756298 0.250000 0.658928
O O14 0.749697 0.407669 0.620479
O O15 0.309619 0.250000 0.779798
O O16 0.278821 0.366119 0.853013
O O17 0.778692 0.250000 0.426359
O O18 0.989467 0.353426 0.393997
O O19 0.216054 0.250000 0.404764
O O20 0.500000 0.500000 0.108985
#
# Coordination Sequence:
#
# PCOD9360236 Si02
#       8
#     8   8   8   8   8   8   8   8
#     4  10  21  38  57  78 107 146 193 237 276 326
#     4  10  21  36  56  80 110 147 187 230 277 331
#     4   9  18  32  54  84 117 145 176 224 283 337
#     4  10  20  37  61  85 110 148 191 232 278 334
#     4  10  19  33  54  84 117 146 179 225 278 335
#     4   9  19  34  55  81 111 147 188 229 273 328
#     4   9  18  35  57  82 111 145 183 228 278 332
#     4  11  24  41  57  80 115 148 186 237 288 339
#
# _framework density 19.113712
#
# number of rings (size 3 to 8) (size 9 to 14) (size 15 to 20)
#    0.000    2.250    0.000    3.000    0.000    7.000 
#    0.000    7.500    0.000    0.000    0.000    0.000 
#    0.000    0.000    0.000    0.000    0.000    0.000 
#
# Total GULP energy -178645.329098 kJ/mol
# GULP energy per Si atom -5582.666534 kJ/mol
# Density = 1.907021 g / cm^3
# Si number density = 19.113712 Si / 1000 Ang^3
#
#
#
# Elastic Constant Matrix: (Units=GPa)
#
#
# Indices 1 2 3 4 5 6 
#
# 1 59.9156 5.2527 13.1727 0.0000 0.0000 0.0000
# 2 5.2527 44.8158 12.4860 0.0000 0.0000 0.0000
# 3 13.1727 12.4860 47.8307 0.0000 0.0000 0.0000
# 4 0.0000 0.0000 0.0000 22.3268 0.0000 0.0000
# 5 0.0000 0.0000 0.0000 0.0000 -76.1046 0.0000
# 6 0.0000 0.0000 0.0000 0.0000 0.0000 14.3577
#
#
#
# Elastic Compliance Matrix: (Units=1/GPa)
#
#
# Indices 1 2 3 4 5 6 
#
# 1 0.017791 -0.000777 -0.004697 0.000000 0.000000 0.000000
# 2 -0.000777 0.024098 -0.006077 0.000000 0.000000 0.000000
# 3 -0.004697 -0.006077 0.023787 0.000000 0.000000 0.000000
# 4 0.000000 0.000000 0.000000 0.044789 0.000000 0.000000
# 5 0.000000 0.000000 0.000000 0.000000 -0.013140 0.000000
# 6 0.000000 0.000000 0.000000 0.000000 0.000000 0.069649
#
#
# Mechanical properties :
#
#
# Convention : Reuss Voigt Hill
#
# Bulk Modulus (GPa) = 23.48802 23.82055 23.65429
# Shear Modulus (GPa) = 24.47788 0.22602 12.35195
#
# Velocity S-wave (km/s) = 3.58249 0.34425 2.54487
# Velocity P-wave (km/s) = 5.42472 3.55635 4.58668
#
# Compressibility (1/GPa) = 0.04257490
#
# Stress axis : x y z
#
# Youngs Moduli (GPa) = 56.20861 41.49794 42.03988
#
# Poissons Ratio (x) = 0.03223 0.19746
# Poissons Ratio (y) = 0.04365 0.25546
# Poissons Ratio (z) = 0.26401 0.25217
#
# Static dielectric constant tensor:
#      x y z
#    x 1.666400 0.000000 0.000000 
#    y 0.000000 1.703000 0.000000 
#    z 0.000000 0.000000 1.618540 
# 
# From -- ./inp_files/14168.got.cif
#   From: 2010.05.17/outbox.cif.g08.bks.cpg/sg39_8_cif.got.tgz:14168.got - 2010.06.03 18:22:40.
