data_PCOD9360666
_publ_section_title
;
Structure prediction by ZEFSAII (Michael W. Deem and Ramdas Pophale) SiO2 
 PCOD9360666
Probable space group: A B M 2
;
_chemical_formula_sum "Si O2"
_cell_formula_units_Z 64
_cell_length_a 20.278197
_cell_length_b 8.688635
_cell_length_c 20.706346
_cell_angle_alpha 90.000000
_cell_angle_beta 90.000000
_cell_angle_gamma 90.000000
_cell_volume 3648.248041
_symmetry_space_group_name_H-M "A B M 2"
_symmetry_group_IT_number 39
_symmetry_cell_setting 'orthorhombic'
loop_
_space_group_symop_operation_xyz
x,y,z
-x,-y,z
-x,1/2+y,z
x,1/2-y,z
x,1/2+y,1/2+z
-x,1/2-y,1/2+z
-x,y,1/2+z
x,-y,1/2+z
loop_
_atom_site_type_symbol
_atom_site_label
_atom_site_fract_x
_atom_site_fract_y
_atom_site_fract_z
Si Si1 0.340274 0.434514 0.875000
Si Si2 0.678664 0.937034 0.158105
Si Si3 0.072834 0.934516 0.098770
Si Si4 0.188211 0.933937 0.341796
Si Si5 0.174812 0.065290 0.202955
Si Si6 0.300484 0.563887 0.514464
Si Si7 0.841702 0.065772 0.977145
Si Si8 0.427106 0.434060 0.263313
O O1 0.347796 0.250000 0.869662
O O2 0.266038 0.473774 0.851085
O O3 0.341894 0.477299 0.950696
O O4 0.393328 0.515316 0.830195
O O5 0.678143 0.750000 0.159932
O O6 0.751248 0.985310 0.182137
O O7 0.621716 0.990770 0.206298
O O8 0.670551 0.983033 0.083470
O O9 0.071728 0.750000 0.102420
O O10 0.122149 0.997815 0.153220
O O11 0.102554 0.978648 0.028700
O O12 0.000000 0.000000 0.107330
O O13 0.183390 0.750000 0.338439
O O14 0.163533 0.008528 0.275779
O O15 0.152257 0.993570 0.406134
O O16 0.172609 0.250000 0.200404
O O17 0.293001 0.750000 0.513881
O O18 0.228042 0.492918 0.505502
O O19 0.839935 0.250000 0.971629
O O20 0.500000 0.500000 0.256903
O O21 0.429897 0.250000 0.260583
#
# Coordination Sequence:
#
# PCOD9360666 Si02
#       8
#     8   8   8   8   8   8   8   8
#     4   9  18  32  53  80 109 142 179 227 275 331
#     4   9  18  33  56  83 111 146 185 229 281 338
#     4  11  24  40  58  84 117 155 194 237 286 344
#     4  10  20  34  56  85 116 146 185 235 286 336
#     4  11  20  35  60  87 116 151 191 237 287 342
#     4   9  17  33  56  82 110 142 182 225 280 335
#     4  10  20  34  54  83 114 144 186 235 283 335
#     4  11  22  37  55  78 110 149 190 232 284 345
#
# _framework density 17.542667999999999
#
# number of rings (size 3 to 8) (size 9 to 14) (size 15 to 20)
#    0.000    2.000    2.500    2.625    0.000    3.500 
#    0.000    2.500    0.000    3.000    0.000    0.000 
#    0.000    0.000    0.000    0.000    0.000    0.000 
#
# Total GULP energy -178604.509653 kJ/mol
# GULP energy per Si atom -5581.390927 kJ/mol
# Density = 1.750274 g / cm^3
# Si number density = 17.542668 Si / 1000 Ang^3
#
#
#
# Elastic Constant Matrix: (Units=GPa)
#
#
# Indices 1 2 3 4 5 6 
#
# 1 125.0047 41.4091 87.8564 0.0000 0.0000 0.0000
# 2 41.4091 40.3299 43.4786 0.0000 0.0000 0.0000
# 3 87.8564 43.4786 169.2575 0.0000 0.0000 0.0000
# 4 0.0000 0.0000 0.0000 26.0316 0.0000 0.0000
# 5 0.0000 0.0000 0.0000 0.0000 24.1002 0.0000
# 6 0.0000 0.0000 0.0000 0.0000 0.0000 23.6986
#
#
#
# Elastic Compliance Matrix: (Units=1/GPa)
#
#
# Indices 1 2 3 4 5 6 
#
# 1 0.014875 -0.009610 -0.005252 0.000000 0.000000 0.000000
# 2 -0.009610 0.040501 -0.005415 0.000000 0.000000 0.000000
# 3 -0.005252 -0.005415 0.010026 0.000000 0.000000 0.000000
# 4 0.000000 0.000000 0.000000 0.038415 0.000000 0.000000
# 5 0.000000 0.000000 0.000000 0.000000 0.041493 0.000000
# 6 0.000000 0.000000 0.000000 0.000000 0.000000 0.042197
#
#
# Mechanical properties :
#
#
# Convention : Reuss Voigt Hill
#
# Bulk Modulus (GPa) = 40.24903 75.56446 57.90675
# Shear Modulus (GPa) = 21.15558 25.55595 23.35576
#
# Velocity S-wave (km/s) = 3.47645 3.82093 3.65275
# Velocity P-wave (km/s) = 6.25360 7.91418 7.13238
#
# Compressibility (1/GPa) = 0.02484532
#
# Stress axis : x y z
#
# Youngs Moduli (GPa) = 67.22838 24.69059 99.74473
#
# Poissons Ratio (x) = 0.23728 0.52389
# Poissons Ratio (y) = 0.64609 0.54017
# Poissons Ratio (z) = 0.35310 0.13371
#
# Static dielectric constant tensor:
#      x y z
#    x 1.565210 0.000000 0.000000 
#    y 0.000000 1.585450 0.000000 
#    z 0.000000 0.000000 1.606830 
# 
# From -- ./inp_files/16370.got.cif
#   From: 2010.05.17/outbox.cif.g08.bks.cpg/sg39_9_cif.got.tgz:16370.got - 2010.06.03 18:22:40.
