data_PCOD9360876
_publ_section_title
;
Structure prediction by ZEFSAII (Michael W. Deem and Ramdas Pophale) SiO2 
 PCOD9360876
Probable space group: A B M 2
;
_chemical_formula_sum "Si O2"
_cell_formula_units_Z 48
_cell_length_a 9.174543
_cell_length_b 8.608425
_cell_length_c 31.887617
_cell_angle_alpha 90.000000
_cell_angle_beta 90.000000
_cell_angle_gamma 90.000000
_cell_volume 2518.431865
_symmetry_space_group_name_H-M "A B M 2"
_symmetry_group_IT_number 39
_symmetry_cell_setting 'orthorhombic'
loop_
_space_group_symop_operation_xyz
x,y,z
-x,-y,z
-x,1/2+y,z
x,1/2-y,z
x,1/2+y,1/2+z
-x,1/2-y,1/2+z
-x,y,1/2+z
x,-y,1/2+z
loop_
_atom_site_type_symbol
_atom_site_label
_atom_site_fract_x
_atom_site_fract_y
_atom_site_fract_z
Si Si1 0.663659 0.064045 0.117740
Si Si2 0.165489 0.063338 0.357483
Si Si3 0.336558 0.935609 0.278086
Si Si4 0.834313 0.564484 0.037741
Si Si5 0.834931 0.935916 0.450754
Si Si6 0.836254 0.435968 0.698032
O O1 0.662757 0.250000 0.118738
O O2 0.500000 0.000000 0.119307
O O3 0.741950 0.005059 0.075636
O O4 0.751837 0.999808 0.157547
O O5 0.161952 0.250000 0.352868
O O6 0.224938 0.027812 0.404424
O O7 0.261542 0.988598 0.321274
O O8 0.000000 0.000000 0.354365
O O9 0.337439 0.750000 0.275119
O O10 0.500000 0.000000 0.276095
O O11 0.244942 0.005354 0.239625
O O12 0.838521 0.750000 0.040159
O O13 0.000000 0.500000 0.040601
O O14 0.770732 0.512137 0.992549
O O15 0.837597 0.750000 0.455909
O O16 0.000000 0.000000 0.449266
O O17 0.837835 0.250000 0.697160
O O18 0.000000 0.500000 0.697806
#
# Coordination Sequence:
#
# PCOD9360876 Si02
#       6
#     8   8   8   8   8   8
#     4  12  25  43  63  88 121 157 196 240 294 352
#     4  10  20  36  59  88 120 156 199 246 295 348
#     4  12  25  42  62  87 120 158 197 241 295 352
#     4  11  21  36  59  88 120 157 200 246 295 347
#     4   9  17  31  54  84 117 153 196 246 296 345
#     4  12  25  44  67  93 121 153 195 241 290 344
#
# _framework density 19.059481000000002
#
# number of rings (size 3 to 8) (size 9 to 14) (size 15 to 20)
#    0.000    1.000    0.000    9.500    0.000    2.000 
#    0.000    0.833    0.000    4.000    0.000    0.000 
#    0.000    0.000    0.000    0.000    0.000    0.000 
#
# Total GULP energy -134221.940278 kJ/mol
# GULP energy per Si atom -5592.580845 kJ/mol
# Density = 1.901610 g / cm^3
# Si number density = 19.059481 Si / 1000 Ang^3
#
#
#
# Elastic Constant Matrix: (Units=GPa)
#
#
# Indices 1 2 3 4 5 6 
#
# 1 133.4429 71.2566 99.2779 0.0000 0.0000 0.0000
# 2 71.2566 209.8486 102.5658 0.0000 0.0000 0.0000
# 3 99.2779 102.5658 213.2780 0.0000 0.0000 0.0000
# 4 0.0000 0.0000 0.0000 37.3136 0.0000 0.0000
# 5 0.0000 0.0000 0.0000 0.0000 -26.1149 0.0000
# 6 0.0000 0.0000 0.0000 0.0000 0.0000 34.3056
#
#
#
# Elastic Compliance Matrix: (Units=1/GPa)
#
#
# Indices 1 2 3 4 5 6 
#
# 1 0.011935 -0.001748 -0.004715 0.000000 0.000000 0.000000
# 2 -0.001748 0.006486 -0.002305 0.000000 0.000000 0.000000
# 3 -0.004715 -0.002305 0.007992 0.000000 0.000000 0.000000
# 4 0.000000 0.000000 0.000000 0.026800 0.000000 0.000000
# 5 0.000000 0.000000 0.000000 0.000000 -0.038292 0.000000
# 6 0.000000 0.000000 0.000000 0.000000 0.000000 0.029150
#
#
# Mechanical properties :
#
#
# Convention : Reuss Voigt Hill
#
# Bulk Modulus (GPa) = 112.66168 122.53001 117.59585
# Shear Modulus (GPa) = 77.44072 27.99881 52.71976
#
# Velocity S-wave (km/s) = 6.38117 3.83694 5.26505
# Velocity P-wave (km/s) = 10.65511 9.16828 9.93953
#
# Compressibility (1/GPa) = 0.00887613
#
# Stress axis : x y z
#
# Youngs Moduli (GPa) = 83.78622 154.18621 125.12517
#
# Poissons Ratio (x) = 0.26956 0.58995
# Poissons Ratio (y) = 0.14648 0.28844
# Poissons Ratio (z) = 0.39504 0.35543
#
# Static dielectric constant tensor:
#      x y z
#    x 1.617750 0.000000 0.000000 
#    y 0.000000 1.633720 0.000000 
#    z 0.000000 0.000000 1.674600 
# 
# From -- ./inp_files/17612.got.cif
#   From: 2010.05.17/outbox.cif.g08.bks.cpg/sg39_9_cif.got.tgz:17612.got - 2010.06.03 18:22:40.
