data_PCOD9360793
_publ_section_title
;
Structure prediction by ZEFSAII (Michael W. Deem and Ramdas Pophale) SiO2 
 PCOD9360793
Probable space group: A B M 2
;
_chemical_formula_sum "Si O2"
_cell_formula_units_Z 48
_cell_length_a 13.377363
_cell_length_b 18.591150
_cell_length_c 9.449245
_cell_angle_alpha 90.000000
_cell_angle_beta 90.000000
_cell_angle_gamma 90.000000
_cell_volume 2350.032543
_symmetry_space_group_name_H-M "A B M 2"
_symmetry_group_IT_number 39
_symmetry_cell_setting 'orthorhombic'
loop_
_space_group_symop_operation_xyz
x,y,z
-x,-y,z
-x,1/2+y,z
x,1/2-y,z
x,1/2+y,1/2+z
-x,1/2-y,1/2+z
-x,y,1/2+z
x,-y,1/2+z
loop_
_atom_site_type_symbol
_atom_site_label
_atom_site_fract_x
_atom_site_fract_y
_atom_site_fract_z
Si Si1 0.637805 0.097937 0.513500
Si Si2 0.500379 0.586332 0.754947
Si Si3 0.239041 0.955814 0.943337
Si Si4 0.188090 0.170995 0.845674
Si Si5 0.666355 0.169528 0.077397
Si Si6 0.890164 0.968183 0.721269
O O1 0.601134 0.107730 0.673526
O O2 0.541043 0.107687 0.410127
O O3 0.728132 0.148557 0.460994
O O4 0.679903 0.017492 0.483013
O O5 0.500000 0.500000 0.749166
O O6 0.584334 0.622301 0.656983
O O7 0.187314 0.978241 0.798431
O O8 0.290338 0.878521 0.951926
O O9 0.154290 0.956539 0.065271
O O10 0.145497 0.250000 0.876951
O O11 0.248040 0.175436 0.697525
O O12 0.114137 0.104528 0.816652
O O13 0.633162 0.250000 0.039744
O O14 0.000000 0.000000 0.716225
#
# Coordination Sequence:
#
# PCOD9360793 Si02
#       6
#     8   8   8   8   8   8
#     4  10  21  32  54  80 107 149 187 227 269 322
#     4  11  20  32  52  78 108 144 193 231 261 312
#     4  10  20  36  56  81 110 145 184 231 282 333
#     4   8  17  35  55  78 110 145 178 221 281 333
#     4   9  18  33  52  76 108 148 184 221 274 326
#     4  10  20  35  60  86 107 139 185 236 282 343
#
# _framework density 20.425250999999999
#
# number of rings (size 3 to 8) (size 9 to 14) (size 15 to 20)
#    0.000    2.333    1.667    2.000    0.000    0.667 
#    0.000    0.833    0.000   18.000    0.000    0.000 
#    0.000    0.000    0.000    0.000    0.000    0.000 
#
# Total GULP energy -133843.376931 kJ/mol
# GULP energy per Si atom -5576.807372 kJ/mol
# Density = 2.037876 g / cm^3
# Si number density = 20.425251 Si / 1000 Ang^3
#
#
#
# Elastic Constant Matrix: (Units=GPa)
#
#
# Indices 1 2 3 4 5 6 
#
# 1 68.9913 13.6258 35.7425 0.0000 0.0000 0.0000
# 2 13.6258 99.5236 17.7719 0.0000 0.0000 0.0000
# 3 35.7425 17.7719 69.9273 0.0000 0.0000 0.0000
# 4 0.0000 0.0000 0.0000 14.7671 0.0000 0.0000
# 5 0.0000 0.0000 0.0000 0.0000 17.9172 0.0000
# 6 0.0000 0.0000 0.0000 0.0000 0.0000 17.5227
#
#
#
# Elastic Compliance Matrix: (Units=1/GPa)
#
#
# Indices 1 2 3 4 5 6 
#
# 1 0.019800 -0.000947 -0.009880 0.000000 0.000000 0.000000
# 2 -0.000947 0.010571 -0.002203 0.000000 0.000000 0.000000
# 3 -0.009880 -0.002203 0.019910 0.000000 0.000000 0.000000
# 4 0.000000 0.000000 0.000000 0.067718 0.000000 0.000000
# 5 0.000000 0.000000 0.000000 0.000000 0.055812 0.000000
# 6 0.000000 0.000000 0.000000 0.000000 0.000000 0.057069
#
#
# Mechanical properties :
#
#
# Convention : Reuss Voigt Hill
#
# Bulk Modulus (GPa) = 41.28356 41.41363 41.34860
# Shear Modulus (GPa) = 18.86696 21.46152 20.16424
#
# Velocity S-wave (km/s) = 3.04255 3.24502 3.14542
# Velocity P-wave (km/s) = 5.70953 5.86173 5.78613
#
# Compressibility (1/GPa) = 0.02422272
#
# Stress axis : x y z
#
# Youngs Moduli (GPa) = 50.50478 94.60020 50.22488
#
# Poissons Ratio (x) = 0.08954 0.49622
# Poissons Ratio (y) = 0.04781 0.11063
# Poissons Ratio (z) = 0.49899 0.20838
#
# Static dielectric constant tensor:
#      x y z
#    x 1.750120 0.000000 0.000000 
#    y 0.000000 1.759500 0.000000 
#    z 0.000000 0.000000 1.740160 
# 
# From -- ./inp_files/3256.got.cif
#   From: 2010.05.17/outbox.cif.g08.bks.cpg/sg39_2_cif.got.tgz:3256.got - 2010.06.03 18:22:40.
