data_PCOD9360539
_publ_section_title
;
Structure prediction by ZEFSAII (Michael W. Deem and Ramdas Pophale) SiO2 
 PCOD9360539
Probable space group: A B M 2
;
_chemical_formula_sum "Si O2"
_cell_formula_units_Z 64
_cell_length_a 19.668371
_cell_length_b 14.741827
_cell_length_c 10.510898
_cell_angle_alpha 90.000000
_cell_angle_beta 90.000000
_cell_angle_gamma 90.000000
_cell_volume 3047.610938
_symmetry_space_group_name_H-M "A B M 2"
_symmetry_group_IT_number 39
_symmetry_cell_setting 'orthorhombic'
loop_
_space_group_symop_operation_xyz
x,y,z
-x,-y,z
-x,1/2+y,z
x,1/2-y,z
x,1/2+y,1/2+z
-x,1/2-y,1/2+z
-x,y,1/2+z
x,-y,1/2+z
loop_
_atom_site_type_symbol
_atom_site_label
_atom_site_fract_x
_atom_site_fract_y
_atom_site_fract_z
Si Si1 0.913007 0.889221 0.824600
Si Si2 0.157621 0.610818 0.064786
Si Si3 0.546563 0.142653 0.962985
Si Si4 0.069697 0.389830 0.324600
Si Si5 0.300456 0.582789 0.673893
Si Si6 0.300456 0.582789 0.975307
Si Si7 0.157621 0.389182 0.084414
Si Si8 0.453437 0.357347 0.186215
O O1 0.871733 0.860066 0.700047
O O2 0.991551 0.860620 0.824600
O O3 0.921301 0.999740 0.824600
O O4 0.871733 0.860066 0.949153
O O5 0.158016 0.500000 0.074600
O O6 0.107557 0.639494 0.952289
O O7 0.234001 0.636180 0.024087
O O8 0.532941 0.250000 0.957296
O O9 0.500000 0.104634 0.074600
O O10 0.626993 0.131223 0.983173
O O11 0.529849 0.103294 0.824600
O O12 0.107557 0.360506 0.196911
O O13 0.289176 0.558181 0.824600
O O14 0.306009 0.500000 0.574600
O O15 0.234001 0.636180 0.625114
O O16 0.373007 0.631223 0.666027
O O17 0.467058 0.250000 0.191904
#
# Coordination Sequence:
#
# PCOD9360539 Si02
#       8
#     8   8   8   8   8   8   8   8
#     4   9  16  22  36  56  84 123 164 194 237 277
#     4   9  16  25  37  58  89 124 158 196 235 283
#     4   9  19  37  57  76  98 125 161 201 240 284
#     4   9  14  24  36  54  84 123 162 194 235 283
#     4  10  20  32  49  72 101 134 161 196 242 290
#     4  10  20  32  49  72 101 134 161 196 242 290
#     4   9  16  25  37  58  89 124 158 196 235 283
#     4   9  19  37  57  76  98 125 161 201 240 284
#
# _framework density 21.000057000000002
#
# number of rings (size 3 to 8) (size 9 to 14) (size 15 to 20)
#    0.000    2.750    1.250    0.750    5.250    4.500 
#    0.000    2.500    0.000    0.000    0.000    0.000 
#    0.000    6.000    0.000    0.000    0.000    0.000 
#
# Total GULP energy -178471.580324 kJ/mol
# GULP energy per Si atom -5577.236885 kJ/mol
# Density = 2.095226 g / cm^3
# Si number density = 21.000057 Si / 1000 Ang^3
#
#
#
# Elastic Constant Matrix: (Units=GPa)
#
#
# Indices 1 2 3 4 5 6 
#
# 1 165.5569 5.8045 131.3141 0.0000 0.0000 0.0000
# 2 5.8045 56.2172 12.9259 0.0000 0.0000 0.0000
# 3 131.3141 12.9259 229.1140 0.0000 0.0000 0.0000
# 4 0.0000 0.0000 0.0000 -9.4691 0.0000 0.0000
# 5 0.0000 0.0000 0.0000 0.0000 43.2549 0.0000
# 6 0.0000 0.0000 0.0000 0.0000 0.0000 64.6254
#
#
#
# Elastic Compliance Matrix: (Units=1/GPa)
#
#
# Indices 1 2 3 4 5 6 
#
# 1 0.011080 0.000320 -0.006369 0.000000 0.000000 0.000000
# 2 0.000320 0.018031 -0.001201 0.000000 0.000000 0.000000
# 3 -0.006369 -0.001201 0.008083 0.000000 0.000000 0.000000
# 4 0.000000 0.000000 0.000000 -0.105606 0.000000 0.000000
# 5 0.000000 0.000000 0.000000 0.000000 0.023119 0.000000
# 6 0.000000 0.000000 0.000000 0.000000 0.000000 0.015474
#
#
# Mechanical properties :
#
#
# Convention : Reuss Voigt Hill
#
# Bulk Modulus (GPa) = 44.06130 83.44189 63.75160
# Shear Modulus (GPa) = -644.65567 39.73846 -302.45860
#
# Velocity S-wave (km/s) = -17.53980 4.35478 -12.01417
# Velocity P-wave (km/s) = 19.72728 8.06882 12.72909
#
# Compressibility (1/GPa) = 0.02269565
#
# Stress axis : x y z
#
# Youngs Moduli (GPa) = 90.24933 55.45947 123.72369
#
# Poissons Ratio (x) = -0.01776 0.78796
# Poissons Ratio (y) = -0.02890 0.14857
# Poissons Ratio (z) = 0.57477 0.06660
#
# Static dielectric constant tensor:
#      x y z
#    x 1.727960 0.000000 0.000000 
#    y 0.000000 1.797310 0.000000 
#    z 0.000000 0.000000 1.756310 
# 
# From -- ./inp_files/4034.got.cif
#   From: 2010.05.17/outbox.cif.g08.bks.cpg/sg39_3_cif.got.tgz:4034.got - 2010.06.03 18:22:40.
