data_PCOD9360116
_publ_section_title
;
Structure prediction by ZEFSAII (Michael W. Deem and Ramdas Pophale) SiO2 
 PCOD9360116
Probable space group: A B M 2
;
_chemical_formula_sum "Si O2"
_cell_formula_units_Z 56
_cell_length_a 15.893742
_cell_length_b 8.428256
_cell_length_c 20.793306
_cell_angle_alpha 90.000000
_cell_angle_beta 90.000000
_cell_angle_gamma 90.000000
_cell_volume 2785.399044
_symmetry_space_group_name_H-M "A B M 2"
_symmetry_group_IT_number 39
_symmetry_cell_setting 'orthorhombic'
loop_
_space_group_symop_operation_xyz
x,y,z
-x,-y,z
-x,1/2+y,z
x,1/2-y,z
x,1/2+y,1/2+z
-x,1/2-y,1/2+z
-x,y,1/2+z
x,-y,1/2+z
loop_
_atom_site_type_symbol
_atom_site_label
_atom_site_fract_x
_atom_site_fract_y
_atom_site_fract_z
Si Si1 0.686197 0.440552 0.003000
Si Si2 0.590640 0.440544 0.618771
Si Si3 0.270631 0.442260 0.362480
Si Si4 0.909651 0.435262 0.180728
Si Si5 0.271440 0.058790 0.221867
Si Si6 0.867222 0.936645 0.043709
Si Si7 0.085491 0.560294 0.905430
O O1 0.697094 0.250000 0.004566
O O2 0.610135 0.491398 0.048095
O O3 0.769297 0.519984 0.033615
O O4 0.683237 0.492110 0.928185
O O5 0.500000 0.500000 0.641203
O O6 0.591980 0.250000 0.616398
O O7 0.665003 0.497197 0.666530
O O8 0.274781 0.250000 0.361750
O O9 0.299112 0.498873 0.292677
O O10 0.172152 0.485059 0.370774
O O11 0.906171 0.250000 0.193518
O O12 0.825322 0.513322 0.209254
O O13 0.902831 0.468481 0.104123
O O14 0.000000 0.500000 0.203069
O O15 0.275073 0.250000 0.221194
O O16 0.876924 0.750000 0.056156
O O17 0.908685 0.984779 0.976379
O O18 0.083902 0.750000 0.911291
O O19 0.000000 0.500000 0.873661
#
# Coordination Sequence:
#
# PCOD9360116 Si02
#       7
#     8   8   8   8   8   8   8
#     4  10  19  36  62  90 120 151 192 241 298 358
#     4  11  23  39  65  94 123 157 198 248 304 363
#     4   8  18  36  59  83 114 158 196 239 298 357
#     4  12  24  37  55  82 118 161 207 253 303 354
#     4  10  21  41  63  87 121 160 203 247 300 358
#     4  11  20  33  53  80 114 152 196 247 302 353
#     4  10  19  32  50  76 110 151 199 250 300 352
#
# _framework density 20.104838000000001
#
# number of rings (size 3 to 8) (size 9 to 14) (size 15 to 20)
#    0.000    1.714    1.429    5.143    0.000    1.143 
#    0.000    6.429    0.000    1.714    0.000    0.000 
#    0.000    0.000    0.000    0.000    0.000    0.000 
#
# Total GULP energy -156389.402475 kJ/mol
# GULP energy per Si atom -5585.335803 kJ/mol
# Density = 2.005908 g / cm^3
# Si number density = 20.104838 Si / 1000 Ang^3
#
#
#
# Elastic Constant Matrix: (Units=GPa)
#
#
# Indices 1 2 3 4 5 6 
#
# 1 88.7935 9.2996 41.7756 0.0000 0.0000 0.0000
# 2 9.2996 32.3177 1.6312 0.0000 0.0000 0.0000
# 3 41.7756 1.6312 120.2778 0.0000 0.0000 0.0000
# 4 0.0000 0.0000 0.0000 14.3120 0.0000 0.0000
# 5 0.0000 0.0000 0.0000 0.0000 -4.8607 0.0000
# 6 0.0000 0.0000 0.0000 0.0000 0.0000 29.4499
#
#
#
# Elastic Compliance Matrix: (Units=1/GPa)
#
#
# Indices 1 2 3 4 5 6 
#
# 1 0.013904 -0.003760 -0.004778 0.000000 0.000000 0.000000
# 2 -0.003760 0.031981 0.000872 0.000000 0.000000 0.000000
# 3 -0.004778 0.000872 0.009962 0.000000 0.000000 0.000000
# 4 0.000000 0.000000 0.000000 0.069871 0.000000 0.000000
# 5 0.000000 0.000000 0.000000 0.000000 -0.205734 0.000000
# 6 0.000000 0.000000 0.000000 0.000000 0.000000 0.033956
#
#
# Mechanical properties :
#
#
# Convention : Reuss Voigt Hill
#
# Bulk Modulus (GPa) = 24.68236 38.53353 31.60795
# Shear Modulus (GPa) = -290.30219 20.35909 -134.97155
#
# Velocity S-wave (km/s) = -12.02945 3.18566 -8.20241
# Velocity P-wave (km/s) = 13.44024 5.72181 8.59944
#
# Compressibility (1/GPa) = 0.04051476
#
# Stress axis : x y z
#
# Youngs Moduli (GPa) = 71.92225 31.26894 100.38294
#
# Poissons Ratio (x) = 0.11756 0.47965
# Poissons Ratio (y) = 0.27041 -0.08755
# Poissons Ratio (z) = 0.34366 -0.02727
#
# Static dielectric constant tensor:
#      x y z
#    x 1.761300 0.000000 0.000000 
#    y 0.000000 1.683580 0.000000 
#    z 0.000000 0.000000 1.736570 
# 
# From -- ./inp_files/14798.got.cif
#   From: 2010.05.17/outbox.cif.g08.bks.cpg/sg39_8_cif.got.tgz:14798.got - 2010.06.03 18:22:40.
