data_PCOD9360111
_publ_section_title
;
Structure prediction by ZEFSAII (Michael W. Deem and Ramdas Pophale) SiO2 
 PCOD9360111
Probable space group: A B M 2
;
_chemical_formula_sum "Si O2"
_cell_formula_units_Z 64
_cell_length_a 14.624681
_cell_length_b 8.589750
_cell_length_c 32.272137
_cell_angle_alpha 90.000000
_cell_angle_beta 90.000000
_cell_angle_gamma 90.000000
_cell_volume 4054.101806
_symmetry_space_group_name_H-M "A B M 2"
_symmetry_group_IT_number 39
_symmetry_cell_setting 'orthorhombic'
loop_
_space_group_symop_operation_xyz
x,y,z
-x,-y,z
-x,1/2+y,z
x,1/2-y,z
x,1/2+y,1/2+z
-x,1/2-y,1/2+z
-x,y,1/2+z
x,-y,1/2+z
loop_
_atom_site_type_symbol
_atom_site_label
_atom_site_fract_x
_atom_site_fract_y
_atom_site_fract_z
Si Si1 0.784858 0.064276 0.409130
Si Si2 0.897174 0.564048 0.330628
Si Si3 0.598600 0.935810 0.378152
Si Si4 0.896662 0.562575 0.577946
Si Si5 0.895948 0.062298 0.986866
Si Si6 0.402558 0.436621 0.784813
Si Si7 0.791415 0.938303 0.750644
Si Si8 0.896358 0.938360 0.668467
O O1 0.783432 0.250000 0.407848
O O2 0.841198 0.002122 0.369557
O O3 0.682479 0.999175 0.404837
O O4 0.834854 0.005759 0.450376
O O5 0.898153 0.750000 0.332810
O O6 0.848397 0.509632 0.288477
O O7 0.000000 0.500000 0.331681
O O8 0.597847 0.750000 0.378134
O O9 0.500000 0.000000 0.391724
O O10 0.612257 0.995003 0.330888
O O11 0.898130 0.750000 0.577899
O O12 0.859347 0.515925 0.532831
O O13 0.859017 0.513281 0.622922
O O14 0.000000 0.500000 0.578110
O O15 0.897968 0.250000 0.984000
O O16 0.000000 0.000000 0.982953
O O17 0.500000 0.500000 0.769617
O O18 0.407476 0.250000 0.788345
O O19 0.314985 0.478628 0.757197
O O20 0.798563 0.750000 0.753391
O O21 0.834317 0.988766 0.706960
O O22 0.900362 0.750000 0.669175
O O23 0.000000 0.000000 0.673180
#
# Coordination Sequence:
#
# PCOD9360111 Si02
#       8
#     8   8   8   8   8   8   8   8
#     4  12  23  36  51  71  98 129 165 204 244 291
#     4  12  24  36  49  66  95 133 169 201 238 286
#     4  11  21  35  54  75  97 126 161 203 247 292
#     4   8  15  28  47  68  94 124 160 201 243 289
#     4  10  19  32  49  72  99 130 165 204 247 295
#     4  10  19  32  50  70  95 126 162 206 248 288
#     4  10  20  33  49  70  98 129 164 202 243 290
#     4   9  17  30  47  70  97 129 163 199 241 288
#
# _framework density 15.786479999999999
#
# number of rings (size 3 to 8) (size 9 to 14) (size 15 to 20)
#    0.000    1.750    1.250    5.625    0.000    2.500 
#    0.000    0.000    0.000    0.000    0.000    0.875 
#    0.000    2.000    0.000    0.000    0.000    0.000 
#
# Total GULP energy -178530.019672 kJ/mol
# GULP energy per Si atom -5579.063115 kJ/mol
# Density = 1.575055 g / cm^3
# Si number density = 15.786480 Si / 1000 Ang^3
#
#
#
# Elastic Constant Matrix: (Units=GPa)
#
#
# Indices 1 2 3 4 5 6 
#
# 1 123.0355 43.8649 78.7084 0.0000 0.0000 0.0000
# 2 43.8649 74.3470 43.6443 0.0000 0.0000 0.0000
# 3 78.7084 43.6443 154.1716 0.0000 0.0000 0.0000
# 4 0.0000 0.0000 0.0000 17.3763 0.0000 0.0000
# 5 0.0000 0.0000 0.0000 0.0000 3.8061 0.0000
# 6 0.0000 0.0000 0.0000 0.0000 0.0000 24.7491
#
#
#
# Elastic Compliance Matrix: (Units=1/GPa)
#
#
# Indices 1 2 3 4 5 6 
#
# 1 0.013273 -0.004621 -0.005468 0.000000 0.000000 0.000000
# 2 -0.004621 0.017740 -0.002663 0.000000 0.000000 0.000000
# 3 -0.005468 -0.002663 0.010032 0.000000 0.000000 0.000000
# 4 0.000000 0.000000 0.000000 0.057549 0.000000 0.000000
# 5 0.000000 0.000000 0.000000 0.000000 0.262737 0.000000
# 6 0.000000 0.000000 0.000000 0.000000 0.000000 0.040406
#
#
# Mechanical properties :
#
#
# Convention : Reuss Voigt Hill
#
# Bulk Modulus (GPa) = 64.34674 75.99884 70.17279
# Shear Modulus (GPa) = 11.56277 21.54206 16.55241
#
# Velocity S-wave (km/s) = 2.70931 3.69804 3.24160
# Velocity P-wave (km/s) = 7.11592 8.15354 7.65234
#
# Compressibility (1/GPa) = 0.01554080
#
# Stress axis : x y z
#
# Youngs Moduli (GPa) = 75.33824 56.36923 99.68389
#
# Poissons Ratio (x) = 0.26050 0.54509
# Poissons Ratio (y) = 0.34817 0.26543
# Poissons Ratio (z) = 0.41196 0.15010
#
# Static dielectric constant tensor:
#      x y z
#    x 1.507200 0.000000 0.000000 
#    y 0.000000 1.541000 0.000000 
#    z 0.000000 0.000000 1.543130 
# 
# From -- ./inp_files/18010.got.cif
#   From: 2010.05.17/outbox.cif.g08.bks.cpg/sg39_10_cif.got.tgz:18010.got - 2010.06.03 18:22:40.
