data_PCOD9360993
_publ_section_title
;
Structure prediction by ZEFSAII (Michael W. Deem and Ramdas Pophale) SiO2 
 PCOD9360993
Probable space group: A B M 2
;
_chemical_formula_sum "Si O2"
_cell_formula_units_Z 64
_cell_length_a 15.841289
_cell_length_b 8.612992
_cell_length_c 24.378546
_cell_angle_alpha 90.000000
_cell_angle_beta 90.000000
_cell_angle_gamma 90.000000
_cell_volume 3326.230645
_symmetry_space_group_name_H-M "A B M 2"
_symmetry_group_IT_number 39
_symmetry_cell_setting 'orthorhombic'
loop_
_space_group_symop_operation_xyz
x,y,z
-x,-y,z
-x,1/2+y,z
x,1/2-y,z
x,1/2+y,1/2+z
-x,1/2-y,1/2+z
-x,y,1/2+z
x,-y,1/2+z
loop_
_atom_site_type_symbol
_atom_site_label
_atom_site_fract_x
_atom_site_fract_y
_atom_site_fract_z
Si Si1 0.251595 0.436715 0.842220
Si Si2 0.589735 0.436543 0.541952
Si Si3 0.749249 0.560969 0.968846
Si Si4 0.646071 0.065206 0.158835
Si Si5 0.410399 0.434933 0.274756
Si Si6 0.908172 0.064244 0.776514
Si Si7 0.091496 0.062968 0.040416
Si Si8 0.164487 0.437289 0.158128
O O1 0.254253 0.250000 0.839859
O O2 0.253272 0.487194 0.905700
O O3 0.332153 0.502568 0.810072
O O4 0.166346 0.494686 0.813305
O O5 0.500000 0.500000 0.522309
O O6 0.588251 0.250000 0.543623
O O7 0.666881 0.487278 0.503039
O O8 0.606987 0.499429 0.602950
O O9 0.749960 0.750000 0.969612
O O10 0.833809 0.509299 0.000173
O O11 0.636955 0.250000 0.160530
O O12 0.603740 0.992305 0.212533
O O13 0.744503 0.017465 0.159772
O O14 0.500000 0.500000 0.294851
O O15 0.410974 0.250000 0.275906
O O16 0.907471 0.250000 0.781412
O O17 0.886566 0.024356 0.713141
O O18 0.000000 0.000000 0.791180
O O19 0.089259 0.250000 0.038780
O O20 0.116232 0.017584 0.102607
O O21 0.000000 0.000000 0.025562
O O22 0.177779 0.250000 0.156835
#
# Coordination Sequence:
#
# PCOD9360993 Si02
#       8
#     8   8   8   8   8   8   8   8
#     4  11  23  42  65  92 123 161 210 260 311 367
#     4  11  22  41  64  90 125 162 201 248 303 365
#     4   9  21  41  64  86 121 165 203 250 308 361
#     4  12  23  37  62  95 126 160 201 248 304 366
#     4  12  25  43  65  92 125 163 204 251 310 370
#     4  11  23  39  62  92 125 166 207 254 311 369
#     4  10  20  38  61  89 121 161 200 245 301 359
#     4  10  20  37  62  88 124 162 199 246 308 371
#
# _framework density 19.240998999999999
#
# number of rings (size 3 to 8) (size 9 to 14) (size 15 to 20)
#    0.000    1.250    2.500    4.125    0.000    2.000 
#    0.000    6.250    0.000    0.000    0.000    0.000 
#    0.000    0.000    0.000    0.000    0.000    0.000 
#
# Total GULP energy -178968.973342 kJ/mol
# GULP energy per Si atom -5592.780417 kJ/mol
# Density = 1.919721 g / cm^3
# Si number density = 19.240999 Si / 1000 Ang^3
#
#
#
# Elastic Constant Matrix: (Units=GPa)
#
#
# Indices 1 2 3 4 5 6 
#
# 1 202.5365 55.0639 89.4049 0.0000 0.0000 0.0000
# 2 55.0639 71.3693 44.7358 0.0000 0.0000 0.0000
# 3 89.4049 44.7358 157.3854 0.0000 0.0000 0.0000
# 4 0.0000 0.0000 0.0000 19.9906 0.0000 0.0000
# 5 0.0000 0.0000 0.0000 0.0000 -66.6903 0.0000
# 6 0.0000 0.0000 0.0000 0.0000 0.0000 34.5513
#
#
#
# Elastic Compliance Matrix: (Units=1/GPa)
#
#
# Indices 1 2 3 4 5 6 
#
# 1 0.007312 -0.003697 -0.003103 0.000000 0.000000 0.000000
# 2 -0.003697 0.018918 -0.003277 0.000000 0.000000 0.000000
# 3 -0.003103 -0.003277 0.009048 0.000000 0.000000 0.000000
# 4 0.000000 0.000000 0.000000 0.050024 0.000000 0.000000
# 5 0.000000 0.000000 0.000000 0.000000 -0.014995 0.000000
# 6 0.000000 0.000000 0.000000 0.000000 0.000000 0.028942
#
#
# Mechanical properties :
#
#
# Convention : Reuss Voigt Hill
#
# Bulk Modulus (GPa) = 66.11899 89.96670 78.04284
# Shear Modulus (GPa) = 40.17838 13.70942 26.94390
#
# Velocity S-wave (km/s) = 4.57460 2.67219 3.74617
# Velocity P-wave (km/s) = 7.89562 7.50867 7.70457
#
# Compressibility (1/GPa) = 0.01512425
#
# Stress axis : x y z
#
# Youngs Moduli (GPa) = 136.75932 52.85968 110.51979
#
# Poissons Ratio (x) = 0.19540 0.34295
# Poissons Ratio (y) = 0.50553 0.36223
# Poissons Ratio (z) = 0.42437 0.17325
#
# Static dielectric constant tensor:
#      x y z
#    x 1.659380 0.000000 0.000000 
#    y 0.000000 1.653460 0.000000 
#    z 0.000000 0.000000 1.654640 
# 
# From -- ./inp_files/16167.got.cif
#   From: 2010.05.17/outbox.cif.g08.bks.cpg/sg39_9_cif.got.tgz:16167.got - 2010.06.03 18:22:40.
