data_PCOD9360371
_publ_section_title
;
Structure prediction by ZEFSAII (Michael W. Deem and Ramdas Pophale) SiO2 
 PCOD9360371
Probable space group: A B M 2
;
_chemical_formula_sum "Si O2"
_cell_formula_units_Z 56
_cell_length_a 15.242391
_cell_length_b 14.456807
_cell_length_c 10.782744
_cell_angle_alpha 90.000000
_cell_angle_beta 90.000000
_cell_angle_gamma 90.000000
_cell_volume 2376.045625
_symmetry_space_group_name_H-M "A B M 2"
_symmetry_group_IT_number 39
_symmetry_cell_setting 'orthorhombic'
loop_
_space_group_symop_operation_xyz
x,y,z
-x,-y,z
-x,1/2+y,z
x,1/2-y,z
x,1/2+y,1/2+z
-x,1/2-y,1/2+z
-x,y,1/2+z
x,-y,1/2+z
loop_
_atom_site_type_symbol
_atom_site_label
_atom_site_fract_x
_atom_site_fract_y
_atom_site_fract_z
Si Si1 0.331621 0.848729 0.101100
Si Si2 0.592217 0.364930 0.454139
Si Si3 0.958719 0.104088 0.040386
Si Si4 0.213990 0.147010 0.388906
Si Si5 0.248541 0.957418 0.303392
Si Si6 0.522564 0.354134 0.716230
Si Si7 0.948132 0.599741 0.812049
O O1 0.294431 0.750000 0.148028
O O2 0.283030 0.928399 0.170843
O O3 0.431253 0.849653 0.139944
O O4 0.307471 0.851213 0.958754
O O5 0.599945 0.250000 0.449528
O O6 0.676953 0.418114 0.397222
O O7 0.579958 0.393957 0.599901
O O8 0.512667 0.387547 0.353114
O O9 0.859850 0.113269 0.987312
O O10 0.013895 0.149114 0.931241
O O11 0.963317 0.142659 0.177863
O O12 0.000000 0.000000 0.050658
O O13 0.192669 0.250000 0.345879
O O14 0.226754 0.065546 0.294353
O O15 0.154776 0.913146 0.330657
O O16 0.556266 0.250000 0.737855
O O17 0.000000 0.500000 0.808502
#
# Coordination Sequence:
#
# PCOD9360371 Si02
#       7
#     8   8   8   8   8   8   8
#     4   9  19  37  64  93 125 174 225 268 338 417
#     4   9  18  34  64 100 134 175 221 277 352 413
#     4  10  19  37  62  89 119 172 218 272 339 404
#     4  11  22  38  60  92 128 173 227 277 335 405
#     4  11  19  36  63  96 127 175 224 284 321 408
#     4   8  15  32  59  92 130 166 210 272 337 408
#     4  10  19  34  64  88 123 169 221 269 346 391
#
# _framework density 23.568569
#
# number of rings (size 3 to 8) (size 9 to 14) (size 15 to 20)
#    0.000    2.286    4.286    1.286    0.000    0.000 
#    0.000    4.286    0.000    6.857    0.000   10.000 
#    0.000    0.000    0.000    0.000    0.000    0.000 
#
# Total GULP energy -155873.578883 kJ/mol
# GULP energy per Si atom -5566.913532 kJ/mol
# Density = 2.351493 g / cm^3
# Si number density = 23.568569 Si / 1000 Ang^3
#
#
#
# Elastic Constant Matrix: (Units=GPa)
#
#
# Indices 1 2 3 4 5 6 
#
# 1 92.7954 26.1252 33.8276 0.0000 0.0000 0.0000
# 2 26.1252 102.4182 30.8008 0.0000 0.0000 0.0000
# 3 33.8276 30.8008 117.4843 0.0000 0.0000 0.0000
# 4 0.0000 0.0000 0.0000 -32.3042 0.0000 0.0000
# 5 0.0000 0.0000 0.0000 0.0000 34.3833 0.0000
# 6 0.0000 0.0000 0.0000 0.0000 0.0000 273.4019
#
#
#
# Elastic Compliance Matrix: (Units=1/GPa)
#
#
# Indices 1 2 3 4 5 6 
#
# 1 0.012516 -0.002289 -0.003004 0.000000 0.000000 0.000000
# 2 -0.002289 0.011018 -0.002230 0.000000 0.000000 0.000000
# 3 -0.003004 -0.002230 0.009961 0.000000 0.000000 0.000000
# 4 0.000000 0.000000 0.000000 -0.030956 0.000000 0.000000
# 5 0.000000 0.000000 0.000000 0.000000 0.029084 0.000000
# 6 0.000000 0.000000 0.000000 0.000000 0.000000 0.003658
#
#
# Mechanical properties :
#
#
# Convention : Reuss Voigt Hill
#
# Bulk Modulus (GPa) = 54.19885 54.91167 54.55526
# Shear Modulus (GPa) = 88.53321 69.89248 79.21285
#
# Velocity S-wave (km/s) = 6.13561 5.45154 5.80366
# Velocity P-wave (km/s) = 8.55806 7.93568 8.25274
#
# Compressibility (1/GPa) = 0.01845057
#
# Stress axis : x y z
#
# Youngs Moduli (GPa) = 79.89886 90.75768 100.39055
#
# Poissons Ratio (x) = 0.20777 0.30153
# Poissons Ratio (y) = 0.18291 0.22382
# Poissons Ratio (z) = 0.23998 0.20234
#
# Static dielectric constant tensor:
#      x y z
#    x 1.981420 0.000000 0.000000 
#    y 0.000000 2.007070 0.000000 
#    z 0.000000 0.000000 1.929660 
# 
# From -- ./inp_files/6496.got.cif
#   From: 2010.05.17/outbox.cif.g08.bks.cpg/sg39_4_cif.got.tgz:6496.got - 2010.06.03 18:22:40.
