data_PCOD9360464
_publ_section_title
;
Structure prediction by ZEFSAII (Michael W. Deem and Ramdas Pophale) SiO2 
 PCOD9360464
Probable space group: A B M 2
;
_chemical_formula_sum "Si O2"
_cell_formula_units_Z 56
_cell_length_a 8.333755
_cell_length_b 16.804364
_cell_length_c 20.084205
_cell_angle_alpha 90.000000
_cell_angle_beta 90.000000
_cell_angle_gamma 90.000000
_cell_volume 2812.661409
_symmetry_space_group_name_H-M "A B M 2"
_symmetry_group_IT_number 39
_symmetry_cell_setting 'orthorhombic'
loop_
_space_group_symop_operation_xyz
x,y,z
-x,-y,z
-x,1/2+y,z
x,1/2-y,z
x,1/2+y,1/2+z
-x,1/2-y,1/2+z
-x,y,1/2+z
x,-y,1/2+z
loop_
_atom_site_type_symbol
_atom_site_label
_atom_site_fract_x
_atom_site_fract_y
_atom_site_fract_z
Si Si1 0.500814 0.157017 0.200040
Si Si2 0.908648 0.840869 0.014911
Si Si3 0.838359 0.096757 0.249725
Si Si4 0.895366 0.069253 0.110126
Si Si5 0.038202 0.593745 0.878107
Si Si6 0.652674 0.051244 0.813927
Si Si7 0.633931 0.448487 0.578110
O O1 0.464312 0.250000 0.192304
O O2 0.689186 0.147362 0.220448
O O3 0.410821 0.115467 0.261619
O O4 0.442652 0.108493 0.134672
O O5 0.858244 0.750000 0.019775
O O6 0.973035 0.861473 0.942032
O O7 0.756933 0.895826 0.035497
O O8 0.059639 0.856887 0.064730
O O9 0.949312 0.086123 0.185121
O O10 0.942867 0.124318 0.312524
O O11 0.760737 0.013610 0.274354
O O12 0.729214 0.022015 0.113026
O O13 0.000000 0.000000 0.077210
O O14 0.229249 0.593729 0.865866
O O15 0.000000 0.500000 0.887005
O O16 0.500000 0.000000 0.839961
O O17 0.500000 0.500000 0.539079
#
# Coordination Sequence:
#
# PCOD9360464 Si02
#       7
#     8   8   8   8   8   8   8
#     4  11  21  34  57  97 133 161 203 274 344 380
#     4  11  26  43  60  92 135 171 213 272 332 391
#     4  10  19  36  63  91 122 164 222 263 310 382
#     4  10  19  36  66  89 119 162 214 263 311 383
#     4  10  21  40  66  91 122 174 222 260 311 389
#     4   9  18  36  64  94 126 161 215 271 312 384
#     4  11  20  41  68  88 121 167 222 267 320 388
#
# _framework density 19.909970000000001
#
# number of rings (size 3 to 8) (size 9 to 14) (size 15 to 20)
#    0.000    1.714    2.857    3.429    2.000    1.714 
#    0.000   10.714    0.000    0.000    0.000    0.000 
#    0.000    0.000    0.000    0.000    0.000    0.000 
#
# Total GULP energy -155899.987589 kJ/mol
# GULP energy per Si atom -5567.856700 kJ/mol
# Density = 1.986465 g / cm^3
# Si number density = 19.909970 Si / 1000 Ang^3
#
#
#
# Elastic Constant Matrix: (Units=GPa)
#
#
# Indices 1 2 3 4 5 6 
#
# 1 94.3599 57.2489 49.7867 0.0000 0.0000 0.0000
# 2 57.2489 95.8187 45.1249 0.0000 0.0000 0.0000
# 3 49.7867 45.1249 114.0105 0.0000 0.0000 0.0000
# 4 0.0000 0.0000 0.0000 14.7401 0.0000 0.0000
# 5 0.0000 0.0000 0.0000 0.0000 14.9891 0.0000
# 6 0.0000 0.0000 0.0000 0.0000 0.0000 20.5143
#
#
#
# Elastic Compliance Matrix: (Units=1/GPa)
#
#
# Indices 1 2 3 4 5 6 
#
# 1 0.018336 -0.008830 -0.004512 0.000000 0.000000 0.000000
# 2 -0.008830 0.017080 -0.002904 0.000000 0.000000 0.000000
# 3 -0.004512 -0.002904 0.011891 0.000000 0.000000 0.000000
# 4 0.000000 0.000000 0.000000 0.067842 0.000000 0.000000
# 5 0.000000 0.000000 0.000000 0.000000 0.066715 0.000000
# 6 0.000000 0.000000 0.000000 0.000000 0.000000 0.048747
#
#
# Mechanical properties :
#
#
# Convention : Reuss Voigt Hill
#
# Bulk Modulus (GPa) = 67.50441 67.61223 67.55832
# Shear Modulus (GPa) = 18.65390 20.18395 19.41892
#
# Velocity S-wave (km/s) = 3.06422 3.18742 3.12643
# Velocity P-wave (km/s) = 6.81892 6.89774 6.85845
#
# Compressibility (1/GPa) = 0.01481385
#
# Stress axis : x y z
#
# Youngs Moduli (GPa) = 54.53847 58.54870 84.09811
#
# Poissons Ratio (x) = 0.51699 0.37945
# Poissons Ratio (y) = 0.48158 0.24423
# Poissons Ratio (z) = 0.24608 0.17003
#
# Static dielectric constant tensor:
#      x y z
#    x 1.836670 0.000000 0.000000 
#    y 0.000000 1.717100 0.000000 
#    z 0.000000 0.000000 1.696060 
# 
# From -- ./inp_files/14064.got.cif
#   From: 2010.05.17/outbox.cif.g08.bks.cpg/sg39_8_cif.got.tgz:14064.got - 2010.06.03 18:22:40.
