data_PCOD9360598
_publ_section_title
;
Structure prediction by ZEFSAII (Michael W. Deem and Ramdas Pophale) SiO2 
 PCOD9360598
Probable space group: A B M 2
;
_chemical_formula_sum "Si O2"
_cell_formula_units_Z 52
_cell_length_a 16.269948
_cell_length_b 17.567069
_cell_length_c 8.169857
_cell_angle_alpha 90.000000
_cell_angle_beta 90.000000
_cell_angle_gamma 90.000000
_cell_volume 2335.070122
_symmetry_space_group_name_H-M "A B M 2"
_symmetry_group_IT_number 39
_symmetry_cell_setting 'orthorhombic'
loop_
_space_group_symop_operation_xyz
x,y,z
-x,-y,z
-x,1/2+y,z
x,1/2-y,z
x,1/2+y,1/2+z
-x,1/2-y,1/2+z
-x,y,1/2+z
x,-y,1/2+z
loop_
_atom_site_type_symbol
_atom_site_label
_atom_site_fract_x
_atom_site_fract_y
_atom_site_fract_z
Si Si1 0.114993 0.887085 0.932560
Si Si2 0.265520 0.360317 0.620201
Si Si3 0.234885 0.533353 0.720990
Si Si4 0.606438 0.922100 0.432810
Si Si5 0.500000 0.500000 0.194280
Si Si6 0.038830 0.162744 0.742961
Si Si7 0.196342 0.833674 0.465674
O O1 0.155613 0.958152 0.839044
O O2 0.052265 0.849108 0.807684
O O3 0.192923 0.837746 0.995714
O O4 0.063273 0.895387 0.099442
O O5 0.245657 0.450157 0.648348
O O6 0.353272 0.352043 0.532212
O O7 0.253428 0.330617 0.802709
O O8 0.315863 0.549622 0.828261
O O9 0.223664 0.598923 0.584792
O O10 0.530399 0.929330 0.306546
O O11 0.574368 0.976407 0.577489
O O12 0.046850 0.250000 0.681051
O O13 0.105313 0.154601 0.889113
O O14 0.199047 0.750000 0.545333
#
# Coordination Sequence:
#
# PCOD9360598 Si02
#       7
#     8   8   8   8   4   8   8
#     4  10  21  34  53  79 106 155 202 247 310 354
#     4  10  21  39  59  88 123 162 194 256 314 365
#     4  11  21  37  59  88 124 165 195 253 312 366
#     4  10  20  33  59  92 132 146 194 249 304 353
#     4  10  20  34  58 104 124 150 196 248 308 352
#     4  10  20  37  56  79 113 155 209 271 305 345
#     4  10  22  38  61  89 123 165 215 258 305 362
#
# _framework density 22.269138000000002
#
# number of rings (size 3 to 8) (size 9 to 14) (size 15 to 20)
#    0.000    1.846    1.538    3.231    0.000    3.077 
#    0.000   15.385    0.000    0.000    0.000   10.769 
#    0.000    0.000    0.000    0.000    0.000    0.000 
#
# Total GULP energy -144936.448781 kJ/mol
# GULP energy per Si atom -5574.478799 kJ/mol
# Density = 2.221845 g / cm^3
# Si number density = 22.269138 Si / 1000 Ang^3
#
#
#
# Elastic Constant Matrix: (Units=GPa)
#
#
# Indices 1 2 3 4 5 6 
#
# 1 102.8745 25.9930 45.5874 0.0000 0.0000 0.0000
# 2 25.9930 99.1664 35.6564 0.0000 0.0000 0.0000
# 3 45.5874 35.6564 110.1509 0.0000 0.0000 0.0000
# 4 0.0000 0.0000 0.0000 18.1706 0.0000 0.0000
# 5 0.0000 0.0000 0.0000 0.0000 40.0112 0.0000
# 6 0.0000 0.0000 0.0000 0.0000 0.0000 1.3812
#
#
#
# Elastic Compliance Matrix: (Units=1/GPa)
#
#
# Indices 1 2 3 4 5 6 
#
# 1 0.012111 -0.001553 -0.004510 0.000000 0.000000 0.000000
# 2 -0.001553 0.011612 -0.003116 0.000000 0.000000 0.000000
# 3 -0.004510 -0.003116 0.011954 0.000000 0.000000 0.000000
# 4 0.000000 0.000000 0.000000 0.055034 0.000000 0.000000
# 5 0.000000 0.000000 0.000000 0.000000 0.024993 0.000000
# 6 0.000000 0.000000 0.000000 0.000000 0.000000 0.724029
#
#
# Mechanical properties :
#
#
# Convention : Reuss Voigt Hill
#
# Bulk Modulus (GPa) = 57.74021 58.51839 58.12930
# Shear Modulus (GPa) = 5.78796 25.57627 15.68211
#
# Velocity S-wave (km/s) = 1.61392 3.39264 2.65657
# Velocity P-wave (km/s) = 5.42749 6.45612 5.96402
#
# Compressibility (1/GPa) = 0.01731895
#
# Stress axis : x y z
#
# Youngs Moduli (GPa) = 82.56675 86.12137 83.65739
#
# Poissons Ratio (x) = 0.13375 0.37727
# Poissons Ratio (y) = 0.12823 0.26067
# Poissons Ratio (z) = 0.37235 0.26835
#
# Static dielectric constant tensor:
#      x y z
#    x 1.854210 0.000000 0.000000 
#    y 0.000000 1.847150 0.000000 
#    z 0.000000 0.000000 1.891390 
# 
# From -- ./inp_files/3351.got.cif
#   From: 2010.05.17/outbox.cif.g08.bks.cpg/sg39_2_cif.got.tgz:3351.got - 2010.06.03 18:22:40.
