data_PCOD9361392
_publ_section_title
;
Structure prediction by ZEFSAII (Michael W. Deem and Ramdas Pophale) SiO2 
 PCOD9361392
Probable space group: A B M 2
;
_chemical_formula_sum "Si O2"
_cell_formula_units_Z 64
_cell_length_a 17.130349
_cell_length_b 8.553800
_cell_length_c 23.230358
_cell_angle_alpha 90.000000
_cell_angle_beta 90.000000
_cell_angle_gamma 90.000000
_cell_volume 3403.934584
_symmetry_space_group_name_H-M "A B M 2"
_symmetry_group_IT_number 39
_symmetry_cell_setting 'orthorhombic'
loop_
_space_group_symop_operation_xyz
x,y,z
-x,-y,z
-x,1/2+y,z
x,1/2-y,z
x,1/2+y,1/2+z
-x,1/2-y,1/2+z
-x,y,1/2+z
x,-y,1/2+z
loop_
_atom_site_type_symbol
_atom_site_label
_atom_site_fract_x
_atom_site_fract_y
_atom_site_fract_z
Si Si1 0.922225 0.061737 0.944050
Si Si2 0.087824 0.436422 0.694908
Si Si3 0.762635 0.560310 0.498941
Si Si4 0.415054 0.566410 0.677196
Si Si5 0.424875 0.429234 0.802607
Si Si6 0.750057 0.560469 0.629710
Si Si7 0.296169 0.067960 0.375814
Si Si8 0.875999 0.432726 0.820595
O O1 0.920293 0.250000 0.941229
O O2 0.917058 0.003424 0.878188
O O3 0.848466 0.008572 0.980061
O O4 0.000000 0.000000 0.971875
O O5 0.084044 0.250000 0.688356
O O6 0.166958 0.489737 0.659696
O O7 0.104992 0.479889 0.761740
O O8 0.000000 0.500000 0.679954
O O9 0.762449 0.750000 0.500827
O O10 0.746153 0.506655 0.563153
O O11 0.711677 0.521870 0.442792
O O12 0.500000 0.500000 0.656129
O O13 0.414254 0.750000 0.665650
O O14 0.414819 0.531023 0.745299
O O15 0.332603 0.494382 0.656275
O O16 0.500000 0.500000 0.833703
O O17 0.436095 0.250000 0.785871
O O18 0.352197 0.452581 0.843094
O O19 0.750725 0.750000 0.632091
O O20 0.322439 0.250000 0.373071
O O21 0.213865 0.063519 0.341841
O O22 0.897071 0.250000 0.811748
#
# Coordination Sequence:
#
# PCOD9361392 Si02
#       8
#     8   8   8   8   8   8   8   8
#     4   9  17  30  49  74  99 131 172 217 267 318
#     4  11  23  35  51  76 109 146 186 228 275 328
#     4   8  17  35  56  74 101 140 180 218 264 320
#     4  11  22  38  61  88 115 144 180 225 274 330
#     4  11  21  34  54  82 113 141 170 210 260 320
#     4  10  21  39  59  80 108 147 190 233 277 324
#     4   9  17  33  56  80 105 138 175 216 267 323
#     4   9  18  32  51  74 103 135 172 217 271 329
#
# _framework density 18.801770999999999
#
# number of rings (size 3 to 8) (size 9 to 14) (size 15 to 20)
#    0.000    2.250    0.000    6.000    0.000    5.500 
#    0.000    3.750    0.000    0.000    0.000    0.000 
#    0.000    0.000    0.000    0.000    0.000    0.000 
#
# Total GULP energy -178208.540038 kJ/mol
# GULP energy per Si atom -5569.016876 kJ/mol
# Density = 1.875898 g / cm^3
# Si number density = 18.801771 Si / 1000 Ang^3
#
#
#
# Elastic Constant Matrix: (Units=GPa)
#
#
# Indices 1 2 3 4 5 6 
#
# 1 114.1888 26.0899 48.7189 0.0000 0.0000 0.0000
# 2 26.0899 36.2407 12.5553 0.0000 0.0000 0.0000
# 3 48.7189 12.5553 72.7149 0.0000 0.0000 0.0000
# 4 0.0000 0.0000 0.0000 11.2825 0.0000 0.0000
# 5 0.0000 0.0000 0.0000 0.0000 19.9362 0.0000
# 6 0.0000 0.0000 0.0000 0.0000 0.0000 31.1586
#
#
#
# Elastic Compliance Matrix: (Units=1/GPa)
#
#
# Indices 1 2 3 4 5 6 
#
# 1 0.013817 -0.007169 -0.008020 0.000000 0.000000 0.000000
# 2 -0.007169 0.033068 -0.000907 0.000000 0.000000 0.000000
# 3 -0.008020 -0.000907 0.019282 0.000000 0.000000 0.000000
# 4 0.000000 0.000000 0.000000 0.088633 0.000000 0.000000
# 5 0.000000 0.000000 0.000000 0.000000 0.050160 0.000000
# 6 0.000000 0.000000 0.000000 0.000000 0.000000 0.032094
#
#
# Mechanical properties :
#
#
# Convention : Reuss Voigt Hill
#
# Bulk Modulus (GPa) = 29.43147 44.20808 36.81978
# Shear Modulus (GPa) = 17.82091 21.52747 19.67419
#
# Velocity S-wave (km/s) = 3.08203 3.38741 3.23832
# Velocity P-wave (km/s) = 5.32473 6.23403 5.79724
#
# Compressibility (1/GPa) = 0.03397723
#
# Stress axis : x y z
#
# Youngs Moduli (GPa) = 72.37541 30.24062 51.86186
#
# Poissons Ratio (x) = 0.21678 0.41591
# Poissons Ratio (y) = 0.51883 0.04703
# Poissons Ratio (z) = 0.58042 0.02742
#
# Static dielectric constant tensor:
#      x y z
#    x 1.551850 0.000000 0.000000 
#    y 0.000000 1.648760 0.000000 
#    z 0.000000 0.000000 1.640480 
# 
# From -- ./inp_files/16226.got.cif
#   From: 2010.05.17/outbox.cif.g08.bks.cpg/sg39_9_cif.got.tgz:16226.got - 2010.06.03 18:22:40.
