data_PCOD9361943
_publ_section_title
;
Structure prediction by ZEFSAII (Michael W. Deem and Ramdas Pophale) SiO2 
 PCOD9361943
Probable space group: A B M 2
;
_chemical_formula_sum "Si O2"
_cell_formula_units_Z 56
_cell_length_a 5.107759
_cell_length_b 14.480102
_cell_length_c 31.438878
_cell_angle_alpha 90.000000
_cell_angle_beta 90.000000
_cell_angle_gamma 90.000000
_cell_volume 2325.246810
_symmetry_space_group_name_H-M "A B M 2"
_symmetry_group_IT_number 39
_symmetry_cell_setting 'orthorhombic'
loop_
_space_group_symop_operation_xyz
x,y,z
-x,-y,z
-x,1/2+y,z
x,1/2-y,z
x,1/2+y,1/2+z
-x,1/2-y,1/2+z
-x,y,1/2+z
x,-y,1/2+z
loop_
_atom_site_type_symbol
_atom_site_label
_atom_site_fract_x
_atom_site_fract_y
_atom_site_fract_z
Si Si1 0.144929 0.858611 0.026420
Si Si2 0.397596 0.098326 0.611125
Si Si3 0.500000 0.000000 0.402377
Si Si4 0.115235 0.896348 0.282580
Si Si5 0.968695 0.389325 0.186891
Si Si6 0.629495 0.647662 0.336624
Si Si7 0.297909 0.750000 0.641692
Si Si8 0.657810 0.358783 0.469952
O O1 0.133979 0.750000 0.038471
O O2 0.231478 0.911259 0.068573
O O3 0.372788 0.867867 0.991256
O O4 0.873602 0.884842 0.004890
O O5 0.221029 0.142225 0.648536
O O6 0.632651 0.169464 0.606273
O O7 0.500000 0.000000 0.624981
O O8 0.661374 0.930244 0.372434
O O9 0.331724 0.930434 0.431315
O O10 0.136883 0.866914 0.233510
O O11 0.388122 0.884016 0.306758
O O12 0.889531 0.846487 0.308776
O O13 0.000000 0.000000 0.281162
O O14 0.000000 0.500000 0.183446
O O15 0.227163 0.331702 0.176670
O O16 0.571090 0.750000 0.354321
O O17 0.699693 0.250000 0.458655
#
# Coordination Sequence:
#
# PCOD9361943 Si02
#       8
#     8   8   4   8   8   8   4   8
#     4  10  24  46  73 107 148 189 247 301 372 446
#     4  12  26  45  74 111 151 205 259 313 373 452
#     4  12  26  52  76 112 146 190 248 310 390 466
#     4  11  25  49  74 110 154 202 254 312 379 452
#     4  11  27  44  71 106 153 201 260 315 370 449
#     4  12  27  47  77 112 150 197 248 315 385 463
#     4  12  26  46  72 108 148 212 254 324 374 434
#     4  10  25  47  75 108 142 190 239 309 374 458
#
# _framework density 24.083462999999998
#
# number of rings (size 3 to 8) (size 9 to 14) (size 15 to 20)
#    0.000    0.857    3.571    1.286    7.000    2.857 
#    0.000    2.857    0.000    0.000    1.857    0.000 
#    0.000    0.000    0.000    0.000    0.000    0.000 
#
# Total GULP energy -156327.439434 kJ/mol
# GULP energy per Si atom -5583.122837 kJ/mol
# Density = 2.402865 g / cm^3
# Si number density = 24.083463 Si / 1000 Ang^3
#
#
#
# Elastic Constant Matrix: (Units=GPa)
#
#
# Indices 1 2 3 4 5 6 
#
# 1 70.5102 3.0297 29.7917 0.0000 0.0000 0.0000
# 2 3.0297 157.9904 49.3450 0.0000 0.0000 0.0000
# 3 29.7917 49.3450 134.6718 0.0000 0.0000 0.0000
# 4 0.0000 0.0000 0.0000 25.3805 0.0000 0.0000
# 5 0.0000 0.0000 0.0000 0.0000 7.4474 0.0000
# 6 0.0000 0.0000 0.0000 0.0000 0.0000 -47.3058
#
#
#
# Elastic Compliance Matrix: (Units=1/GPa)
#
#
# Indices 1 2 3 4 5 6 
#
# 1 0.015754 0.000888 -0.003810 0.000000 0.000000 0.000000
# 2 0.000888 0.007198 -0.002834 0.000000 0.000000 0.000000
# 3 -0.003810 -0.002834 0.009307 0.000000 0.000000 0.000000
# 4 0.000000 0.000000 0.000000 0.039400 0.000000 0.000000
# 5 0.000000 0.000000 0.000000 0.000000 0.134275 0.000000
# 6 0.000000 0.000000 0.000000 0.000000 0.000000 -0.021139
#
#
# Mechanical properties :
#
#
# Convention : Reuss Voigt Hill
#
# Bulk Modulus (GPa) = 48.20185 58.61170 53.40677
# Shear Modulus (GPa) = 24.60360 15.83815 20.22088
#
# Velocity S-wave (km/s) = 3.19971 2.56722 2.90076
# Velocity P-wave (km/s) = 5.80593 5.75997 5.78300
#
# Compressibility (1/GPa) = 0.02074609
#
# Stress axis : x y z
#
# Youngs Moduli (GPa) = 63.47525 138.93698 107.44965
#
# Poissons Ratio (x) = -0.12338 0.40943
# Poissons Ratio (y) = -0.05637 0.30448
# Poissons Ratio (z) = 0.24187 0.39370
#
# Static dielectric constant tensor:
#      x y z
#    x 2.042520 0.000000 0.000000 
#    y 0.000000 1.924420 0.000000 
#    z 0.000000 0.000000 1.908170 
# 
# From -- ./inp_files/17334.got.cif
#   From: 2010.05.17/outbox.cif.g08.bks.cpg/sg39_9_cif.got.tgz:17334.got - 2010.06.03 18:22:40.
