data_PCOD9361603
_publ_section_title
;
Structure prediction by ZEFSAII (Michael W. Deem and Ramdas Pophale) SiO2 
 PCOD9361603
Probable space group: A B M 2
;
_chemical_formula_sum "Si O2"
_cell_formula_units_Z 48
_cell_length_a 7.768288
_cell_length_b 10.277748
_cell_length_c 31.868801
_cell_angle_alpha 90.000000
_cell_angle_beta 90.000000
_cell_angle_gamma 90.000000
_cell_volume 2544.421212
_symmetry_space_group_name_H-M "A B M 2"
_symmetry_group_IT_number 39
_symmetry_cell_setting 'orthorhombic'
loop_
_space_group_symop_operation_xyz
x,y,z
-x,-y,z
-x,1/2+y,z
x,1/2-y,z
x,1/2+y,1/2+z
-x,1/2-y,1/2+z
-x,y,1/2+z
x,-y,1/2+z
loop_
_atom_site_type_symbol
_atom_site_label
_atom_site_fract_x
_atom_site_fract_y
_atom_site_fract_z
Si Si1 0.153990 0.399270 0.845250
Si Si2 0.714683 0.250000 0.981693
Si Si3 0.000000 0.500000 0.110817
Si Si4 0.326153 0.250000 0.989055
Si Si5 0.670981 0.907114 0.663770
Si Si6 0.640089 0.108041 0.259445
Si Si7 0.209152 0.490471 0.932372
Si Si8 0.019122 0.750000 0.551627
O O1 0.103120 0.250000 0.856208
O O2 0.240087 0.395573 0.799869
O O3 0.261421 0.454723 0.884758
O O4 0.000000 0.500000 0.841708
O O5 0.525303 0.250000 0.001584
O O6 0.865681 0.250000 0.016719
O O7 0.728384 0.375010 0.951744
O O8 0.829202 0.469657 0.138198
O O9 0.013829 0.375829 0.080752
O O10 0.199356 0.250000 0.027893
O O11 0.277942 0.375654 0.961559
O O12 0.645092 0.750000 0.653623
O O13 0.719800 0.910720 0.713340
O O14 0.500000 0.000000 0.658522
O O15 0.555031 0.250000 0.258226
O O16 0.500000 0.000000 0.265341
O O17 0.000000 0.500000 0.933302
#
# Coordination Sequence:
#
# PCOD9361603 Si02
#       8
#     8   4   4   4   8   8   8   4
#     4  10  22  37  60  93 128 170 213 257 308 371
#     4  12  26  42  70  95 123 172 217 265 328 388
#     4  12  26  44  72  94 134 172 214 268 344 402
#     4  12  24  44  70  93 125 168 217 263 322 392
#     4  10  23  44  71 101 134 174 220 269 327 393
#     4   9  20  40  61  92 134 169 210 264 311 371
#     4  11  21  42  65  91 133 170 213 270 318 374
#     4  12  26  46  66  98 130 166 212 280 334 394
#
# _framework density 18.864802999999998
#
# number of rings (size 3 to 8) (size 9 to 14) (size 15 to 20)
#    0.000    1.333    3.333    1.500    5.833    3.333 
#    0.000    0.000    0.000    0.000    0.000    0.000 
#    0.000    0.000    0.000    0.000    0.000    0.000 
#
# Total GULP energy -133844.928770 kJ/mol
# GULP energy per Si atom -5576.872032 kJ/mol
# Density = 1.882187 g / cm^3
# Si number density = 18.864803 Si / 1000 Ang^3
#
#
#
# Elastic Constant Matrix: (Units=GPa)
#
#
# Indices 1 2 3 4 5 6 
#
# 1 104.8436 53.4374 60.8482 0.0000 0.0000 0.0000
# 2 53.4374 191.1744 89.6201 0.0000 0.0000 0.0000
# 3 60.8482 89.6201 122.8590 0.0000 0.0000 0.0000
# 4 0.0000 0.0000 0.0000 35.2656 0.0000 0.0000
# 5 0.0000 0.0000 0.0000 0.0000 -12.3388 0.0000
# 6 0.0000 0.0000 0.0000 0.0000 0.0000 22.1820
#
#
#
# Elastic Compliance Matrix: (Units=1/GPa)
#
#
# Indices 1 2 3 4 5 6 
#
# 1 0.013503 -0.000972 -0.005979 0.000000 0.000000 0.000000
# 2 -0.000972 0.008019 -0.005368 0.000000 0.000000 0.000000
# 3 -0.005979 -0.005368 0.015017 0.000000 0.000000 0.000000
# 4 0.000000 0.000000 0.000000 0.028356 0.000000 0.000000
# 5 0.000000 0.000000 0.000000 0.000000 -0.081045 0.000000
# 6 0.000000 0.000000 0.000000 0.000000 0.000000 0.045082
#
#
# Mechanical properties :
#
#
# Convention : Reuss Voigt Hill
#
# Bulk Modulus (GPa) = 84.02634 91.85427 87.94030
# Shear Modulus (GPa) = 86.90212 23.35321 55.12766
#
# Velocity S-wave (km/s) = 6.79454 3.52223 5.41165
# Velocity P-wave (km/s) = 10.30497 8.08319 9.26095
#
# Compressibility (1/GPa) = 0.01190103
#
# Stress axis : x y z
#
# Youngs Moduli (GPa) = 74.05620 124.70396 66.59312
#
# Poissons Ratio (x) = 0.12116 0.39816
# Poissons Ratio (y) = 0.07195 0.35749
# Poissons Ratio (z) = 0.44278 0.66945
#
# Static dielectric constant tensor:
#      x y z
#    x 1.652870 0.000000 0.000000 
#    y 0.000000 1.707730 0.000000 
#    z 0.000000 0.000000 1.681670 
# 
# From -- ./inp_files/17710.got.cif
#   From: 2010.05.17/outbox.cif.g08.bks.cpg/sg39_9_cif.got.tgz:17710.got - 2010.06.03 18:22:40.
