data_PCOD9361706
_publ_section_title
;
Structure prediction by ZEFSAII (Michael W. Deem and Ramdas Pophale) SiO2 
 PCOD9361706
Probable space group: A B M 2
;
_chemical_formula_sum "Si O2"
_cell_formula_units_Z 64
_cell_length_a 12.786643
_cell_length_b 19.066290
_cell_length_c 12.714698
_cell_angle_alpha 90.000000
_cell_angle_beta 90.000000
_cell_angle_gamma 90.000000
_cell_volume 3099.765095
_symmetry_space_group_name_H-M "A B M 2"
_symmetry_group_IT_number 39
_symmetry_cell_setting 'orthorhombic'
loop_
_space_group_symop_operation_xyz
x,y,z
-x,-y,z
-x,1/2+y,z
x,1/2-y,z
x,1/2+y,1/2+z
-x,1/2-y,1/2+z
-x,y,1/2+z
x,-y,1/2+z
loop_
_atom_site_type_symbol
_atom_site_label
_atom_site_fract_x
_atom_site_fract_y
_atom_site_fract_z
Si Si1 0.185698 0.412148 0.153470
Si Si2 0.518087 0.672363 0.795270
Si Si3 0.757572 0.435738 0.071651
Si Si4 0.617554 0.827310 0.094031
Si Si5 0.911046 0.666771 0.959255
Si Si6 0.079880 0.567105 0.879541
Si Si7 0.239957 0.166932 0.761732
Si Si8 0.534499 0.420898 0.967258
O O1 0.232901 0.486941 0.120126
O O2 0.281412 0.357776 0.151290
O O3 0.128522 0.423608 0.263931
O O4 0.111626 0.379998 0.062320
O O5 0.509483 0.750000 0.844630
O O6 0.473297 0.677969 0.679320
O O7 0.638792 0.651838 0.786308
O O8 0.447917 0.617214 0.857095
O O9 0.792199 0.380442 0.161935
O O10 0.830639 0.438432 0.968366
O O11 0.638684 0.418378 0.037262
O O12 0.642497 0.750000 0.050821
O O13 0.566564 0.879248 0.010700
O O14 0.913721 0.750000 0.982150
O O15 0.824085 0.653593 0.868698
O O16 0.016058 0.636972 0.908473
O O17 0.000000 0.500000 0.882647
O O18 0.230157 0.250000 0.736843
O O19 0.500000 0.500000 0.953350
#
# Coordination Sequence:
#
# PCOD9361706 Si02
#       8
#     8   8   8   8   8   8   8   8
#     4  12  26  46  73 103 144 187 237 298 360 436
#     4  10  22  40  66  96 138 187 226 275 340 414
#     4  12  26  44  72 107 145 186 236 296 354 429
#     4  11  23  44  68  99 141 183 225 277 346 414
#     4  11  26  47  74 104 135 184 242 295 360 429
#     4  12  28  48  73 105 139 187 239 305 370 425
#     4  10  23  44  71 105 144 188 238 292 352 425
#     4  12  24  40  65 104 141 183 227 276 338 416
#
# _framework density 20.646725
#
# number of rings (size 3 to 8) (size 9 to 14) (size 15 to 20)
#    0.000    0.750    3.750    3.000    3.500    4.500 
#    0.000    0.000    0.000    0.000    0.000    0.000 
#    0.000    0.000    0.000    0.000    0.000    0.000 
#
# Total GULP energy -178833.231995 kJ/mol
# GULP energy per Si atom -5588.538500 kJ/mol
# Density = 2.059973 g / cm^3
# Si number density = 20.646725 Si / 1000 Ang^3
#
#
#
# Elastic Constant Matrix: (Units=GPa)
#
#
# Indices 1 2 3 4 5 6 
#
# 1 78.8385 25.0920 27.3536 0.0000 0.0000 0.0000
# 2 25.0920 123.6442 57.9167 0.0000 0.0000 0.0000
# 3 27.3536 57.9167 114.8907 0.0000 0.0000 0.0000
# 4 0.0000 0.0000 0.0000 12.3422 0.0000 0.0000
# 5 0.0000 0.0000 0.0000 0.0000 35.0046 0.0000
# 6 0.0000 0.0000 0.0000 0.0000 0.0000 57.3116
#
#
#
# Elastic Compliance Matrix: (Units=1/GPa)
#
#
# Indices 1 2 3 4 5 6 
#
# 1 0.014090 -0.001686 -0.002505 0.000000 0.000000 0.000000
# 2 -0.001686 0.010790 -0.005038 0.000000 0.000000 0.000000
# 3 -0.002505 -0.005038 0.011840 0.000000 0.000000 0.000000
# 4 0.000000 0.000000 0.000000 0.081023 0.000000 0.000000
# 5 0.000000 0.000000 0.000000 0.000000 0.028568 0.000000
# 6 0.000000 0.000000 0.000000 0.000000 0.000000 0.017448
#
#
# Mechanical properties :
#
#
# Convention : Reuss Voigt Hill
#
# Bulk Modulus (GPa) = 54.75729 59.78866 57.27297
# Shear Modulus (GPa) = 26.55304 34.73242 30.64273
#
# Velocity S-wave (km/s) = 3.59007 4.10594 3.85664
# Velocity P-wave (km/s) = 6.61539 7.17629 6.90154
#
# Compressibility (1/GPa) = 0.01826241
#
# Stress axis : x y z
#
# Youngs Moduli (GPa) = 70.97343 92.68186 84.46176
#
# Poissons Ratio (x) = 0.15628 0.21154
# Poissons Ratio (y) = 0.11967 0.42549
# Poissons Ratio (z) = 0.17776 0.46689
#
# Static dielectric constant tensor:
#      x y z
#    x 1.742380 0.000000 0.000000 
#    y 0.000000 1.755910 0.000000 
#    z 0.000000 0.000000 1.772810 
# 
# From -- ./inp_files/6647.got.cif
#   From: 2010.05.17/outbox.cif.g08.bks.cpg/sg39_4_cif.got.tgz:6647.got - 2010.06.03 18:22:40.
