data_PCOD9361985
_publ_section_title
;
Structure prediction by ZEFSAII (Michael W. Deem and Ramdas Pophale) SiO2 
 PCOD9361985
Probable space group: A B M 2
;
_chemical_formula_sum "Si O2"
_cell_formula_units_Z 48
_cell_length_a 10.392810
_cell_length_b 18.651183
_cell_length_c 11.699108
_cell_angle_alpha 90.000000
_cell_angle_beta 90.000000
_cell_angle_gamma 90.000000
_cell_volume 2267.734050
_symmetry_space_group_name_H-M "A B M 2"
_symmetry_group_IT_number 39
_symmetry_cell_setting 'orthorhombic'
loop_
_space_group_symop_operation_xyz
x,y,z
-x,-y,z
-x,1/2+y,z
x,1/2-y,z
x,1/2+y,1/2+z
-x,1/2-y,1/2+z
-x,y,1/2+z
x,-y,1/2+z
loop_
_atom_site_type_symbol
_atom_site_label
_atom_site_fract_x
_atom_site_fract_y
_atom_site_fract_z
Si Si1 0.557160 0.333616 0.816580
Si Si2 0.127067 0.829642 0.389292
Si Si3 0.517742 0.162366 0.063486
Si Si4 0.945527 0.579442 0.084288
Si Si5 0.200269 0.166253 0.634168
Si Si6 0.152914 0.329552 0.278758
O O1 0.516549 0.250000 0.808227
O O2 0.544992 0.361359 0.685060
O O3 0.710720 0.334921 0.840237
O O4 0.487419 0.362163 0.932496
O O5 0.159616 0.750000 0.434895
O O6 0.202727 0.840838 0.271767
O O7 0.138316 0.893613 0.477981
O O8 0.976141 0.828623 0.353421
O O9 0.506728 0.250000 0.060050
O O10 0.665858 0.141476 0.084328
O O11 0.074305 0.627094 0.091222
O O12 0.000000 0.500000 0.080372
O O13 0.865768 0.603661 0.194808
O O14 0.185250 0.250000 0.608350
O O15 0.154101 0.250000 0.220050
#
# Coordination Sequence:
#
# PCOD9361985 Si02
#       6
#     8   8   8   8   8   8
#     4   9  17  29  49  77 107 136 171 219 270 318
#     4   9  17  30  49  72 100 137 175 211 257 315
#     4   9  17  30  50  78 107 135 171 219 271 318
#     4  11  21  31  48  75 105 135 172 218 266 313
#     4   9  18  33  52  73 101 137 174 212 259 316
#     4   9  18  33  52  73 100 136 173 211 259 316
#
# _framework density 21.166504
#
# number of rings (size 3 to 8) (size 9 to 14) (size 15 to 20)
#    0.000    2.667    0.000    3.500    0.000    6.667 
#    0.000    5.000    0.000    1.000    0.000    2.333 
#    0.000    0.000    0.000    0.000    0.000    0.000 
#
# Total GULP energy -133643.777684 kJ/mol
# GULP energy per Si atom -5568.490737 kJ/mol
# Density = 2.111833 g / cm^3
# Si number density = 21.166504 Si / 1000 Ang^3
#
#
#
# Elastic Constant Matrix: (Units=GPa)
#
#
# Indices 1 2 3 4 5 6 
#
# 1 28.1758 -9.1239 6.3189 0.0000 0.0000 0.0000
# 2 -9.1239 48.4928 37.9457 0.0000 0.0000 0.0000
# 3 6.3189 37.9457 127.1365 0.0000 0.0000 0.0000
# 4 0.0000 0.0000 0.0000 124.9252 0.0000 0.0000
# 5 0.0000 0.0000 0.0000 0.0000 13.3414 0.0000
# 6 0.0000 0.0000 0.0000 0.0000 0.0000 -4.4780
#
#
#
# Elastic Compliance Matrix: (Units=1/GPa)
#
#
# Indices 1 2 3 4 5 6 
#
# 1 0.040650 0.012041 -0.005614 0.000000 0.000000 0.000000
# 2 0.012041 0.030472 -0.009693 0.000000 0.000000 0.000000
# 3 -0.005614 -0.009693 0.011038 0.000000 0.000000 0.000000
# 4 0.000000 0.000000 0.000000 0.008005 0.000000 0.000000
# 5 0.000000 0.000000 0.000000 0.000000 0.074954 0.000000
# 6 0.000000 0.000000 0.000000 0.000000 0.000000 -0.223312
#
#
# Mechanical properties :
#
#
# Convention : Reuss Voigt Hill
#
# Bulk Modulus (GPa) = 13.22271 30.45406 21.83838
# Shear Modulus (GPa) = -189.02972 38.00201 -75.51386
#
# Velocity S-wave (km/s) = -9.46044 4.24179 -5.97943
# Velocity P-wave (km/s) = 10.63356 6.19754 6.10996
#
# Compressibility (1/GPa) = 0.07562746
#
# Stress axis : x y z
#
# Youngs Moduli (GPa) = 24.60034 32.81662 90.59820
#
# Poissons Ratio (x) = -0.39516 0.50865
# Poissons Ratio (y) = -0.29622 0.87821
# Poissons Ratio (z) = 0.13811 0.31810
#
# Static dielectric constant tensor:
#      x y z
#    x 1.772680 0.000000 0.000000 
#    y 0.000000 1.633550 0.000000 
#    z 0.000000 0.000000 1.906830 
# 
# From -- ./inp_files/5812.got.cif
#   From: 2010.05.17/outbox.cif.g08.bks.cpg/sg39_3_cif.got.tgz:5812.got - 2010.06.03 18:22:40.
