data_PCOD9361623
_publ_section_title
;
Structure prediction by ZEFSAII (Michael W. Deem and Ramdas Pophale) SiO2 
 PCOD9361623
Probable space group: A B M 2
;
_chemical_formula_sum "Si O2"
_cell_formula_units_Z 40
_cell_length_a 14.393557
_cell_length_b 14.355248
_cell_length_c 7.439887
_cell_angle_alpha 90.000000
_cell_angle_beta 90.000000
_cell_angle_gamma 90.000000
_cell_volume 1537.252369
_symmetry_space_group_name_H-M "A B M 2"
_symmetry_group_IT_number 39
_symmetry_cell_setting 'orthorhombic'
loop_
_space_group_symop_operation_xyz
x,y,z
-x,-y,z
-x,1/2+y,z
x,1/2-y,z
x,1/2+y,1/2+z
-x,1/2-y,1/2+z
-x,y,1/2+z
x,-y,1/2+z
loop_
_atom_site_type_symbol
_atom_site_label
_atom_site_fract_x
_atom_site_fract_y
_atom_site_fract_z
Si Si1 0.436394 0.250000 0.691330
Si Si2 0.359406 0.750000 0.781244
Si Si3 0.916732 0.362413 0.569189
Si Si4 0.120750 0.071618 0.669170
Si Si5 0.402976 0.445293 0.734455
Si Si6 0.713443 0.077419 0.904667
O O1 0.546791 0.250000 0.672623
O O2 0.385052 0.250000 0.497610
O O3 0.414166 0.341662 0.802647
O O4 0.300789 0.842469 0.758398
O O5 0.903560 0.250000 0.613045
O O6 0.880713 0.456619 0.677691
O O7 0.026671 0.386404 0.579629
O O8 0.880239 0.383348 0.367435
O O9 0.202153 0.098752 0.532365
O O10 0.500000 0.500000 0.747105
O O11 0.303611 0.482387 0.802166
O O12 0.381159 0.433692 0.523470
#
# Coordination Sequence:
#
# PCOD9361623 Si02
#       6
#     4   4   8   8   8   8
#     4  10  22  38  60  88 122 172 218 252 324 378
#     4  10  22  38  62  88 122 166 210 262 314 380
#     4  11  24  44  74  98 134 179 217 276 349 409
#     4  11  24  45  69 102 135 170 227 279 333 410
#     4  11  22  40  62  90 130 173 212 263 320 380
#     4  11  24  40  65  94 127 166 213 270 318 380
#
# _framework density 26.020451000000001
#
# number of rings (size 3 to 8) (size 9 to 14) (size 15 to 20)
#    0.000    1.200    2.000    4.800    5.600    0.000 
#    5.400    1.000    4.400    0.000    0.000    0.000 
#    0.000    0.000    0.000    0.000    0.000    0.000 
#
# Total GULP energy -111529.960132 kJ/mol
# GULP energy per Si atom -5576.498007 kJ/mol
# Density = 2.596123 g / cm^3
# Si number density = 26.020451 Si / 1000 Ang^3
#
#
#
# Elastic Constant Matrix: (Units=GPa)
#
#
# Indices 1 2 3 4 5 6 
#
# 1 77.6302 25.3830 -4.3313 0.0000 0.0000 0.0000
# 2 25.3830 162.5627 1.8962 0.0000 0.0000 0.0000
# 3 -4.3313 1.8962 38.2042 0.0000 0.0000 0.0000
# 4 0.0000 0.0000 0.0000 53.5874 0.0000 0.0000
# 5 0.0000 0.0000 0.0000 0.0000 30.7929 0.0000
# 6 0.0000 0.0000 0.0000 0.0000 0.0000 4.6722
#
#
#
# Elastic Compliance Matrix: (Units=1/GPa)
#
#
# Indices 1 2 3 4 5 6 
#
# 1 0.013679 -0.002155 0.001658 0.000000 0.000000 0.000000
# 2 -0.002155 0.006495 -0.000567 0.000000 0.000000 0.000000
# 3 0.001658 -0.000567 0.026391 0.000000 0.000000 0.000000
# 4 0.000000 0.000000 0.000000 0.018661 0.000000 0.000000
# 5 0.000000 0.000000 0.000000 0.000000 0.032475 0.000000
# 6 0.000000 0.000000 0.000000 0.000000 0.000000 0.214032
#
#
# Mechanical properties :
#
#
# Convention : Reuss Voigt Hill
#
# Bulk Modulus (GPa) = 22.50410 36.03253 29.26831
# Shear Modulus (GPa) = 15.21270 34.84045 25.02658
#
# Velocity S-wave (km/s) = 2.42056 3.66316 3.10466
# Velocity P-wave (km/s) = 4.05950 5.63644 4.91167
#
# Compressibility (1/GPa) = 0.04443635
#
# Stress axis : x y z
#
# Youngs Moduli (GPa) = 73.10607 153.97411 37.89143
#
# Poissons Ratio (x) = 0.33184 -0.06281
# Poissons Ratio (y) = 0.15756 0.02147
# Poissons Ratio (z) = -0.12119 0.08725
#
# Static dielectric constant tensor:
#      x y z
#    x 2.077170 0.000000 0.000000 
#    y 0.000000 2.152660 0.000000 
#    z 0.000000 0.000000 2.118090 
# 
# From -- ./inp_files/3083.got.cif
#   From: 2010.05.17/outbox.cif.g08.bks.cpg/sg39_2_cif.got.tgz:3083.got - 2010.06.03 18:22:40.
