data_PCOD9361518
_publ_section_title
;
Structure prediction by ZEFSAII (Michael W. Deem and Ramdas Pophale) SiO2 
 PCOD9361518
Probable space group: A B M 2
;
_chemical_formula_sum "Si O2"
_cell_formula_units_Z 56
_cell_length_a 5.111554
_cell_length_b 14.873028
_cell_length_c 30.506185
_cell_angle_alpha 90.000000
_cell_angle_beta 90.000000
_cell_angle_gamma 90.000000
_cell_volume 2319.210926
_symmetry_space_group_name_H-M "A B M 2"
_symmetry_group_IT_number 39
_symmetry_cell_setting 'orthorhombic'
loop_
_space_group_symop_operation_xyz
x,y,z
-x,-y,z
-x,1/2+y,z
x,1/2-y,z
x,1/2+y,1/2+z
-x,1/2-y,1/2+z
-x,y,1/2+z
x,-y,1/2+z
loop_
_atom_site_type_symbol
_atom_site_label
_atom_site_fract_x
_atom_site_fract_y
_atom_site_fract_z
Si Si1 0.000000 0.500000 0.879860
Si Si2 0.935357 0.357711 0.221329
Si Si3 0.873776 0.149341 0.586239
Si Si4 0.648675 0.416409 0.305819
Si Si5 0.609717 0.100832 0.034082
Si Si6 0.500732 0.750000 0.363718
Si Si7 0.566671 0.359543 0.670730
Si Si8 0.368274 0.599730 0.933990
O O1 0.216613 0.463173 0.847371
O O2 0.092986 0.580643 0.910457
O O3 0.920330 0.250000 0.219336
O O4 0.855754 0.385025 0.269863
O O5 0.229475 0.381602 0.209100
O O6 0.720570 0.390871 0.185429
O O7 0.959157 0.250000 0.599813
O O8 0.640069 0.154775 0.551258
O O9 0.133087 0.107209 0.564688
O O10 0.716986 0.106593 0.627298
O O11 0.500000 0.500000 0.284824
O O12 0.499358 0.330107 0.325382
O O13 0.500000 0.000000 0.033919
O O14 0.670804 0.127532 0.984161
O O15 0.499316 0.827794 0.402736
O O16 0.550678 0.250000 0.665697
O O17 0.500000 0.500000 0.934118
#
# Coordination Sequence:
#
# PCOD9361518 Si02
#       8
#     4   8   8   8   8   4   8   8
#     4  12  24  48  68  96 140 190 226 300 356 412
#     4  10  21  40  69  99 133 187 233 284 354 425
#     4  11  23  44  73 106 140 182 239 295 351 428
#     4  12  26  45  66 104 142 177 238 298 355 418
#     4  11  26  44  69 102 145 187 230 295 358 427
#     4  12  22  48  68  96 134 190 228 294 348 432
#     4   9  20  40  68 101 137 178 232 287 347 421
#     4  11  26  46  68 100 142 181 238 296 355 416
#
# _framework density 24.146145000000001
#
# number of rings (size 3 to 8) (size 9 to 14) (size 15 to 20)
#    0.000    1.143    3.571    1.714    8.000    2.857 
#    2.571    4.286    0.000    0.000    0.000    0.000 
#    0.000    0.000    0.000    0.000    0.000    0.000 
#
# Total GULP energy -155973.935199 kJ/mol
# GULP energy per Si atom -5570.497686 kJ/mol
# Density = 2.409119 g / cm^3
# Si number density = 24.146145 Si / 1000 Ang^3
#
#
#
# Elastic Constant Matrix: (Units=GPa)
#
#
# Indices 1 2 3 4 5 6 
#
# 1 71.4819 14.0237 -12.5713 0.0000 0.0000 0.0000
# 2 14.0237 114.1168 15.9064 0.0000 0.0000 0.0000
# 3 -12.5713 15.9064 81.2259 0.0000 0.0000 0.0000
# 4 0.0000 0.0000 0.0000 23.9132 0.0000 0.0000
# 5 0.0000 0.0000 0.0000 0.0000 126.5674 0.0000
# 6 0.0000 0.0000 0.0000 0.0000 0.0000 58.8427
#
#
#
# Elastic Compliance Matrix: (Units=1/GPa)
#
#
# Indices 1 2 3 4 5 6 
#
# 1 0.014906 -0.002214 0.002740 0.000000 0.000000 0.000000
# 2 -0.002214 0.009338 -0.002171 0.000000 0.000000 0.000000
# 3 0.002740 -0.002171 0.013161 0.000000 0.000000 0.000000
# 4 0.000000 0.000000 0.000000 0.041818 0.000000 0.000000
# 5 0.000000 0.000000 0.000000 0.000000 0.007901 0.000000
# 6 0.000000 0.000000 0.000000 0.000000 0.000000 0.016994
#
#
# Mechanical properties :
#
#
# Convention : Reuss Voigt Hill
#
# Bulk Modulus (GPa) = 29.31245 33.50470 31.40858
# Shear Modulus (GPa) = 42.09530 58.49572 50.29551
#
# Velocity S-wave (km/s) = 4.17988 4.92730 4.56890
# Velocity P-wave (km/s) = 5.95493 6.80272 6.39289
#
# Compressibility (1/GPa) = 0.03411520
#
# Stress axis : x y z
#
# Youngs Moduli (GPa) = 67.08782 107.09348 75.98394
#
# Poissons Ratio (x) = 0.23708 -0.20823
# Poissons Ratio (y) = 0.14852 0.16498
# Poissons Ratio (z) = -0.18385 0.23252
#
# Static dielectric constant tensor:
#      x y z
#    x 1.964890 0.000000 0.000000 
#    y 0.000000 1.964500 0.000000 
#    z 0.000000 0.000000 1.917250 
# 
# From -- ./inp_files/17316.got.cif
#   From: 2010.05.17/outbox.cif.g08.bks.cpg/sg39_9_cif.got.tgz:17316.got - 2010.06.03 18:22:40.
