data_PCOD9361411
_publ_section_title
;
Structure prediction by ZEFSAII (Michael W. Deem and Ramdas Pophale) SiO2 
 PCOD9361411
Probable space group: A B M 2
;
_chemical_formula_sum "Si O2"
_cell_formula_units_Z 56
_cell_length_a 11.714553
_cell_length_b 14.240142
_cell_length_c 13.970155
_cell_angle_alpha 90.000000
_cell_angle_beta 90.000000
_cell_angle_gamma 90.000000
_cell_volume 2330.457924
_symmetry_space_group_name_H-M "A B M 2"
_symmetry_group_IT_number 39
_symmetry_cell_setting 'orthorhombic'
loop_
_space_group_symop_operation_xyz
x,y,z
-x,-y,z
-x,1/2+y,z
x,1/2-y,z
x,1/2+y,1/2+z
-x,1/2-y,1/2+z
-x,y,1/2+z
x,-y,1/2+z
loop_
_atom_site_type_symbol
_atom_site_label
_atom_site_fract_x
_atom_site_fract_y
_atom_site_fract_z
Si Si1 0.847925 0.064293 0.907100
Si Si2 0.199993 0.359090 0.906908
Si Si3 0.634575 0.135389 0.803922
Si Si4 0.758143 0.144190 0.617087
Si Si5 0.806486 0.356151 0.106995
Si Si6 0.018027 0.609741 0.725691
Si Si7 0.385687 0.641855 0.241120
O O1 0.714847 0.088298 0.883758
O O2 0.920049 0.124423 0.828559
O O3 0.873095 0.953793 0.888009
O O4 0.862756 0.089365 0.018279
O O5 0.154360 0.250000 0.915037
O O6 0.297139 0.357223 0.828023
O O7 0.253057 0.387272 0.009471
O O8 0.641897 0.250000 0.815919
O O9 0.694213 0.100176 0.705961
O O10 0.504009 0.107286 0.786039
O O11 0.713989 0.250000 0.616281
O O12 0.890335 0.142936 0.647210
O O13 0.786377 0.250000 0.072726
O O14 0.688056 0.395756 0.150720
O O15 0.895959 0.350093 0.195465
O O16 0.000000 0.500000 0.712072
O O17 0.410862 0.750000 0.213169
#
# Coordination Sequence:
#
# PCOD9361411 Si02
#       7
#     8   8   8   8   8   8   8
#     4  11  24  41  65  95 128 172 220 267 323 387
#     4  10  21  39  61  89 126 167 216 271 326 382
#     4   9  19  39  65  93 128 167 213 266 322 390
#     4   9  19  37  62  88 117 160 210 261 319 379
#     4  11  24  41  65  98 134 170 213 266 324 389
#     4  11  23  40  61  87 124 168 213 263 316 379
#     4   9  20  39  62  91 129 171 212 262 323 384
#
# _framework density 24.029612
#
# number of rings (size 3 to 8) (size 9 to 14) (size 15 to 20)
#    0.000    2.000    0.000    2.571    0.000    7.429 
#    0.000    6.429    0.000    0.857    0.000    0.000 
#    0.000    0.000    0.000    0.000    0.000    0.000 
#
# Total GULP energy -156170.170113 kJ/mol
# GULP energy per Si atom -5577.506075 kJ/mol
# Density = 2.397492 g / cm^3
# Si number density = 24.029612 Si / 1000 Ang^3
#
#
#
# Elastic Constant Matrix: (Units=GPa)
#
#
# Indices 1 2 3 4 5 6 
#
# 1 114.3618 -0.7465 46.3943 0.0000 0.0000 0.0000
# 2 -0.7465 130.1188 11.8928 0.0000 0.0000 0.0000
# 3 46.3943 11.8928 114.0976 0.0000 0.0000 0.0000
# 4 0.0000 0.0000 0.0000 29.8471 0.0000 0.0000
# 5 0.0000 0.0000 0.0000 0.0000 18.9471 0.0000
# 6 0.0000 0.0000 0.0000 0.0000 0.0000 -27.6803
#
#
#
# Elastic Compliance Matrix: (Units=1/GPa)
#
#
# Indices 1 2 3 4 5 6 
#
# 1 0.010498 0.000455 -0.004316 0.000000 0.000000 0.000000
# 2 0.000455 0.007779 -0.000996 0.000000 0.000000 0.000000
# 3 -0.004316 -0.000996 0.010623 0.000000 0.000000 0.000000
# 4 0.000000 0.000000 0.000000 0.033504 0.000000 0.000000
# 5 0.000000 0.000000 0.000000 0.000000 0.052779 0.000000
# 6 0.000000 0.000000 0.000000 0.000000 0.000000 -0.036127
#
#
# Mechanical properties :
#
#
# Convention : Reuss Voigt Hill
#
# Bulk Modulus (GPa) = 52.12138 52.62883 52.37510
# Shear Modulus (GPa) = 52.53991 24.29194 38.41593
#
# Velocity S-wave (km/s) = 4.68104 3.18294 4.00270
# Velocity P-wave (km/s) = 7.13819 5.95461 6.57309
#
# Compressibility (1/GPa) = 0.01918599
#
# Stress axis : x y z
#
# Youngs Moduli (GPa) = 95.25511 128.55279 94.13326
#
# Poissons Ratio (x) = -0.05846 0.40629
# Poissons Ratio (y) = -0.04331 0.09373
# Poissons Ratio (z) = 0.41113 0.12800
#
# Static dielectric constant tensor:
#      x y z
#    x 1.955200 0.000000 0.000000 
#    y 0.000000 2.008940 0.000000 
#    z 0.000000 0.000000 1.958810 
# 
# From -- ./inp_files/9289.got.cif
#   From: 2010.05.17/outbox.cif.g08.bks.cpg/sg39_5_cif.got.tgz:9289.got - 2010.06.03 18:22:40.
