data_PCOD9361074
_publ_section_title
;
Structure prediction by ZEFSAII (Michael W. Deem and Ramdas Pophale) SiO2 
 PCOD9361074
Probable space group: A B M 2
;
_chemical_formula_sum "Si O2"
_cell_formula_units_Z 44
_cell_length_a 8.384038
_cell_length_b 7.729856
_cell_length_c 30.108416
_cell_angle_alpha 90.000000
_cell_angle_beta 90.000000
_cell_angle_gamma 90.000000
_cell_volume 1951.248353
_symmetry_space_group_name_H-M "A B M 2"
_symmetry_group_IT_number 39
_symmetry_cell_setting 'orthorhombic'
loop_
_space_group_symop_operation_xyz
x,y,z
-x,-y,z
-x,1/2+y,z
x,1/2-y,z
x,1/2+y,1/2+z
-x,1/2-y,1/2+z
-x,y,1/2+z
x,-y,1/2+z
loop_
_atom_site_type_symbol
_atom_site_label
_atom_site_fract_x
_atom_site_fract_y
_atom_site_fract_z
Si Si1 0.189647 0.049937 0.916030
Si Si2 0.186843 0.957201 0.817897
Si Si3 0.317986 0.955342 0.724619
Si Si4 0.758053 0.750000 0.483738
Si Si5 0.818964 0.449633 0.131630
Si Si6 0.682168 0.445734 0.544163
O O1 0.205984 0.250000 0.929981
O O2 0.241648 0.034627 0.864737
O O3 0.270252 0.904906 0.946330
O O4 0.000000 0.000000 0.917728
O O5 0.204787 0.750000 0.821146
O O6 0.270952 0.023364 0.773288
O O7 0.000000 0.000000 0.813317
O O8 0.297539 0.750000 0.726328
O O9 0.500000 0.000000 0.715127
O O10 0.215264 0.019145 0.683304
O O11 0.785651 0.594853 0.521139
O O12 0.790994 0.250000 0.122744
O O13 0.708287 0.550060 0.097060
O O14 0.000000 0.500000 0.122009
O O15 0.500000 0.500000 0.533886
O O16 0.711604 0.250000 0.528776
#
# Coordination Sequence:
#
# PCOD9361074 Si02
#       6
#     8   8   8   4   8   8
#     4  11  21  40  67  99 140 180 227 286 348 404
#     4  10  20  38  65  96 134 173 226 285 337 400
#     4  11  24  41  66  97 137 183 225 271 335 406
#     4  12  24  44  68 102 130 184 228 288 330 422
#     4  12  25  45  68 103 138 173 223 282 335 400
#     4  12  25  48  73  97 138 181 229 278 343 408
#
# _framework density 22.549665000000001
#
# number of rings (size 3 to 8) (size 9 to 14) (size 15 to 20)
#    0.000    0.727    3.636    5.455    0.000    5.091 
#    3.273    0.909    0.000    0.000    0.000    0.000 
#    0.000    0.000    0.000    0.000    0.000    0.000 
#
# Total GULP energy -122533.185947 kJ/mol
# GULP energy per Si atom -5569.690270 kJ/mol
# Density = 2.249834 g / cm^3
# Si number density = 22.549665 Si / 1000 Ang^3
#
#
#
# Elastic Constant Matrix: (Units=GPa)
#
#
# Indices 1 2 3 4 5 6 
#
# 1 22.6340 5.9925 3.9204 0.0000 0.0000 0.0000
# 2 5.9925 218.6005 55.3007 0.0000 0.0000 0.0000
# 3 3.9204 55.3007 142.7778 0.0000 0.0000 0.0000
# 4 0.0000 0.0000 0.0000 8.8925 0.0000 0.0000
# 5 0.0000 0.0000 0.0000 0.0000 5.2739 0.0000
# 6 0.0000 0.0000 0.0000 0.0000 0.0000 18.2381
#
#
#
# Elastic Compliance Matrix: (Units=1/GPa)
#
#
# Indices 1 2 3 4 5 6 
#
# 1 0.044593 -0.001012 -0.000833 0.000000 0.000000 0.000000
# 2 -0.001012 0.005094 -0.001945 0.000000 0.000000 0.000000
# 3 -0.000833 -0.001945 0.007780 0.000000 0.000000 0.000000
# 4 0.000000 0.000000 0.000000 0.112455 0.000000 0.000000
# 5 0.000000 0.000000 0.000000 0.000000 0.189613 0.000000
# 6 0.000000 0.000000 0.000000 0.000000 0.000000 0.054830
#
#
# Mechanical properties :
#
#
# Convention : Reuss Voigt Hill
#
# Bulk Modulus (GPa) = 20.04471 57.15996 38.60233
# Shear Modulus (GPa) = 11.40056 27.73416 19.56736
#
# Velocity S-wave (km/s) = 2.25094 3.51082 2.94895
# Velocity P-wave (km/s) = 3.95779 6.46823 5.36200
#
# Compressibility (1/GPa) = 0.04988847
#
# Stress axis : x y z
#
# Youngs Moduli (GPa) = 22.42487 196.29290 128.53080
#
# Poissons Ratio (x) = 0.19861 0.10701
# Poissons Ratio (y) = 0.02269 0.25004
# Poissons Ratio (z) = 0.01867 0.38187
#
# Static dielectric constant tensor:
#      x y z
#    x 1.829220 0.000000 0.000000 
#    y 0.000000 1.818950 0.000000 
#    z 0.000000 0.000000 1.868460 
# 
# From -- ./inp_files/17490.got.cif
#   From: 2010.05.17/outbox.cif.g08.bks.cpg/sg39_9_cif.got.tgz:17490.got - 2010.06.03 18:22:40.
