data_PCOD9361645
_publ_section_title
;
Structure prediction by ZEFSAII (Michael W. Deem and Ramdas Pophale) SiO2 
 PCOD9361645
Probable space group: A B M 2
;
_chemical_formula_sum "Si O2"
_cell_formula_units_Z 60
_cell_length_a 17.706343
_cell_length_b 9.502128
_cell_length_c 19.090106
_cell_angle_alpha 90.000000
_cell_angle_beta 90.000000
_cell_angle_gamma 90.000000
_cell_volume 3211.870963
_symmetry_space_group_name_H-M "A B M 2"
_symmetry_group_IT_number 39
_symmetry_cell_setting 'orthorhombic'
loop_
_space_group_symop_operation_xyz
x,y,z
-x,-y,z
-x,1/2+y,z
x,1/2-y,z
x,1/2+y,1/2+z
-x,1/2-y,1/2+z
-x,y,1/2+z
x,-y,1/2+z
loop_
_atom_site_type_symbol
_atom_site_label
_atom_site_fract_x
_atom_site_fract_y
_atom_site_fract_z
Si Si1 0.076791 0.080751 0.606280
Si Si2 0.712021 0.417126 0.783375
Si Si3 0.114116 0.587132 0.746477
Si Si4 0.294003 0.586735 0.420369
Si Si5 0.000000 0.000000 0.868501
Si Si6 0.873406 0.409646 0.479622
Si Si7 0.572692 0.083128 0.522633
Si Si8 0.426081 0.581812 0.687252
O O1 0.071551 0.250000 0.606968
O O2 0.095338 0.019296 0.683230
O O3 0.127513 0.022711 0.542577
O O4 0.000000 0.000000 0.587485
O O5 0.706807 0.250000 0.791172
O O6 0.799827 0.446590 0.767509
O O7 0.689673 0.492031 0.854286
O O8 0.651904 0.459471 0.724397
O O9 0.110225 0.750000 0.721497
O O10 0.057161 0.575113 0.812891
O O11 0.307691 0.750000 0.402925
O O12 0.206461 0.574662 0.440972
O O13 0.350329 0.548240 0.482895
O O14 0.058684 0.073452 0.922895
O O15 0.878309 0.250000 0.508680
O O16 0.559408 0.250000 0.515810
O O17 0.581006 0.051347 0.604787
O O18 0.500000 0.000000 0.495171
O O19 0.500000 0.500000 0.714032
O O20 0.436777 0.750000 0.695678
#
# Coordination Sequence:
#
# PCOD9361645 Si02
#       8
#     8   8   8   8   4   8   8   8
#     4  12  26  42  62  88 119 156 205 254 305 362
#     4  10  22  39  60  88 121 159 197 245 301 361
#     4  11  24  41  63  90 123 161 202 251 306 359
#     4  10  22  39  60  88 121 159 197 245 301 361
#     4  12  22  38  68  90 124 158 210 244 302 354
#     4  11  24  41  63  90 123 161 202 251 306 359
#     4   9  19  37  61  86 116 154 200 244 297 358
#     4   9  19  37  61  86 116 154 200 244 297 358
#
# _framework density 18.680700999999999
#
# number of rings (size 3 to 8) (size 9 to 14) (size 15 to 20)
#    0.000    1.600    2.667    1.600    1.867    3.733 
#    0.000    2.667    0.000    0.000    0.000    0.000 
#    0.000    0.000    0.000    0.000    0.000    0.000 
#
# Total GULP energy -167262.978663 kJ/mol
# GULP energy per Si atom -5575.432622 kJ/mol
# Density = 1.863818 g / cm^3
# Si number density = 18.680701 Si / 1000 Ang^3
#
#
#
# Elastic Constant Matrix: (Units=GPa)
#
#
# Indices 1 2 3 4 5 6 
#
# 1 126.6305 30.8230 34.5447 0.0000 0.0000 0.0000
# 2 30.8230 60.2146 42.9310 0.0000 0.0000 0.0000
# 3 34.5447 42.9310 75.9426 0.0000 0.0000 0.0000
# 4 0.0000 0.0000 0.0000 30.2984 0.0000 0.0000
# 5 0.0000 0.0000 0.0000 0.0000 26.3747 0.0000
# 6 0.0000 0.0000 0.0000 0.0000 0.0000 26.8524
#
#
#
# Elastic Compliance Matrix: (Units=1/GPa)
#
#
# Indices 1 2 3 4 5 6 
#
# 1 0.009314 -0.002927 -0.002582 0.000000 0.000000 0.000000
# 2 -0.002927 0.028740 -0.014915 0.000000 0.000000 0.000000
# 3 -0.002582 -0.014915 0.022774 0.000000 0.000000 0.000000
# 4 0.000000 0.000000 0.000000 0.033005 0.000000 0.000000
# 5 0.000000 0.000000 0.000000 0.000000 0.037915 0.000000
# 6 0.000000 0.000000 0.000000 0.000000 0.000000 0.037241
#
#
# Mechanical properties :
#
#
# Convention : Reuss Voigt Hill
#
# Bulk Modulus (GPa) = 50.05233 53.26501 51.65867
# Shear Modulus (GPa) = 23.09505 27.00437 25.04971
#
# Velocity S-wave (km/s) = 3.51993 3.80620 3.66586
# Velocity P-wave (km/s) = 6.58571 6.92037 6.75511
#
# Compressibility (1/GPa) = 0.01997909
#
# Stress axis : x y z
#
# Youngs Moduli (GPa) = 107.36788 34.79524 43.90913
#
# Poissons Ratio (x) = 0.10183 0.11338
# Poissons Ratio (y) = 0.31422 0.65493
# Poissons Ratio (z) = 0.27725 0.51899
#
# Static dielectric constant tensor:
#      x y z
#    x 1.666860 0.000000 0.000000 
#    y 0.000000 1.641710 0.000000 
#    z 0.000000 0.000000 1.651180 
# 
# From -- ./inp_files/12942.got.cif
#   From: 2010.05.17/outbox.cif.g08.bks.cpg/sg39_7_cif.got.tgz:12942.got - 2010.06.03 18:22:40.
