data_PCOD9361959
_publ_section_title
;
Structure prediction by ZEFSAII (Michael W. Deem and Ramdas Pophale) SiO2 
 PCOD9361959
Probable space group: A B M 2
;
_chemical_formula_sum "Si O2"
_cell_formula_units_Z 32
_cell_length_a 15.729920
_cell_length_b 10.096033
_cell_length_c 8.955145
_cell_angle_alpha 90.000000
_cell_angle_beta 90.000000
_cell_angle_gamma 90.000000
_cell_volume 1422.164709
_symmetry_space_group_name_H-M "A B M 2"
_symmetry_group_IT_number 39
_symmetry_cell_setting 'orthorhombic'
loop_
_space_group_symop_operation_xyz
x,y,z
-x,-y,z
-x,1/2+y,z
x,1/2-y,z
x,1/2+y,1/2+z
-x,1/2-y,1/2+z
-x,y,1/2+z
x,-y,1/2+z
loop_
_atom_site_type_symbol
_atom_site_label
_atom_site_fract_x
_atom_site_fract_y
_atom_site_fract_z
Si Si1 0.425152 0.605088 0.809290
Si Si2 0.185989 0.954658 0.311181
Si Si3 0.305281 0.986554 0.559362
Si Si4 0.943005 0.750000 0.692054
Si Si5 0.881554 0.750000 0.347829
O O1 0.500000 0.500000 0.800833
O O2 0.461988 0.750000 0.830838
O O3 0.369155 0.597966 0.659448
O O4 0.361994 0.569356 0.944319
O O5 0.251577 0.928060 0.177062
O O6 0.100987 0.876815 0.270871
O O7 0.233958 0.912610 0.461725
O O8 0.169653 0.112798 0.326235
O O9 0.920648 0.750000 0.516143
O O10 0.042006 0.750000 0.728636
#
# Coordination Sequence:
#
# PCOD9361959 Si02
#       5
#     8   8   8   4   4
#     4  11  26  48  72 106 146 185 234 291 356 429
#     4  11  25  46  73 104 144 188 242 291 349 417
#     4  10  25  43  72 102 141 188 232 291 345 414
#     4  12  28  46  74 102 147 192 236 290 361 428
#     4  12  28  48  68 110 147 184 240 300 351 426
#
# _framework density 22.500910999999999
#
# number of rings (size 3 to 8) (size 9 to 14) (size 15 to 20)
#    0.000    1.000    2.500    1.500   14.000    6.000 
#    4.500    0.000    0.000    0.000    0.000    0.000 
#    0.000    0.000    0.000    0.000    0.000    0.000 
#
# Total GULP energy -89516.476260 kJ/mol
# GULP energy per Si atom -5594.779766 kJ/mol
# Density = 2.244970 g / cm^3
# Si number density = 22.500911 Si / 1000 Ang^3
#
#
#
# Elastic Constant Matrix: (Units=GPa)
#
#
# Indices 1 2 3 4 5 6 
#
# 1 105.7720 41.9604 27.9557 0.0000 0.0000 0.0000
# 2 41.9604 146.2681 23.6844 0.0000 0.0000 0.0000
# 3 27.9557 23.6844 135.4517 0.0000 0.0000 0.0000
# 4 0.0000 0.0000 0.0000 2.6673 0.0000 0.0000
# 5 0.0000 0.0000 0.0000 0.0000 17.4921 0.0000
# 6 0.0000 0.0000 0.0000 0.0000 0.0000 16.5511
#
#
#
# Elastic Compliance Matrix: (Units=1/GPa)
#
#
# Indices 1 2 3 4 5 6 
#
# 1 0.011070 -0.002888 -0.001780 0.000000 0.000000 0.000000
# 2 -0.002888 0.007789 -0.000766 0.000000 0.000000 0.000000
# 3 -0.001780 -0.000766 0.007884 0.000000 0.000000 0.000000
# 4 0.000000 0.000000 0.000000 0.374917 0.000000 0.000000
# 5 0.000000 0.000000 0.000000 0.000000 0.057169 0.000000
# 6 0.000000 0.000000 0.000000 0.000000 0.000000 0.060419
#
#
# Mechanical properties :
#
#
# Convention : Reuss Voigt Hill
#
# Bulk Modulus (GPa) = 62.98609 63.85473 63.42041
# Shear Modulus (GPa) = 9.33870 26.93485 18.13677
#
# Velocity S-wave (km/s) = 2.03945 3.46360 2.84218
# Velocity P-wave (km/s) = 5.79649 6.66601 6.24640
#
# Compressibility (1/GPa) = 0.01587652
#
# Stress axis : x y z
#
# Youngs Moduli (GPa) = 90.33241 128.38366 126.83928
#
# Poissons Ratio (x) = 0.37071 0.22576
# Poissons Ratio (y) = 0.26084 0.09716
# Poissons Ratio (z) = 0.16078 0.09834
#
# Static dielectric constant tensor:
#      x y z
#    x 1.784050 0.000000 0.000000 
#    y 0.000000 1.815920 0.000000 
#    z 0.000000 0.000000 1.838840 
# 
# From -- ./inp_files/2977.got.cif
#   From: 2010.05.17/outbox.cif.g08.bks.cpg/sg39_2_cif.got.tgz:2977.got - 2010.06.03 18:22:40.
