data_PCOD9361056
_publ_section_title
;
Structure prediction by ZEFSAII (Michael W. Deem and Ramdas Pophale) SiO2 
 PCOD9361056
Probable space group: A B M 2
;
_chemical_formula_sum "Si O2"
_cell_formula_units_Z 40
_cell_length_a 12.503945
_cell_length_b 17.360431
_cell_length_c 9.891018
_cell_angle_alpha 90.000000
_cell_angle_beta 90.000000
_cell_angle_gamma 90.000000
_cell_volume 2147.081599
_symmetry_space_group_name_H-M "A B M 2"
_symmetry_group_IT_number 39
_symmetry_cell_setting 'orthorhombic'
loop_
_space_group_symop_operation_xyz
x,y,z
-x,-y,z
-x,1/2+y,z
x,1/2-y,z
x,1/2+y,1/2+z
-x,1/2-y,1/2+z
-x,y,1/2+z
x,-y,1/2+z
loop_
_atom_site_type_symbol
_atom_site_label
_atom_site_fract_x
_atom_site_fract_y
_atom_site_fract_z
Si Si1 0.762635 0.470140 0.156390
Si Si2 0.492552 0.839210 0.817517
Si Si3 0.119592 0.522398 0.900822
Si Si4 0.568226 0.928723 0.056104
Si Si5 0.258618 0.839763 0.957910
O O1 0.797709 0.474067 0.309998
O O2 0.673066 0.532200 0.117760
O O3 0.862046 0.492851 0.059461
O O4 0.730725 0.386452 0.098874
O O5 0.511926 0.750000 0.786302
O O6 0.491217 0.888744 0.681626
O O7 0.372300 0.845949 0.881208
O O8 0.573428 0.869997 0.931754
O O9 0.164647 0.610262 0.884892
O O10 0.000000 0.500000 0.863087
O O11 0.500000 0.000000 0.999833
O O12 0.233162 0.750000 0.972578
#
# Coordination Sequence:
#
# PCOD9361056 Si02
#       5
#     8   8   8   8   8
#     4  10  21  36  61  88 111 152 197 244 285 350
#     4  11  23  37  56  84 121 158 193 240 291 345
#     4  10  20  38  63  86 111 152 201 245 295 352
#     4  12  21  36  58  86 117 155 199 231 288 353
#     4   9  20  38  58  83 117 155 190 238 303 345
#
# _framework density 18.629939
#
# number of rings (size 3 to 8) (size 9 to 14) (size 15 to 20)
#    1.200    0.400    4.000    1.800    2.800    0.000 
#    0.000    1.000    0.000    3.600    0.000    0.000 
#    0.000    0.000    0.000    0.000    0.000    0.000 
#
# Total GULP energy -111372.514868 kJ/mol
# GULP energy per Si atom -5568.625743 kJ/mol
# Density = 1.858754 g / cm^3
# Si number density = 18.629939 Si / 1000 Ang^3
#
#
#
# Elastic Constant Matrix: (Units=GPa)
#
#
# Indices 1 2 3 4 5 6 
#
# 1 72.8872 26.3517 -15.9777 0.0000 0.0000 0.0000
# 2 26.3517 114.7776 19.1747 0.0000 0.0000 0.0000
# 3 -15.9777 19.1747 46.1563 0.0000 0.0000 0.0000
# 4 0.0000 0.0000 0.0000 204.9046 0.0000 0.0000
# 5 0.0000 0.0000 0.0000 0.0000 25.5550 0.0000
# 6 0.0000 0.0000 0.0000 0.0000 0.0000 17.4846
#
#
#
# Elastic Compliance Matrix: (Units=1/GPa)
#
#
# Indices 1 2 3 4 5 6 
#
# 1 0.017492 -0.005403 0.008300 0.000000 0.000000 0.000000
# 2 -0.005403 0.011031 -0.006453 0.000000 0.000000 0.000000
# 3 0.008300 -0.006453 0.027219 0.000000 0.000000 0.000000
# 4 0.000000 0.000000 0.000000 0.004880 0.000000 0.000000
# 5 0.000000 0.000000 0.000000 0.000000 0.039131 0.000000
# 6 0.000000 0.000000 0.000000 0.000000 0.000000 0.057193
#
#
# Mechanical properties :
#
#
# Convention : Reuss Voigt Hill
#
# Bulk Modulus (GPa) = 20.56289 32.54648 26.55468
# Shear Modulus (GPa) = 27.73627 63.20698 45.47162
#
# Velocity S-wave (km/s) = 3.86268 5.83106 4.94579
# Velocity P-wave (km/s) = 5.56375 7.92736 6.84829
#
# Compressibility (1/GPa) = 0.04863130
#
# Stress axis : x y z
#
# Youngs Moduli (GPa) = 57.16738 90.65462 36.73867
#
# Poissons Ratio (x) = 0.48977 -0.30492
# Poissons Ratio (y) = 0.30885 0.23707
# Poissons Ratio (z) = -0.47447 0.58497
#
# Static dielectric constant tensor:
#      x y z
#    x 1.674370 0.000000 0.000000 
#    y 0.000000 1.223020 0.000000 
#    z 0.000000 0.000000 1.639070 
# 
# From -- ./inp_files/2612.got.cif
#   From: 2010.05.17/outbox.cif.g08.bks.cpg/sg39_2_cif.got.tgz:2612.got - 2010.06.03 18:22:40.
