data_PCOD9361318
_publ_section_title
;
Structure prediction by ZEFSAII (Michael W. Deem and Ramdas Pophale) SiO2 
 PCOD9361318
Probable space group: A B M 2
;
_chemical_formula_sum "Si O2"
_cell_formula_units_Z 36
_cell_length_a 9.061108
_cell_length_b 13.804172
_cell_length_c 12.134518
_cell_angle_alpha 90.000000
_cell_angle_beta 90.000000
_cell_angle_gamma 90.000000
_cell_volume 1517.798779
_symmetry_space_group_name_H-M "A B M 2"
_symmetry_group_IT_number 39
_symmetry_cell_setting 'orthorhombic'
loop_
_space_group_symop_operation_xyz
x,y,z
-x,-y,z
-x,1/2+y,z
x,1/2-y,z
x,1/2+y,1/2+z
-x,1/2-y,1/2+z
-x,y,1/2+z
x,-y,1/2+z
loop_
_atom_site_type_symbol
_atom_site_label
_atom_site_fract_x
_atom_site_fract_y
_atom_site_fract_z
Si Si1 0.335888 0.957342 0.302510
Si Si2 0.796009 0.639973 0.390055
Si Si3 0.239801 0.143065 0.030454
Si Si4 0.000000 0.000000 0.022189
Si Si5 0.558691 0.892168 0.579054
O O1 0.281100 0.893491 0.405831
O O2 0.346897 0.895117 0.191058
O O3 0.500000 0.000000 0.317416
O O4 0.243572 0.056930 0.302444
O O5 0.821770 0.750000 0.352017
O O6 0.931144 0.588842 0.452829
O O7 0.660647 0.641677 0.478691
O O8 0.170223 0.250000 0.030050
O O9 0.136313 0.056928 0.076686
O O10 0.398038 0.154213 0.089496
O O11 0.500000 0.000000 0.557296
#
# Coordination Sequence:
#
# PCOD9361318 Si02
#       5
#     8   8   8   4   8
#     4  10  21  37  64  94 132 159 202 274 327 364
#     4  11  21  41  68  95 126 172 222 261 318 389
#     4  11  21  39  66  97 128 171 219 261 322 393
#     4  10  22  40  62  92 136 176 206 268 324 374
#     4  11  20  39  65  93 130 166 206 271 327 369
#
# _framework density 23.718558999999999
#
# number of rings (size 3 to 8) (size 9 to 14) (size 15 to 20)
#    0.000    1.333    6.667    1.333    0.000    1.778 
#    0.000   11.111    0.000    5.333    0.000    0.000 
#    0.000    0.000    0.000    0.000    0.000    0.000 
#
# Total GULP energy -100367.821522 kJ/mol
# GULP energy per Si atom -5575.990085 kJ/mol
# Density = 2.366457 g / cm^3
# Si number density = 23.718559 Si / 1000 Ang^3
#
#
#
# Elastic Constant Matrix: (Units=GPa)
#
#
# Indices 1 2 3 4 5 6 
#
# 1 98.4324 25.1784 26.9505 0.0000 0.0000 0.0000
# 2 25.1784 178.3381 19.5430 0.0000 0.0000 0.0000
# 3 26.9505 19.5430 120.6222 0.0000 0.0000 0.0000
# 4 0.0000 0.0000 0.0000 5.7170 0.0000 0.0000
# 5 0.0000 0.0000 0.0000 0.0000 10.7609 0.0000
# 6 0.0000 0.0000 0.0000 0.0000 0.0000 21.3311
#
#
#
# Elastic Compliance Matrix: (Units=1/GPa)
#
#
# Indices 1 2 3 4 5 6 
#
# 1 0.011119 -0.001321 -0.002270 0.000000 0.000000 0.000000
# 2 -0.001321 0.005866 -0.000655 0.000000 0.000000 0.000000
# 3 -0.002270 -0.000655 0.008904 0.000000 0.000000 0.000000
# 4 0.000000 0.000000 0.000000 0.174918 0.000000 0.000000
# 5 0.000000 0.000000 0.000000 0.000000 0.092929 0.000000
# 6 0.000000 0.000000 0.000000 0.000000 0.000000 0.046880
#
#
# Mechanical properties :
#
#
# Convention : Reuss Voigt Hill
#
# Bulk Modulus (GPa) = 57.48688 60.08184 58.78436
# Shear Modulus (GPa) = 14.08823 29.27651 21.68237
#
# Velocity S-wave (km/s) = 2.43980 3.51711 3.02677
# Velocity P-wave (km/s) = 5.67684 6.47144 6.08712
#
# Compressibility (1/GPa) = 0.01739527
#
# Stress axis : x y z
#
# Youngs Moduli (GPa) = 89.93826 170.48471 112.31240
#
# Poissons Ratio (x) = 0.22521 0.25497
# Poissons Ratio (y) = 0.11881 0.07359
# Poissons Ratio (z) = 0.20418 0.11170
#
# Static dielectric constant tensor:
#      x y z
#    x 1.981280 0.000000 0.000000 
#    y 0.000000 1.346440 0.000000 
#    z 0.000000 0.000000 1.977840 
# 
# From -- ./inp_files/8018.got.cif
#   From: 2010.05.17/outbox.cif.g08.bks.cpg/sg39_5_cif.got.tgz:8018.got - 2010.06.03 18:22:40.
