data_PCOD9361843
_publ_section_title
;
Structure prediction by ZEFSAII (Michael W. Deem and Ramdas Pophale) SiO2 
 PCOD9361843
Probable space group: A B M 2
;
_chemical_formula_sum "Si O2"
_cell_formula_units_Z 60
_cell_length_a 5.327772
_cell_length_b 30.530380
_cell_length_c 18.210553
_cell_angle_alpha 90.000000
_cell_angle_beta 90.000000
_cell_angle_gamma 90.000000
_cell_volume 2962.108587
_symmetry_space_group_name_H-M "A B M 2"
_symmetry_group_IT_number 39
_symmetry_cell_setting 'orthorhombic'
loop_
_space_group_symop_operation_xyz
x,y,z
-x,-y,z
-x,1/2+y,z
x,1/2-y,z
x,1/2+y,1/2+z
-x,1/2-y,1/2+z
-x,y,1/2+z
x,-y,1/2+z
loop_
_atom_site_type_symbol
_atom_site_label
_atom_site_fract_x
_atom_site_fract_y
_atom_site_fract_z
Si Si1 0.207789 0.339861 0.261200
Si Si2 0.809300 0.109961 0.910814
Si Si3 0.000000 0.500000 0.798899
Si Si4 0.339240 0.539898 0.565846
Si Si5 0.327373 0.124739 0.578186
Si Si6 0.306922 0.949220 0.402952
Si Si7 0.035494 0.423130 0.184951
Si Si8 0.305237 0.301616 0.689727
O O1 0.197263 0.353001 0.347221
O O2 0.220782 0.385734 0.215550
O O3 0.456083 0.313088 0.240949
O O4 0.953095 0.317149 0.230328
O O5 0.564978 0.078450 0.897634
O O6 0.069700 0.084025 0.899165
O O7 0.800412 0.125396 0.996852
O O8 0.239959 0.488364 0.847972
O O9 0.011935 0.543085 0.750080
O O10 0.500000 0.500000 0.597506
O O11 0.455709 0.588923 0.565033
O O12 0.285081 0.529144 0.482732
O O13 0.106997 0.546817 0.616824
O O14 0.360211 0.173010 0.612221
O O15 0.191018 0.103100 0.648981
O O16 0.288561 0.250000 0.677174
#
# Coordination Sequence:
#
# PCOD9361843 Si02
#       8
#     8   8   4   8   8   8   8   8
#     4  11  23  42  69  99 132 168 218 272 342 399
#     4  11  23  45  68  92 133 176 224 273 338 390
#     4  12  26  38  58  96 136 182 238 270 318 394
#     4  11  23  38  62  91 133 181 225 273 324 385
#     4  10  23  42  65  95 129 176 220 274 333 393
#     4  11  26  41  59  92 132 182 224 276 322 382
#     4  11  22  40  61  90 131 176 223 279 319 388
#     4  11  24  45  72 101 134 168 215 277 343 408
#
# _framework density 20.255842000000001
#
# number of rings (size 3 to 8) (size 9 to 14) (size 15 to 20)
#    0.000    1.067    4.000    2.000    5.600    1.600 
#    2.400    1.333    0.000    0.000    0.000    0.000 
#    0.000    0.000    0.000    0.000    0.000    0.000 
#
# Total GULP energy -167198.809265 kJ/mol
# GULP energy per Si atom -5573.293642 kJ/mol
# Density = 2.020974 g / cm^3
# Si number density = 20.255842 Si / 1000 Ang^3
#
#
#
# Elastic Constant Matrix: (Units=GPa)
#
#
# Indices 1 2 3 4 5 6 
#
# 1 102.7178 44.3373 20.7173 0.0000 0.0000 0.0000
# 2 44.3373 127.3226 57.0099 0.0000 0.0000 0.0000
# 3 20.7173 57.0099 102.3378 0.0000 0.0000 0.0000
# 4 0.0000 0.0000 0.0000 5.1738 0.0000 0.0000
# 5 0.0000 0.0000 0.0000 0.0000 -54.1152 0.0000
# 6 0.0000 0.0000 0.0000 0.0000 0.0000 28.0028
#
#
#
# Elastic Compliance Matrix: (Units=1/GPa)
#
#
# Indices 1 2 3 4 5 6 
#
# 1 0.011459 -0.003933 -0.000129 0.000000 0.000000 0.000000
# 2 -0.003933 0.011814 -0.005785 0.000000 0.000000 0.000000
# 3 -0.000129 -0.005785 0.013020 0.000000 0.000000 0.000000
# 4 0.000000 0.000000 0.000000 0.193280 0.000000 0.000000
# 5 0.000000 0.000000 0.000000 0.000000 -0.018479 0.000000
# 6 0.000000 0.000000 0.000000 0.000000 0.000000 0.035711
#
#
# Mechanical properties :
#
#
# Convention : Reuss Voigt Hill
#
# Bulk Modulus (GPa) = 60.24163 64.05638 62.14900
# Shear Modulus (GPa) = 18.38026 9.83321 14.10673
#
# Velocity S-wave (km/s) = 3.01559 2.20568 2.64186
# Velocity P-wave (km/s) = 6.47533 6.17892 6.32886
#
# Compressibility (1/GPa) = 0.01659982
#
# Stress axis : x y z
#
# Youngs Moduli (GPa) = 87.26857 84.64676 76.80258
#
# Poissons Ratio (x) = 0.33288 0.00991
# Poissons Ratio (y) = 0.34319 0.44431
# Poissons Ratio (z) = 0.01126 0.48969
#
# Static dielectric constant tensor:
#      x y z
#    x 1.782710 0.000000 0.000000 
#    y 0.000000 1.775100 0.000000 
#    z 0.000000 0.000000 1.803800 
# 
# From -- ./inp_files/11199.got.cif
#   From: 2010.05.17/outbox.cif.g08.bks.cpg/sg39_6_cif.got.tgz:11199.got - 2010.06.03 18:22:40.
