data_PCOD9361797
_publ_section_title
;
Structure prediction by ZEFSAII (Michael W. Deem and Ramdas Pophale) SiO2 
 PCOD9361797
Probable space group: A B M 2
;
_chemical_formula_sum "Si O2"
_cell_formula_units_Z 56
_cell_length_a 13.850312
_cell_length_b 14.799284
_cell_length_c 11.796616
_cell_angle_alpha 90.000000
_cell_angle_beta 90.000000
_cell_angle_gamma 90.000000
_cell_volume 2418.007835
_symmetry_space_group_name_H-M "A B M 2"
_symmetry_group_IT_number 39
_symmetry_cell_setting 'orthorhombic'
loop_
_space_group_symop_operation_xyz
x,y,z
-x,-y,z
-x,1/2+y,z
x,1/2-y,z
x,1/2+y,1/2+z
-x,1/2-y,1/2+z
-x,y,1/2+z
x,-y,1/2+z
loop_
_atom_site_type_symbol
_atom_site_label
_atom_site_fract_x
_atom_site_fract_y
_atom_site_fract_z
Si Si1 0.236483 0.539607 0.144100
Si Si2 0.234695 0.145834 0.264821
Si Si3 0.338519 0.852379 0.337198
Si Si4 0.552660 0.350583 0.736234
Si Si5 0.033802 0.143425 0.359418
Si Si6 0.402572 0.529465 0.525450
Si Si7 0.960751 0.639598 0.607791
O O1 0.221277 0.433428 0.172331
O O2 0.273639 0.584909 0.259502
O O3 0.143034 0.592458 0.106838
O O4 0.326712 0.546862 0.058659
O O5 0.221196 0.250000 0.222946
O O6 0.346518 0.138828 0.304571
O O7 0.150114 0.131730 0.355621
O O8 0.303875 0.750000 0.333522
O O9 0.450168 0.854701 0.296563
O O10 0.343427 0.895085 0.459740
O O11 0.557780 0.250000 0.684502
O O12 0.558970 0.423870 0.639042
O O13 0.012078 0.250000 0.357240
O O14 0.994717 0.112241 0.483403
O O15 0.002095 0.111434 0.232646
O O16 0.500000 0.500000 0.461885
O O17 0.956243 0.750000 0.607180
#
# Coordination Sequence:
#
# PCOD9361797 Si02
#       7
#     8   8   8   8   8   8   8
#     4  11  24  41  67  98 135 180 225 289 336 416
#     4   9  20  39  64  93 127 173 226 281 345 413
#     4  11  24  41  62  93 136 180 226 284 346 407
#     4   9  19  39  60  87 126 173 228 279 336 402
#     4   9  20  42  70  97 134 176 224 288 353 419
#     4  11  23  37  61  90 131 177 228 280 336 402
#     4  10  22  44  71 104 138 177 228 288 355 421
#
# _framework density 23.159562000000001
#
# number of rings (size 3 to 8) (size 9 to 14) (size 15 to 20)
#    0.000    2.000    1.429    0.857    6.000    1.143 
#    5.143    1.429    0.000    0.000    0.000    0.000 
#    0.000    0.000    0.000    0.000    0.000    0.000 
#
# Total GULP energy -156119.887510 kJ/mol
# GULP energy per Si atom -5575.710268 kJ/mol
# Density = 2.310685 g / cm^3
# Si number density = 23.159562 Si / 1000 Ang^3
#
#
#
# Elastic Constant Matrix: (Units=GPa)
#
#
# Indices 1 2 3 4 5 6 
#
# 1 48.0403 15.6519 32.0031 0.0000 0.0000 0.0000
# 2 15.6519 85.1766 44.2743 0.0000 0.0000 0.0000
# 3 32.0031 44.2743 135.0818 0.0000 0.0000 0.0000
# 4 0.0000 0.0000 0.0000 26.2152 0.0000 0.0000
# 5 0.0000 0.0000 0.0000 0.0000 4.9916 0.0000
# 6 0.0000 0.0000 0.0000 0.0000 0.0000 29.2510
#
#
#
# Elastic Compliance Matrix: (Units=1/GPa)
#
#
# Indices 1 2 3 4 5 6 
#
# 1 0.024949 -0.001823 -0.005314 0.000000 0.000000 0.000000
# 2 -0.001823 0.014284 -0.004250 0.000000 0.000000 0.000000
# 3 -0.005314 -0.004250 0.010055 0.000000 0.000000 0.000000
# 4 0.000000 0.000000 0.000000 0.038146 0.000000 0.000000
# 5 0.000000 0.000000 0.000000 0.000000 0.200337 0.000000
# 6 0.000000 0.000000 0.000000 0.000000 0.000000 0.034187
#
#
# Mechanical properties :
#
#
# Convention : Reuss Voigt Hill
#
# Bulk Modulus (GPa) = 37.71293 50.23969 43.97631
# Shear Modulus (GPa) = 14.14150 23.84951 18.99551
#
# Velocity S-wave (km/s) = 2.47374 3.21252 2.86702
# Velocity P-wave (km/s) = 4.94757 5.95821 5.47626
#
# Compressibility (1/GPa) = 0.02651610
#
# Stress axis : x y z
#
# Youngs Moduli (GPa) = 40.08102 70.00650 99.45532
#
# Poissons Ratio (x) = 0.12760 0.52846
# Poissons Ratio (y) = 0.07306 0.42269
# Poissons Ratio (z) = 0.21297 0.29753
#
# Static dielectric constant tensor:
#      x y z
#    x 1.925890 0.000000 0.000000 
#    y 0.000000 1.849010 0.000000 
#    z 0.000000 0.000000 1.893520 
# 
# From -- ./inp_files/6491.got.cif
#   From: 2010.05.17/outbox.cif.g08.bks.cpg/sg39_4_cif.got.tgz:6491.got - 2010.06.03 18:22:40.
