data_PCOD9361198
_publ_section_title
;
Structure prediction by ZEFSAII (Michael W. Deem and Ramdas Pophale) SiO2 
 PCOD9361198
Probable space group: A B M 2
;
_chemical_formula_sum "Si O2"
_cell_formula_units_Z 64
_cell_length_a 19.924742
_cell_length_b 9.270624
_cell_length_c 20.481200
_cell_angle_alpha 90.000000
_cell_angle_beta 90.000000
_cell_angle_gamma 90.000000
_cell_volume 3783.180585
_symmetry_space_group_name_H-M "A B M 2"
_symmetry_group_IT_number 39
_symmetry_cell_setting 'orthorhombic'
loop_
_space_group_symop_operation_xyz
x,y,z
-x,-y,z
-x,1/2+y,z
x,1/2-y,z
x,1/2+y,1/2+z
-x,1/2-y,1/2+z
-x,y,1/2+z
x,-y,1/2+z
loop_
_atom_site_type_symbol
_atom_site_label
_atom_site_fract_x
_atom_site_fract_y
_atom_site_fract_z
Si Si1 0.284939 0.576110 0.148680
Si Si2 0.069637 0.419138 0.068110
Si Si3 0.072202 0.077646 0.325368
Si Si4 0.565472 0.583931 0.492811
Si Si5 0.715662 0.075415 0.993823
Si Si6 0.434216 0.083462 0.651700
Si Si7 0.157186 0.920471 0.437204
Si Si8 0.155308 0.421591 0.192540
O O1 0.282760 0.750000 0.153817
O O2 0.275797 0.541745 0.071301
O O3 0.359933 0.528207 0.169512
O O4 0.225728 0.503856 0.189246
O O5 0.055758 0.250000 0.078294
O O6 0.111247 0.471716 0.130699
O O7 0.000000 0.500000 0.060750
O O8 0.114345 0.434117 0.003727
O O9 0.063960 0.250000 0.336276
O O10 0.112272 0.056803 0.257690
O O11 0.116748 0.004892 0.381654
O O12 0.000000 0.000000 0.323032
O O13 0.500000 0.500000 0.469603
O O14 0.559791 0.750000 0.473168
O O15 0.639827 0.531782 0.474179
O O16 0.565144 0.580231 0.572249
O O17 0.721166 0.250000 0.987542
O O18 0.771558 0.994174 0.952323
O O19 0.439159 0.250000 0.671441
O O20 0.500000 0.000000 0.674840
O O21 0.163714 0.750000 0.422106
O O22 0.167759 0.250000 0.185160
#
# Coordination Sequence:
#
# PCOD9361198 Si02
#       8
#     8   8   8   8   8   8   8   8
#     4   9  17  29  48  74 104 137 173 214 256 303
#     4  10  21  35  52  76 101 127 163 206 253 305
#     4  11  24  41  59  77 103 136 172 215 261 314
#     4   8  14  24  39  63  98 136 172 208 249 300
#     4   9  17  30  48  73 105 139 174 214 260 306
#     4   8  14  24  38  63  98 135 172 206 247 296
#     4  11  22  36  55  78 105 136 173 216 259 310
#     4  10  21  37  54  76 104 134 170 213 259 308
#
# _framework density 16.916982000000001
#
# number of rings (size 3 to 8) (size 9 to 14) (size 15 to 20)
#    0.000    2.500    1.250    3.000    0.000    4.500 
#    0.000    2.500    0.000    0.000    0.000    0.875 
#    0.000    6.000    0.000    0.000    0.000    0.000 
#
# Total GULP energy -178378.878591 kJ/mol
# GULP energy per Si atom -5574.339956 kJ/mol
# Density = 1.687848 g / cm^3
# Si number density = 16.916982 Si / 1000 Ang^3
#
#
#
# Elastic Constant Matrix: (Units=GPa)
#
#
# Indices 1 2 3 4 5 6 
#
# 1 183.8649 80.7645 35.2255 0.0000 0.0000 0.0000
# 2 80.7645 66.8178 37.8666 0.0000 0.0000 0.0000
# 3 35.2255 37.8666 47.8005 0.0000 0.0000 0.0000
# 4 0.0000 0.0000 0.0000 19.0617 0.0000 0.0000
# 5 0.0000 0.0000 0.0000 0.0000 13.6666 0.0000
# 6 0.0000 0.0000 0.0000 0.0000 0.0000 36.9695
#
#
#
# Elastic Compliance Matrix: (Units=1/GPa)
#
#
# Indices 1 2 3 4 5 6 
#
# 1 0.012192 -0.017503 0.004881 0.000000 0.000000 0.000000
# 2 -0.017503 0.052285 -0.028521 0.000000 0.000000 0.000000
# 3 0.004881 -0.028521 0.039917 0.000000 0.000000 0.000000
# 4 0.000000 0.000000 0.000000 0.052461 0.000000 0.000000
# 5 0.000000 0.000000 0.000000 0.000000 0.073171 0.000000
# 6 0.000000 0.000000 0.000000 0.000000 0.000000 0.027049
#
#
# Mechanical properties :
#
#
# Convention : Reuss Voigt Hill
#
# Bulk Modulus (GPa) = 45.23164 67.35515 56.29339
# Shear Modulus (GPa) = 14.42033 23.58133 19.00083
#
# Velocity S-wave (km/s) = 2.92279 3.73761 3.35502
# Velocity P-wave (km/s) = 6.17946 7.65035 6.95390
#
# Compressibility (1/GPa) = 0.02210842
#
# Stress axis : x y z
#
# Youngs Moduli (GPa) = 82.02130 19.12578 25.05168
#
# Poissons Ratio (x) = 0.33475 -0.12227
# Poissons Ratio (y) = 1.43560 0.71450
# Poissons Ratio (z) = -0.40032 0.54549
#
# Static dielectric constant tensor:
#      x y z
#    x 1.576550 0.000000 0.000000 
#    y 0.000000 1.572780 0.000000 
#    z 0.000000 0.000000 1.561820 
# 
# From -- ./inp_files/16367.got.cif
#   From: 2010.05.17/outbox.cif.g08.bks.cpg/sg39_9_cif.got.tgz:16367.got - 2010.06.03 18:22:40.
