data_PCOD9361129
_publ_section_title
;
Structure prediction by ZEFSAII (Michael W. Deem and Ramdas Pophale) SiO2 
 PCOD9361129
Probable space group: A B M 2
;
_chemical_formula_sum "Si O2"
_cell_formula_units_Z 40
_cell_length_a 14.996674
_cell_length_b 14.785824
_cell_length_c 7.956095
_cell_angle_alpha 90.000000
_cell_angle_beta 90.000000
_cell_angle_gamma 90.000000
_cell_volume 1764.170044
_symmetry_space_group_name_H-M "A B M 2"
_symmetry_group_IT_number 39
_symmetry_cell_setting 'orthorhombic'
loop_
_space_group_symop_operation_xyz
x,y,z
-x,-y,z
-x,1/2+y,z
x,1/2-y,z
x,1/2+y,1/2+z
-x,1/2-y,1/2+z
-x,y,1/2+z
x,-y,1/2+z
loop_
_atom_site_type_symbol
_atom_site_label
_atom_site_fract_x
_atom_site_fract_y
_atom_site_fract_z
Si Si1 0.536688 0.250000 0.340590
Si Si2 0.272741 0.084759 0.330285
Si Si3 0.356984 0.250000 0.184817
Si Si4 0.335676 0.392466 0.704206
Si Si5 0.897208 0.479895 0.016588
Si Si6 0.851962 0.147311 0.338114
O O1 0.431051 0.250000 0.332224
O O2 0.581558 0.250000 0.522106
O O3 0.575367 0.159805 0.252075
O O4 0.294512 0.163884 0.202937
O O5 0.317465 0.109476 0.507359
O O6 0.169413 0.067851 0.382088
O O7 0.321464 0.995308 0.262763
O O8 0.251857 0.345050 0.793595
O O9 0.860959 0.583499 0.002427
O O10 0.000000 0.500000 0.976152
O O11 0.890663 0.415132 0.181895
O O12 0.889076 0.250000 0.348962
#
# Coordination Sequence:
#
# PCOD9361129 Si02
#       6
#     4   8   4   8   8   8
#     4  12  24  42  68  95 142 171 236 289 342 443
#     4  10  22  40  66  94 134 175 229 283 354 415
#     4  12  26  42  64 103 130 181 232 287 360 425
#     4  10  20  40  65  91 130 178 216 286 344 413
#     4  10  22  40  65  94 135 176 230 289 344 420
#     4  10  21  40  64  93 133 178 224 283 352 410
#
# _framework density 22.673551
#
# number of rings (size 3 to 8) (size 9 to 14) (size 15 to 20)
#    0.000    1.600    1.000    3.600    4.200    3.200 
#    0.000    5.000    0.000    0.000    0.000    0.000 
#    0.000    0.000    0.000    0.000    0.000    0.000 
#
# Total GULP energy -111583.589901 kJ/mol
# GULP energy per Si atom -5579.179495 kJ/mol
# Density = 2.262194 g / cm^3
# Si number density = 22.673551 Si / 1000 Ang^3
#
#
#
# Elastic Constant Matrix: (Units=GPa)
#
#
# Indices 1 2 3 4 5 6 
#
# 1 129.1716 49.9231 20.4246 0.0000 0.0000 0.0000
# 2 49.9231 186.3348 38.9476 0.0000 0.0000 0.0000
# 3 20.4246 38.9476 97.1788 0.0000 0.0000 0.0000
# 4 0.0000 0.0000 0.0000 101.8270 0.0000 0.0000
# 5 0.0000 0.0000 0.0000 0.0000 19.2630 0.0000
# 6 0.0000 0.0000 0.0000 0.0000 0.0000 -2.9530
#
#
#
# Elastic Compliance Matrix: (Units=1/GPa)
#
#
# Indices 1 2 3 4 5 6 
#
# 1 0.008720 -0.002132 -0.000978 0.000000 0.000000 0.000000
# 2 -0.002132 0.006379 -0.002108 0.000000 0.000000 0.000000
# 3 -0.000978 -0.002108 0.011341 0.000000 0.000000 0.000000
# 4 0.000000 0.000000 0.000000 0.009821 0.000000 0.000000
# 5 0.000000 0.000000 0.000000 0.000000 0.051913 0.000000
# 6 0.000000 0.000000 0.000000 0.000000 0.000000 -0.338640
#
#
# Mechanical properties :
#
#
# Convention : Reuss Voigt Hill
#
# Bulk Modulus (GPa) = 62.48989 70.14176 66.31582
# Shear Modulus (GPa) = -21.30420 43.85341 11.27461
#
# Velocity S-wave (km/s) = -3.06862 4.40264 2.23235
# Velocity P-wave (km/s) = 3.88140 7.53969 5.99634
#
# Compressibility (1/GPa) = 0.01600259
#
# Stress axis : x y z
#
# Youngs Moduli (GPa) = 114.67539 156.77581 88.17622
#
# Poissons Ratio (x) = 0.33422 0.08627
# Poissons Ratio (y) = 0.24447 0.18591
# Poissons Ratio (z) = 0.11220 0.33054
#
# Static dielectric constant tensor:
#      x y z
#    x 1.814550 0.000000 0.000000 
#    y 0.000000 1.868370 0.000000 
#    z 0.000000 0.000000 1.925080 
# 
# From -- ./inp_files/3096.got.cif
#   From: 2010.05.17/outbox.cif.g08.bks.cpg/sg39_2_cif.got.tgz:3096.got - 2010.06.03 18:22:40.
