data_PCOD9361795
_publ_section_title
;
Structure prediction by ZEFSAII (Michael W. Deem and Ramdas Pophale) SiO2 
 PCOD9361795
Probable space group: A B M 2
;
_chemical_formula_sum "Si O2"
_cell_formula_units_Z 60
_cell_length_a 11.754938
_cell_length_b 25.849841
_cell_length_c 8.735168
_cell_angle_alpha 90.000000
_cell_angle_beta 90.000000
_cell_angle_gamma 90.000000
_cell_volume 2654.296785
_symmetry_space_group_name_H-M "A B M 2"
_symmetry_group_IT_number 39
_symmetry_cell_setting 'orthorhombic'
loop_
_space_group_symop_operation_xyz
x,y,z
-x,-y,z
-x,1/2+y,z
x,1/2-y,z
x,1/2+y,1/2+z
-x,1/2-y,1/2+z
-x,y,1/2+z
x,-y,1/2+z
loop_
_atom_site_type_symbol
_atom_site_label
_atom_site_fract_x
_atom_site_fract_y
_atom_site_fract_z
Si Si1 0.773592 0.042496 0.157860
Si Si2 0.579202 0.250000 0.749909
Si Si3 0.403853 0.343996 0.444461
Si Si4 0.587589 0.612180 0.776904
Si Si5 0.149910 0.141780 0.467101
Si Si6 0.892781 0.461820 0.478322
Si Si7 0.937363 0.648766 0.128410
Si Si8 0.713574 0.805420 0.986295
O O1 0.652270 0.060134 0.225620
O O2 0.857987 0.043444 0.302298
O O3 0.811264 0.086570 0.036266
O O4 0.789800 0.988247 0.072916
O O5 0.537393 0.205477 0.871483
O O6 0.634972 0.294259 0.634478
O O7 0.421789 0.355022 0.621719
O O8 0.464040 0.391354 0.355189
O O9 0.270115 0.331925 0.432554
O O10 0.669777 0.645182 0.890875
O O11 0.083884 0.141225 0.307473
O O12 0.064814 0.167036 0.589382
O O13 0.924387 0.407337 0.550654
O O14 0.000000 0.500000 0.491383
O O15 0.839109 0.683233 0.052951
O O16 0.716206 0.750000 0.898696
#
# Coordination Sequence:
#
# PCOD9361795 Si02
#       8
#     8   4   8   8   8   8   8   8
#     4  11  24  42  67 110 133 189 238 298 377 416
#     4  10  22  44  70 106 134 192 246 304 358 434
#     4  11  25  43  71 102 141 186 251 296 364 426
#     4  11  25  44  72 106 140 188 245 310 363 432
#     4  11  24  42  67 101 143 187 231 294 366 423
#     4  12  23  38  68 104 145 181 242 300 353 439
#     4  12  23  43  70 101 149 186 238 300 356 433
#     4  10  23  44  69 103 145 191 238 294 375 425
#
# _framework density 22.604858
#
# number of rings (size 3 to 8) (size 9 to 14) (size 15 to 20)
#    0.400    0.533    4.000    2.800    3.733    0.000 
#    1.200    0.000    0.000   16.800    0.000    0.000 
#    0.000    0.000    0.000    0.000    0.000    0.000 
#
# Total GULP energy -167099.042191 kJ/mol
# GULP energy per Si atom -5569.968073 kJ/mol
# Density = 2.255341 g / cm^3
# Si number density = 22.604858 Si / 1000 Ang^3
#
#
#
# Elastic Constant Matrix: (Units=GPa)
#
#
# Indices 1 2 3 4 5 6 
#
# 1 119.3657 7.9921 28.9815 0.0000 0.0000 0.0000
# 2 7.9921 42.5923 -3.9621 0.0000 0.0000 0.0000
# 3 28.9815 -3.9621 114.5807 0.0000 0.0000 0.0000
# 4 0.0000 0.0000 0.0000 12.4241 0.0000 0.0000
# 5 0.0000 0.0000 0.0000 0.0000 27.7465 0.0000
# 6 0.0000 0.0000 0.0000 0.0000 0.0000 9.9920
#
#
#
# Elastic Compliance Matrix: (Units=1/GPa)
#
#
# Indices 1 2 3 4 5 6 
#
# 1 0.009080 -0.001924 -0.002363 0.000000 0.000000 0.000000
# 2 -0.001924 0.023962 0.001315 0.000000 0.000000 0.000000
# 3 -0.002363 0.001315 0.009371 0.000000 0.000000 0.000000
# 4 0.000000 0.000000 0.000000 0.080489 0.000000 0.000000
# 5 0.000000 0.000000 0.000000 0.000000 0.036041 0.000000
# 6 0.000000 0.000000 0.000000 0.000000 0.000000 0.100080
#
#
# Mechanical properties :
#
#
# Convention : Reuss Voigt Hill
#
# Bulk Modulus (GPa) = 27.42046 38.06241 32.74144
# Shear Modulus (GPa) = 18.04262 26.26767 22.15514
#
# Velocity S-wave (km/s) = 2.82826 3.41256 3.13406
# Velocity P-wave (km/s) = 4.77725 5.69229 5.25472
#
# Compressibility (1/GPa) = 0.03646912
#
# Stress axis : x y z
#
# Youngs Moduli (GPa) = 110.12976 41.73323 106.71574
#
# Poissons Ratio (x) = 0.08028 0.25219
# Poissons Ratio (y) = 0.21185 -0.14035
# Poissons Ratio (z) = 0.26026 -0.05489
#
# Static dielectric constant tensor:
#      x y z
#    x 1.967980 0.000000 0.000000 
#    y 0.000000 1.937030 0.000000 
#    z 0.000000 0.000000 1.813080 
# 
# From -- ./inp_files/2838.got.cif
#   From: 2010.05.17/outbox.cif.g08.bks.cpg/sg39_2_cif.got.tgz:2838.got - 2010.06.03 18:22:40.
