data_PCOD9361516
_publ_section_title
;
Structure prediction by ZEFSAII (Michael W. Deem and Ramdas Pophale) SiO2 
 PCOD9361516
Probable space group: A B M 2
;
_chemical_formula_sum "Si O2"
_cell_formula_units_Z 56
_cell_length_a 15.558019
_cell_length_b 14.642488
_cell_length_c 10.912677
_cell_angle_alpha 90.000000
_cell_angle_beta 90.000000
_cell_angle_gamma 90.000000
_cell_volume 2485.996284
_symmetry_space_group_name_H-M "A B M 2"
_symmetry_group_IT_number 39
_symmetry_cell_setting 'orthorhombic'
loop_
_space_group_symop_operation_xyz
x,y,z
-x,-y,z
-x,1/2+y,z
x,1/2-y,z
x,1/2+y,1/2+z
-x,1/2-y,1/2+z
-x,y,1/2+z
x,-y,1/2+z
loop_
_atom_site_type_symbol
_atom_site_label
_atom_site_fract_x
_atom_site_fract_y
_atom_site_fract_z
Si Si1 0.320591 0.150431 0.258570
Si Si2 0.923849 0.250000 0.508780
Si Si3 0.034838 0.250000 0.749200
Si Si4 0.516170 0.142892 0.584281
Si Si5 0.913384 0.042543 0.262803
Si Si6 0.420653 0.360437 0.823145
Si Si7 0.174376 0.587555 0.597226
Si Si8 0.269441 0.019695 0.893201
O O1 0.335494 0.250000 0.314214
O O2 0.390864 0.139595 0.151501
O O3 0.225736 0.144312 0.199252
O O4 0.322037 0.069143 0.354718
O O5 0.988583 0.250000 0.394282
O O6 0.864939 0.339339 0.504090
O O7 0.964585 0.250000 0.643145
O O8 0.079817 0.349518 0.735086
O O9 0.493473 0.250000 0.571795
O O10 0.454060 0.104470 0.691012
O O11 0.525942 0.108386 0.444792
O O12 0.824725 0.020658 0.332269
O O13 0.900033 0.978217 0.144016
O O14 0.000000 0.000000 0.322796
O O15 0.424459 0.250000 0.821804
O O16 0.324819 0.394942 0.848111
O O17 0.247822 0.526338 0.535452
#
# Coordination Sequence:
#
# PCOD9361516 Si02
#       8
#     8   4   4   8   8   8   8   8
#     4  10  21  41  66  96 135 181 235 282 348 415
#     4  12  24  44  74  98 131 185 233 285 354 428
#     4  12  26  46  72 102 137 183 231 289 364 418
#     4   9  19  39  68  98 139 185 234 289 350 418
#     4  11  25  44  66 103 143 179 236 295 356 423
#     4  10  21  40  69 105 142 186 238 293 355 421
#     4  11  22  42  69  96 134 184 237 282 345 431
#     4  11  24  40  70 102 135 186 235 296 345 425
#
# _framework density 22.526181000000001
#
# number of rings (size 3 to 8) (size 9 to 14) (size 15 to 20)
#    0.000    1.429    5.000    0.000    2.000    2.286 
#    6.429    1.429    0.000    0.000    0.000    0.000 
#    0.000    0.000    0.000    0.000    0.000    0.000 
#
# Total GULP energy -156144.156045 kJ/mol
# GULP energy per Si atom -5576.577002 kJ/mol
# Density = 2.247491 g / cm^3
# Si number density = 22.526181 Si / 1000 Ang^3
#
#
#
# Elastic Constant Matrix: (Units=GPa)
#
#
# Indices 1 2 3 4 5 6 
#
# 1 90.2252 3.1060 17.6164 0.0000 0.0000 0.0000
# 2 3.1060 103.0212 6.7606 0.0000 0.0000 0.0000
# 3 17.6164 6.7606 69.4503 0.0000 0.0000 0.0000
# 4 0.0000 0.0000 0.0000 18.8776 0.0000 0.0000
# 5 0.0000 0.0000 0.0000 0.0000 39.8047 0.0000
# 6 0.0000 0.0000 0.0000 0.0000 0.0000 30.3692
#
#
#
# Elastic Compliance Matrix: (Units=1/GPa)
#
#
# Indices 1 2 3 4 5 6 
#
# 1 0.011663 -0.000159 -0.002943 0.000000 0.000000 0.000000
# 2 -0.000159 0.009771 -0.000911 0.000000 0.000000 0.000000
# 3 -0.002943 -0.000911 0.015234 0.000000 0.000000 0.000000
# 4 0.000000 0.000000 0.000000 0.052973 0.000000 0.000000
# 5 0.000000 0.000000 0.000000 0.000000 0.025123 0.000000
# 6 0.000000 0.000000 0.000000 0.000000 0.000000 0.032928
#
#
# Mechanical properties :
#
#
# Convention : Reuss Voigt Hill
#
# Bulk Modulus (GPa) = 34.91175 35.29586 35.10381
# Shear Modulus (GPa) = 30.25437 33.49121 31.87279
#
# Velocity S-wave (km/s) = 3.66878 3.86005 3.76563
# Velocity P-wave (km/s) = 5.78606 5.96401 5.87571
#
# Compressibility (1/GPa) = 0.02864365
#
# Stress axis : x y z
#
# Youngs Moduli (GPa) = 85.73782 102.34052 65.64266
#
# Poissons Ratio (x) = 0.01622 0.19319
# Poissons Ratio (y) = 0.01359 0.05980
# Poissons Ratio (z) = 0.25233 0.09323
#
# Static dielectric constant tensor:
#      x y z
#    x 1.825490 0.000000 0.000000 
#    y 0.000000 1.856820 0.000000 
#    z 0.000000 0.000000 1.928310 
# 
# From -- ./inp_files/6531.got.cif
#   From: 2010.05.17/outbox.cif.g08.bks.cpg/sg39_4_cif.got.tgz:6531.got - 2010.06.03 18:22:40.
