data_PCOD9361548
_publ_section_title
;
Structure prediction by ZEFSAII (Michael W. Deem and Ramdas Pophale) SiO2 
 PCOD9361548
Probable space group: A B M 2
;
_chemical_formula_sum "Si O2"
_cell_formula_units_Z 56
_cell_length_a 13.681759
_cell_length_b 21.414757
_cell_length_c 8.419998
_cell_angle_alpha 90.000000
_cell_angle_beta 90.000000
_cell_angle_gamma 90.000000
_cell_volume 2466.988217
_symmetry_space_group_name_H-M "A B M 2"
_symmetry_group_IT_number 39
_symmetry_cell_setting 'orthorhombic'
loop_
_space_group_symop_operation_xyz
x,y,z
-x,-y,z
-x,1/2+y,z
x,1/2-y,z
x,1/2+y,1/2+z
-x,1/2-y,1/2+z
-x,y,1/2+z
x,-y,1/2+z
loop_
_atom_site_type_symbol
_atom_site_label
_atom_site_fract_x
_atom_site_fract_y
_atom_site_fract_z
Si Si1 0.545250 0.675829 0.952480
Si Si2 0.278359 0.127016 0.781134
Si Si3 0.843295 0.250000 0.375721
Si Si4 0.867650 0.957537 0.913266
Si Si5 0.649569 0.176094 0.790476
Si Si6 0.809957 0.599271 0.448109
Si Si7 0.946477 0.750000 0.193710
Si Si8 0.007579 0.109906 0.637478
O O1 0.553215 0.750000 0.922432
O O2 0.611044 0.641889 0.821774
O O3 0.431990 0.660860 0.924814
O O4 0.595238 0.664995 0.123010
O O5 0.214665 0.189987 0.809595
O O6 0.234846 0.077830 0.905587
O O7 0.256395 0.100329 0.607262
O O8 0.852778 0.250000 0.565651
O O9 0.955260 0.250000 0.315186
O O10 0.931536 0.926804 0.771395
O O11 0.930170 0.938073 0.064967
O O12 0.844443 0.030167 0.902788
O O13 0.672568 0.250000 0.804681
O O14 0.746325 0.136043 0.820253
O O15 0.910626 0.630600 0.507585
O O16 0.955696 0.673915 0.180659
#
# Coordination Sequence:
#
# PCOD9361548 Si02
#       8
#     8   8   4   8   8   8   4   8
#     4  10  21  41  70 104 140 174 222 290 371 428
#     4  11  23  42  69  97 139 185 230 290 348 419
#     4  12  22  42  66 101 145 180 232 291 359 405
#     4  11  25  44  63  96 136 189 236 280 342 416
#     4  10  23  42  68 105 138 177 229 295 358 428
#     4  11  25  41  65  93 135 189 240 276 351 418
#     4  12  20  44  68 101 133 180 234 289 359 397
#     4  11  24  42  67  94 136 181 232 291 341 411
#
# _framework density 22.699742000000001
#
# number of rings (size 3 to 8) (size 9 to 14) (size 15 to 20)
#    0.000    1.143    5.000    1.286    2.000    9.143 
#    2.571    0.714    0.000    5.143    0.000    0.000 
#    0.000    0.000    0.000    0.000    0.000    0.000 
#
# Total GULP energy -156171.955549 kJ/mol
# GULP energy per Si atom -5577.569841 kJ/mol
# Density = 2.264808 g / cm^3
# Si number density = 22.699742 Si / 1000 Ang^3
#
#
#
# Elastic Constant Matrix: (Units=GPa)
#
#
# Indices 1 2 3 4 5 6 
#
# 1 118.8896 66.1181 43.3970 0.0000 0.0000 0.0000
# 2 66.1181 122.6945 69.2379 0.0000 0.0000 0.0000
# 3 43.3970 69.2379 66.3253 0.0000 0.0000 0.0000
# 4 0.0000 0.0000 0.0000 27.8760 0.0000 0.0000
# 5 0.0000 0.0000 0.0000 0.0000 42.3785 0.0000
# 6 0.0000 0.0000 0.0000 0.0000 0.0000 35.0625
#
#
#
# Elastic Compliance Matrix: (Units=1/GPa)
#
#
# Indices 1 2 3 4 5 6 
#
# 1 0.012210 -0.005041 -0.002727 0.000000 0.000000 0.000000
# 2 -0.005041 0.021916 -0.019580 0.000000 0.000000 0.000000
# 3 -0.002727 -0.019580 0.037301 0.000000 0.000000 0.000000
# 4 0.000000 0.000000 0.000000 0.035873 0.000000 0.000000
# 5 0.000000 0.000000 0.000000 0.000000 0.023597 0.000000
# 6 0.000000 0.000000 0.000000 0.000000 0.000000 0.028520
#
#
# Mechanical properties :
#
#
# Convention : Reuss Voigt Hill
#
# Bulk Modulus (GPa) = 59.76694 73.93504 66.85099
# Shear Modulus (GPa) = 22.75927 29.67384 26.21656
#
# Velocity S-wave (km/s) = 3.16986 3.61949 3.40211
# Velocity P-wave (km/s) = 6.30744 7.07878 6.70422
#
# Compressibility (1/GPa) = 0.01673166
#
# Stress axis : x y z
#
# Youngs Moduli (GPa) = 81.90071 45.62831 26.80878
#
# Poissons Ratio (x) = 0.23002 0.07309
# Poissons Ratio (y) = 0.41287 0.52492
# Poissons Ratio (z) = 0.22330 0.89341
#
# Static dielectric constant tensor:
#      x y z
#    x 1.854140 0.000000 0.000000 
#    y 0.000000 1.807080 0.000000 
#    z 0.000000 0.000000 1.975410 
# 
# From -- ./inp_files/3437.got.cif
#   From: 2010.05.17/outbox.cif.g08.bks.cpg/sg39_2_cif.got.tgz:3437.got - 2010.06.03 18:22:40.
