data_PCOD9361773
_publ_section_title
;
Structure prediction by ZEFSAII (Michael W. Deem and Ramdas Pophale) SiO2 
 PCOD9361773
Probable space group: A B M 2
;
_chemical_formula_sum "Si O2"
_cell_formula_units_Z 56
_cell_length_a 10.899817
_cell_length_b 22.073376
_cell_length_c 11.288426
_cell_angle_alpha 90.000000
_cell_angle_beta 90.000000
_cell_angle_gamma 90.000000
_cell_volume 2715.947421
_symmetry_space_group_name_H-M "A B M 2"
_symmetry_group_IT_number 39
_symmetry_cell_setting 'orthorhombic'
loop_
_space_group_symop_operation_xyz
x,y,z
-x,-y,z
-x,1/2+y,z
x,1/2-y,z
x,1/2+y,1/2+z
-x,1/2-y,1/2+z
-x,y,1/2+z
x,-y,1/2+z
loop_
_atom_site_type_symbol
_atom_site_label
_atom_site_fract_x
_atom_site_fract_y
_atom_site_fract_z
Si Si1 0.820146 0.953079 0.031450
Si Si2 0.918255 0.250000 0.702106
Si Si3 0.775379 0.873603 0.257304
Si Si4 0.295816 0.642518 0.382326
Si Si5 0.103592 0.250000 0.930552
Si Si6 0.748466 0.179628 0.123799
Si Si7 0.898313 0.415374 0.997668
Si Si8 0.433721 0.180209 0.401844
O O1 0.777016 0.921216 0.151511
O O2 0.960337 0.932423 0.008813
O O3 0.821113 0.025380 0.035038
O O4 0.742484 0.923437 0.926197
O O5 0.835662 0.310062 0.718406
O O6 0.956338 0.250000 0.562154
O O7 0.011612 0.250000 0.816485
O O8 0.858742 0.898185 0.365163
O O9 0.639694 0.859594 0.306452
O O10 0.191796 0.691002 0.421967
O O11 0.301938 0.649562 0.241795
O O12 0.429180 0.659939 0.429814
O O13 0.774990 0.250000 0.147663
O O14 0.864303 0.140986 0.080610
O O15 0.650365 0.177497 0.018473
O O16 0.438151 0.250000 0.360398
#
# Coordination Sequence:
#
# PCOD9361773 Si02
#       8
#     8   4   8   8   4   8   8   8
#     4  11  26  43  70  97 135 181 228 278 346 426
#     4  12  26  41  68 104 150 169 237 293 362 422
#     4  11  24  43  69  99 134 183 225 284 351 412
#     4  12  24  41  67 100 134 180 234 277 342 418
#     4  12  26  41  64 110 144 181 219 301 352 424
#     4  10  23  42  69  98 131 175 224 289 348 405
#     4  10  26  46  68  98 135 182 225 285 357 417
#     4  10  22  43  66  99 138 182 226 288 349 407
#
# _framework density 20.618957000000002
#
# number of rings (size 3 to 8) (size 9 to 14) (size 15 to 20)
#    0.000    1.143    3.571    0.857    9.000    2.286 
#    1.286    2.857    0.000    0.000    0.000    0.000 
#    0.000    0.000    0.000    0.000    0.000    0.000 
#
# Total GULP energy -156603.358304 kJ/mol
# GULP energy per Si atom -5592.977082 kJ/mol
# Density = 2.057203 g / cm^3
# Si number density = 20.618957 Si / 1000 Ang^3
#
#
#
# Elastic Constant Matrix: (Units=GPa)
#
#
# Indices 1 2 3 4 5 6 
#
# 1 62.6385 10.2461 10.7280 0.0000 0.0000 0.0000
# 2 10.2461 83.7516 37.1687 0.0000 0.0000 0.0000
# 3 10.7280 37.1687 76.0274 0.0000 0.0000 0.0000
# 4 0.0000 0.0000 0.0000 26.2913 0.0000 0.0000
# 5 0.0000 0.0000 0.0000 0.0000 6.4210 0.0000
# 6 0.0000 0.0000 0.0000 0.0000 0.0000 26.7680
#
#
#
# Elastic Compliance Matrix: (Units=1/GPa)
#
#
# Indices 1 2 3 4 5 6 
#
# 1 0.016463 -0.001255 -0.001709 0.000000 0.000000 0.000000
# 2 -0.001255 0.015344 -0.007324 0.000000 0.000000 0.000000
# 3 -0.001709 -0.007324 0.016975 0.000000 0.000000 0.000000
# 4 0.000000 0.000000 0.000000 0.038035 0.000000 0.000000
# 5 0.000000 0.000000 0.000000 0.000000 0.155738 0.000000
# 6 0.000000 0.000000 0.000000 0.000000 0.000000 0.037358
#
#
# Mechanical properties :
#
#
# Convention : Reuss Voigt Hill
#
# Bulk Modulus (GPa) = 35.45616 37.63368 36.54492
# Shear Modulus (GPa) = 16.13459 22.84771 19.49115
#
# Velocity S-wave (km/s) = 2.80038 3.33241 3.07791
# Velocity P-wave (km/s) = 5.26207 5.75311 5.51306
#
# Compressibility (1/GPa) = 0.02820384
#
# Stress axis : x y z
#
# Youngs Moduli (GPa) = 60.74324 65.17122 58.90973
#
# Poissons Ratio (x) = 0.08182 0.10069
# Poissons Ratio (y) = 0.07626 0.43148
# Poissons Ratio (z) = 0.10382 0.47734
#
# Static dielectric constant tensor:
#      x y z
#    x 1.734380 0.000000 0.000000 
#    y 0.000000 1.714340 0.000000 
#    z 0.000000 0.000000 1.742420 
# 
# From -- ./inp_files/5990.got.cif
#   From: 2010.05.17/outbox.cif.g08.bks.cpg/sg39_3_cif.got.tgz:5990.got - 2010.06.03 18:22:40.
