data_PCOD9361630
_publ_section_title
;
Structure prediction by ZEFSAII (Michael W. Deem and Ramdas Pophale) SiO2 
 PCOD9361630
Probable space group: A B M 2
;
_chemical_formula_sum "Si O2"
_cell_formula_units_Z 64
_cell_length_a 15.076066
_cell_length_b 8.946095
_cell_length_c 24.331142
_cell_angle_alpha 90.000000
_cell_angle_beta 90.000000
_cell_angle_gamma 90.000000
_cell_volume 3281.587805
_symmetry_space_group_name_H-M "A B M 2"
_symmetry_group_IT_number 39
_symmetry_cell_setting 'orthorhombic'
loop_
_space_group_symop_operation_xyz
x,y,z
-x,-y,z
-x,1/2+y,z
x,1/2-y,z
x,1/2+y,1/2+z
-x,1/2-y,1/2+z
-x,y,1/2+z
x,-y,1/2+z
loop_
_atom_site_type_symbol
_atom_site_label
_atom_site_fract_x
_atom_site_fract_y
_atom_site_fract_z
Si Si1 0.254043 0.925933 0.072020
Si Si2 0.596576 0.928532 0.661182
Si Si3 0.895316 0.041531 0.762621
Si Si4 0.297980 0.432326 0.262621
Si Si5 0.254042 0.425933 0.953223
Si Si6 0.907176 0.083862 0.633861
Si Si7 0.596576 0.428532 0.364061
Si Si8 0.907176 0.416138 0.891381
O O1 0.238245 0.750000 0.066162
O O2 0.343711 0.947076 0.106927
O O3 0.173437 0.996307 0.106574
O O4 0.259628 1.000000 0.012621
O O5 0.591110 0.750000 0.673600
O O6 0.646564 0.017038 0.709763
O O7 0.500000 0.000000 0.654563
O O8 0.892033 0.098213 0.699530
O O9 0.892034 0.098213 0.825713
O O10 0.794991 0.975067 0.762622
O O11 0.000000 0.000000 0.762621
O O12 0.719061 0.750000 0.262621
O O13 0.353436 0.482961 0.315480
O O14 0.238243 0.250000 0.959082
O O15 0.343711 0.447072 0.918316
O O16 0.173437 0.496307 0.918669
O O17 0.911994 0.250000 0.610238
O O18 0.000000 0.000000 0.625384
O O19 0.500000 0.500000 0.370680
O O20 0.591109 0.250000 0.351642
O O21 0.911994 0.250000 0.915005
O O22 0.000000 0.500000 0.899858
#
# Coordination Sequence:
#
# PCOD9361630 Si02
#       8
#     8   8   8   8   8   8   8   8
#     4  11  25  44  66  93 124 164 214 265 319 374
#     4  11  25  44  66  96 128 166 210 261 320 379
#     4  10  22  38  63 101 135 172 209 249 310 374
#     4  12  22  40  68  99 133 172 211 255 314 375
#     4  11  25  44  66  93 124 164 214 265 319 374
#     4  11  22  40  64  95 132 170 212 256 312 374
#     4  11  25  44  66  96 128 166 210 261 320 379
#     4  11  22  40  64  95 132 170 212 256 312 374
#
# _framework density 19.502752999999998
#
# number of rings (size 3 to 8) (size 9 to 14) (size 15 to 20)
#    0.000    1.000    2.500    4.125    0.000    4.000 
#    0.000    9.375    0.000    0.000    0.000    0.000 
#    0.000    0.000    0.000    0.000    0.000    0.000 
#
# Total GULP energy -178280.675604 kJ/mol
# GULP energy per Si atom -5571.271113 kJ/mol
# Density = 1.945836 g / cm^3
# Si number density = 19.502753 Si / 1000 Ang^3
#
#
#
# Elastic Constant Matrix: (Units=GPa)
#
#
# Indices 1 2 3 4 5 6 
#
# 1 183.0078 78.3421 62.5118 0.0000 0.0000 0.0000
# 2 78.3421 122.4510 72.8449 0.0000 0.0000 0.0000
# 3 62.5118 72.8449 132.6403 0.0000 0.0000 0.0000
# 4 0.0000 0.0000 0.0000 -45.4204 0.0000 0.0000
# 5 0.0000 0.0000 0.0000 0.0000 6.0608 0.0000
# 6 0.0000 0.0000 0.0000 0.0000 0.0000 21.8392
#
#
#
# Elastic Compliance Matrix: (Units=1/GPa)
#
#
# Indices 1 2 3 4 5 6 
#
# 1 0.007689 -0.004105 -0.001370 0.000000 0.000000 0.000000
# 2 -0.004105 0.014320 -0.005930 0.000000 0.000000 0.000000
# 3 -0.001370 -0.005930 0.011441 0.000000 0.000000 0.000000
# 4 0.000000 0.000000 0.000000 -0.022017 0.000000 0.000000
# 5 0.000000 0.000000 0.000000 0.000000 0.164996 0.000000
# 6 0.000000 0.000000 0.000000 0.000000 0.000000 0.045789
#
#
# Mechanical properties :
#
#
# Convention : Reuss Voigt Hill
#
# Bulk Modulus (GPa) = 93.96522 96.16631 95.06576
# Shear Modulus (GPa) = 20.11459 11.45593 15.78526
#
# Velocity S-wave (km/s) = 3.21498 2.42626 2.84806
# Velocity P-wave (km/s) = 7.87823 7.56737 7.72437
#
# Compressibility (1/GPa) = 0.01064224
#
# Stress axis : x y z
#
# Youngs Moduli (GPa) = 130.05252 69.83026 87.40150
#
# Poissons Ratio (x) = 0.28663 0.11970
# Poissons Ratio (y) = 0.53382 0.51831
# Poissons Ratio (z) = 0.17812 0.41411
#
# Static dielectric constant tensor:
#      x y z
#    x 1.645610 0.000000 0.000000 
#    y 0.000000 1.695590 0.000000 
#    z 0.000000 0.000000 1.648700 
# 
# From -- ./inp_files/16219.got.cif
#   From: 2010.05.17/outbox.cif.g08.bks.cpg/sg39_9_cif.got.tgz:16219.got - 2010.06.03 18:22:40.
