data_PCOD9361589
_publ_section_title
;
Structure prediction by ZEFSAII (Michael W. Deem and Ramdas Pophale) SiO2 
 PCOD9361589
Probable space group: A B M 2
;
_chemical_formula_sum "Si O2"
_cell_formula_units_Z 60
_cell_length_a 14.352456
_cell_length_b 22.478444
_cell_length_c 9.009871
_cell_angle_alpha 90.000000
_cell_angle_beta 90.000000
_cell_angle_gamma 90.000000
_cell_volume 2906.772497
_symmetry_space_group_name_H-M "A B M 2"
_symmetry_group_IT_number 39
_symmetry_cell_setting 'orthorhombic'
loop_
_space_group_symop_operation_xyz
x,y,z
-x,-y,z
-x,1/2+y,z
x,1/2-y,z
x,1/2+y,1/2+z
-x,1/2-y,1/2+z
-x,y,1/2+z
x,-y,1/2+z
loop_
_atom_site_type_symbol
_atom_site_label
_atom_site_fract_x
_atom_site_fract_y
_atom_site_fract_z
Si Si1 0.691462 0.922465 0.327900
Si Si2 0.034693 0.319851 0.032718
Si Si3 0.786879 0.187049 0.321889
Si Si4 0.603617 0.010090 0.554094
Si Si5 0.122609 0.859598 0.841925
Si Si6 0.174783 0.750000 0.019998
Si Si7 0.436229 0.320258 0.208594
Si Si8 0.396891 0.628843 0.385463
O O1 0.665558 0.962200 0.184476
O O2 0.801935 0.911184 0.331615
O O3 0.637496 0.860320 0.299286
O O4 0.650964 0.954100 0.474288
O O5 0.992448 0.250000 0.037268
O O6 0.070642 0.341397 0.189992
O O7 0.121989 0.318577 0.922279
O O8 0.959023 0.363507 0.963562
O O9 0.739921 0.250000 0.369398
O O10 0.815718 0.198691 0.153442
O O11 0.710820 0.137257 0.344252
O O12 0.588339 0.060539 0.428000
O O13 0.500000 0.000000 0.615100
O O14 0.177144 0.801462 0.893101
O O15 0.429869 0.250000 0.237504
O O16 0.536592 0.345731 0.258374
O O17 0.419405 0.334744 0.035915
#
# Coordination Sequence:
#
# PCOD9361589 Si02
#       8
#     8   8   8   8   8   4   8   8
#     4  11  27  44  71 101 136 182 240 302 348 415
#     4  11  20  37  69  95 146 180 223 275 339 443
#     4   9  21  39  61  99 136 187 219 280 344 424
#     4  11  23  47  74  98 132 189 257 299 337 412
#     4  12  24  41  65 108 135 183 226 287 355 417
#     4  10  22  36  62  92 142 172 228 262 342 426
#     4  11  23  38  63  99 142 183 214 290 359 438
#     4  11  23  41  64  95 138 184 239 283 350 410
#
# _framework density 20.641449000000001
#
# number of rings (size 3 to 8) (size 9 to 14) (size 15 to 20)
#    0.400    0.800    2.667    4.000    2.800    3.200 
#    0.000    1.333    0.000    6.400    0.000    0.000 
#    0.000    0.000    0.000    0.000    0.000    0.000 
#
# Total GULP energy -167139.860075 kJ/mol
# GULP energy per Si atom -5571.328669 kJ/mol
# Density = 2.059447 g / cm^3
# Si number density = 20.641449 Si / 1000 Ang^3
#
#
#
# Elastic Constant Matrix: (Units=GPa)
#
#
# Indices 1 2 3 4 5 6 
#
# 1 185.0897 55.3148 32.3883 0.0000 0.0000 0.0000
# 2 55.3148 66.2448 33.5116 0.0000 0.0000 0.0000
# 3 32.3883 33.5116 116.1181 0.0000 0.0000 0.0000
# 4 0.0000 0.0000 0.0000 26.9061 0.0000 0.0000
# 5 0.0000 0.0000 0.0000 0.0000 21.6782 0.0000
# 6 0.0000 0.0000 0.0000 0.0000 0.0000 43.0233
#
#
#
# Elastic Compliance Matrix: (Units=1/GPa)
#
#
# Indices 1 2 3 4 5 6 
#
# 1 0.007210 -0.005858 -0.000320 0.000000 0.000000 0.000000
# 2 -0.005858 0.022436 -0.004841 0.000000 0.000000 0.000000
# 3 -0.000320 -0.004841 0.010098 0.000000 0.000000 0.000000
# 4 0.000000 0.000000 0.000000 0.037166 0.000000 0.000000
# 5 0.000000 0.000000 0.000000 0.000000 0.046129 0.000000
# 6 0.000000 0.000000 0.000000 0.000000 0.000000 0.023243
#
#
# Mechanical properties :
#
#
# Convention : Reuss Voigt Hill
#
# Bulk Modulus (GPa) = 56.48064 67.76465 62.12264
# Shear Modulus (GPa) = 28.69888 34.73740 31.71814
#
# Velocity S-wave (km/s) = 3.73279 4.10676 3.92423
# Velocity P-wave (km/s) = 6.78236 7.44231 7.11999
#
# Compressibility (1/GPa) = 0.01770518
#
# Stress axis : x y z
#
# Youngs Moduli (GPa) = 138.70580 44.57144 99.02572
#
# Poissons Ratio (x) = 0.26110 0.03172
# Poissons Ratio (y) = 0.81253 0.47939
# Poissons Ratio (z) = 0.04443 0.21577
#
# Static dielectric constant tensor:
#      x y z
#    x 1.713930 0.000000 0.000000 
#    y 0.000000 1.745040 0.000000 
#    z 0.000000 0.000000 1.729220 
# 
# From -- ./inp_files/3487.got.cif
#   From: 2010.05.17/outbox.cif.g08.bks.cpg/sg39_2_cif.got.tgz:3487.got - 2010.06.03 18:22:40.
