data_PCOD9361816
_publ_section_title
;
Structure prediction by ZEFSAII (Michael W. Deem and Ramdas Pophale) SiO2 
 PCOD9361816
Probable space group: A B M 2
;
_chemical_formula_sum "Si O2"
_cell_formula_units_Z 36
_cell_length_a 15.680971
_cell_length_b 23.626640
_cell_length_c 5.222794
_cell_angle_alpha 90.000000
_cell_angle_beta 90.000000
_cell_angle_gamma 90.000000
_cell_volume 1934.985933
_symmetry_space_group_name_H-M "A B M 2"
_symmetry_group_IT_number 39
_symmetry_cell_setting 'orthorhombic'
loop_
_space_group_symop_operation_xyz
x,y,z
-x,-y,z
-x,1/2+y,z
x,1/2-y,z
x,1/2+y,1/2+z
-x,1/2-y,1/2+z
-x,y,1/2+z
x,-y,1/2+z
loop_
_atom_site_type_symbol
_atom_site_label
_atom_site_fract_x
_atom_site_fract_y
_atom_site_fract_z
Si Si1 0.902652 0.976725 0.336830
Si Si2 0.548482 0.818720 0.805998
Si Si3 0.742336 0.318929 0.451655
Si Si4 0.954937 0.750000 0.269144
Si Si5 0.159886 0.853576 0.941098
O O1 0.890143 0.912798 0.426518
O O2 0.862749 0.015096 0.558457
O O3 0.000000 0.000000 0.304668
O O4 0.545469 0.750000 0.800531
O O5 0.514859 0.838103 0.530950
O O6 0.645423 0.832964 0.874423
O O7 0.749189 0.250000 0.476801
O O8 0.768298 0.347490 0.720273
O O9 0.802214 0.340223 0.219982
O O10 0.905298 0.694948 0.359248
O O11 0.035329 0.750000 0.463100
#
# Coordination Sequence:
#
# PCOD9361816 Si02
#       5
#     8   8   8   4   8
#     4  10  23  40  58  76 101 142 193 247 292 326
#     4   9  17  29  49  78 116 158 187 209 254 334
#     4  11  20  36  55  85 122 154 184 227 282 340
#     4  12  26  36  56  80 110 150 190 238 282 356
#     4  12  23  39  57  81 114 148 197 237 292 336
#
# _framework density 18.604787000000002
#
# number of rings (size 3 to 8) (size 9 to 14) (size 15 to 20)
#    0.000    1.333    2.222    4.000    6.222    3.556 
#    0.000    0.000    0.000    0.000    0.000    0.000 
#    0.000   62.222    0.000    0.000    0.000    0.000 
#
# Total GULP energy -100400.543403 kJ/mol
# GULP energy per Si atom -5577.807967 kJ/mol
# Density = 1.856244 g / cm^3
# Si number density = 18.604787 Si / 1000 Ang^3
#
#
#
# Elastic Constant Matrix: (Units=GPa)
#
#
# Indices 1 2 3 4 5 6 
#
# 1 42.2966 10.2410 -16.5782 0.0000 0.0000 0.0000
# 2 10.2410 61.8759 -20.0416 0.0000 0.0000 0.0000
# 3 -16.5782 -20.0416 72.7967 0.0000 0.0000 0.0000
# 4 0.0000 0.0000 0.0000 33.8227 0.0000 0.0000
# 5 0.0000 0.0000 0.0000 0.0000 35.9482 0.0000
# 6 0.0000 0.0000 0.0000 0.0000 0.0000 12.2327
#
#
#
# Elastic Compliance Matrix: (Units=1/GPa)
#
#
# Indices 1 2 3 4 5 6 
#
# 1 0.026351 -0.002654 0.005270 0.000000 0.000000 0.000000
# 2 -0.002654 0.018011 0.004354 0.000000 0.000000 0.000000
# 3 0.005270 0.004354 0.016136 0.000000 0.000000 0.000000
# 4 0.000000 0.000000 0.000000 0.029566 0.000000 0.000000
# 5 0.000000 0.000000 0.000000 0.000000 0.027818 0.000000
# 6 0.000000 0.000000 0.000000 0.000000 0.000000 0.081748
#
#
# Mechanical properties :
#
#
# Convention : Reuss Voigt Hill
#
# Bulk Modulus (GPa) = 13.43403 13.80129 13.61766
# Shear Modulus (GPa) = 23.75273 29.95726 26.85500
#
# Velocity S-wave (km/s) = 3.57697 4.01707 3.80339
# Velocity P-wave (km/s) = 4.92910 5.38053 5.15975
#
# Compressibility (1/GPa) = 0.07443782
#
# Stress axis : x y z
#
# Youngs Moduli (GPa) = 37.94937 55.52166 61.97393
#
# Poissons Ratio (x) = 0.14737 -0.32662
# Poissons Ratio (y) = 0.10073 -0.26984
# Poissons Ratio (z) = -0.20000 -0.24175
#
# Static dielectric constant tensor:
#      x y z
#    x 1.600280 0.000000 0.000000 
#    y 0.000000 1.588250 0.000000 
#    z 0.000000 0.000000 1.723780 
# 
# From -- ./inp_files/480.got.cif
#   From: 2010.05.17/outbox.cif.g08.bks.cpg/sg39_1_cif.got.tgz:480.got - 2010.06.03 18:22:40.
