data_PCOD9361365
_publ_section_title
;
Structure prediction by ZEFSAII (Michael W. Deem and Ramdas Pophale) SiO2 
 PCOD9361365
Probable space group: A B M 2
;
_chemical_formula_sum "Si O2"
_cell_formula_units_Z 40
_cell_length_a 9.909329
_cell_length_b 14.017037
_cell_length_c 13.438257
_cell_angle_alpha 90.000000
_cell_angle_beta 90.000000
_cell_angle_gamma 90.000000
_cell_volume 1866.566254
_symmetry_space_group_name_H-M "A B M 2"
_symmetry_group_IT_number 39
_symmetry_cell_setting 'orthorhombic'
loop_
_space_group_symop_operation_xyz
x,y,z
-x,-y,z
-x,1/2+y,z
x,1/2-y,z
x,1/2+y,1/2+z
-x,1/2-y,1/2+z
-x,y,1/2+z
x,-y,1/2+z
loop_
_atom_site_type_symbol
_atom_site_label
_atom_site_fract_x
_atom_site_fract_y
_atom_site_fract_z
Si Si1 0.616473 0.643013 0.498150
Si Si2 0.846447 0.990247 0.407163
Si Si3 0.576012 0.145910 0.236881
Si Si4 0.313057 0.636574 0.506404
Si Si5 0.296270 0.439212 0.228434
O O1 0.643568 0.750000 0.461856
O O2 0.738517 0.574640 0.467947
O O3 0.596918 0.649777 0.617197
O O4 0.464585 0.611937 0.469010
O O5 0.835332 0.942084 0.297591
O O6 0.789194 0.096477 0.425433
O O7 0.000000 0.000000 0.440265
O O8 0.620447 0.250000 0.276735
O O9 0.417118 0.131794 0.259739
O O10 0.645814 0.044283 0.253373
O O11 0.307775 0.750000 0.521692
O O12 0.280815 0.585120 0.612141
#
# Coordination Sequence:
#
# PCOD9361365 Si02
#       5
#     8   8   8   8   8
#     4   9  19  39  67  93 120 159 214 273 326 374
#     4  12  26  40  61  94 140 177 213 260 333 409
#     4   9  18  36  64  94 120 154 210 276 326 371
#     4  10  22  44  70  95 125 169 226 284 327 379
#     4  10  21  38  62  92 128 167 211 265 331 389
#
# _framework density 21.429724
#
# number of rings (size 3 to 8) (size 9 to 14) (size 15 to 20)
#    0.000    2.000    2.000    2.400    5.600    4.000 
#    0.000    0.000    0.000    0.000    0.000    0.000 
#    0.000    0.000    0.000    0.000    0.000    0.000 
#
# Total GULP energy -111419.516146 kJ/mol
# GULP energy per Si atom -5570.975807 kJ/mol
# Density = 2.138095 g / cm^3
# Si number density = 21.429724 Si / 1000 Ang^3
#
#
#
# Elastic Constant Matrix: (Units=GPa)
#
#
# Indices 1 2 3 4 5 6 
#
# 1 118.0523 45.4197 21.4336 0.0000 0.0000 0.0000
# 2 45.4197 139.7436 26.4540 0.0000 0.0000 0.0000
# 3 21.4336 26.4540 86.3759 0.0000 0.0000 0.0000
# 4 0.0000 0.0000 0.0000 20.2347 0.0000 0.0000
# 5 0.0000 0.0000 0.0000 0.0000 15.9908 0.0000
# 6 0.0000 0.0000 0.0000 0.0000 0.0000 13.6655
#
#
#
# Elastic Compliance Matrix: (Units=1/GPa)
#
#
# Indices 1 2 3 4 5 6 
#
# 1 0.009875 -0.002915 -0.001558 0.000000 0.000000 0.000000
# 2 -0.002915 0.008457 -0.001867 0.000000 0.000000 0.000000
# 3 -0.001558 -0.001867 0.012536 0.000000 0.000000 0.000000
# 4 0.000000 0.000000 0.000000 0.049420 0.000000 0.000000
# 5 0.000000 0.000000 0.000000 0.000000 0.062536 0.000000
# 6 0.000000 0.000000 0.000000 0.000000 0.000000 0.073177
#
#
# Mechanical properties :
#
#
# Convention : Reuss Voigt Hill
#
# Bulk Modulus (GPa) = 54.97853 58.97626 56.97740
# Shear Modulus (GPa) = 21.30000 26.70250 24.00125
#
# Velocity S-wave (km/s) = 3.15611 3.53377 3.35027
# Velocity P-wave (km/s) = 6.24439 6.65061 6.45070
#
# Compressibility (1/GPa) = 0.01818892
#
# Stress axis : x y z
#
# Youngs Moduli (GPa) = 101.26519 118.24967 79.77305
#
# Poissons Ratio (x) = 0.34466 0.12427
# Poissons Ratio (y) = 0.29516 0.14891
# Poissons Ratio (z) = 0.15775 0.22074
#
# Static dielectric constant tensor:
#      x y z
#    x 1.767130 0.000000 0.000000 
#    y 0.000000 1.816330 0.000000 
#    z 0.000000 0.000000 1.903820 
# 
# From -- ./inp_files/8068.got.cif
#   From: 2010.05.17/outbox.cif.g08.bks.cpg/sg39_5_cif.got.tgz:8068.got - 2010.06.03 18:22:40.
