data_PCOD9361830
_publ_section_title
;
Structure prediction by ZEFSAII (Michael W. Deem and Ramdas Pophale) SiO2 
 PCOD9361830
Probable space group: A B M 2
;
_chemical_formula_sum "Si O2"
_cell_formula_units_Z 60
_cell_length_a 5.996037
_cell_length_b 19.112504
_cell_length_c 22.754546
_cell_angle_alpha 90.000000
_cell_angle_beta 90.000000
_cell_angle_gamma 90.000000
_cell_volume 2607.654614
_symmetry_space_group_name_H-M "A B M 2"
_symmetry_group_IT_number 39
_symmetry_cell_setting 'orthorhombic'
loop_
_space_group_symop_operation_xyz
x,y,z
-x,-y,z
-x,1/2+y,z
x,1/2-y,z
x,1/2+y,1/2+z
-x,1/2-y,1/2+z
-x,y,1/2+z
x,-y,1/2+z
loop_
_atom_site_type_symbol
_atom_site_label
_atom_site_fract_x
_atom_site_fract_y
_atom_site_fract_z
Si Si1 0.209353 0.250000 0.147970
Si Si2 0.158552 0.936006 0.501732
Si Si3 0.498103 0.366792 0.080625
Si Si4 0.223875 0.668287 0.964905
Si Si5 0.728503 0.172058 0.754862
Si Si6 0.553101 0.573619 0.889228
Si Si7 0.073170 0.424373 0.806276
Si Si8 0.633167 0.072538 0.196689
O O1 0.337508 0.309710 0.109402
O O2 0.127434 0.309884 0.196314
O O3 0.328199 0.923109 0.554312
O O4 0.306830 0.952507 0.445260
O O5 0.008224 0.869452 0.482226
O O6 0.000000 0.000000 0.515283
O O7 0.659376 0.397060 0.131098
O O8 0.632967 0.336844 0.025224
O O9 0.197362 0.750000 0.948865
O O10 0.361200 0.622934 0.916345
O O11 0.659902 0.250000 0.775295
O O12 0.521816 0.128599 0.730767
O O13 0.866756 0.127585 0.800508
O O14 0.500000 0.500000 0.856867
O O15 0.731721 0.608879 0.845895
O O16 0.161054 0.437333 0.740219
O O17 0.000000 0.500000 0.831015
O O18 0.500000 0.000000 0.192504
#
# Coordination Sequence:
#
# PCOD9361830 Si02
#       8
#     4   8   8   8   8   8   8   8
#     4   8  18  44  60  88 144 186 216 272 342 412
#     4  11  24  43  68 103 133 179 238 289 352 422
#     4  10  23  41  66  97 144 185 227 282 350 420
#     4  11  25  45  72 107 137 177 232 291 358 417
#     4   9  22  44  63  96 138 177 229 282 335 409
#     4  11  25  46  75  97 137 183 233 293 358 416
#     4  12  25  43  73 103 135 189 240 288 350 413
#     4  11  23  42  65  97 143 185 234 287 341 413
#
# _framework density 23.009181999999999
#
# number of rings (size 3 to 8) (size 9 to 14) (size 15 to 20)
#    0.400    1.067    3.333    0.800    2.800    3.733 
#    0.000    1.333    0.000    0.000    0.000    0.000 
#    0.000    0.000    0.000    0.000    0.000    0.000 
#
# Total GULP energy -167020.920583 kJ/mol
# GULP energy per Si atom -5567.364019 kJ/mol
# Density = 2.295681 g / cm^3
# Si number density = 23.009182 Si / 1000 Ang^3
#
#
#
# Elastic Constant Matrix: (Units=GPa)
#
#
# Indices 1 2 3 4 5 6 
#
# 1 53.3581 17.5968 20.9852 0.0000 0.0000 0.0000
# 2 17.5968 120.3962 11.0752 0.0000 0.0000 0.0000
# 3 20.9852 11.0752 104.6312 0.0000 0.0000 0.0000
# 4 0.0000 0.0000 0.0000 14.1749 0.0000 0.0000
# 5 0.0000 0.0000 0.0000 0.0000 46.4447 0.0000
# 6 0.0000 0.0000 0.0000 0.0000 0.0000 21.1717
#
#
#
# Elastic Compliance Matrix: (Units=1/GPa)
#
#
# Indices 1 2 3 4 5 6 
#
# 1 0.021202 -0.002734 -0.003963 0.000000 0.000000 0.000000
# 2 -0.002734 0.008740 -0.000377 0.000000 0.000000 0.000000
# 3 -0.003963 -0.000377 0.010392 0.000000 0.000000 0.000000
# 4 0.000000 0.000000 0.000000 0.070547 0.000000 0.000000
# 5 0.000000 0.000000 0.000000 0.000000 0.021531 0.000000
# 6 0.000000 0.000000 0.000000 0.000000 0.000000 0.047233
#
#
# Mechanical properties :
#
#
# Convention : Reuss Voigt Hill
#
# Bulk Modulus (GPa) = 38.18812 41.96664 40.07738
# Shear Modulus (GPa) = 24.68878 31.60681 28.14779
#
# Velocity S-wave (km/s) = 3.27922 3.71031 3.50141
# Velocity P-wave (km/s) = 5.56513 6.05260 5.81397
#
# Compressibility (1/GPa) = 0.02618615
#
# Stress axis : x y z
#
# Youngs Moduli (GPa) = 47.16638 114.41387 96.22733
#
# Poissons Ratio (x) = 0.31283 0.38133
# Poissons Ratio (y) = 0.12896 0.03625
# Poissons Ratio (z) = 0.18691 0.04311
#
# Static dielectric constant tensor:
#      x y z
#    x 1.871140 0.000000 0.000000 
#    y 0.000000 1.861110 0.000000 
#    z 0.000000 0.000000 1.885760 
# 
# From -- ./inp_files/15340.got.cif
#   From: 2010.05.17/outbox.cif.g08.bks.cpg/sg39_8_cif.got.tgz:15340.got - 2010.06.03 18:22:40.
