data_PCOD9361093
_publ_section_title
;
Structure prediction by ZEFSAII (Michael W. Deem and Ramdas Pophale) SiO2 
 PCOD9361093
Probable space group: A B M 2
;
_chemical_formula_sum "Si O2"
_cell_formula_units_Z 64
_cell_length_a 15.367972
_cell_length_b 16.188923
_cell_length_c 10.398752
_cell_angle_alpha 90.000000
_cell_angle_beta 90.000000
_cell_angle_gamma 90.000000
_cell_volume 2587.115029
_symmetry_space_group_name_H-M "A B M 2"
_symmetry_group_IT_number 39
_symmetry_cell_setting 'orthorhombic'
loop_
_space_group_symop_operation_xyz
x,y,z
-x,-y,z
-x,1/2+y,z
x,1/2-y,z
x,1/2+y,1/2+z
-x,1/2-y,1/2+z
-x,y,1/2+z
x,-y,1/2+z
loop_
_atom_site_type_symbol
_atom_site_label
_atom_site_fract_x
_atom_site_fract_y
_atom_site_fract_z
Si Si1 0.761676 0.094379 0.392300
Si Si2 0.411729 0.844594 0.342791
Si Si3 0.063150 0.083249 0.064240
Si Si4 0.848759 0.657069 0.648114
Si Si5 0.739316 0.925551 0.445433
Si Si6 0.594785 0.493207 0.135405
Si Si7 0.397391 0.659719 0.800099
Si Si8 0.010745 0.098538 0.316463
O O1 0.668438 0.130982 0.435891
O O2 0.843113 0.088518 0.490942
O O3 0.780539 0.146863 0.264722
O O4 0.758877 0.998790 0.346487
O O5 0.397944 0.750000 0.298245
O O6 0.513333 0.846121 0.383865
O O7 0.408400 0.916316 0.235109
O O8 0.004465 0.134044 0.958895
O O9 0.000000 0.000000 0.081295
O O10 0.085777 0.109987 0.211054
O O11 0.851540 0.750000 0.603051
O O12 0.821003 0.599717 0.530474
O O13 0.934627 0.632458 0.724946
O O14 0.688227 0.849499 0.386440
O O15 0.671084 0.970768 0.539259
O O16 0.500000 0.500000 0.069792
O O17 0.604885 0.579491 0.210264
O O18 0.399734 0.750000 0.735838
O O19 0.000000 0.000000 0.337316
#
# Coordination Sequence:
#
# PCOD9361093 Si02
#       8
#     8   8   8   8   8   8   8   8
#     4  11  22  36  61  89 124 165 201 263 321 390
#     4  10  20  39  59  83 124 168 211 262 315 376
#     4   9  18  35  59  88 122 159 210 256 321 397
#     4  11  23  40  62  94 127 162 214 266 317 388
#     4  12  21  35  63  91 120 163 217 263 313 377
#     4  10  22  37  59  84 125 162 211 260 318 376
#     4  10  22  39  58  84 125 168 209 264 318 368
#     4   9  18  36  61  90 126 165 208 259 320 399
#
# _framework density 24.737978999999999
#
# number of rings (size 3 to 8) (size 9 to 14) (size 15 to 20)
#    0.000    1.750    2.500    2.250    1.750    0.500 
#    0.000    4.375    0.000    0.000    0.000    0.875 
#    0.000    0.000    0.000    0.000    0.000    0.000 
#
# Total GULP energy -178246.573603 kJ/mol
# GULP energy per Si atom -5570.205425 kJ/mol
# Density = 2.468167 g / cm^3
# Si number density = 24.737979 Si / 1000 Ang^3
#
#
#
# Elastic Constant Matrix: (Units=GPa)
#
#
# Indices 1 2 3 4 5 6 
#
# 1 84.8442 3.9407 -21.4920 0.0000 0.0000 0.0000
# 2 3.9407 147.5576 11.1637 0.0000 0.0000 0.0000
# 3 -21.4920 11.1637 59.4273 0.0000 0.0000 0.0000
# 4 0.0000 0.0000 0.0000 42.9941 0.0000 0.0000
# 5 0.0000 0.0000 0.0000 0.0000 16.5343 0.0000
# 6 0.0000 0.0000 0.0000 0.0000 0.0000 30.1096
#
#
#
# Elastic Compliance Matrix: (Units=1/GPa)
#
#
# Indices 1 2 3 4 5 6 
#
# 1 0.013049 -0.000716 0.004854 0.000000 0.000000 0.000000
# 2 -0.000716 0.006914 -0.001558 0.000000 0.000000 0.000000
# 3 0.004854 -0.001558 0.018875 0.000000 0.000000 0.000000
# 4 0.000000 0.000000 0.000000 0.023259 0.000000 0.000000
# 5 0.000000 0.000000 0.000000 0.000000 0.060480 0.000000
# 6 0.000000 0.000000 0.000000 0.000000 0.000000 0.033212
#
#
# Mechanical properties :
#
#
# Convention : Reuss Voigt Hill
#
# Bulk Modulus (GPa) = 22.72789 31.00602 26.86696
# Shear Modulus (GPa) = 30.24888 37.80871 34.02880
#
# Velocity S-wave (km/s) = 3.50061 3.91367 3.71289
# Velocity P-wave (km/s) = 5.05434 5.74312 5.40971
#
# Compressibility (1/GPa) = 0.04399880
#
# Stress axis : x y z
#
# Youngs Moduli (GPa) = 76.63403 144.63458 52.97951
#
# Poissons Ratio (x) = 0.10352 -0.25714
# Poissons Ratio (y) = 0.05485 0.08252
# Poissons Ratio (z) = -0.37196 0.22529
#
# Static dielectric constant tensor:
#      x y z
#    x 2.266100 0.000000 0.000000 
#    y 0.000000 1.579140 0.000000 
#    z 0.000000 0.000000 2.072800 
# 
# From -- ./inp_files/6882.got.cif
#   From: 2010.05.17/outbox.cif.g08.bks.cpg/sg39_4_cif.got.tgz:6882.got - 2010.06.03 18:22:40.
