data_PCOD9361694
_publ_section_title
;
Structure prediction by ZEFSAII (Michael W. Deem and Ramdas Pophale) SiO2 
 PCOD9361694
Probable space group: A B M 2
;
_chemical_formula_sum "Si O2"
_cell_formula_units_Z 40
_cell_length_a 4.987735
_cell_length_b 25.956798
_cell_length_c 12.669845
_cell_angle_alpha 90.000000
_cell_angle_beta 90.000000
_cell_angle_gamma 90.000000
_cell_volume 1640.309463
_symmetry_space_group_name_H-M "A B M 2"
_symmetry_group_IT_number 39
_symmetry_cell_setting 'orthorhombic'
loop_
_space_group_symop_operation_xyz
x,y,z
-x,-y,z
-x,1/2+y,z
x,1/2-y,z
x,1/2+y,1/2+z
-x,1/2-y,1/2+z
-x,y,1/2+z
x,-y,1/2+z
loop_
_atom_site_type_symbol
_atom_site_label
_atom_site_fract_x
_atom_site_fract_y
_atom_site_fract_z
Si Si1 0.534404 0.691234 0.193540
Si Si2 0.163227 0.630158 0.030035
Si Si3 0.940663 0.844485 0.819731
Si Si4 0.929360 0.441181 0.698135
Si Si5 0.272610 0.965282 0.894420
O O1 0.557538 0.750000 0.158138
O O2 0.818476 0.674024 0.242439
O O3 0.326078 0.685089 0.289661
O O4 0.380789 0.658388 0.102927
O O5 0.013620 0.663734 0.941827
O O6 0.294581 0.586978 0.957709
O O7 0.955618 0.595594 0.098502
O O8 0.910618 0.905396 0.786300
O O9 0.671514 0.450944 0.771221
O O10 0.000000 0.500000 0.667491
O O11 0.500000 0.000000 0.941377
O O12 0.000000 0.000000 0.896821
#
# Coordination Sequence:
#
# PCOD9361694 Si02
#       5
#     8   8   8   8   8
#     4  11  25  45  68  94 126 169 222 278 335 391
#     4  10  23  42  68  96 130 172 220 269 327 391
#     4  10  24  44  65  96 134 168 213 274 330 390
#     4   9  20  39  65  96 132 171 211 257 313 384
#     4  10  22  40  63  96 137 176 212 258 321 390
#
# _framework density 24.385643999999999
#
# number of rings (size 3 to 8) (size 9 to 14) (size 15 to 20)
#    0.000    2.000    0.000    1.200    0.000   26.400 
#    0.000    2.000    0.000    0.000    0.000    0.000 
#    0.000    0.000    0.000    0.000    0.000    0.000 
#
# Total GULP energy -111482.301089 kJ/mol
# GULP energy per Si atom -5574.115054 kJ/mol
# Density = 2.433014 g / cm^3
# Si number density = 24.385644 Si / 1000 Ang^3
#
#
#
# Elastic Constant Matrix: (Units=GPa)
#
#
# Indices 1 2 3 4 5 6 
#
# 1 95.7241 38.7026 -10.4186 0.0000 0.0000 0.0000
# 2 38.7026 129.4428 32.9844 0.0000 0.0000 0.0000
# 3 -10.4186 32.9844 98.6071 0.0000 0.0000 0.0000
# 4 0.0000 0.0000 0.0000 83.6723 0.0000 0.0000
# 5 0.0000 0.0000 0.0000 0.0000 -30.5157 0.0000
# 6 0.0000 0.0000 0.0000 0.0000 0.0000 15.5639
#
#
#
# Elastic Compliance Matrix: (Units=1/GPa)
#
#
# Indices 1 2 3 4 5 6 
#
# 1 0.012564 -0.004476 0.002825 0.000000 0.000000 0.000000
# 2 -0.004476 0.010040 -0.003831 0.000000 0.000000 0.000000
# 3 0.002825 -0.003831 0.011721 0.000000 0.000000 0.000000
# 4 0.000000 0.000000 0.000000 0.011951 0.000000 0.000000
# 5 0.000000 0.000000 0.000000 0.000000 -0.032770 0.000000
# 6 0.000000 0.000000 0.000000 0.000000 0.000000 0.064251
#
#
# Mechanical properties :
#
#
# Convention : Reuss Voigt Hill
#
# Bulk Modulus (GPa) = 42.80898 49.59008 46.19953
# Shear Modulus (GPa) = 51.80778 31.24448 41.52613
#
# Velocity S-wave (km/s) = 4.61425 3.58336 4.13109
# Velocity P-wave (km/s) = 6.78097 6.12377 6.46073
#
# Compressibility (1/GPa) = 0.02335959
#
# Stress axis : x y z
#
# Youngs Moduli (GPa) = 79.59235 99.60010 85.31446
#
# Poissons Ratio (x) = 0.44585 -0.24100
# Poissons Ratio (y) = 0.35629 0.32688
# Poissons Ratio (z) = -0.22484 0.38161
#
# Static dielectric constant tensor:
#      x y z
#    x 2.067700 0.000000 0.000000 
#    y 0.000000 1.832150 0.000000 
#    z 0.000000 0.000000 2.058550 
# 
# From -- ./inp_files/4521.got.cif
#   From: 2010.05.17/outbox.cif.g08.bks.cpg/sg39_3_cif.got.tgz:4521.got - 2010.06.03 18:22:40.
