data_PCOD9361407
_publ_section_title
;
Structure prediction by ZEFSAII (Michael W. Deem and Ramdas Pophale) SiO2 
 PCOD9361407
Probable space group: A B M 2
;
_chemical_formula_sum "Si O2"
_cell_formula_units_Z 48
_cell_length_a 7.781482
_cell_length_b 10.415098
_cell_length_c 30.861019
_cell_angle_alpha 90.000000
_cell_angle_beta 90.000000
_cell_angle_gamma 90.000000
_cell_volume 2501.128125
_symmetry_space_group_name_H-M "A B M 2"
_symmetry_group_IT_number 39
_symmetry_cell_setting 'orthorhombic'
loop_
_space_group_symop_operation_xyz
x,y,z
-x,-y,z
-x,1/2+y,z
x,1/2-y,z
x,1/2+y,1/2+z
-x,1/2-y,1/2+z
-x,y,1/2+z
x,-y,1/2+z
loop_
_atom_site_type_symbol
_atom_site_label
_atom_site_fract_x
_atom_site_fract_y
_atom_site_fract_z
Si Si1 0.123824 0.388925 0.849340
Si Si2 0.769176 0.250000 0.983448
Si Si3 0.000000 0.500000 0.117363
Si Si4 0.367173 0.250000 0.000193
Si Si5 0.666654 0.903927 0.669901
Si Si6 0.625501 0.114563 0.268434
Si Si7 0.300975 0.484492 0.936547
Si Si8 0.058311 0.750000 0.559080
O O1 0.038999 0.250000 0.854896
O O2 0.256567 0.379776 0.810231
O O3 0.203294 0.430488 0.895114
O O4 0.000000 0.500000 0.835594
O O5 0.574730 0.250000 0.003939
O O6 0.772747 0.380782 0.954758
O O7 0.921347 0.250000 0.018907
O O8 0.170109 0.537024 0.144869
O O9 0.968719 0.623300 0.087297
O O10 0.308871 0.376323 0.973698
O O11 0.254749 0.250000 0.042955
O O12 0.637357 0.750000 0.658428
O O13 0.710388 0.903509 0.721359
O O14 0.500000 0.000000 0.664034
O O15 0.528325 0.250000 0.265217
O O16 0.500000 0.000000 0.275231
O O17 0.500000 0.500000 0.923421
#
# Coordination Sequence:
#
# PCOD9361407 Si02
#       8
#     8   4   4   4   8   8   8   4
#     4  11  24  37  56  91 128 166 208 255 305 367
#     4  10  24  40  64  93 121 166 219 263 324 384
#     4  12  26  44  66 100 136 168 216 270 340 406
#     4  10  22  42  64  87 125 166 213 267 318 380
#     4  10  23  44  72 100 133 176 219 268 329 392
#     4   9  20  41  64  92 127 166 211 258 308 373
#     4  10  21  39  61  87 122 165 210 260 314 373
#     4  12  26  42  66  94 126 172 208 272 334 394
#
# _framework density 19.191338999999999
#
# number of rings (size 3 to 8) (size 9 to 14) (size 15 to 20)
#    0.000    1.667    1.667    1.500    5.833    2.000 
#    0.000    0.000    0.000    0.000    0.000    0.000 
#    0.000    0.000    0.000    0.000    0.000    0.000 
#
# Total GULP energy -133819.082042 kJ/mol
# GULP energy per Si atom -5575.795085 kJ/mol
# Density = 1.914766 g / cm^3
# Si number density = 19.191339 Si / 1000 Ang^3
#
#
#
# Elastic Constant Matrix: (Units=GPa)
#
#
# Indices 1 2 3 4 5 6 
#
# 1 60.2764 45.6637 41.5627 0.0000 0.0000 0.0000
# 2 45.6637 176.3543 43.6824 0.0000 0.0000 0.0000
# 3 41.5627 43.6824 53.6912 0.0000 0.0000 0.0000
# 4 0.0000 0.0000 0.0000 20.5084 0.0000 0.0000
# 5 0.0000 0.0000 0.0000 0.0000 38.0499 0.0000
# 6 0.0000 0.0000 0.0000 0.0000 0.0000 29.6154
#
#
#
# Elastic Compliance Matrix: (Units=1/GPa)
#
#
# Indices 1 2 3 4 5 6 
#
# 1 0.036893 -0.003104 -0.026034 0.000000 0.000000 0.000000
# 2 -0.003104 0.007363 -0.003587 0.000000 0.000000 0.000000
# 3 -0.026034 -0.003587 0.041696 0.000000 0.000000 0.000000
# 4 0.000000 0.000000 0.000000 0.048760 0.000000 0.000000
# 5 0.000000 0.000000 0.000000 0.000000 0.026281 0.000000
# 6 0.000000 0.000000 0.000000 0.000000 0.000000 0.033766
#
#
# Mechanical properties :
#
#
# Convention : Reuss Voigt Hill
#
# Bulk Modulus (GPa) = 48.77572 61.34884 55.06228
# Shear Modulus (GPa) = 18.72351 28.26227 23.49289
#
# Velocity S-wave (km/s) = 3.12688 3.84168 3.50257
# Velocity P-wave (km/s) = 6.20542 7.19127 6.71646
#
# Compressibility (1/GPa) = 0.02050200
#
# Stress axis : x y z
#
# Youngs Moduli (GPa) = 27.10535 135.81904 23.98303
#
# Poissons Ratio (x) = 0.42163 0.62436
# Poissons Ratio (y) = 0.08414 0.08603
# Poissons Ratio (z) = 0.70565 0.48720
#
# Static dielectric constant tensor:
#      x y z
#    x 1.614010 0.000000 0.000000 
#    y 0.000000 1.740480 0.000000 
#    z 0.000000 0.000000 1.674410 
# 
# From -- ./inp_files/17693.got.cif
#   From: 2010.05.17/outbox.cif.g08.bks.cpg/sg39_9_cif.got.tgz:17693.got - 2010.06.03 18:22:40.
