data_PCOD9361503
_publ_section_title
;
Structure prediction by ZEFSAII (Michael W. Deem and Ramdas Pophale) SiO2 
 PCOD9361503
Probable space group: A B M 2
;
_chemical_formula_sum "Si O2"
_cell_formula_units_Z 64
_cell_length_a 12.180908
_cell_length_b 31.152601
_cell_length_c 8.862879
_cell_angle_alpha 90.000000
_cell_angle_beta 90.000000
_cell_angle_gamma 90.000000
_cell_volume 3363.169811
_symmetry_space_group_name_H-M "A B M 2"
_symmetry_group_IT_number 39
_symmetry_cell_setting 'orthorhombic'
loop_
_space_group_symop_operation_xyz
x,y,z
-x,-y,z
-x,1/2+y,z
x,1/2-y,z
x,1/2+y,1/2+z
-x,1/2-y,1/2+z
-x,y,1/2+z
x,-y,1/2+z
loop_
_atom_site_type_symbol
_atom_site_label
_atom_site_fract_x
_atom_site_fract_y
_atom_site_fract_z
Si Si1 0.565530 0.604448 0.659660
Si Si2 0.842121 0.370535 0.655571
Si Si3 0.972272 0.600501 0.885108
Si Si4 0.318972 0.477112 0.519931
Si Si5 0.517884 0.336150 0.406540
Si Si6 0.339326 0.058496 0.185540
Si Si7 0.344313 0.200728 0.171905
Si Si8 0.918561 0.461518 0.132073
O O1 0.631106 0.561900 0.617635
O O2 0.559643 0.635540 0.515921
O O3 0.594268 0.631763 0.807465
O O4 0.439963 0.591043 0.690146
O O5 0.901088 0.368960 0.492734
O O6 0.770003 0.414306 0.656702
O O7 0.758129 0.331784 0.684394
O O8 0.935255 0.375967 0.784235
O O9 0.902298 0.570994 0.771016
O O10 0.030056 0.567146 0.999160
O O11 0.329758 0.465340 0.345512
O O12 0.368576 0.523122 0.560211
O O13 0.193318 0.480862 0.570636
O O14 0.437757 0.310447 0.295666
O O15 0.595029 0.307903 0.512677
O O16 0.310424 0.250000 0.186030
O O17 0.000000 0.500000 0.175720
#
# Coordination Sequence:
#
# PCOD9361503 Si02
#       8
#     8   8   8   8   8   8   8   8
#     4  11  22  40  59  88 127 170 208 247 307 390
#     4  11  22  45  61  88 123 166 213 260 328 372
#     4  10  23  39  60  82 117 165 208 259 313 366
#     4  12  26  36  58  87 126 169 220 264 306 357
#     4  10  21  40  67  92 129 160 198 243 315 393
#     4  12  25  39  57  86 128 171 214 264 313 365
#     4  11  23  42  71  99 126 155 198 259 326 395
#     4  11  23  37  58  83 119 159 220 265 306 344
#
# _framework density 19.029668000000001
#
# number of rings (size 3 to 8) (size 9 to 14) (size 15 to 20)
#    0.000    1.000    5.000    2.625    7.000    1.000 
#    0.000    0.625    0.000    0.000    0.000    0.000 
#    0.000    0.000    0.000    0.000    0.000    0.000 
#
# Total GULP energy -178867.743361 kJ/mol
# GULP energy per Si atom -5589.616980 kJ/mol
# Density = 1.898636 g / cm^3
# Si number density = 19.029668 Si / 1000 Ang^3
#
#
#
# Elastic Constant Matrix: (Units=GPa)
#
#
# Indices 1 2 3 4 5 6 
#
# 1 60.5659 19.5879 21.5616 0.0000 0.0000 0.0000
# 2 19.5879 98.9597 32.9820 0.0000 0.0000 0.0000
# 3 21.5616 32.9820 101.3453 0.0000 0.0000 0.0000
# 4 0.0000 0.0000 0.0000 16.3536 0.0000 0.0000
# 5 0.0000 0.0000 0.0000 0.0000 21.5755 0.0000
# 6 0.0000 0.0000 0.0000 0.0000 0.0000 17.2845
#
#
#
# Elastic Compliance Matrix: (Units=1/GPa)
#
#
# Indices 1 2 3 4 5 6 
#
# 1 0.018454 -0.002629 -0.003071 0.000000 0.000000 0.000000
# 2 -0.002629 0.011709 -0.003251 0.000000 0.000000 0.000000
# 3 -0.003071 -0.003251 0.011579 0.000000 0.000000 0.000000
# 4 0.000000 0.000000 0.000000 0.061149 0.000000 0.000000
# 5 0.000000 0.000000 0.000000 0.000000 0.046349 0.000000
# 6 0.000000 0.000000 0.000000 0.000000 0.000000 0.057855
#
#
# Mechanical properties :
#
#
# Convention : Reuss Voigt Hill
#
# Bulk Modulus (GPa) = 41.94664 45.45932 43.70298
# Shear Modulus (GPa) = 21.46437 23.49200 22.47819
#
# Velocity S-wave (km/s) = 3.36213 3.51735 3.44061
# Velocity P-wave (km/s) = 6.09610 6.35894 6.22891
#
# Compressibility (1/GPa) = 0.02383981
#
# Stress axis : x y z
#
# Youngs Moduli (GPa) = 54.18736 85.40298 86.36616
#
# Poissons Ratio (x) = 0.22457 0.26519
# Poissons Ratio (y) = 0.14249 0.28080
# Poissons Ratio (z) = 0.16638 0.27766
#
# Static dielectric constant tensor:
#      x y z
#    x 1.669450 0.000000 0.000000 
#    y 0.000000 1.663530 0.000000 
#    z 0.000000 0.000000 1.691180 
# 
# From -- ./inp_files/2912.got.cif
#   From: 2010.05.17/outbox.cif.g08.bks.cpg/sg39_2_cif.got.tgz:2912.got - 2010.06.03 18:22:40.
