data_PCOD9361042
_publ_section_title
;
Structure prediction by ZEFSAII (Michael W. Deem and Ramdas Pophale) SiO2 
 PCOD9361042
Probable space group: A B M 2
;
_chemical_formula_sum "Si O2"
_cell_formula_units_Z 56
_cell_length_a 19.232518
_cell_length_b 14.478144
_cell_length_c 10.194079
_cell_angle_alpha 90.000000
_cell_angle_beta 90.000000
_cell_angle_gamma 90.000000
_cell_volume 2838.553175
_symmetry_space_group_name_H-M "A B M 2"
_symmetry_group_IT_number 39
_symmetry_cell_setting 'orthorhombic'
loop_
_space_group_symop_operation_xyz
x,y,z
-x,-y,z
-x,1/2+y,z
x,1/2-y,z
x,1/2+y,1/2+z
-x,1/2-y,1/2+z
-x,y,1/2+z
x,-y,1/2+z
loop_
_atom_site_type_symbol
_atom_site_label
_atom_site_fract_x
_atom_site_fract_y
_atom_site_fract_z
Si Si1 0.942937 0.640401 0.462580
Si Si2 0.733878 0.515952 0.803952
Si Si3 0.342319 0.146904 0.209971
Si Si4 0.545185 0.644650 0.430051
Si Si5 0.822568 0.005893 0.058564
Si Si6 0.603015 0.053129 0.453493
Si Si7 0.069340 0.359571 0.159351
O O1 0.929478 0.750000 0.475038
O O2 0.877876 0.581843 0.512575
O O3 0.955064 0.620812 0.308377
O O4 0.009224 0.619182 0.553655
O O5 0.716236 0.407140 0.789918
O O6 0.770520 0.544860 0.669598
O O7 0.657409 0.555637 0.833943
O O8 0.781804 0.529171 0.930424
O O9 0.319879 0.250000 0.183506
O O10 0.414303 0.148380 0.291622
O O11 0.357877 0.094474 0.077163
O O12 0.550680 0.750000 0.485499
O O13 0.465248 0.613115 0.422275
O O14 0.581576 0.552676 0.490005
O O15 0.864974 0.922416 0.125050
O O16 0.084771 0.250000 0.150798
#
# Coordination Sequence:
#
# PCOD9361042 Si02
#       7
#     8   8   8   8   8   8   8
#     4  10  23  42  65  94 126 163 209 260 316 377
#     4  11  24  40  60  91 124 167 213 250 310 375
#     4  10  21  40  64  89 123 167 210 256 319 383
#     4   9  20  37  61  89 117 160 208 259 320 376
#     4  12  23  42  65  91 126 169 210 256 312 378
#     4  10  20  38  61  90 125 158 210 266 310 367
#     4  10  23  42  66  94 125 164 209 259 315 376
#
# _framework density 19.728361
#
# number of rings (size 3 to 8) (size 9 to 14) (size 15 to 20)
#    0.000    1.714    2.857    0.857    2.000    6.857 
#    0.000    1.429    0.000    4.286    0.000    0.000 
#    0.000    0.000    0.000    0.000    0.000    0.000 
#
# Total GULP energy -156209.512913 kJ/mol
# GULP energy per Si atom -5578.911175 kJ/mol
# Density = 1.968346 g / cm^3
# Si number density = 19.728361 Si / 1000 Ang^3
#
#
#
# Elastic Constant Matrix: (Units=GPa)
#
#
# Indices 1 2 3 4 5 6 
#
# 1 65.5929 12.9779 22.9671 0.0000 0.0000 0.0000
# 2 12.9779 79.1858 21.6755 0.0000 0.0000 0.0000
# 3 22.9671 21.6755 93.7212 0.0000 0.0000 0.0000
# 4 0.0000 0.0000 0.0000 25.7124 0.0000 0.0000
# 5 0.0000 0.0000 0.0000 0.0000 21.3228 0.0000
# 6 0.0000 0.0000 0.0000 0.0000 0.0000 8.6000
#
#
#
# Elastic Compliance Matrix: (Units=1/GPa)
#
#
# Indices 1 2 3 4 5 6 
#
# 1 0.016900 -0.001747 -0.003737 0.000000 0.000000 0.000000
# 2 -0.001747 0.013663 -0.002732 0.000000 0.000000 0.000000
# 3 -0.003737 -0.002732 0.012218 0.000000 0.000000 0.000000
# 4 0.000000 0.000000 0.000000 0.038892 0.000000 0.000000
# 5 0.000000 0.000000 0.000000 0.000000 0.046898 0.000000
# 6 0.000000 0.000000 0.000000 0.000000 0.000000 0.116280
#
#
# Mechanical properties :
#
#
# Convention : Reuss Voigt Hill
#
# Bulk Modulus (GPa) = 37.95335 39.30454 38.62895
# Shear Modulus (GPa) = 18.51412 23.18566 20.84989
#
# Velocity S-wave (km/s) = 3.06674 3.43190 3.25445
# Velocity P-wave (km/s) = 5.64089 5.97244 5.80903
#
# Compressibility (1/GPa) = 0.02634813
#
# Stress axis : x y z
#
# Youngs Moduli (GPa) = 59.17226 73.19270 81.84890
#
# Poissons Ratio (x) = 0.12785 0.30591
# Poissons Ratio (y) = 0.10336 0.22359
# Poissons Ratio (z) = 0.22115 0.19995
#
# Static dielectric constant tensor:
#      x y z
#    x 1.703380 0.000000 0.000000 
#    y 0.000000 1.707320 0.000000 
#    z 0.000000 0.000000 1.687980 
# 
# From -- ./inp_files/3964.got.cif
#   From: 2010.05.17/outbox.cif.g08.bks.cpg/sg39_2_cif.got.tgz:3964.got - 2010.06.03 18:22:40.
