data_PCOD9361596
_publ_section_title
;
Structure prediction by ZEFSAII (Michael W. Deem and Ramdas Pophale) SiO2 
 PCOD9361596
Probable space group: A B M 2
;
_chemical_formula_sum "Si O2"
_cell_formula_units_Z 48
_cell_length_a 8.390416
_cell_length_b 21.889811
_cell_length_c 9.496408
_cell_angle_alpha 90.000000
_cell_angle_beta 90.000000
_cell_angle_gamma 90.000000
_cell_volume 1744.154171
_symmetry_space_group_name_H-M "A B M 2"
_symmetry_group_IT_number 39
_symmetry_cell_setting 'orthorhombic'
loop_
_space_group_symop_operation_xyz
x,y,z
-x,-y,z
-x,1/2+y,z
x,1/2-y,z
x,1/2+y,1/2+z
-x,1/2-y,1/2+z
-x,y,1/2+z
x,-y,1/2+z
loop_
_atom_site_type_symbol
_atom_site_label
_atom_site_fract_x
_atom_site_fract_y
_atom_site_fract_z
Si Si1 0.300128 0.825066 0.897120
Si Si2 0.500000 0.500000 0.552494
Si Si3 0.182288 0.335482 0.807664
Si Si4 0.000000 0.500000 0.984895
Si Si5 0.510044 0.318344 0.649544
Si Si6 0.013291 0.361290 0.063760
Si Si7 0.718166 0.969376 0.813506
O O1 0.294385 0.750000 0.896369
O O2 0.355286 0.849390 0.744727
O O3 0.141364 0.850889 0.964264
O O4 0.438807 0.843888 0.006982
O O5 0.363508 0.482973 0.664954
O O6 0.588466 0.458365 0.436244
O O7 0.350506 0.313668 0.748108
O O8 0.034597 0.323008 0.702928
O O9 0.188920 0.407773 0.789012
O O10 0.149680 0.327895 0.971775
O O11 0.037419 0.435742 0.066569
O O12 0.847654 0.486643 0.884410
O O13 0.563663 0.250000 0.619582
#
# Coordination Sequence:
#
# PCOD9361596 Si02
#       7
#     8   4   8   4   8   8   8
#     4   9  19  37  60  86 116 150 191 242 297 354
#     4  10  22  38  56  82 112 146 190 242 294 344
#     4  10  22  37  55  81 111 148 190 236 290 348
#     4  10  22  40  60  82 118 160 202 246 300 362
#     4   9  19  36  57  83 115 148 186 236 295 354
#     4  10  22  38  57  83 113 152 197 241 291 351
#     4  10  22  38  57  82 113 150 192 241 294 352
#
# _framework density 27.520503999999999
#
# number of rings (size 3 to 8) (size 9 to 14) (size 15 to 20)
#    0.000    2.333    0.000    1.000    0.000   16.000 
#    0.000    0.000    0.000    0.000    0.000    0.000 
#    0.000    0.000    0.000    0.000    0.000    0.000 
#
# Total GULP energy -134049.281447 kJ/mol
# GULP energy per Si atom -5585.386727 kJ/mol
# Density = 2.745787 g / cm^3
# Si number density = 27.520504 Si / 1000 Ang^3
#
#
#
# Elastic Constant Matrix: (Units=GPa)
#
#
# Indices 1 2 3 4 5 6 
#
# 1 53.3127 14.1444 31.9309 0.0000 0.0000 0.0000
# 2 14.1444 80.3685 20.2581 0.0000 0.0000 0.0000
# 3 31.9309 20.2581 165.0487 0.0000 0.0000 0.0000
# 4 0.0000 0.0000 0.0000 4.8309 0.0000 0.0000
# 5 0.0000 0.0000 0.0000 0.0000 70.0622 0.0000
# 6 0.0000 0.0000 0.0000 0.0000 0.0000 35.6284
#
#
#
# Elastic Compliance Matrix: (Units=1/GPa)
#
#
# Indices 1 2 3 4 5 6 
#
# 1 0.021838 -0.002867 -0.003873 0.000000 0.000000 0.000000
# 2 -0.002867 0.013216 -0.001068 0.000000 0.000000 0.000000
# 3 -0.003873 -0.001068 0.006939 0.000000 0.000000 0.000000
# 4 0.000000 0.000000 0.000000 0.206999 0.000000 0.000000
# 5 0.000000 0.000000 0.000000 0.000000 0.014273 0.000000
# 6 0.000000 0.000000 0.000000 0.000000 0.000000 0.028067
#
#
# Mechanical properties :
#
#
# Convention : Reuss Voigt Hill
#
# Bulk Modulus (GPa) = 37.91023 47.93297 42.92160
# Shear Modulus (GPa) = 15.83581 37.59741 26.71661
#
# Velocity S-wave (km/s) = 2.40139 3.70017 3.11913
# Velocity P-wave (km/s) = 4.63617 5.97579 5.34809
#
# Compressibility (1/GPa) = 0.02637811
#
# Stress axis : x y z
#
# Youngs Moduli (GPa) = 45.79278 75.66386 144.11096
#
# Poissons Ratio (x) = 0.21693 0.55812
# Poissons Ratio (y) = 0.13129 0.15384
# Poissons Ratio (z) = 0.17735 0.08077
#
# Static dielectric constant tensor:
#      x y z
#    x 2.190830 0.000000 0.000000 
#    y 0.000000 2.115320 0.000000 
#    z 0.000000 0.000000 2.212220 
# 
# From -- ./inp_files/2347.got.cif
#   From: 2010.05.17/outbox.cif.g08.bks.cpg/sg39_2_cif.got.tgz:2347.got - 2010.06.03 18:22:40.
