data_PCOD9361691
_publ_section_title
;
Structure prediction by ZEFSAII (Michael W. Deem and Ramdas Pophale) SiO2 
 PCOD9361691
Probable space group: A B M 2
;
_chemical_formula_sum "Si O2"
_cell_formula_units_Z 56
_cell_length_a 13.865155
_cell_length_b 18.060181
_cell_length_c 10.557613
_cell_angle_alpha 90.000000
_cell_angle_beta 90.000000
_cell_angle_gamma 90.000000
_cell_volume 2643.702404
_symmetry_space_group_name_H-M "A B M 2"
_symmetry_group_IT_number 39
_symmetry_cell_setting 'orthorhombic'
loop_
_space_group_symop_operation_xyz
x,y,z
-x,-y,z
-x,1/2+y,z
x,1/2-y,z
x,1/2+y,1/2+z
-x,1/2-y,1/2+z
-x,y,1/2+z
x,-y,1/2+z
loop_
_atom_site_type_symbol
_atom_site_label
_atom_site_fract_x
_atom_site_fract_y
_atom_site_fract_z
Si Si1 0.085194 0.545814 0.869630
Si Si2 0.141063 0.833495 0.689563
Si Si3 0.237303 0.834379 0.203117
Si Si4 0.951535 0.669404 0.548540
Si Si5 0.540401 0.161935 0.203862
Si Si6 0.781598 0.078965 0.456070
Si Si7 0.554856 0.577863 0.971443
O O1 0.153111 0.598638 0.785740
O O2 0.151159 0.493045 0.955700
O O3 0.000000 0.500000 0.799829
O O4 0.026766 0.602712 0.956967
O O5 0.172115 0.750000 0.725317
O O6 0.187681 0.859561 0.558076
O O7 0.025995 0.831577 0.663882
O O8 0.234746 0.750000 0.253254
O O9 0.157732 0.838580 0.094687
O O10 0.347264 0.848275 0.163495
O O11 0.209176 0.888773 0.315098
O O12 0.963166 0.750000 0.485752
O O13 0.520923 0.250000 0.212288
O O14 0.476290 0.123438 0.096279
O O15 0.532318 0.124166 0.342638
O O16 0.669105 0.062741 0.476344
O O17 0.500000 0.500000 0.968024
#
# Coordination Sequence:
#
# PCOD9361691 Si02
#       7
#     8   8   8   8   8   8   8
#     4  12  25  39  63  94 133 170 217 262 321 377
#     4  11  25  43  65  94 129 172 218 266 316 378
#     4   9  20  40  66  93 125 170 216 262 321 388
#     4  10  22  40  63  91 129 172 216 264 315 378
#     4  10  22  43  71  97 130 173 225 273 329 398
#     4  11  25  41  66  92 132 167 213 265 328 387
#     4  11  25  44  67 100 133 174 214 277 343 401
#
# _framework density 21.182414000000001
#
# number of rings (size 3 to 8) (size 9 to 14) (size 15 to 20)
#    0.000    1.429    1.429    2.571    6.000    4.000 
#    0.000    0.000    0.000    0.000    0.000    0.000 
#    0.000    0.000    0.000    0.000    0.000    0.000 
#
# Total GULP energy -156401.163950 kJ/mol
# GULP energy per Si atom -5585.755855 kJ/mol
# Density = 2.113420 g / cm^3
# Si number density = 21.182414 Si / 1000 Ang^3
#
#
#
# Elastic Constant Matrix: (Units=GPa)
#
#
# Indices 1 2 3 4 5 6 
#
# 1 69.4700 45.5364 26.0622 0.0000 0.0000 0.0000
# 2 45.5364 133.5526 33.7159 0.0000 0.0000 0.0000
# 3 26.0622 33.7159 55.2226 0.0000 0.0000 0.0000
# 4 0.0000 0.0000 0.0000 46.2596 0.0000 0.0000
# 5 0.0000 0.0000 0.0000 0.0000 28.8406 0.0000
# 6 0.0000 0.0000 0.0000 0.0000 0.0000 -13.2918
#
#
#
# Elastic Compliance Matrix: (Units=1/GPa)
#
#
# Indices 1 2 3 4 5 6 
#
# 1 0.020242 -0.005308 -0.006312 0.000000 0.000000 0.000000
# 2 -0.005308 0.010244 -0.003749 0.000000 0.000000 0.000000
# 3 -0.006312 -0.003749 0.023377 0.000000 0.000000 0.000000
# 4 0.000000 0.000000 0.000000 0.021617 0.000000 0.000000
# 5 0.000000 0.000000 0.000000 0.000000 0.034673 0.000000
# 6 0.000000 0.000000 0.000000 0.000000 0.000000 -0.075235
#
#
# Mechanical properties :
#
#
# Convention : Reuss Voigt Hill
#
# Bulk Modulus (GPa) = 43.24637 52.09713 47.67175
# Shear Modulus (GPa) = 68.15079 22.55708 45.35394
#
# Velocity S-wave (km/s) = 5.67830 3.26682 4.63224
# Velocity P-wave (km/s) = 7.96563 6.23517 7.15293
#
# Compressibility (1/GPa) = 0.02312333
#
# Stress axis : x y z
#
# Youngs Moduli (GPa) = 49.40143 97.61683 42.77760
#
# Poissons Ratio (x) = 0.51818 0.27003
# Poissons Ratio (y) = 0.26224 0.16038
# Poissons Ratio (z) = 0.31184 0.36599
#
# Static dielectric constant tensor:
#      x y z
#    x 1.745080 0.000000 0.000000 
#    y 0.000000 1.757420 0.000000 
#    z 0.000000 0.000000 1.769860 
# 
# From -- ./inp_files/6466.got.cif
#   From: 2010.05.17/outbox.cif.g08.bks.cpg/sg39_4_cif.got.tgz:6466.got - 2010.06.03 18:22:40.
