data_PCOD9361025
_publ_section_title
;
Structure prediction by ZEFSAII (Michael W. Deem and Ramdas Pophale) SiO2 
 PCOD9361025
Probable space group: A B M 2
;
_chemical_formula_sum "Si O2"
_cell_formula_units_Z 64
_cell_length_a 11.655179
_cell_length_b 19.311473
_cell_length_c 11.461373
_cell_angle_alpha 90.000000
_cell_angle_beta 90.000000
_cell_angle_gamma 90.000000
_cell_volume 2579.710644
_symmetry_space_group_name_H-M "A B M 2"
_symmetry_group_IT_number 39
_symmetry_cell_setting 'orthorhombic'
loop_
_space_group_symop_operation_xyz
x,y,z
-x,-y,z
-x,1/2+y,z
x,1/2-y,z
x,1/2+y,1/2+z
-x,1/2-y,1/2+z
-x,y,1/2+z
x,-y,1/2+z
loop_
_atom_site_type_symbol
_atom_site_label
_atom_site_fract_x
_atom_site_fract_y
_atom_site_fract_z
Si Si1 0.252115 0.333476 0.719890
Si Si2 0.879954 0.177052 0.629938
Si Si3 0.948349 0.824039 0.442193
Si Si4 0.624250 0.033710 0.584777
Si Si5 0.977899 0.919976 0.765821
Si Si6 0.373060 0.467208 0.348719
Si Si7 0.338033 0.671258 0.473375
Si Si8 0.323724 0.328384 0.464554
O O1 0.221598 0.250000 0.720528
O O2 0.143327 0.386049 0.726107
O O3 0.326459 0.344987 0.836856
O O4 0.325257 0.345443 0.602674
O O5 0.845555 0.250000 0.686073
O O6 0.790025 0.167454 0.527506
O O7 0.003888 0.182880 0.571234
O O8 0.905967 0.116506 0.716687
O O9 0.986638 0.750000 0.385402
O O10 0.812944 0.828648 0.440651
O O11 0.009512 0.892679 0.397122
O O12 0.675510 0.025412 0.716010
O O13 0.602056 0.113627 0.550924
O O14 0.500000 0.000000 0.591101
O O15 0.683930 0.001940 0.466414
O O16 0.000000 0.000000 0.748565
O O17 0.500000 0.500000 0.344496
O O18 0.378477 0.386270 0.382863
O O19 0.378173 0.750000 0.488777
O O20 0.364873 0.250000 0.444302
#
# Coordination Sequence:
#
# PCOD9361025 Si02
#       8
#     8   8   8   8   8   8   8   8
#     4  10  20  40  63  93 140 190 239 295 352 402
#     4  10  20  38  60  85 126 181 237 284 328 384
#     4  10  20  38  60  85 126 181 237 284 328 384
#     4  10  24  47  72 100 138 177 215 278 362 431
#     4  12  24  34  52  87 137 190 238 289 339 407
#     4  10  24  47  72 100 138 177 215 278 362 431
#     4  10  22  40  69 101 132 180 242 296 342 411
#     4  10  22  40  69 101 132 180 242 296 342 411
#
# _framework density 24.808985
#
# number of rings (size 3 to 8) (size 9 to 14) (size 15 to 20)
#    0.000    1.750    2.500    1.125    3.500    3.000 
#    0.000    2.500    0.000    1.500    0.000    0.000 
#    0.000    0.000    0.000    0.000    0.000    0.000 
#
# Total GULP energy -178521.999841 kJ/mol
# GULP energy per Si atom -5578.812495 kJ/mol
# Density = 2.475252 g / cm^3
# Si number density = 24.808985 Si / 1000 Ang^3
#
#
#
# Elastic Constant Matrix: (Units=GPa)
#
#
# Indices 1 2 3 4 5 6 
#
# 1 80.9001 42.4638 5.7784 0.0000 0.0000 0.0000
# 2 42.4638 157.2891 48.1696 0.0000 0.0000 0.0000
# 3 5.7784 48.1696 161.8978 0.0000 0.0000 0.0000
# 4 0.0000 0.0000 0.0000 20.5930 0.0000 0.0000
# 5 0.0000 0.0000 0.0000 0.0000 11.3278 0.0000
# 6 0.0000 0.0000 0.0000 0.0000 0.0000 104.0679
#
#
#
# Elastic Compliance Matrix: (Units=1/GPa)
#
#
# Indices 1 2 3 4 5 6 
#
# 1 0.014476 -0.004126 0.000711 0.000000 0.000000 0.000000
# 2 -0.004126 0.008171 -0.002284 0.000000 0.000000 0.000000
# 3 0.000711 -0.002284 0.006831 0.000000 0.000000 0.000000
# 4 0.000000 0.000000 0.000000 0.048560 0.000000 0.000000
# 5 0.000000 0.000000 0.000000 0.000000 0.088279 0.000000
# 6 0.000000 0.000000 0.000000 0.000000 0.000000 0.009609
#
#
# Mechanical properties :
#
#
# Convention : Reuss Voigt Hill
#
# Bulk Modulus (GPa) = 55.30940 65.87896 60.59418
# Shear Modulus (GPa) = 25.85986 47.44274 36.65130
#
# Velocity S-wave (km/s) = 3.23206 4.37775 3.84779
# Velocity P-wave (km/s) = 6.02252 7.22254 6.64966
#
# Compressibility (1/GPa) = 0.01808011
#
# Stress axis : x y z
#
# Youngs Moduli (GPa) = 69.08114 122.38415 146.39393
#
# Poissons Ratio (x) = 0.50493 -0.10407
# Poissons Ratio (y) = 0.28501 0.33434
# Poissons Ratio (z) = -0.04911 0.27951
#
# Static dielectric constant tensor:
#      x y z
#    x 2.031170 0.000000 0.000000 
#    y 0.000000 2.043780 0.000000 
#    z 0.000000 0.000000 2.067920 
# 
# From -- ./inp_files/6642.got.cif
#   From: 2010.05.17/outbox.cif.g08.bks.cpg/sg39_4_cif.got.tgz:6642.got - 2010.06.03 18:22:40.
