data_PCOD9361490
_publ_section_title
;
Structure prediction by ZEFSAII (Michael W. Deem and Ramdas Pophale) SiO2 
 PCOD9361490
Probable space group: A B M 2
;
_chemical_formula_sum "Si O2"
_cell_formula_units_Z 56
_cell_length_a 21.076939
_cell_length_b 15.464873
_cell_length_c 8.621756
_cell_angle_alpha 90.000000
_cell_angle_beta 90.000000
_cell_angle_gamma 90.000000
_cell_volume 2810.280206
_symmetry_space_group_name_H-M "A B M 2"
_symmetry_group_IT_number 39
_symmetry_cell_setting 'orthorhombic'
loop_
_space_group_symop_operation_xyz
x,y,z
-x,-y,z
-x,1/2+y,z
x,1/2-y,z
x,1/2+y,1/2+z
-x,1/2-y,1/2+z
-x,y,1/2+z
x,-y,1/2+z
loop_
_atom_site_type_symbol
_atom_site_label
_atom_site_fract_x
_atom_site_fract_y
_atom_site_fract_z
Si Si1 0.841257 0.098426 0.143360
Si Si2 0.841257 0.098426 0.517900
Si Si3 0.299100 0.596793 0.142903
Si Si4 0.564154 0.353227 0.504248
Si Si5 0.928847 0.750000 0.516085
Si Si6 0.700900 0.403208 0.518356
Si Si7 0.435846 0.646773 0.157012
Si Si8 0.071153 0.750000 0.645174
O O1 0.845094 0.096132 0.330630
O O2 0.770232 0.132244 0.098672
O O3 0.892139 0.164952 0.076905
O O4 0.848607 0.000000 0.080630
O O5 0.770232 0.132243 0.562588
O O6 0.892139 0.164952 0.584355
O O7 0.300563 0.601655 0.330630
O O8 0.366373 0.633029 0.084029
O O9 0.297883 0.500001 0.080629
O O10 0.557014 0.250000 0.494565
O O11 0.633627 0.366972 0.577232
O O12 0.566361 0.389617 0.330630
O O13 0.500000 0.387659 0.580629
O O14 0.929440 0.750000 0.330630
O O15 0.000000 0.750000 0.580630
O O16 0.442987 0.750000 0.166695
#
# Coordination Sequence:
#
# PCOD9361490 Si02
#       8
#     8   8   8   8   4   8   8   4
#     4  10  21  40  65  93 126 163 202 250 304 358
#     4  10  21  40  65  93 126 163 202 250 304 358
#     4   9  19  34  55  79 108 145 187 234 287 346
#     4   9  18  32  49  71 102 142 187 233 284 339
#     4  12  26  44  66  96 127 160 203 244 293 360
#     4   9  19  34  55  79 108 145 187 234 287 346
#     4   9  18  32  49  71 102 142 187 233 284 339
#     4  12  26  44  66  96 127 160 203 244 293 360
#
# _framework density 19.926838
#
# number of rings (size 3 to 8) (size 9 to 14) (size 15 to 20)
#    0.000    2.286    0.000    2.143    2.000    3.429 
#    0.000    5.714    0.000    0.000    0.000    0.000 
#    0.000    0.000    0.000    0.000    0.000    0.000 
#
# Total GULP energy -155990.116937 kJ/mol
# GULP energy per Si atom -5571.075605 kJ/mol
# Density = 1.988148 g / cm^3
# Si number density = 19.926838 Si / 1000 Ang^3
#
#
#
# Elastic Constant Matrix: (Units=GPa)
#
#
# Indices 1 2 3 4 5 6 
#
# 1 242.1122 72.5921 64.9116 0.0000 0.0000 0.0000
# 2 72.5921 67.9657 27.6403 0.0000 0.0000 0.0000
# 3 64.9116 27.6403 61.4242 0.0000 0.0000 0.0000
# 4 0.0000 0.0000 0.0000 23.7198 0.0000 0.0000
# 5 0.0000 0.0000 0.0000 0.0000 29.0083 0.0000
# 6 0.0000 0.0000 0.0000 0.0000 0.0000 57.3720
#
#
#
# Elastic Compliance Matrix: (Units=1/GPa)
#
#
# Indices 1 2 3 4 5 6 
#
# 1 0.007162 -0.005596 -0.005051 0.000000 0.000000 0.000000
# 2 -0.005596 0.022381 -0.004158 0.000000 0.000000 0.000000
# 3 -0.005051 -0.004158 0.023489 0.000000 0.000000 0.000000
# 4 0.000000 0.000000 0.000000 0.042159 0.000000 0.000000
# 5 0.000000 0.000000 0.000000 0.000000 0.034473 0.000000
# 6 0.000000 0.000000 0.000000 0.000000 0.000000 0.017430
#
#
# Mechanical properties :
#
#
# Convention : Reuss Voigt Hill
#
# Bulk Modulus (GPa) = 42.69269 77.97668 60.33468
# Shear Modulus (GPa) = 27.09882 35.77724 31.43803
#
# Velocity S-wave (km/s) = 3.69170 4.24185 3.97630
# Velocity P-wave (km/s) = 6.29625 7.95031 7.17113
#
# Compressibility (1/GPa) = 0.02342322
#
# Stress axis : x y z
#
# Youngs Moduli (GPa) = 139.62146 44.68127 42.57345
#
# Poissons Ratio (x) = 0.25002 0.21503
# Poissons Ratio (y) = 0.78128 0.17701
# Poissons Ratio (z) = 0.70521 0.18577
#
# Static dielectric constant tensor:
#      x y z
#    x 1.762170 0.000000 0.000000 
#    y 0.000000 1.677350 0.000000 
#    z 0.000000 0.000000 1.721380 
# 
# From -- ./inp_files/3997.got.cif
#   From: 2010.05.17/outbox.cif.g08.bks.cpg/sg39_2_cif.got.tgz:3997.got - 2010.06.03 18:22:40.
