data_PCOD9361126
_publ_section_title
;
Structure prediction by ZEFSAII (Michael W. Deem and Ramdas Pophale) SiO2 
 PCOD9361126
Probable space group: A B M 2
;
_chemical_formula_sum "Si O2"
_cell_formula_units_Z 48
_cell_length_a 8.916884
_cell_length_b 9.782344
_cell_length_c 28.775655
_cell_angle_alpha 90.000000
_cell_angle_beta 90.000000
_cell_angle_gamma 90.000000
_cell_volume 2510.043603
_symmetry_space_group_name_H-M "A B M 2"
_symmetry_group_IT_number 39
_symmetry_cell_setting 'orthorhombic'
loop_
_space_group_symop_operation_xyz
x,y,z
-x,-y,z
-x,1/2+y,z
x,1/2-y,z
x,1/2+y,1/2+z
-x,1/2-y,1/2+z
-x,y,1/2+z
x,-y,1/2+z
loop_
_atom_site_type_symbol
_atom_site_label
_atom_site_fract_x
_atom_site_fract_y
_atom_site_fract_z
Si Si1 0.821946 0.250000 0.569860
Si Si2 0.320927 0.510259 0.627343
Si Si3 0.158067 0.081133 0.811619
Si Si4 0.323806 0.003609 0.906214
Si Si5 0.330789 0.750000 0.474381
Si Si6 0.821220 0.750000 0.577498
Si Si7 0.313098 0.750000 0.973231
Si Si8 0.158378 0.918123 0.722649
O O1 0.738573 0.376844 0.592271
O O2 0.782597 0.250000 0.516321
O O3 0.998509 0.250000 0.579560
O O4 0.500000 0.500000 0.627898
O O5 0.246397 0.375783 0.606091
O O6 0.258709 0.553095 0.677690
O O7 0.148784 0.250000 0.806959
O O8 0.240728 0.038978 0.858746
O O9 0.226562 0.001775 0.766728
O O10 0.000000 0.000000 0.814724
O O11 0.300571 0.123106 0.942264
O O12 0.500000 0.000000 0.894876
O O13 0.282462 0.874164 0.937843
O O14 0.508697 0.750000 0.486697
O O15 0.772112 0.750000 0.522799
O O16 0.140984 0.750000 0.729189
O O17 0.000000 0.000000 0.714755
#
# Coordination Sequence:
#
# PCOD9361126 Si02
#       8
#     4   8   8   8   4   4   4   8
#     4  12  24  44  67  98 133 172 225 276 328 396
#     4  12  26  44  67  99 135 174 220 273 333 395
#     4  11  24  42  66  98 132 174 216 269 328 390
#     4  10  22  40  64  94 129 173 219 268 328 389
#     4  10  20  40  63  90 133 172 219 274 326 392
#     4  12  26  42  69 100 133 178 223 274 330 390
#     4  10  22  38  63  96 129 176 219 268 334 386
#     4  11  24  44  69  98 130 171 218 273 333 396
#
# _framework density 19.123175
#
# number of rings (size 3 to 8) (size 9 to 14) (size 15 to 20)
#    0.000    1.000    1.667    6.000    4.667    3.333 
#    0.000    1.667    0.000    0.000    0.000    0.000 
#    0.000    0.000    0.000    0.000    0.000    0.000 
#
# Total GULP energy -133780.700453 kJ/mol
# GULP energy per Si atom -5574.195852 kJ/mol
# Density = 1.907965 g / cm^3
# Si number density = 19.123175 Si / 1000 Ang^3
#
#
#
# Elastic Constant Matrix: (Units=GPa)
#
#
# Indices 1 2 3 4 5 6 
#
# 1 95.0959 42.4335 56.1535 0.0000 0.0000 0.0000
# 2 42.4335 196.7255 42.7543 0.0000 0.0000 0.0000
# 3 56.1535 42.7543 101.9195 0.0000 0.0000 0.0000
# 4 0.0000 0.0000 0.0000 49.2416 0.0000 0.0000
# 5 0.0000 0.0000 0.0000 0.0000 95.9193 0.0000
# 6 0.0000 0.0000 0.0000 0.0000 0.0000 32.4374
#
#
#
# Elastic Compliance Matrix: (Units=1/GPa)
#
#
# Indices 1 2 3 4 5 6 
#
# 1 0.016086 -0.001698 -0.008150 0.000000 0.000000 0.000000
# 2 -0.001698 0.005772 -0.001486 0.000000 0.000000 0.000000
# 3 -0.008150 -0.001486 0.014925 0.000000 0.000000 0.000000
# 4 0.000000 0.000000 0.000000 0.020308 0.000000 0.000000
# 5 0.000000 0.000000 0.000000 0.000000 0.010425 0.000000
# 6 0.000000 0.000000 0.000000 0.000000 0.000000 0.030829
#
#
# Mechanical properties :
#
#
# Convention : Reuss Voigt Hill
#
# Bulk Modulus (GPa) = 70.84630 75.15815 73.00223
# Shear Modulus (GPa) = 39.77073 52.34630 46.05851
#
# Velocity S-wave (km/s) = 4.56534 5.23762 4.91299
# Velocity P-wave (km/s) = 8.05714 8.71575 8.39291
#
# Compressibility (1/GPa) = 0.01411506
#
# Stress axis : x y z
#
# Youngs Moduli (GPa) = 62.16444 173.23590 66.99958
#
# Poissons Ratio (x) = 0.29424 0.54608
# Poissons Ratio (y) = 0.10559 0.09954
# Poissons Ratio (z) = 0.50667 0.25738
#
# Static dielectric constant tensor:
#      x y z
#    x 0.851380 0.000000 0.000000 
#    y 0.000000 1.578020 0.000000 
#    z 0.000000 0.000000 1.679240 
# 
# From -- ./inp_files/17681.got.cif
#   From: 2010.05.17/outbox.cif.g08.bks.cpg/sg39_9_cif.got.tgz:17681.got - 2010.06.03 18:22:40.
