data_PCOD9361775
_publ_section_title
;
Structure prediction by ZEFSAII (Michael W. Deem and Ramdas Pophale) SiO2 
 PCOD9361775
Probable space group: A B M 2
;
_chemical_formula_sum "Si O2"
_cell_formula_units_Z 48
_cell_length_a 7.028377
_cell_length_b 26.529685
_cell_length_c 11.491540
_cell_angle_alpha 90.000000
_cell_angle_beta 90.000000
_cell_angle_gamma 90.000000
_cell_volume 2142.719764
_symmetry_space_group_name_H-M "A B M 2"
_symmetry_group_IT_number 39
_symmetry_cell_setting 'orthorhombic'
loop_
_space_group_symop_operation_xyz
x,y,z
-x,-y,z
-x,1/2+y,z
x,1/2-y,z
x,1/2+y,1/2+z
-x,1/2-y,1/2+z
-x,y,1/2+z
x,-y,1/2+z
loop_
_atom_site_type_symbol
_atom_site_label
_atom_site_fract_x
_atom_site_fract_y
_atom_site_fract_z
Si Si1 0.786653 0.044301 0.712490
Si Si2 0.143571 0.638622 0.555800
Si Si3 0.336450 0.936868 0.168723
Si Si4 0.783364 0.106178 0.925887
Si Si5 0.598728 0.853864 0.848331
Si Si6 0.810379 0.750000 0.820881
Si Si7 0.074904 0.250000 0.091611
O O1 0.874824 0.088813 0.634011
O O2 0.557272 0.050814 0.695137
O O3 0.841718 0.060464 0.842183
O O4 0.800477 0.984791 0.689189
O O5 0.324205 0.630980 0.474501
O O6 0.163974 0.694062 0.612153
O O7 0.958553 0.638572 0.472523
O O8 0.302594 0.890690 0.255797
O O9 0.311427 0.918712 0.038153
O O10 0.627747 0.138664 0.854983
O O11 0.675022 0.798516 0.825582
O O12 0.915585 0.750000 0.695037
O O13 0.930588 0.750000 0.945592
#
# Coordination Sequence:
#
# PCOD9361775 Si02
#       7
#     8   8   8   8   8   4   4
#     4  10  24  41  67  98 133 185 229 287 355 421
#     4  11  24  44  67  99 141 176 239 287 355 425
#     4  10  22  43  68  94 140 180 230 293 353 416
#     4  11  24  41  68  98 134 182 230 289 350 425
#     4  10  23  45  67  97 140 178 233 286 352 421
#     4  10  22  45  73 105 142 191 235 302 361 433
#     4  10  24  41  73 101 142 191 231 302 361 419
#
# _framework density 22.401436
#
# number of rings (size 3 to 8) (size 9 to 14) (size 15 to 20)
#    0.000    1.667    1.667    1.000    9.333    2.667 
#    0.000    4.167    0.000    0.000    0.000    0.000 
#    0.000    0.000    0.000    0.000    0.000    0.000 
#
# Total GULP energy -133859.309637 kJ/mol
# GULP energy per Si atom -5577.471235 kJ/mol
# Density = 2.235045 g / cm^3
# Si number density = 22.401436 Si / 1000 Ang^3
#
#
#
# Elastic Constant Matrix: (Units=GPa)
#
#
# Indices 1 2 3 4 5 6 
#
# 1 61.2396 34.9785 29.6454 0.0000 0.0000 0.0000
# 2 34.9785 201.5350 86.3095 0.0000 0.0000 0.0000
# 3 29.6454 86.3095 65.5677 0.0000 0.0000 0.0000
# 4 0.0000 0.0000 0.0000 29.3588 0.0000 0.0000
# 5 0.0000 0.0000 0.0000 0.0000 17.8747 0.0000
# 6 0.0000 0.0000 0.0000 0.0000 0.0000 29.7888
#
#
#
# Elastic Compliance Matrix: (Units=1/GPa)
#
#
# Indices 1 2 3 4 5 6 
#
# 1 0.020986 0.000966 -0.010760 0.000000 0.000000 0.000000
# 2 0.000966 0.011418 -0.015467 0.000000 0.000000 0.000000
# 3 -0.010760 -0.015467 0.040476 0.000000 0.000000 0.000000
# 4 0.000000 0.000000 0.000000 0.034061 0.000000 0.000000
# 5 0.000000 0.000000 0.000000 0.000000 0.055945 0.000000
# 6 0.000000 0.000000 0.000000 0.000000 0.000000 0.033570
#
#
# Mechanical properties :
#
#
# Convention : Reuss Voigt Hill
#
# Bulk Modulus (GPa) = 44.72555 70.02324 57.37440
# Shear Modulus (GPa) = 19.65173 27.23172 23.44173
#
# Velocity S-wave (km/s) = 2.96506 3.49036 3.23838
# Velocity P-wave (km/s) = 5.63302 6.89708 6.29685
#
# Compressibility (1/GPa) = 0.02235859
#
# Stress axis : x y z
#
# Youngs Moduli (GPa) = 47.64974 87.58033 24.70626
#
# Poissons Ratio (x) = -0.08456 0.26583
# Poissons Ratio (y) = -0.04601 0.38212
# Poissons Ratio (z) = 0.51269 1.35457
#
# Static dielectric constant tensor:
#      x y z
#    x 1.876970 0.000000 0.000000 
#    y 0.000000 1.839740 0.000000 
#    z 0.000000 0.000000 1.833770 
# 
# From -- ./inp_files/5226.got.cif
#   From: 2010.05.17/outbox.cif.g08.bks.cpg/sg39_3_cif.got.tgz:5226.got - 2010.06.03 18:22:40.
