data_PCOD9361027
_publ_section_title
;
Structure prediction by ZEFSAII (Michael W. Deem and Ramdas Pophale) SiO2 
 PCOD9361027
Probable space group: A B M 2
;
_chemical_formula_sum "Si O2"
_cell_formula_units_Z 56
_cell_length_a 21.490836
_cell_length_b 13.061889
_cell_length_c 9.886794
_cell_angle_alpha 90.000000
_cell_angle_beta 90.000000
_cell_angle_gamma 90.000000
_cell_volume 2775.330984
_symmetry_space_group_name_H-M "A B M 2"
_symmetry_group_IT_number 39
_symmetry_cell_setting 'orthorhombic'
loop_
_space_group_symop_operation_xyz
x,y,z
-x,-y,z
-x,1/2+y,z
x,1/2-y,z
x,1/2+y,1/2+z
-x,1/2-y,1/2+z
-x,y,1/2+z
x,-y,1/2+z
loop_
_atom_site_type_symbol
_atom_site_label
_atom_site_fract_x
_atom_site_fract_y
_atom_site_fract_z
Si Si1 0.509802 0.250000 0.385190
Si Si2 0.433168 0.955859 0.278756
Si Si3 0.568700 0.750000 0.145059
Si Si4 0.936283 0.869349 0.646555
Si Si5 0.769584 0.378000 0.496868
Si Si6 0.953721 0.129311 0.846728
Si Si7 0.631644 0.041540 0.542801
Si Si8 0.833874 0.506800 0.248349
O O1 0.548970 0.154814 0.331872
O O2 0.446581 0.250000 0.302157
O O3 0.507845 0.250000 0.546992
O O4 0.406377 0.004686 0.416191
O O5 0.500000 0.000000 0.230616
O O6 0.380603 0.963659 0.165456
O O7 0.603139 0.646809 0.103619
O O8 0.922960 0.750000 0.660674
O O9 0.968049 0.887338 0.503218
O O10 0.871781 0.927579 0.655587
O O11 0.985585 0.897397 0.760936
O O12 0.772723 0.250000 0.488709
O O13 0.699374 0.422503 0.496993
O O14 0.801896 0.438328 0.368645
O O15 0.796098 0.420483 0.642454
O O16 0.943285 0.250000 0.823611
O O17 0.889671 0.073758 0.811576
#
# Coordination Sequence:
#
# PCOD9361027 Si02
#       8
#     4   8   4   8   8   8   8   8
#     4  10  22  34  60  96 124 162 202 258 337 403
#     4  11  22  38  66  96 127 164 210 269 340 407
#     4  10  20  38  60  88 128 160 202 262 323 391
#     4  10  22  40  65  99 133 168 213 276 340 403
#     4  12  27  47  70  96 133 186 239 279 333 400
#     4  10  22  40  65  98 135 166 215 275 340 406
#     4  11  23  42  62  90 129 168 214 271 323 392
#     4  12  24  44  68  96 130 183 227 280 336 392
#
# _framework density 20.177773999999999
#
# number of rings (size 3 to 8) (size 9 to 14) (size 15 to 20)
#    0.000    1.143    3.571    2.571    4.000    1.143 
#    0.000    0.000    3.143    0.000    0.000    0.000 
#    0.000    0.000    0.000    0.000    0.000    0.000 
#
# Total GULP energy -155994.932210 kJ/mol
# GULP energy per Si atom -5571.247579 kJ/mol
# Density = 2.013185 g / cm^3
# Si number density = 20.177774 Si / 1000 Ang^3
#
#
#
# Elastic Constant Matrix: (Units=GPa)
#
#
# Indices 1 2 3 4 5 6 
#
# 1 69.2690 10.8496 11.0303 0.0000 0.0000 0.0000
# 2 10.8496 71.3308 -4.8347 0.0000 0.0000 0.0000
# 3 11.0303 -4.8347 64.5489 0.0000 0.0000 0.0000
# 4 0.0000 0.0000 0.0000 -6.0851 0.0000 0.0000
# 5 0.0000 0.0000 0.0000 0.0000 30.3143 0.0000
# 6 0.0000 0.0000 0.0000 0.0000 0.0000 21.9519
#
#
#
# Elastic Compliance Matrix: (Units=1/GPa)
#
#
# Indices 1 2 3 4 5 6 
#
# 1 0.015276 -0.002513 -0.002799 0.000000 0.000000 0.000000
# 2 -0.002513 0.014504 0.001516 0.000000 0.000000 0.000000
# 3 -0.002799 0.001516 0.016084 0.000000 0.000000 0.000000
# 4 0.000000 0.000000 0.000000 -0.164337 0.000000 0.000000
# 5 0.000000 0.000000 0.000000 0.000000 0.032988 0.000000
# 6 0.000000 0.000000 0.000000 0.000000 0.000000 0.045554
#
#
# Mechanical properties :
#
#
# Convention : Reuss Voigt Hill
#
# Bulk Modulus (GPa) = 26.12880 26.58212 26.35546
# Shear Modulus (GPa) = -255.33431 21.77646 -116.77893
#
# Velocity S-wave (km/s) = -11.26131 3.28873 -7.61582
# Velocity P-wave (km/s) = 12.49448 5.25581 8.01525
#
# Compressibility (1/GPa) = 0.03827194
#
# Stress axis : x y z
#
# Youngs Moduli (GPa) = 65.46315 68.94562 62.17399
#
# Poissons Ratio (x) = 0.17327 0.17400
# Poissons Ratio (y) = 0.16452 -0.09424
# Poissons Ratio (z) = 0.18321 -0.10451
#
# Static dielectric constant tensor:
#      x y z
#    x 1.685570 0.000000 0.000000 
#    y 0.000000 1.765970 0.000000 
#    z 0.000000 0.000000 1.758950 
# 
# From -- ./inp_files/3990.got.cif
#   From: 2010.05.17/outbox.cif.g08.bks.cpg/sg39_2_cif.got.tgz:3990.got - 2010.06.03 18:22:40.
