data_PCOD9361633
_publ_section_title
;
Structure prediction by ZEFSAII (Michael W. Deem and Ramdas Pophale) SiO2 
 PCOD9361633
Probable space group: A B M 2
;
_chemical_formula_sum "Si O2"
_cell_formula_units_Z 28
_cell_length_a 10.744074
_cell_length_b 10.963573
_cell_length_c 9.189472
_cell_angle_alpha 90.000000
_cell_angle_beta 90.000000
_cell_angle_gamma 90.000000
_cell_volume 1082.459515
_symmetry_space_group_name_H-M "A B M 2"
_symmetry_group_IT_number 39
_symmetry_cell_setting 'orthorhombic'
loop_
_space_group_symop_operation_xyz
x,y,z
-x,-y,z
-x,1/2+y,z
x,1/2-y,z
x,1/2+y,1/2+z
-x,1/2-y,1/2+z
-x,y,1/2+z
x,-y,1/2+z
loop_
_atom_site_type_symbol
_atom_site_label
_atom_site_fract_x
_atom_site_fract_y
_atom_site_fract_z
Si Si1 0.573528 0.750000 0.088620
Si Si2 0.500000 0.500000 0.952097
Si Si3 0.905203 0.107749 0.554022
Si Si4 0.753370 0.492057 0.284486
Si Si5 0.651696 0.750000 0.769701
O O1 0.525204 0.617177 0.047158
O O2 0.497467 0.750000 0.247550
O O3 0.675642 0.750000 0.946406
O O4 0.375658 0.523481 0.860826
O O5 0.948018 0.250000 0.541965
O O6 0.852808 0.050806 0.404471
O O7 0.000000 0.000000 0.603744
O O8 0.200910 0.098385 0.179091
O O9 0.718446 0.367298 0.201676
#
# Coordination Sequence:
#
# PCOD9361633 Si02
#       5
#     4   4   8   8   4
#     4  10  22  38  64  98 150 198 242 286 361 444
#     4  10  24  44  70 112 150 200 238 304 378 462
#     4  12  29  51  79 110 149 201 264 322 381 446
#     4  11  25  48  77 112 155 194 255 309 383 460
#     4  10  22  42  66 104 150 196 244 304 361 446
#
# _framework density 25.867017000000001
#
# number of rings (size 3 to 8) (size 9 to 14) (size 15 to 20)
#    0.000    1.143    1.429    2.571    4.000   18.286 
#    0.000    0.000    0.000    0.000    0.000    0.000 
#    0.000    0.000    0.000    0.000    0.000    0.000 
#
# Total GULP energy -77981.017458 kJ/mol
# GULP energy per Si atom -5570.072676 kJ/mol
# Density = 2.580814 g / cm^3
# Si number density = 25.867017 Si / 1000 Ang^3
#
#
#
# Elastic Constant Matrix: (Units=GPa)
#
#
# Indices 1 2 3 4 5 6 
#
# 1 62.5155 0.5008 23.5491 0.0000 0.0000 0.0000
# 2 0.5008 175.3182 26.8203 0.0000 0.0000 0.0000
# 3 23.5491 26.8203 98.1756 0.0000 0.0000 0.0000
# 4 0.0000 0.0000 0.0000 23.3839 0.0000 0.0000
# 5 0.0000 0.0000 0.0000 0.0000 22.0496 0.0000
# 6 0.0000 0.0000 0.0000 0.0000 0.0000 27.0458
#
#
#
# Elastic Compliance Matrix: (Units=1/GPa)
#
#
# Indices 1 2 3 4 5 6 
#
# 1 0.017650 0.000623 -0.004404 0.000000 0.000000 0.000000
# 2 0.000623 0.005975 -0.001782 0.000000 0.000000 0.000000
# 3 -0.004404 -0.001782 0.011729 0.000000 0.000000 0.000000
# 4 0.000000 0.000000 0.000000 0.042765 0.000000 0.000000
# 5 0.000000 0.000000 0.000000 0.000000 0.045352 0.000000
# 6 0.000000 0.000000 0.000000 0.000000 0.000000 0.036974
#
#
# Mechanical properties :
#
#
# Convention : Reuss Voigt Hill
#
# Bulk Modulus (GPa) = 41.27302 48.63886 44.95594
# Shear Modulus (GPa) = 27.83256 33.50513 30.66884
#
# Velocity S-wave (km/s) = 3.28378 3.60291 3.44704
# Velocity P-wave (km/s) = 5.51073 6.01267 5.76716
#
# Compressibility (1/GPa) = 0.02422890
#
# Stress axis : x y z
#
# Youngs Moduli (GPa) = 56.65734 167.37234 85.25926
#
# Poissons Ratio (x) = -0.10432 0.37548
# Poissons Ratio (y) = -0.03531 0.15191
# Poissons Ratio (z) = 0.24951 0.29821
#
# Static dielectric constant tensor:
#      x y z
#    x 2.315110 0.000000 0.000000 
#    y 0.000000 2.111690 0.000000 
#    z 0.000000 0.000000 2.080340 
# 
# From -- ./inp_files/5493.got.cif
#   From: 2010.05.17/outbox.cif.g08.bks.cpg/sg39_3_cif.got.tgz:5493.got - 2010.06.03 18:22:40.
