data_PCOD9361636
_publ_section_title
;
Structure prediction by ZEFSAII (Michael W. Deem and Ramdas Pophale) SiO2 
 PCOD9361636
Probable space group: A B M 2
;
_chemical_formula_sum "Si O2"
_cell_formula_units_Z 32
_cell_length_a 8.915930
_cell_length_b 17.101156
_cell_length_c 9.572994
_cell_angle_alpha 90.000000
_cell_angle_beta 90.000000
_cell_angle_gamma 90.000000
_cell_volume 1459.620336
_symmetry_space_group_name_H-M "A B M 2"
_symmetry_group_IT_number 39
_symmetry_cell_setting 'orthorhombic'
loop_
_space_group_symop_operation_xyz
x,y,z
-x,-y,z
-x,1/2+y,z
x,1/2-y,z
x,1/2+y,1/2+z
-x,1/2-y,1/2+z
-x,y,1/2+z
x,-y,1/2+z
loop_
_atom_site_type_symbol
_atom_site_label
_atom_site_fract_x
_atom_site_fract_y
_atom_site_fract_z
Si Si1 0.412592 0.838051 0.607040
Si Si2 0.253840 0.098793 0.632598
Si Si3 0.199842 0.250000 0.263077
Si Si4 0.326438 0.976667 0.405990
Si Si5 0.932929 0.750000 0.565513
O O1 0.574870 0.750000 0.045539
O O2 0.577359 0.867217 0.643425
O O3 0.311483 0.823863 0.745351
O O4 0.339624 0.899831 0.503377
O O5 0.236679 0.044798 0.767806
O O6 0.144019 0.171704 0.623954
O O7 0.251953 0.044666 0.496504
O O8 0.100009 0.250000 0.399964
O O9 0.100528 0.250000 0.122946
O O10 0.500000 0.000000 0.372397
#
# Coordination Sequence:
#
# PCOD9361636 Si02
#       5
#     8   8   4   8   4
#     4   9  21  39  70  97 135 172 221 281 331 399
#     4  11  24  41  73 101 134 172 224 276 346 394
#     4  10  27  44  68  96 138 176 237 276 322 402
#     4  10  22  38  66 104 140 165 214 281 341 393
#     4  12  27  46  72  94 132 190 231 270 334 400
#
# _framework density 21.923508999999999
#
# number of rings (size 3 to 8) (size 9 to 14) (size 15 to 20)
#    0.750    1.000    1.250    2.250   15.750    0.000 
#    0.000    1.250    0.000    0.000    0.000    0.000 
#    0.000    0.000    0.000    0.000    0.000    0.000 
#
# Total GULP energy -89438.334782 kJ/mol
# GULP energy per Si atom -5589.895924 kJ/mol
# Density = 2.187361 g / cm^3
# Si number density = 21.923509 Si / 1000 Ang^3
#
#
#
# Elastic Constant Matrix: (Units=GPa)
#
#
# Indices 1 2 3 4 5 6 
#
# 1 41.6266 18.7367 23.5053 0.0000 0.0000 0.0000
# 2 18.7367 137.3077 36.3774 0.0000 0.0000 0.0000
# 3 23.5053 36.3774 66.6493 0.0000 0.0000 0.0000
# 4 0.0000 0.0000 0.0000 34.9444 0.0000 0.0000
# 5 0.0000 0.0000 0.0000 0.0000 23.1616 0.0000
# 6 0.0000 0.0000 0.0000 0.0000 0.0000 -3.3074
#
#
#
# Elastic Compliance Matrix: (Units=1/GPa)
#
#
# Indices 1 2 3 4 5 6 
#
# 1 0.030266 -0.001522 -0.009843 0.000000 0.000000 0.000000
# 2 -0.001522 0.008591 -0.004152 0.000000 0.000000 0.000000
# 3 -0.009843 -0.004152 0.020741 0.000000 0.000000 0.000000
# 4 0.000000 0.000000 0.000000 0.028617 0.000000 0.000000
# 5 0.000000 0.000000 0.000000 0.000000 0.043175 0.000000
# 6 0.000000 0.000000 0.000000 0.000000 0.000000 -0.302355
#
#
# Mechanical properties :
#
#
# Convention : Reuss Voigt Hill
#
# Bulk Modulus (GPa) = 35.00955 44.75806 39.88381
# Shear Modulus (GPa) = -38.34119 22.09068 -8.12526
#
# Velocity S-wave (km/s) = -4.18648 3.17775 -1.92723
# Velocity P-wave (km/s) = 2.71388 5.82443 3.64410
#
# Compressibility (1/GPa) = 0.02856363
#
# Stress axis : x y z
#
# Youngs Moduli (GPa) = 33.03984 116.40597 48.21255
#
# Poissons Ratio (x) = 0.17720 0.47457
# Poissons Ratio (y) = 0.05030 0.20017
# Poissons Ratio (z) = 0.32522 0.48331
#
# Static dielectric constant tensor:
#      x y z
#    x 1.770500 0.000000 0.000000 
#    y 0.000000 1.809900 0.000000 
#    z 0.000000 0.000000 1.833770 
# 
# From -- ./inp_files/2500.got.cif
#   From: 2010.05.17/outbox.cif.g08.bks.cpg/sg39_2_cif.got.tgz:2500.got - 2010.06.03 18:22:40.
