data_PCOD9361260
_publ_section_title
;
Structure prediction by ZEFSAII (Michael W. Deem and Ramdas Pophale) SiO2 
 PCOD9361260
Probable space group: A B M 2
;
_chemical_formula_sum "Si O2"
_cell_formula_units_Z 64
_cell_length_a 14.500075
_cell_length_b 17.221548
_cell_length_c 14.561142
_cell_angle_alpha 90.000000
_cell_angle_beta 90.000000
_cell_angle_gamma 90.000000
_cell_volume 3636.117193
_symmetry_space_group_name_H-M "A B M 2"
_symmetry_group_IT_number 39
_symmetry_cell_setting 'orthorhombic'
loop_
_space_group_symop_operation_xyz
x,y,z
-x,-y,z
-x,1/2+y,z
x,1/2-y,z
x,1/2+y,1/2+z
-x,1/2-y,1/2+z
-x,y,1/2+z
x,-y,1/2+z
loop_
_atom_site_type_symbol
_atom_site_label
_atom_site_fract_x
_atom_site_fract_y
_atom_site_fract_z
Si Si1 0.644854 0.599487 0.485630
Si Si2 0.852135 0.656175 0.478784
Si Si3 0.357206 0.585943 0.498960
Si Si4 0.506568 0.906734 0.837486
Si Si5 0.845285 0.156077 0.500149
Si Si6 0.987347 0.344553 0.343497
Si Si7 0.991689 0.655466 0.635371
Si Si8 0.494667 0.341449 0.633464
O O1 0.749746 0.624513 0.474106
O O2 0.640281 0.507062 0.499389
O O3 0.583071 0.618970 0.396121
O O4 0.595649 0.638328 0.573273
O O5 0.848258 0.750000 0.478550
O O6 0.918698 0.631921 0.395047
O O7 0.906583 0.631542 0.570896
O O8 0.407049 0.611374 0.404065
O O9 0.254121 0.617622 0.505355
O O10 0.420909 0.616483 0.581605
O O11 0.513509 0.869377 0.737945
O O12 0.500000 0.000000 0.826975
O O13 0.835808 0.250000 0.500745
O O14 0.901218 0.133491 0.407816
O O15 0.913415 0.134037 0.583999
O O16 0.987446 0.250000 0.342135
O O17 0.983725 0.372573 0.239315
O O18 0.990736 0.750000 0.636758
O O19 0.510444 0.250000 0.630922
#
# Coordination Sequence:
#
# PCOD9361260 Si02
#       8
#     8   8   8   8   8   8   8   8
#     4  10  21  37  55  76 108 143 171 208 260 316
#     4   9  17  30  50  75 100 130 174 218 252 297
#     4  10  21  37  55  76 108 143 171 208 260 316
#     4   9  20  38  55  73 103 141 173 207 260 316
#     4   9  17  30  50  75 100 130 174 218 252 297
#     4   8  15  29  48  70 100 134 168 213 260 297
#     4   8  15  29  48  72 102 134 168 211 260 299
#     4  11  22  36  57  81 103 131 173 221 260 304
#
# _framework density 17.601192999999999
#
# number of rings (size 3 to 8) (size 9 to 14) (size 15 to 20)
#    0.000    2.750    0.000    4.125    0.000    5.000 
#    0.000    5.000    0.000    1.500    0.000    0.000 
#    0.000    0.000    0.000    0.000    0.000    0.000 
#
# Total GULP energy -178461.545018 kJ/mol
# GULP energy per Si atom -5576.923282 kJ/mol
# Density = 1.756113 g / cm^3
# Si number density = 17.601193 Si / 1000 Ang^3
#
#
#
# Elastic Constant Matrix: (Units=GPa)
#
#
# Indices 1 2 3 4 5 6 
#
# 1 55.4347 -14.5280 -13.7621 0.0000 0.0000 0.0000
# 2 -14.5280 13.7675 -5.6104 0.0000 0.0000 0.0000
# 3 -13.7621 -5.6104 87.5723 0.0000 0.0000 0.0000
# 4 0.0000 0.0000 0.0000 16.1390 0.0000 0.0000
# 5 0.0000 0.0000 0.0000 0.0000 6.0135 0.0000
# 6 0.0000 0.0000 0.0000 0.0000 0.0000 12.6995
#
#
#
# Elastic Compliance Matrix: (Units=1/GPa)
#
#
# Indices 1 2 3 4 5 6 
#
# 1 0.028120 0.032318 0.006490 0.000000 0.000000 0.000000
# 2 0.032318 0.111724 0.012237 0.000000 0.000000 0.000000
# 3 0.006490 0.012237 0.013223 0.000000 0.000000 0.000000
# 4 0.000000 0.000000 0.000000 0.061962 0.000000 0.000000
# 5 0.000000 0.000000 0.000000 0.000000 0.166293 0.000000
# 6 0.000000 0.000000 0.000000 0.000000 0.000000 0.078743
#
#
# Mechanical properties :
#
#
# Convention : Reuss Voigt Hill
#
# Bulk Modulus (GPa) = 3.91919 9.88594 6.90257
# Shear Modulus (GPa) = 11.28595 19.68208 15.48401
#
# Velocity S-wave (km/s) = 2.53495 3.34761 2.96921
# Velocity P-wave (km/s) = 3.28625 4.53551 3.96045
#
# Compressibility (1/GPa) = 0.25515476
#
# Stress axis : x y z
#
# Youngs Moduli (GPa) = 35.56191 8.95062 75.62622
#
# Poissons Ratio (x) = -0.28926 -0.49078
# Poissons Ratio (y) = -1.14928 -0.92540
# Poissons Ratio (z) = -0.23078 -0.10952
#
# Static dielectric constant tensor:
#      x y z
#    x 1.571200 0.000000 0.000000 
#    y 0.000000 1.594250 0.000000 
#    z 0.000000 0.000000 1.592570 
# 
# From -- ./inp_files/9904.got.cif
#   From: 2010.05.17/outbox.cif.g08.bks.cpg/sg39_5_cif.got.tgz:9904.got - 2010.06.03 18:22:40.
