data_PCOD9361905
_publ_section_title
;
Structure prediction by ZEFSAII (Michael W. Deem and Ramdas Pophale) SiO2 
 PCOD9361905
Probable space group: A B M 2
;
_chemical_formula_sum "Si O2"
_cell_formula_units_Z 28
_cell_length_a 11.827840
_cell_length_b 17.151250
_cell_length_c 5.433527
_cell_angle_alpha 90.000000
_cell_angle_beta 90.000000
_cell_angle_gamma 90.000000
_cell_volume 1102.257463
_symmetry_space_group_name_H-M "A B M 2"
_symmetry_group_IT_number 39
_symmetry_cell_setting 'orthorhombic'
loop_
_space_group_symop_operation_xyz
x,y,z
-x,-y,z
-x,1/2+y,z
x,1/2-y,z
x,1/2+y,1/2+z
-x,1/2-y,1/2+z
-x,y,1/2+z
x,-y,1/2+z
loop_
_atom_site_type_symbol
_atom_site_label
_atom_site_fract_x
_atom_site_fract_y
_atom_site_fract_z
Si Si1 0.775648 0.661659 0.267520
Si Si2 0.069938 0.750000 0.074384
Si Si3 0.457385 0.590221 0.918246
Si Si4 0.128758 0.031092 0.974091
O O1 0.744692 0.750000 0.187996
O O2 0.849801 0.676582 0.512314
O O3 0.666766 0.609831 0.319922
O O4 0.854705 0.618173 0.071063
O O5 0.012639 0.750000 0.336109
O O6 0.500000 0.500000 0.944114
O O7 0.532528 0.623746 0.693729
O O8 0.180080 0.984253 0.207135
O O9 0.000000 0.000000 0.949636
#
# Coordination Sequence:
#
# PCOD9361905 Si02
#       4
#     8   4   8   8
#     4  10  26  46  72 107 138 190 235 293 358 413
#     4  10  26  44  70 104 150 180 230 286 356 424
#     4  10  24  45  70 101 139 183 239 296 351 418
#     4  10  24  40  65  98 136 182 229 278 350 426
#
# _framework density 25.402415000000001
#
# number of rings (size 3 to 8) (size 9 to 14) (size 15 to 20)
#    0.857    1.143    0.000    0.000   16.000    3.429 
#    0.000    0.000    0.000    0.000    0.000    0.000 
#    0.000    0.000    0.000    0.000    0.000    0.000 
#
# Total GULP energy -78115.547534 kJ/mol
# GULP energy per Si atom -5579.681967 kJ/mol
# Density = 2.534460 g / cm^3
# Si number density = 25.402415 Si / 1000 Ang^3
#
#
#
# Elastic Constant Matrix: (Units=GPa)
#
#
# Indices 1 2 3 4 5 6 
#
# 1 83.0853 43.2461 -25.5286 0.0000 0.0000 0.0000
# 2 43.2461 132.7301 29.1081 0.0000 0.0000 0.0000
# 3 -25.5286 29.1081 132.6539 0.0000 0.0000 0.0000
# 4 0.0000 0.0000 0.0000 35.7170 0.0000 0.0000
# 5 0.0000 0.0000 0.0000 0.0000 6.0540 0.0000
# 6 0.0000 0.0000 0.0000 0.0000 0.0000 49.1903
#
#
#
# Elastic Compliance Matrix: (Units=1/GPa)
#
#
# Indices 1 2 3 4 5 6 
#
# 1 0.016867 -0.006521 0.004677 0.000000 0.000000 0.000000
# 2 -0.006521 0.010436 -0.003545 0.000000 0.000000 0.000000
# 3 0.004677 -0.003545 0.009216 0.000000 0.000000 0.000000
# 4 0.000000 0.000000 0.000000 0.027998 0.000000 0.000000
# 5 0.000000 0.000000 0.000000 0.000000 0.165180 0.000000
# 6 0.000000 0.000000 0.000000 0.000000 0.000000 0.020329
#
#
# Mechanical properties :
#
#
# Convention : Reuss Voigt Hill
#
# Bulk Modulus (GPa) = 38.84832 49.12451 43.98641
# Shear Modulus (GPa) = 18.56069 38.30185 28.43127
#
# Velocity S-wave (km/s) = 2.70602 3.88726 3.34913
# Velocity P-wave (km/s) = 5.00896 6.28714 5.68410
#
# Compressibility (1/GPa) = 0.02574114
#
# Stress axis : x y z
#
# Youngs Moduli (GPa) = 59.28643 95.81926 108.50262
#
# Poissons Ratio (x) = 0.62487 -0.50747
# Poissons Ratio (y) = 0.38663 0.38465
# Poissons Ratio (z) = -0.27728 0.33968
#
# Static dielectric constant tensor:
#      x y z
#    x 2.357440 0.000000 0.000000 
#    y 0.000000 1.995410 0.000000 
#    z 0.000000 0.000000 2.032450 
# 
# From -- ./inp_files/433.got.cif
#   From: 2010.05.17/outbox.cif.g08.bks.cpg/sg39_1_cif.got.tgz:433.got - 2010.06.03 18:22:40.
