data_PCOD9361712
_publ_section_title
;
Structure prediction by ZEFSAII (Michael W. Deem and Ramdas Pophale) SiO2 
 PCOD9361712
Probable space group: A B M 2
;
_chemical_formula_sum "Si O2"
_cell_formula_units_Z 48
_cell_length_a 10.459493
_cell_length_b 24.016484
_cell_length_c 8.961811
_cell_angle_alpha 90.000000
_cell_angle_beta 90.000000
_cell_angle_gamma 90.000000
_cell_volume 2251.209130
_symmetry_space_group_name_H-M "A B M 2"
_symmetry_group_IT_number 39
_symmetry_cell_setting 'orthorhombic'
loop_
_space_group_symop_operation_xyz
x,y,z
-x,-y,z
-x,1/2+y,z
x,1/2-y,z
x,1/2+y,1/2+z
-x,1/2-y,1/2+z
-x,y,1/2+z
x,-y,1/2+z
loop_
_atom_site_type_symbol
_atom_site_label
_atom_site_fract_x
_atom_site_fract_y
_atom_site_fract_z
Si Si1 0.992971 0.750000 0.562330
Si Si2 0.500406 0.888664 0.664675
Si Si3 0.825859 0.750000 0.295396
Si Si4 0.921559 0.121475 0.105004
Si Si5 0.902888 0.550948 0.902977
Si Si6 0.616044 0.042778 0.405845
Si Si7 0.680623 0.852823 0.433862
O O1 0.960001 0.750000 0.387006
O O2 0.939245 0.688968 0.614266
O O3 0.137365 0.750000 0.622890
O O4 0.411125 0.912467 0.535123
O O5 0.596640 0.933193 0.739123
O O6 0.590481 0.843946 0.579845
O O7 0.410916 0.875684 0.804895
O O8 0.746449 0.801355 0.354124
O O9 0.801055 0.112151 0.994442
O O10 0.044047 0.090029 0.035825
O O11 0.897619 0.092604 0.262471
O O12 0.762019 0.525651 0.926126
O O13 0.000000 0.500000 0.879580
O O14 0.500000 0.000000 0.425184
#
# Coordination Sequence:
#
# PCOD9361712 Si02
#       7
#     4   8   4   8   8   8   8
#     4  10  22  44  70 100 130 196 220 290 342 430
#     4  10  23  42  68  89 131 176 230 276 354 396
#     4  10  22  40  68  98 140 164 238 280 356 412
#     4  11  24  45  69 100 146 176 243 285 363 416
#     4  12  28  42  68 106 143 182 229 300 358 423
#     4  11  25  43  68  95 130 185 237 281 347 429
#     4  10  22  43  65  98 130 181 222 295 339 424
#
# _framework density 21.321874000000001
#
# number of rings (size 3 to 8) (size 9 to 14) (size 15 to 20)
#    0.000    1.333    1.667    3.000    9.333    3.333 
#    0.000    0.000    0.000    0.000    0.000    0.000 
#    0.000    0.000    0.000    0.000    0.000    0.000 
#
# Total GULP energy -133756.883017 kJ/mol
# GULP energy per Si atom -5573.203459 kJ/mol
# Density = 2.127334 g / cm^3
# Si number density = 21.321874 Si / 1000 Ang^3
#
#
#
# Elastic Constant Matrix: (Units=GPa)
#
#
# Indices 1 2 3 4 5 6 
#
# 1 150.3337 37.0849 25.7953 0.0000 0.0000 0.0000
# 2 37.0849 81.9694 16.7341 0.0000 0.0000 0.0000
# 3 25.7953 16.7341 56.9814 0.0000 0.0000 0.0000
# 4 0.0000 0.0000 0.0000 19.0608 0.0000 0.0000
# 5 0.0000 0.0000 0.0000 0.0000 42.5883 0.0000
# 6 0.0000 0.0000 0.0000 0.0000 0.0000 24.7855
#
#
#
# Elastic Compliance Matrix: (Units=1/GPa)
#
#
# Indices 1 2 3 4 5 6 
#
# 1 0.007852 -0.003007 -0.002671 0.000000 0.000000 0.000000
# 2 -0.003007 0.014129 -0.002788 0.000000 0.000000 0.000000
# 3 -0.002671 -0.002788 0.019578 0.000000 0.000000 0.000000
# 4 0.000000 0.000000 0.000000 0.052464 0.000000 0.000000
# 5 0.000000 0.000000 0.000000 0.000000 0.023481 0.000000
# 6 0.000000 0.000000 0.000000 0.000000 0.000000 0.040346
#
#
# Mechanical properties :
#
#
# Convention : Reuss Voigt Hill
#
# Bulk Modulus (GPa) = 40.60795 49.83481 45.22138
# Shear Modulus (GPa) = 27.32362 31.26492 29.29427
#
# Velocity S-wave (km/s) = 3.58366 3.83342 3.71065
# Velocity P-wave (km/s) = 6.01748 6.55873 6.29392
#
# Compressibility (1/GPa) = 0.02462572
#
# Stress axis : x y z
#
# Youngs Moduli (GPa) = 127.35512 70.77467 51.07825
#
# Poissons Ratio (x) = 0.21282 0.13646
# Poissons Ratio (y) = 0.38297 0.14242
# Poissons Ratio (z) = 0.34023 0.19733
#
# Static dielectric constant tensor:
#      x y z
#    x 1.812790 0.000000 0.000000 
#    y 0.000000 1.867800 0.000000 
#    z 0.000000 0.000000 1.758420 
# 
# From -- ./inp_files/2345.got.cif
#   From: 2010.05.17/outbox.cif.g08.bks.cpg/sg39_2_cif.got.tgz:2345.got - 2010.06.03 18:22:40.
