data_PCOD9361171
_publ_section_title
;
Structure prediction by ZEFSAII (Michael W. Deem and Ramdas Pophale) SiO2 
 PCOD9361171
Probable space group: A B M 2
;
_chemical_formula_sum "Si O2"
_cell_formula_units_Z 32
_cell_length_a 4.975704
_cell_length_b 23.102111
_cell_length_c 14.236133
_cell_angle_alpha 90.000000
_cell_angle_beta 90.000000
_cell_angle_gamma 90.000000
_cell_volume 1636.433041
_symmetry_space_group_name_H-M "A B M 2"
_symmetry_group_IT_number 39
_symmetry_cell_setting 'orthorhombic'
loop_
_space_group_symop_operation_xyz
x,y,z
-x,-y,z
-x,1/2+y,z
x,1/2-y,z
x,1/2+y,1/2+z
-x,1/2-y,1/2+z
-x,y,1/2+z
x,-y,1/2+z
loop_
_atom_site_type_symbol
_atom_site_label
_atom_site_fract_x
_atom_site_fract_y
_atom_site_fract_z
Si Si1 0.121872 0.605645 0.330910
Si Si2 0.328904 0.888536 0.139311
Si Si3 0.137205 0.682472 0.689783
Si Si4 0.606273 0.436077 0.936710
O O1 0.217705 0.577935 0.231322
O O2 0.384949 0.608115 0.394874
O O3 0.991443 0.664995 0.291001
O O4 0.889395 0.573195 0.386137
O O5 0.598340 0.855395 0.170657
O O6 0.096732 0.840694 0.120512
O O7 0.369202 0.926040 0.047597
O O8 0.189737 0.750000 0.681892
O O9 0.500000 0.500000 0.917133
#
# Coordination Sequence:
#
# PCOD9361171 Si02
#       4
#     8   8   8   8
#     4  10  22  43  63  93 131 158 213 261 303 378
#     4  10  22  41  66  89 133 160 211 258 307 379
#     4  10  20  42  66  88 126 167 203 259 319 364
#     4  12  24  42  64  95 128 166 211 257 311 375
#
# _framework density 19.554728000000001
#
# number of rings (size 3 to 8) (size 9 to 14) (size 15 to 20)
#    1.500    0.000    2.500    3.000    0.000    1.000 
#    4.500    7.500    0.000    0.000    0.000    0.000 
#    0.000    0.000    0.000    0.000    0.000    0.000 
#
# Total GULP energy -89119.117844 kJ/mol
# GULP energy per Si atom -5569.944865 kJ/mol
# Density = 1.951022 g / cm^3
# Si number density = 19.554728 Si / 1000 Ang^3
#
#
#
# Elastic Constant Matrix: (Units=GPa)
#
#
# Indices 1 2 3 4 5 6 
#
# 1 136.3591 2.3332 32.4095 0.0000 0.0000 0.0000
# 2 2.3332 20.7916 -1.4372 0.0000 0.0000 0.0000
# 3 32.4095 -1.4372 96.9583 0.0000 0.0000 0.0000
# 4 0.0000 0.0000 0.0000 26.2407 0.0000 0.0000
# 5 0.0000 0.0000 0.0000 0.0000 29.6123 0.0000
# 6 0.0000 0.0000 0.0000 0.0000 0.0000 11.3333
#
#
#
# Elastic Compliance Matrix: (Units=1/GPa)
#
#
# Indices 1 2 3 4 5 6 
#
# 1 0.007991 -0.001082 -0.002687 0.000000 0.000000 0.000000
# 2 -0.001082 0.048292 0.001078 0.000000 0.000000 0.000000
# 3 -0.002687 0.001078 0.011228 0.000000 0.000000 0.000000
# 4 0.000000 0.000000 0.000000 0.038109 0.000000 0.000000
# 5 0.000000 0.000000 0.000000 0.000000 0.033770 0.000000
# 6 0.000000 0.000000 0.000000 0.000000 0.000000 0.088235
#
#
# Mechanical properties :
#
#
# Convention : Reuss Voigt Hill
#
# Bulk Modulus (GPa) = 16.09600 35.63555 25.86578
# Shear Modulus (GPa) = 19.70694 28.15749 23.93222
#
# Velocity S-wave (km/s) = 3.17801 3.79876 3.50216
# Velocity P-wave (km/s) = 4.65998 6.12404 5.44147
#
# Compressibility (1/GPa) = 0.06212722
#
# Stress axis : x y z
#
# Youngs Moduli (GPa) = 125.14468 20.70723 89.06415
#
# Poissons Ratio (x) = 0.02241 0.23932
# Poissons Ratio (y) = 0.13546 -0.09598
# Poissons Ratio (z) = 0.33627 -0.02231
#
# Static dielectric constant tensor:
#      x y z
#    x 1.706080 0.000000 0.000000 
#    y 0.000000 1.674430 0.000000 
#    z 0.000000 0.000000 1.700040 
# 
# From -- ./inp_files/7312.got.cif
#   From: 2010.05.17/outbox.cif.g08.bks.cpg/sg39_4_cif.got.tgz:7312.got - 2010.06.03 18:22:40.
