data_PCOD9361081
_publ_section_title
;
Structure prediction by ZEFSAII (Michael W. Deem and Ramdas Pophale) SiO2 
 PCOD9361081
Probable space group: A B M 2
;
_chemical_formula_sum "Si O2"
_cell_formula_units_Z 64
_cell_length_a 14.357084
_cell_length_b 14.066874
_cell_length_c 15.430633
_cell_angle_alpha 90.000000
_cell_angle_beta 90.000000
_cell_angle_gamma 90.000000
_cell_volume 3116.359710
_symmetry_space_group_name_H-M "A B M 2"
_symmetry_group_IT_number 39
_symmetry_cell_setting 'orthorhombic'
loop_
_space_group_symop_operation_xyz
x,y,z
-x,-y,z
-x,1/2+y,z
x,1/2-y,z
x,1/2+y,1/2+z
-x,1/2-y,1/2+z
-x,y,1/2+z
x,-y,1/2+z
loop_
_atom_site_type_symbol
_atom_site_label
_atom_site_fract_x
_atom_site_fract_y
_atom_site_fract_z
Si Si1 0.457648 0.365899 0.162480
Si Si2 0.261953 0.642294 0.921682
Si Si3 0.457729 0.634101 0.978920
Si Si4 0.889638 0.494228 0.466557
Si Si5 0.110359 0.494269 0.674963
Si Si6 0.588088 0.134407 0.320661
Si Si7 0.261926 0.357706 0.219952
Si Si8 0.196012 0.635646 0.320723
O O1 0.450871 0.250000 0.168619
O O2 0.528929 0.395221 0.237224
O O3 0.352079 0.400814 0.173060
O O4 0.499866 0.390122 0.070664
O O5 0.246165 0.750000 0.952772
O O6 0.352134 0.599185 0.968531
O O7 0.168815 0.583057 0.931436
O O8 0.288717 0.646232 0.820813
O O9 0.450931 0.750000 0.972800
O O10 0.528864 0.604783 0.904060
O O11 0.874534 0.499919 0.570763
O O12 0.850705 0.407056 0.408181
O O13 0.000000 0.500000 0.451732
O O14 0.168787 0.583058 0.710200
O O15 0.149299 0.407035 0.733255
O O16 0.000000 0.500000 0.689791
O O17 0.591198 0.250000 0.320662
O O18 0.695386 0.103562 0.320713
O O19 0.246128 0.250000 0.188870
O O20 0.191013 0.750000 0.320737
#
# Coordination Sequence:
#
# PCOD9361081 Si02
#       8
#     8   8   8   8   8   8   8   8
#     4   9  17  31  56  90 129 169 208 256 317 384
#     4  10  20  38  67  96 125 168 218 265 323 393
#     4   9  17  31  56  90 129 169 208 256 317 384
#     4  11  26  47  67  93 132 170 218 284 337 390
#     4  11  26  47  67  93 132 170 218 284 337 390
#     4   9  18  34  55  88 127 164 206 256 316 381
#     4  10  20  38  67  96 125 168 218 265 323 393
#     4  11  25  44  70  98 133 178 221 270 334 401
#
# _framework density 20.536783
#
# number of rings (size 3 to 8) (size 9 to 14) (size 15 to 20)
#    0.000    2.000    2.500    0.375    3.500    2.000 
#    0.000    5.000    0.000    0.000    0.000    0.000 
#    0.000    0.000    0.000    0.000    0.000    0.000 
#
# Total GULP energy -178721.784410 kJ/mol
# GULP energy per Si atom -5585.055763 kJ/mol
# Density = 2.049004 g / cm^3
# Si number density = 20.536783 Si / 1000 Ang^3
#
#
#
# Elastic Constant Matrix: (Units=GPa)
#
#
# Indices 1 2 3 4 5 6 
#
# 1 163.7300 48.9984 68.1290 0.0000 0.0000 0.0000
# 2 48.9984 91.8052 26.2639 0.0000 0.0000 0.0000
# 3 68.1290 26.2639 136.0367 0.0000 0.0000 0.0000
# 4 0.0000 0.0000 0.0000 -20.6823 0.0000 0.0000
# 5 0.0000 0.0000 0.0000 0.0000 -76.8550 0.0000
# 6 0.0000 0.0000 0.0000 0.0000 0.0000 19.3975
#
#
#
# Elastic Compliance Matrix: (Units=1/GPa)
#
#
# Indices 1 2 3 4 5 6 
#
# 1 0.008711 -0.003600 -0.003668 0.000000 0.000000 0.000000
# 2 -0.003600 0.013017 -0.000710 0.000000 0.000000 0.000000
# 3 -0.003668 -0.000710 0.009325 0.000000 0.000000 0.000000
# 4 0.000000 0.000000 0.000000 -0.048350 0.000000 0.000000
# 5 0.000000 0.000000 0.000000 0.000000 -0.013012 0.000000
# 6 0.000000 0.000000 0.000000 0.000000 0.000000 0.051553
#
#
# Mechanical properties :
#
#
# Convention : Reuss Voigt Hill
#
# Bulk Modulus (GPa) = 66.23631 75.37272 70.80451
# Shear Modulus (GPa) = 118.39221 0.91740 59.65480
#
# Velocity S-wave (km/s) = 7.60092 0.66909 5.39545
# Velocity P-wave (km/s) = 10.45727 6.11375 8.56541
#
# Compressibility (1/GPa) = 0.01509746
#
# Stress axis : x y z
#
# Youngs Moduli (GPa) = 114.79625 76.82125 107.24029
#
# Poissons Ratio (x) = 0.27656 0.39331
# Poissons Ratio (y) = 0.41327 0.07616
# Poissons Ratio (z) = 0.42103 0.05456
#
# Static dielectric constant tensor:
#      x y z
#    x 1.683740 0.000000 0.000000 
#    y 0.000000 1.783060 0.000000 
#    z 0.000000 0.000000 1.726370 
# 
# From -- ./inp_files/9429.got.cif
#   From: 2010.05.17/outbox.cif.g08.bks.cpg/sg39_5_cif.got.tgz:9429.got - 2010.06.03 18:22:40.
