data_PCOD9361416
_publ_section_title
;
Structure prediction by ZEFSAII (Michael W. Deem and Ramdas Pophale) SiO2 
 PCOD9361416
Probable space group: A B M 2
;
_chemical_formula_sum "Si O2"
_cell_formula_units_Z 64
_cell_length_a 15.089687
_cell_length_b 7.855958
_cell_length_c 25.850248
_cell_angle_alpha 90.000000
_cell_angle_beta 90.000000
_cell_angle_gamma 90.000000
_cell_volume 3064.390437
_symmetry_space_group_name_H-M "A B M 2"
_symmetry_group_IT_number 39
_symmetry_cell_setting 'orthorhombic'
loop_
_space_group_symop_operation_xyz
x,y,z
-x,-y,z
-x,1/2+y,z
x,1/2-y,z
x,1/2+y,1/2+z
-x,1/2-y,1/2+z
-x,y,1/2+z
x,-y,1/2+z
loop_
_atom_site_type_symbol
_atom_site_label
_atom_site_fract_x
_atom_site_fract_y
_atom_site_fract_z
Si Si1 0.863969 0.446798 0.971540
Si Si2 0.901544 0.449155 0.354765
Si Si3 0.595303 0.045837 0.897493
Si Si4 0.708721 0.041054 0.113950
Si Si5 0.275212 0.950116 0.309161
Si Si6 0.603624 0.544450 0.715863
Si Si7 0.904388 0.044942 0.084350
Si Si8 0.658055 0.947983 0.502786
O O1 0.892390 0.250000 0.968948
O O2 0.888207 0.520839 0.916169
O O3 0.901605 0.523189 0.024954
O O4 0.758412 0.450654 0.980791
O O5 0.894631 0.250000 0.347141
O O6 0.821160 0.527969 0.321448
O O7 0.000000 0.500000 0.339720
O O8 0.607028 0.250000 0.898199
O O9 0.500000 0.000000 0.875075
O O10 0.670951 0.967435 0.862317
O O11 0.601323 0.976695 0.956205
O O12 0.708790 0.250000 0.112791
O O13 0.652501 0.986598 0.163336
O O14 0.812875 0.989692 0.112055
O O15 0.663716 0.979868 0.060385
O O16 0.264566 0.750000 0.296811
O O17 0.337656 0.022044 0.263969
O O18 0.500000 0.500000 0.718553
O O19 0.606955 0.750000 0.716367
O O20 0.898836 0.250000 0.081230
O O21 0.000000 0.000000 0.107530
O O22 0.631463 0.750000 0.508579
#
# Coordination Sequence:
#
# PCOD9361416 Si02
#       8
#     8   8   8   8   8   8   8   8
#     4   9  16  30  50  74 105 142 182 216 255 309
#     4  11  22  34  51  76 108 142 179 220 264 315
#     4  11  21  33  53  79 109 143 176 216 268 327
#     4   8  16  33  55  77 104 140 176 214 264 319
#     4  10  22  39  56  78 107 139 180 226 267 317
#     4  10  21  39  62  82 102 133 178 226 272 318
#     4   9  17  29  49  76 108 143 178 214 255 310
#     4   8  15  29  50  76 106 141 176 211 259 319
#
# _framework density 20.885065999999998
#
# number of rings (size 3 to 8) (size 9 to 14) (size 15 to 20)
#    0.000    2.500    1.250    3.000    0.000    4.000 
#    0.000    1.250    0.000    1.500    0.000    0.000 
#    0.000    0.000    0.000    0.000    0.000    0.000 
#
# Total GULP energy -178417.009921 kJ/mol
# GULP energy per Si atom -5575.531560 kJ/mol
# Density = 2.083753 g / cm^3
# Si number density = 20.885066 Si / 1000 Ang^3
#
#
#
# Elastic Constant Matrix: (Units=GPa)
#
#
# Indices 1 2 3 4 5 6 
#
# 1 152.0383 3.1959 82.2480 0.0000 0.0000 0.0000
# 2 3.1959 26.0794 5.6433 0.0000 0.0000 0.0000
# 3 82.2480 5.6433 125.1126 0.0000 0.0000 0.0000
# 4 0.0000 0.0000 0.0000 9.5001 0.0000 0.0000
# 5 0.0000 0.0000 0.0000 0.0000 19.5579 0.0000
# 6 0.0000 0.0000 0.0000 0.0000 0.0000 20.1113
#
#
#
# Elastic Compliance Matrix: (Units=1/GPa)
#
#
# Indices 1 2 3 4 5 6 
#
# 1 0.010208 0.000203 -0.006720 0.000000 0.000000 0.000000
# 2 0.000203 0.038727 -0.001880 0.000000 0.000000 0.000000
# 3 -0.006720 -0.001880 0.012495 0.000000 0.000000 0.000000
# 4 0.000000 0.000000 0.000000 0.105262 0.000000 0.000000
# 5 0.000000 0.000000 0.000000 0.000000 0.051130 0.000000
# 6 0.000000 0.000000 0.000000 0.000000 0.000000 0.049723
#
#
# Mechanical properties :
#
#
# Convention : Reuss Voigt Hill
#
# Bulk Modulus (GPa) = 22.40360 53.93387 38.16873
# Shear Modulus (GPa) = 16.71016 23.97672 20.34344
#
# Velocity S-wave (km/s) = 2.83167 3.39194 3.12439
# Velocity P-wave (km/s) = 4.63050 6.42032 5.59741
#
# Compressibility (1/GPa) = 0.04463569
#
# Stress axis : x y z
#
# Youngs Moduli (GPa) = 97.95888 25.82211 80.02987
#
# Poissons Ratio (x) = -0.00525 0.53781
# Poissons Ratio (y) = -0.01990 0.15049
# Poissons Ratio (z) = 0.65829 0.04855
#
# Static dielectric constant tensor:
#      x y z
#    x 1.680190 0.000000 0.000000 
#    y 0.000000 1.777750 0.000000 
#    z 0.000000 0.000000 1.758390 
# 
# From -- ./inp_files/16206.got.cif
#   From: 2010.05.17/outbox.cif.g08.bks.cpg/sg39_9_cif.got.tgz:16206.got - 2010.06.03 18:22:40.
