data_PCOD9361389
_publ_section_title
;
Structure prediction by ZEFSAII (Michael W. Deem and Ramdas Pophale) SiO2 
 PCOD9361389
Probable space group: A B M 2
;
_chemical_formula_sum "Si O2"
_cell_formula_units_Z 56
_cell_length_a 18.824765
_cell_length_b 15.383034
_cell_length_c 9.488780
_cell_angle_alpha 90.000000
_cell_angle_beta 90.000000
_cell_angle_gamma 90.000000
_cell_volume 2747.779890
_symmetry_space_group_name_H-M "A B M 2"
_symmetry_group_IT_number 39
_symmetry_cell_setting 'orthorhombic'
loop_
_space_group_symop_operation_xyz
x,y,z
-x,-y,z
-x,1/2+y,z
x,1/2-y,z
x,1/2+y,1/2+z
-x,1/2-y,1/2+z
-x,y,1/2+z
x,-y,1/2+z
loop_
_atom_site_type_symbol
_atom_site_label
_atom_site_fract_x
_atom_site_fract_y
_atom_site_fract_z
Si Si1 0.202643 0.851394 0.903400
Si Si2 0.034822 0.151441 0.653501
Si Si3 0.338264 0.907139 0.728956
Si Si4 0.056517 0.574433 0.866940
Si Si5 0.413711 0.250000 0.862025
Si Si6 0.321010 0.420745 0.894846
Si Si7 0.191872 0.146459 0.729165
Si Si8 0.555572 0.750000 0.189070
O O1 0.178302 0.750000 0.888124
O O2 0.268566 0.866158 0.801396
O O3 0.141414 0.922040 0.870513
O O4 0.221108 0.862490 0.069010
O O5 0.028483 0.250000 0.698764
O O6 0.039946 0.145511 0.486883
O O7 0.109420 0.117009 0.718127
O O8 0.968447 0.100541 0.712617
O O9 0.324103 0.927638 0.564116
O O10 0.400558 0.835708 0.735237
O O11 0.351862 0.994643 0.817240
O O12 0.000000 0.500000 0.907364
O O13 0.365145 0.335393 0.850614
O O14 0.477555 0.250000 0.752676
O O15 0.445309 0.250000 0.019855
O O16 0.241404 0.403961 0.837376
O O17 0.191863 0.250000 0.762268
#
# Coordination Sequence:
#
# PCOD9361389 Si02
#       8
#     8   8   8   8   4   8   8   4
#     4  10  21  40  64  90 125 176 220 273 332 396
#     4  10  21  39  58  80 116 162 205 258 317 391
#     4  11  24  42  66  97 136 170 223 270 326 389
#     4  11  23  38  57  86 121 156 209 266 324 377
#     4  10  24  44  72  98 141 174 215 262 327 392
#     4  11  23  42  65 100 135 172 218 272 325 394
#     4   9  19  36  61  88 122 165 216 262 324 386
#     4  10  24  46  68 102 133 178 217 262 321 392
#
# _framework density 20.380089000000002
#
# number of rings (size 3 to 8) (size 9 to 14) (size 15 to 20)
#    0.000    1.714    1.429    3.429    2.000    4.000 
#    0.000    4.286    0.000    0.000    0.000    0.000 
#    0.000    0.000    0.000    0.000    0.000    0.000 
#
# Total GULP energy -156244.770864 kJ/mol
# GULP energy per Si atom -5580.170388 kJ/mol
# Density = 2.033370 g / cm^3
# Si number density = 20.380089 Si / 1000 Ang^3
#
#
#
# Elastic Constant Matrix: (Units=GPa)
#
#
# Indices 1 2 3 4 5 6 
#
# 1 48.4687 22.6461 15.5522 0.0000 0.0000 0.0000
# 2 22.6461 99.4087 18.2269 0.0000 0.0000 0.0000
# 3 15.5522 18.2269 51.5532 0.0000 0.0000 0.0000
# 4 0.0000 0.0000 0.0000 30.3538 0.0000 0.0000
# 5 0.0000 0.0000 0.0000 0.0000 38.3260 0.0000
# 6 0.0000 0.0000 0.0000 0.0000 0.0000 20.0683
#
#
#
# Elastic Compliance Matrix: (Units=1/GPa)
#
#
# Indices 1 2 3 4 5 6 
#
# 1 0.024622 -0.004542 -0.005822 0.000000 0.000000 0.000000
# 2 -0.004542 0.011595 -0.002729 0.000000 0.000000 0.000000
# 3 -0.005822 -0.002729 0.022119 0.000000 0.000000 0.000000
# 4 0.000000 0.000000 0.000000 0.032945 0.000000 0.000000
# 5 0.000000 0.000000 0.000000 0.000000 0.026092 0.000000
# 6 0.000000 0.000000 0.000000 0.000000 0.000000 0.049830
#
#
# Mechanical properties :
#
#
# Convention : Reuss Voigt Hill
#
# Bulk Modulus (GPa) = 31.10475 34.69790 32.90132
# Shear Modulus (GPa) = 24.49730 27.28331 25.89031
#
# Velocity S-wave (km/s) = 3.47078 3.66283 3.56810
# Velocity P-wave (km/s) = 5.59975 5.91192 5.75795
#
# Compressibility (1/GPa) = 0.03214943
#
# Stress axis : x y z
#
# Youngs Moduli (GPa) = 40.61408 86.24776 45.21056
#
# Poissons Ratio (x) = 0.39170 0.26322
# Poissons Ratio (y) = 0.18445 0.12339
# Poissons Ratio (z) = 0.23646 0.23539
#
# Static dielectric constant tensor:
#      x y z
#    x 1.710930 0.000000 0.000000 
#    y 0.000000 1.756840 0.000000 
#    z 0.000000 0.000000 1.678130 
# 
# From -- ./inp_files/3981.got.cif
#   From: 2010.05.17/outbox.cif.g08.bks.cpg/sg39_2_cif.got.tgz:3981.got - 2010.06.03 18:22:40.
