data_PCOD9361587
_publ_section_title
;
Structure prediction by ZEFSAII (Michael W. Deem and Ramdas Pophale) SiO2 
 PCOD9361587
Probable space group: A B M 2
;
_chemical_formula_sum "Si O2"
_cell_formula_units_Z 64
_cell_length_a 15.664797
_cell_length_b 22.376434
_cell_length_c 9.362103
_cell_angle_alpha 90.000000
_cell_angle_beta 90.000000
_cell_angle_gamma 90.000000
_cell_volume 3281.625841
_symmetry_space_group_name_H-M "A B M 2"
_symmetry_group_IT_number 39
_symmetry_cell_setting 'orthorhombic'
loop_
_space_group_symop_operation_xyz
x,y,z
-x,-y,z
-x,1/2+y,z
x,1/2-y,z
x,1/2+y,1/2+z
-x,1/2-y,1/2+z
-x,y,1/2+z
x,-y,1/2+z
loop_
_atom_site_type_symbol
_atom_site_label
_atom_site_fract_x
_atom_site_fract_y
_atom_site_fract_z
Si Si1 0.711497 0.681041 0.816410
Si Si2 0.889059 0.529088 0.380343
Si Si3 0.694197 0.971179 0.403333
Si Si4 0.450213 0.682511 0.523004
Si Si5 0.998009 0.590474 0.128991
Si Si6 0.363435 0.068859 0.705790
Si Si7 0.887283 0.616121 0.878444
Si Si8 0.455644 0.391840 0.294678
O O1 0.722345 0.750000 0.772184
O O2 0.639713 0.679907 0.940177
O O3 0.671481 0.636606 0.698014
O O4 0.799448 0.651383 0.867327
O O5 0.791278 0.549893 0.386278
O O6 0.941261 0.553140 0.518581
O O7 0.881791 0.456947 0.380471
O O8 0.937876 0.552255 0.238269
O O9 0.665296 0.966698 0.566768
O O10 0.627704 0.930770 0.316590
O O11 0.681278 0.037228 0.340688
O O12 0.482832 0.750000 0.515717
O O13 0.512624 0.637055 0.441940
O O14 0.440341 0.660981 0.683522
O O15 0.057651 0.627655 0.235963
O O16 0.938517 0.628753 0.023755
O O17 0.464093 0.070428 0.735124
#
# Coordination Sequence:
#
# PCOD9361587 Si02
#       8
#     8   8   8   8   8   8   8   8
#     4  10  23  42  66  90 124 171 224 264 307 381
#     4  11  21  35  60  90 130 163 204 255 322 391
#     4  12  26  38  64  98 134 164 212 262 330 384
#     4  10  22  42  65  89 123 177 225 259 307 372
#     4  10  22  36  59  92 127 162 200 262 322 396
#     4  11  25  43  61  95 132 174 205 259 325 385
#     4  11  19  37  58  87 118 162 211 251 321 374
#     4  11  23  41  62  93 131 168 214 267 317 374
#
# _framework density 19.502528000000002
#
# number of rings (size 3 to 8) (size 9 to 14) (size 15 to 20)
#    0.000    1.250    2.500    4.500    7.000    1.500 
#    0.000    0.625    0.000    0.000    0.000    0.000 
#    0.000    0.000    0.000    0.000    0.000    0.000 
#
# Total GULP energy -178731.447157 kJ/mol
# GULP energy per Si atom -5585.357724 kJ/mol
# Density = 1.945814 g / cm^3
# Si number density = 19.502528 Si / 1000 Ang^3
#
#
#
# Elastic Constant Matrix: (Units=GPa)
#
#
# Indices 1 2 3 4 5 6 
#
# 1 131.8240 25.5513 27.3869 0.0000 0.0000 0.0000
# 2 25.5513 64.2767 21.0365 0.0000 0.0000 0.0000
# 3 27.3869 21.0365 106.1064 0.0000 0.0000 0.0000
# 4 0.0000 0.0000 0.0000 17.5534 0.0000 0.0000
# 5 0.0000 0.0000 0.0000 0.0000 11.1440 0.0000
# 6 0.0000 0.0000 0.0000 0.0000 0.0000 25.9158
#
#
#
# Elastic Compliance Matrix: (Units=1/GPa)
#
#
# Indices 1 2 3 4 5 6 
#
# 1 0.008473 -0.002837 -0.001625 0.000000 0.000000 0.000000
# 2 -0.002837 0.017587 -0.002755 0.000000 0.000000 0.000000
# 3 -0.001625 -0.002755 0.010390 0.000000 0.000000 0.000000
# 4 0.000000 0.000000 0.000000 0.056969 0.000000 0.000000
# 5 0.000000 0.000000 0.000000 0.000000 0.089734 0.000000
# 6 0.000000 0.000000 0.000000 0.000000 0.000000 0.038586
#
#
# Mechanical properties :
#
#
# Convention : Reuss Voigt Hill
#
# Bulk Modulus (GPa) = 45.41651 50.01740 47.71695
# Shear Modulus (GPa) = 20.53297 26.13814 23.33555
#
# Velocity S-wave (km/s) = 3.24826 3.66491 3.46286
# Velocity P-wave (km/s) = 6.11607 6.60386 6.36464
#
# Compressibility (1/GPa) = 0.02201842
#
# Stress axis : x y z
#
# Youngs Moduli (GPa) = 118.01917 56.86062 96.24680
#
# Poissons Ratio (x) = 0.16129 0.15637
# Poissons Ratio (y) = 0.33477 0.26512
# Poissons Ratio (z) = 0.19174 0.15663
#
# Static dielectric constant tensor:
#      x y z
#    x 1.696520 0.000000 0.000000 
#    y 0.000000 1.703320 0.000000 
#    z 0.000000 0.000000 1.694140 
# 
# From -- ./inp_files/3513.got.cif
#   From: 2010.05.17/outbox.cif.g08.bks.cpg/sg39_2_cif.got.tgz:3513.got - 2010.06.03 18:22:40.
