data_PCOD9361289
_publ_section_title
;
Structure prediction by ZEFSAII (Michael W. Deem and Ramdas Pophale) SiO2 
 PCOD9361289
Probable space group: A B M 2
;
_chemical_formula_sum "Si O2"
_cell_formula_units_Z 56
_cell_length_a 21.506367
_cell_length_b 24.626467
_cell_length_c 5.185943
_cell_angle_alpha 90.000000
_cell_angle_beta 90.000000
_cell_angle_gamma 90.000000
_cell_volume 2746.609403
_symmetry_space_group_name_H-M "A B M 2"
_symmetry_group_IT_number 39
_symmetry_cell_setting 'orthorhombic'
loop_
_space_group_symop_operation_xyz
x,y,z
-x,-y,z
-x,1/2+y,z
x,1/2-y,z
x,1/2+y,1/2+z
-x,1/2-y,1/2+z
-x,y,1/2+z
x,-y,1/2+z
loop_
_atom_site_type_symbol
_atom_site_label
_atom_site_fract_x
_atom_site_fract_y
_atom_site_fract_z
Si Si1 0.930838 0.021253 0.900190
Si Si2 0.876361 0.378576 0.672371
Si Si3 0.759957 0.962238 0.175036
Si Si4 0.861215 0.311947 0.181656
Si Si5 0.458317 0.187560 0.277349
Si Si6 0.714091 0.311995 0.159839
Si Si7 0.333546 0.369281 0.159341
O O1 0.928369 0.079872 0.774374
O O2 0.900533 0.982496 0.682257
O O3 0.000000 0.000000 0.951340
O O4 0.814263 0.416294 0.665877
O O5 0.889047 0.351546 0.397925
O O6 0.870383 0.333340 0.892738
O O7 0.694869 0.929357 0.172690
O O8 0.764651 0.997910 0.432170
O O9 0.882774 0.250000 0.210146
O O10 0.786910 0.313269 0.227659
O O11 0.433506 0.250000 0.254881
O O12 0.489661 0.182068 0.556189
O O13 0.404403 0.143962 0.230803
O O14 0.692118 0.250000 0.171337
O O15 0.678886 0.346982 0.373090
O O16 0.704408 0.334979 0.874163
#
# Coordination Sequence:
#
# PCOD9361289 Si02
#       7
#     8   8   8   8   8   8   8
#     4  10  21  38  61  93 121 154 209 255 303 345
#     4  12  21  39  60  88 126 167 192 253 307 351
#     4  12  24  38  56  83 119 156 200 245 299 357
#     4  11  22  36  56  89 128 163 197 234 294 383
#     4  10  21  37  58  86 114 145 192 249 305 360
#     4  11  20  34  55  85 118 153 197 232 283 372
#     4  12  22  38  58  83 117 161 195 239 314 357
#
# _framework density 20.388773
#
# number of rings (size 3 to 8) (size 9 to 14) (size 15 to 20)
#    0.000    0.857    2.857    6.000    0.000    3.429 
#    0.000    0.000    0.000    2.571    0.000   40.000 
#    0.000    0.000    0.000    0.000    0.000    0.000 
#
# Total GULP energy -156521.984356 kJ/mol
# GULP energy per Si atom -5590.070870 kJ/mol
# Density = 2.034237 g / cm^3
# Si number density = 20.388773 Si / 1000 Ang^3
#
#
#
# Elastic Constant Matrix: (Units=GPa)
#
#
# Indices 1 2 3 4 5 6 
#
# 1 48.3577 18.2279 -9.4847 0.0000 0.0000 0.0000
# 2 18.2279 90.8085 15.3088 0.0000 0.0000 0.0000
# 3 -9.4847 15.3088 88.8756 0.0000 0.0000 0.0000
# 4 0.0000 0.0000 0.0000 43.2912 0.0000 0.0000
# 5 0.0000 0.0000 0.0000 0.0000 20.9994 0.0000
# 6 0.0000 0.0000 0.0000 0.0000 0.0000 27.2387
#
#
#
# Elastic Compliance Matrix: (Units=1/GPa)
#
#
# Indices 1 2 3 4 5 6 
#
# 1 0.023326 -0.005254 0.003394 0.000000 0.000000 0.000000
# 2 -0.005254 0.012525 -0.002718 0.000000 0.000000 0.000000
# 3 0.003394 -0.002718 0.012082 0.000000 0.000000 0.000000
# 4 0.000000 0.000000 0.000000 0.023099 0.000000 0.000000
# 5 0.000000 0.000000 0.000000 0.000000 0.047620 0.000000
# 6 0.000000 0.000000 0.000000 0.000000 0.000000 0.036712
#
#
# Mechanical properties :
#
#
# Convention : Reuss Voigt Hill
#
# Bulk Modulus (GPa) = 25.78887 30.68286 28.23586
# Shear Modulus (GPa) = 28.17744 31.90519 30.04131
#
# Velocity S-wave (km/s) = 3.72157 3.96010 3.84269
# Velocity P-wave (km/s) = 5.58057 5.99928 5.79371
#
# Compressibility (1/GPa) = 0.03877642
#
# Stress axis : x y z
#
# Youngs Moduli (GPa) = 42.87143 79.83954 82.76689
#
# Poissons Ratio (x) = 0.41950 -0.28094
# Poissons Ratio (y) = 0.22526 0.22498
# Poissons Ratio (z) = -0.14552 0.21702
#
# Static dielectric constant tensor:
#      x y z
#    x 1.779300 0.000000 0.000000 
#    y 0.000000 1.727690 0.000000 
#    z 0.000000 0.000000 1.746560 
# 
# From -- ./inp_files/1089.got.cif
#   From: 2010.05.17/outbox.cif.g08.bks.cpg/sg39_1_cif.got.tgz:1089.got - 2010.06.03 18:22:40.
