data_PCOD9361836
_publ_section_title
;
Structure prediction by ZEFSAII (Michael W. Deem and Ramdas Pophale) SiO2 
 PCOD9361836
Probable space group: A B M 2
;
_chemical_formula_sum "Si O2"
_cell_formula_units_Z 40
_cell_length_a 14.810031
_cell_length_b 8.664580
_cell_length_c 15.879546
_cell_angle_alpha 90.000000
_cell_angle_beta 90.000000
_cell_angle_gamma 90.000000
_cell_volume 2037.706192
_symmetry_space_group_name_H-M "A B M 2"
_symmetry_group_IT_number 39
_symmetry_cell_setting 'orthorhombic'
loop_
_space_group_symop_operation_xyz
x,y,z
-x,-y,z
-x,1/2+y,z
x,1/2-y,z
x,1/2+y,1/2+z
-x,1/2-y,1/2+z
-x,y,1/2+z
x,-y,1/2+z
loop_
_atom_site_type_symbol
_atom_site_label
_atom_site_fract_x
_atom_site_fract_y
_atom_site_fract_z
Si Si1 0.222539 0.564595 0.282390
Si Si2 0.595518 0.934594 0.528482
Si Si3 0.216747 0.065775 0.970380
Si Si4 0.593684 0.433907 0.718398
Si Si5 0.100607 0.434910 0.623589
O O1 0.236410 0.750000 0.276329
O O2 0.185420 0.531034 0.375366
O O3 0.318571 0.483071 0.269780
O O4 0.156305 0.517277 0.206949
O O5 0.595006 0.750000 0.526154
O O6 0.500000 0.000000 0.496476
O O7 0.682269 0.000707 0.481342
O O8 0.603711 0.991397 0.625428
O O9 0.218840 0.250000 0.981667
O O10 0.154087 0.993447 0.041839
O O11 0.500000 0.500000 0.754375
O O12 0.587684 0.250000 0.710306
O O13 0.097682 0.250000 0.622049
O O14 0.000000 0.500000 0.625224
#
# Coordination Sequence:
#
# PCOD9361836 Si02
#       5
#     8   8   8   8   8
#     4  10  23  42  64  92 128 164 205 256 309 368
#     4  11  21  36  59  89 126 168 211 256 306 364
#     4  11  23  41  65  95 127 164 207 257 311 369
#     4  11  21  35  60  90 125 168 211 254 304 364
#     4  11  24  44  68  92 123 162 203 259 316 373
#
# _framework density 19.629915
#
# number of rings (size 3 to 8) (size 9 to 14) (size 15 to 20)
#    0.000    1.200    2.000    6.000    0.000    4.000 
#    0.000    2.000    0.000    0.000    0.000    0.000 
#    0.000    0.000    0.000    0.000    0.000    0.000 
#
# Total GULP energy -111861.241118 kJ/mol
# GULP energy per Si atom -5593.062056 kJ/mol
# Density = 1.958524 g / cm^3
# Si number density = 19.629915 Si / 1000 Ang^3
#
#
#
# Elastic Constant Matrix: (Units=GPa)
#
#
# Indices 1 2 3 4 5 6 
#
# 1 152.0976 50.9118 82.6234 0.0000 0.0000 0.0000
# 2 50.9118 88.7370 57.3147 0.0000 0.0000 0.0000
# 3 82.6234 57.3147 138.1303 0.0000 0.0000 0.0000
# 4 0.0000 0.0000 0.0000 22.9775 0.0000 0.0000
# 5 0.0000 0.0000 0.0000 0.0000 -5.9618 0.0000
# 6 0.0000 0.0000 0.0000 0.0000 0.0000 37.7159
#
#
#
# Elastic Compliance Matrix: (Units=1/GPa)
#
#
# Indices 1 2 3 4 5 6 
#
# 1 0.010161 -0.002601 -0.004998 0.000000 0.000000 0.000000
# 2 -0.002601 0.016061 -0.005108 0.000000 0.000000 0.000000
# 3 -0.004998 -0.005108 0.012349 0.000000 0.000000 0.000000
# 4 0.000000 0.000000 0.000000 0.043521 0.000000 0.000000
# 5 0.000000 0.000000 0.000000 0.000000 -0.167736 0.000000
# 6 0.000000 0.000000 0.000000 0.000000 0.000000 0.026514
#
#
# Mechanical properties :
#
#
# Convention : Reuss Voigt Hill
#
# Bulk Modulus (GPa) = 76.01693 84.51830 80.26761
# Shear Modulus (GPa) = -170.47620 23.48734 -73.49443
#
# Velocity S-wave (km/s) = -9.32918 3.46281 -6.12546
# Velocity P-wave (km/s) = 8.78839 7.69008 3.00818
#
# Compressibility (1/GPa) = 0.01315496
#
# Stress axis : x y z
#
# Youngs Moduli (GPa) = 98.41896 62.26226 80.97845
#
# Poissons Ratio (x) = 0.16195 0.40476
# Poissons Ratio (y) = 0.25600 0.41367
# Poissons Ratio (z) = 0.49193 0.31806
#
# Static dielectric constant tensor:
#      x y z
#    x 1.660050 0.000000 0.000000 
#    y 0.000000 1.655980 0.000000 
#    z 0.000000 0.000000 1.711650 
# 
# From -- ./inp_files/9627.got.cif
#   From: 2010.05.17/outbox.cif.g08.bks.cpg/sg39_5_cif.got.tgz:9627.got - 2010.06.03 18:22:40.
