data_PCOD9361362
_publ_section_title
;
Structure prediction by ZEFSAII (Michael W. Deem and Ramdas Pophale) SiO2 
 PCOD9361362
Probable space group: A B M 2
;
_chemical_formula_sum "Si O2"
_cell_formula_units_Z 48
_cell_length_a 8.931997
_cell_length_b 29.314992
_cell_length_c 7.913974
_cell_angle_alpha 90.000000
_cell_angle_beta 90.000000
_cell_angle_gamma 90.000000
_cell_volume 2072.206195
_symmetry_space_group_name_H-M "A B M 2"
_symmetry_group_IT_number 39
_symmetry_cell_setting 'orthorhombic'
loop_
_space_group_symop_operation_xyz
x,y,z
-x,-y,z
-x,1/2+y,z
x,1/2-y,z
x,1/2+y,1/2+z
-x,1/2-y,1/2+z
-x,y,1/2+z
x,-y,1/2+z
loop_
_atom_site_type_symbol
_atom_site_label
_atom_site_fract_x
_atom_site_fract_y
_atom_site_fract_z
Si Si1 0.005563 0.352016 0.661300
Si Si2 0.441718 0.129845 0.366958
Si Si3 0.795157 0.302665 0.933086
Si Si4 0.222808 0.066838 0.569584
Si Si5 0.728256 0.607634 0.022605
Si Si6 0.836169 0.979627 0.211431
O O1 0.896677 0.334482 0.809900
O O2 0.877324 0.362310 0.519852
O O3 0.124064 0.313374 0.610438
O O4 0.102021 0.399213 0.657220
O O5 0.374343 0.178576 0.424712
O O6 0.360340 0.094821 0.493932
O O7 0.373001 0.122061 0.183033
O O8 0.616738 0.119014 0.371459
O O9 0.803885 0.250000 0.887917
O O10 0.161592 0.044145 0.394130
O O11 0.264423 0.024934 0.691239
O O12 0.782902 0.557094 0.072749
O O13 0.000000 0.000000 0.177837
#
# Coordination Sequence:
#
# PCOD9361362 Si02
#       6
#     8   8   8   8   8   8
#     4  10  21  38  62  90 122 159 205 261 324 378
#     4   9  22  40  57  84 123 161 201 253 320 374
#     4  10  21  40  64  91 120 156 207 267 325 392
#     4  10  22  37  58  87 121 164 208 260 306 360
#     4  10  21  39  58  85 121 165 202 248 309 365
#     4  11  21  35  59  88 120 161 218 254 293 362
#
# _framework density 23.163719
#
# number of rings (size 3 to 8) (size 9 to 14) (size 15 to 20)
#    0.000    2.000    1.667    2.000    0.000    4.667 
#    0.000    7.500    0.000    0.000    0.000    0.000 
#    0.000    0.000    0.000    0.000    0.000    0.000 
#
# Total GULP energy -133967.305568 kJ/mol
# GULP energy per Si atom -5581.971065 kJ/mol
# Density = 2.311100 g / cm^3
# Si number density = 23.163719 Si / 1000 Ang^3
#
#
#
# Elastic Constant Matrix: (Units=GPa)
#
#
# Indices 1 2 3 4 5 6 
#
# 1 110.4538 46.6307 9.7054 0.0000 0.0000 0.0000
# 2 46.6307 116.6316 16.4314 0.0000 0.0000 0.0000
# 3 9.7054 16.4314 63.0198 0.0000 0.0000 0.0000
# 4 0.0000 0.0000 0.0000 23.7403 0.0000 0.0000
# 5 0.0000 0.0000 0.0000 0.0000 44.6481 0.0000
# 6 0.0000 0.0000 0.0000 0.0000 0.0000 15.9954
#
#
#
# Elastic Compliance Matrix: (Units=1/GPa)
#
#
# Indices 1 2 3 4 5 6 
#
# 1 0.010911 -0.004283 -0.000564 0.000000 0.000000 0.000000
# 2 -0.004283 0.010582 -0.002100 0.000000 0.000000 0.000000
# 3 -0.000564 -0.002100 0.016502 0.000000 0.000000 0.000000
# 4 0.000000 0.000000 0.000000 0.042122 0.000000 0.000000
# 5 0.000000 0.000000 0.000000 0.000000 0.022397 0.000000
# 6 0.000000 0.000000 0.000000 0.000000 0.000000 0.062518
#
#
# Mechanical properties :
#
#
# Convention : Reuss Voigt Hill
#
# Bulk Modulus (GPa) = 41.48814 48.40447 44.94631
# Shear Modulus (GPa) = 26.74365 31.36595 29.05480
#
# Velocity S-wave (km/s) = 3.40155 3.68380 3.54549
# Velocity P-wave (km/s) = 5.77729 6.24787 6.01718
#
# Compressibility (1/GPa) = 0.02410327
#
# Stress axis : x y z
#
# Youngs Moduli (GPa) = 91.64832 94.49829 60.59775
#
# Poissons Ratio (x) = 0.40474 0.03416
# Poissons Ratio (y) = 0.39253 0.12723
# Poissons Ratio (z) = 0.05166 0.19840
#
# Static dielectric constant tensor:
#      x y z
#    x 1.882290 0.000000 0.000000 
#    y 0.000000 1.855840 0.000000 
#    z 0.000000 0.000000 2.004540 
# 
# From -- ./inp_files/2305.got.cif
#   From: 2010.05.17/outbox.cif.g08.bks.cpg/sg39_2_cif.got.tgz:2305.got - 2010.06.03 18:22:40.
