data_PCOD9361571
_publ_section_title
;
Structure prediction by ZEFSAII (Michael W. Deem and Ramdas Pophale) SiO2 
 PCOD9361571
Probable space group: A B M 2
;
_chemical_formula_sum "Si O2"
_cell_formula_units_Z 64
_cell_length_a 16.379268
_cell_length_b 18.990180
_cell_length_c 9.014101
_cell_angle_alpha 90.000000
_cell_angle_beta 90.000000
_cell_angle_gamma 90.000000
_cell_volume 2803.793277
_symmetry_space_group_name_H-M "A B M 2"
_symmetry_group_IT_number 39
_symmetry_cell_setting 'orthorhombic'
loop_
_space_group_symop_operation_xyz
x,y,z
-x,-y,z
-x,1/2+y,z
x,1/2-y,z
x,1/2+y,1/2+z
-x,1/2-y,1/2+z
-x,y,1/2+z
x,-y,1/2+z
loop_
_atom_site_type_symbol
_atom_site_label
_atom_site_fract_x
_atom_site_fract_y
_atom_site_fract_z
Si Si1 0.927663 0.105452 0.673940
Si Si2 0.578933 0.042960 0.376932
Si Si3 0.344334 0.828865 0.908985
Si Si4 0.348411 0.332410 0.755616
Si Si5 0.203847 0.389944 0.960500
Si Si6 0.656739 0.555258 0.178482
Si Si7 0.887392 0.940870 0.684774
Si Si8 0.842181 0.830550 0.452067
O O1 0.872180 0.144878 0.550497
O O2 0.903977 0.140442 0.829565
O O3 0.025172 0.098938 0.671843
O O4 0.901371 0.023200 0.655026
O O5 0.580372 0.123955 0.334232
O O6 0.594002 0.036408 0.549870
O O7 0.500000 0.000000 0.334183
O O8 0.657507 0.010533 0.290085
O O9 0.378085 0.750000 0.896121
O O10 0.373672 0.881834 0.783661
O O11 0.247112 0.825885 0.880691
O O12 0.349793 0.852881 0.080775
O O13 0.361818 0.250000 0.757458
O O14 0.266564 0.346405 0.855110
O O15 0.155210 0.438438 0.844444
O O16 0.261849 0.424568 0.087342
O O17 0.835733 0.892319 0.573844
O O18 0.861246 0.750000 0.504862
#
# Coordination Sequence:
#
# PCOD9361571 Si02
#       8
#     8   8   8   8   8   8   8   8
#     4  11  24  41  63  95 136 191 252 315 372 436
#     4  11  25  45  71 108 148 180 222 286 353 434
#     4  10  21  43  68  99 139 179 231 290 349 416
#     4  10  23  43  72 106 141 189 234 288 354 424
#     4  11  23  37  66 102 136 185 247 309 351 430
#     4  11  24  40  70 106 137 184 233 291 351 421
#     4  11  24  42  63  91 139 194 252 311 375 433
#     4  11  23  41  64  91 135 184 233 301 377 433
#
# _framework density 22.826218999999998
#
# number of rings (size 3 to 8) (size 9 to 14) (size 15 to 20)
#    0.000    1.250    2.500    2.625    3.500    8.000 
#    0.000    2.500    0.000    5.250    0.000    0.000 
#    0.000    0.000    0.000    0.000    0.000    0.000 
#
# Total GULP energy -178529.217582 kJ/mol
# GULP energy per Si atom -5579.038049 kJ/mol
# Density = 2.277427 g / cm^3
# Si number density = 22.826219 Si / 1000 Ang^3
#
#
#
# Elastic Constant Matrix: (Units=GPa)
#
#
# Indices 1 2 3 4 5 6 
#
# 1 72.1111 14.5935 25.0456 0.0000 0.0000 0.0000
# 2 14.5935 74.9797 41.7134 0.0000 0.0000 0.0000
# 3 25.0456 41.7134 134.7732 0.0000 0.0000 0.0000
# 4 0.0000 0.0000 0.0000 35.5779 0.0000 0.0000
# 5 0.0000 0.0000 0.0000 0.0000 25.1657 0.0000
# 6 0.0000 0.0000 0.0000 0.0000 0.0000 16.6851
#
#
#
# Elastic Compliance Matrix: (Units=1/GPa)
#
#
# Indices 1 2 3 4 5 6 
#
# 1 0.014992 -0.001653 -0.002275 0.000000 0.000000 0.000000
# 2 -0.001653 0.016293 -0.004736 0.000000 0.000000 0.000000
# 3 -0.002275 -0.004736 0.009308 0.000000 0.000000 0.000000
# 4 0.000000 0.000000 0.000000 0.028107 0.000000 0.000000
# 5 0.000000 0.000000 0.000000 0.000000 0.039737 0.000000
# 6 0.000000 0.000000 0.000000 0.000000 0.000000 0.059934
#
#
# Mechanical properties :
#
#
# Convention : Reuss Voigt Hill
#
# Bulk Modulus (GPa) = 42.97793 49.39655 46.18724
# Shear Modulus (GPa) = 25.84610 28.85318 27.34964
#
# Velocity S-wave (km/s) = 3.36862 3.55919 3.46521
# Velocity P-wave (km/s) = 5.83089 6.21109 6.02399
#
# Compressibility (1/GPa) = 0.02326775
#
# Stress axis : x y z
#
# Youngs Moduli (GPa) = 66.70257 61.37513 107.43057
#
# Poissons Ratio (x) = 0.10142 0.24436
# Poissons Ratio (y) = 0.11023 0.50877
# Poissons Ratio (z) = 0.15172 0.29066
#
# Static dielectric constant tensor:
#      x y z
#    x 1.879470 0.000000 0.000000 
#    y 0.000000 1.892040 0.000000 
#    z 0.000000 0.000000 1.872140 
# 
# From -- ./inp_files/3873.got.cif
#   From: 2010.05.17/outbox.cif.g08.bks.cpg/sg39_2_cif.got.tgz:3873.got - 2010.06.03 18:22:40.
