data_PCOD9361789
_publ_section_title
;
Structure prediction by ZEFSAII (Michael W. Deem and Ramdas Pophale) SiO2 
 PCOD9361789
Probable space group: A B M 2
;
_chemical_formula_sum "Si O2"
_cell_formula_units_Z 32
_cell_length_a 13.462514
_cell_length_b 10.187661
_cell_length_c 9.755724
_cell_angle_alpha 90.000000
_cell_angle_beta 90.000000
_cell_angle_gamma 90.000000
_cell_volume 1338.012462
_symmetry_space_group_name_H-M "A B M 2"
_symmetry_group_IT_number 39
_symmetry_cell_setting 'orthorhombic'
loop_
_space_group_symop_operation_xyz
x,y,z
-x,-y,z
-x,1/2+y,z
x,1/2-y,z
x,1/2+y,1/2+z
-x,1/2-y,1/2+z
-x,y,1/2+z
x,-y,1/2+z
loop_
_atom_site_type_symbol
_atom_site_label
_atom_site_fract_x
_atom_site_fract_y
_atom_site_fract_z
Si Si1 0.700358 0.101728 0.147220
Si Si2 0.881327 0.972372 0.495172
Si Si3 0.404648 0.906469 0.438660
Si Si4 0.919798 0.250000 0.796229
Si Si5 0.886797 0.750000 0.975779
O O1 0.675241 0.250000 0.096977
O O2 0.659385 0.091763 0.299589
O O3 0.819095 0.086797 0.120060
O O4 0.648997 0.986114 0.060741
O O5 0.834903 0.112894 0.463029
O O6 0.871005 0.877114 0.365494
O O7 0.000000 0.000000 0.520452
O O8 0.424148 0.750000 0.469781
O O9 0.500000 0.000000 0.411645
O O10 0.027933 0.250000 0.863149
O O11 0.922993 0.250000 0.634397
#
# Coordination Sequence:
#
# PCOD9361789 Si02
#       5
#     8   8   8   4   4
#     4  11  25  46  71 105 142 185 234 288 349 425
#     4  10  23  42  65  98 142 189 233 282 339 402
#     4  11  26  48  75 106 136 177 228 292 363 428
#     4  10  22  44  62  92 135 187 236 290 343 395
#     4  10  24  40  64  94 129 189 240 288 341 401
#
# _framework density 23.916069
#
# number of rings (size 3 to 8) (size 9 to 14) (size 15 to 20)
#    0.000    1.500    1.250    1.500    5.250   13.000 
#    0.000    0.000    0.000    0.000    0.000    0.000 
#    0.000    0.000    0.000    0.000    0.000    0.000 
#
# Total GULP energy -89378.957785 kJ/mol
# GULP energy per Si atom -5586.184862 kJ/mol
# Density = 2.386164 g / cm^3
# Si number density = 23.916069 Si / 1000 Ang^3
#
#
#
# Elastic Constant Matrix: (Units=GPa)
#
#
# Indices 1 2 3 4 5 6 
#
# 1 114.8770 54.1237 61.8470 0.0000 0.0000 0.0000
# 2 54.1237 253.8258 71.6313 0.0000 0.0000 0.0000
# 3 61.8470 71.6313 121.1240 0.0000 0.0000 0.0000
# 4 0.0000 0.0000 0.0000 43.1856 0.0000 0.0000
# 5 0.0000 0.0000 0.0000 0.0000 30.1469 0.0000
# 6 0.0000 0.0000 0.0000 0.0000 0.0000 36.1934
#
#
#
# Elastic Compliance Matrix: (Units=1/GPa)
#
#
# Indices 1 2 3 4 5 6 
#
# 1 0.012219 -0.001014 -0.005639 0.000000 0.000000 0.000000
# 2 -0.001014 0.004813 -0.002329 0.000000 0.000000 0.000000
# 3 -0.005639 -0.002329 0.012513 0.000000 0.000000 0.000000
# 4 0.000000 0.000000 0.000000 0.023156 0.000000 0.000000
# 5 0.000000 0.000000 0.000000 0.000000 0.033171 0.000000
# 6 0.000000 0.000000 0.000000 0.000000 0.000000 0.027629
#
#
# Mechanical properties :
#
#
# Convention : Reuss Voigt Hill
#
# Bulk Modulus (GPa) = 86.35182 96.11454 91.23318
# Shear Modulus (GPa) = 36.94812 42.05349 39.50081
#
# Velocity S-wave (km/s) = 3.93480 4.19785 4.06845
# Velocity P-wave (km/s) = 7.53844 7.98570 7.76529
#
# Compressibility (1/GPa) = 0.01158053
#
# Stress axis : x y z
#
# Youngs Moduli (GPa) = 81.84118 207.76700 79.91902
#
# Poissons Ratio (x) = 0.21067 0.45069
# Poissons Ratio (y) = 0.08298 0.18610
# Poissons Ratio (z) = 0.46153 0.48382
#
# Static dielectric constant tensor:
#      x y z
#    x 1.982450 0.000000 0.000000 
#    y 0.000000 1.969970 0.000000 
#    z 0.000000 0.000000 1.835710 
# 
# From -- ./inp_files/2980.got.cif
#   From: 2010.05.17/outbox.cif.g08.bks.cpg/sg39_2_cif.got.tgz:2980.got - 2010.06.03 18:22:40.
