data_PCOD9361799
_publ_section_title
;
Structure prediction by ZEFSAII (Michael W. Deem and Ramdas Pophale) SiO2 
 PCOD9361799
Probable space group: A B M 2
;
_chemical_formula_sum "Si O2"
_cell_formula_units_Z 64
_cell_length_a 16.063784
_cell_length_b 15.091878
_cell_length_c 11.286538
_cell_angle_alpha 90.000000
_cell_angle_beta 90.000000
_cell_angle_gamma 90.000000
_cell_volume 2736.225524
_symmetry_space_group_name_H-M "A B M 2"
_symmetry_group_IT_number 39
_symmetry_cell_setting 'orthorhombic'
loop_
_space_group_symop_operation_xyz
x,y,z
-x,-y,z
-x,1/2+y,z
x,1/2-y,z
x,1/2+y,1/2+z
-x,1/2-y,1/2+z
-x,y,1/2+z
x,-y,1/2+z
loop_
_atom_site_type_symbol
_atom_site_label
_atom_site_fract_x
_atom_site_fract_y
_atom_site_fract_z
Si Si1 0.991310 0.894018 0.378790
Si Si2 0.153063 0.149550 0.568361
Si Si3 0.657210 0.849794 0.470626
Si Si4 0.215365 0.523963 0.258963
Si Si5 0.528046 0.354023 0.189591
Si Si6 0.389137 0.525583 0.753730
Si Si7 0.176010 0.847376 0.451071
Si Si8 0.141125 0.347132 0.226092
O O1 0.922411 0.866435 0.477093
O O2 0.956314 0.857119 0.254141
O O3 0.080491 0.855093 0.409584
O O4 0.000000 0.000000 0.376356
O O5 0.145515 0.250000 0.615068
O O6 0.247320 0.143748 0.515502
O O7 0.154328 0.076710 0.671883
O O8 0.648517 0.750000 0.419629
O O9 0.590016 0.855362 0.577404
O O10 0.633143 0.921956 0.373070
O O11 0.301917 0.502627 0.196821
O O12 0.226506 0.581443 0.376628
O O13 0.178129 0.430201 0.293088
O O14 0.521119 0.250000 0.226145
O O15 0.566195 0.430538 0.276061
O O16 0.439644 0.404176 0.172380
O O17 0.209659 0.750000 0.425536
O O18 0.168983 0.859013 0.591532
O O19 0.168078 0.250000 0.266761
#
# Coordination Sequence:
#
# PCOD9361799 Si02
#       8
#     8   8   8   8   8   8   8   8
#     4  12  24  44  70 103 140 192 247 304 360 434
#     4  11  24  44  75 106 144 194 246 300 364 444
#     4  10  22  44  72 105 143 188 238 288 359 440
#     4  12  25  44  72 102 142 187 249 299 364 440
#     4  10  23  45  69 103 142 183 233 286 353 435
#     4  11  24  40  72 106 141 184 232 298 355 426
#     4  11  26  45  67  99 140 186 239 305 368 425
#     4  11  26  46  66  97 141 185 240 306 367 428
#
# _framework density 23.389883999999999
#
# number of rings (size 3 to 8) (size 9 to 14) (size 15 to 20)
#    0.000    1.000    2.500    3.375    3.500    5.000 
#    0.000    0.000    0.000    2.250    0.000    0.000 
#    0.000    0.000    0.000    0.000    0.000    0.000 
#
# Total GULP energy -178805.550469 kJ/mol
# GULP energy per Si atom -5587.673452 kJ/mol
# Density = 2.333665 g / cm^3
# Si number density = 23.389884 Si / 1000 Ang^3
#
#
#
# Elastic Constant Matrix: (Units=GPa)
#
#
# Indices 1 2 3 4 5 6 
#
# 1 87.2251 26.8426 7.2977 0.0000 0.0000 0.0000
# 2 26.8426 210.0684 45.5925 0.0000 0.0000 0.0000
# 3 7.2977 45.5925 48.1189 0.0000 0.0000 0.0000
# 4 0.0000 0.0000 0.0000 34.2295 0.0000 0.0000
# 5 0.0000 0.0000 0.0000 0.0000 30.6510 0.0000
# 6 0.0000 0.0000 0.0000 0.0000 0.0000 26.5291
#
#
#
# Elastic Compliance Matrix: (Units=1/GPa)
#
#
# Indices 1 2 3 4 5 6 
#
# 1 0.011942 -0.001426 -0.000460 0.000000 0.000000 0.000000
# 2 -0.001426 0.006163 -0.005623 0.000000 0.000000 0.000000
# 3 -0.000460 -0.005623 0.026179 0.000000 0.000000 0.000000
# 4 0.000000 0.000000 0.000000 0.029215 0.000000 0.000000
# 5 0.000000 0.000000 0.000000 0.000000 0.032625 0.000000
# 6 0.000000 0.000000 0.000000 0.000000 0.000000 0.037694
#
#
# Mechanical properties :
#
#
# Convention : Reuss Voigt Hill
#
# Bulk Modulus (GPa) = 34.16916 56.09757 45.13336
# Shear Modulus (GPa) = 29.65731 35.99389 32.82560
#
# Velocity S-wave (km/s) = 3.56470 3.92709 3.75028
# Velocity P-wave (km/s) = 5.61988 6.67821 6.17177
#
# Compressibility (1/GPa) = 0.02926616
#
# Stress axis : x y z
#
# Youngs Moduli (GPa) = 83.73845 162.25825 38.19784
#
# Poissons Ratio (x) = 0.23140 0.01757
# Poissons Ratio (y) = 0.11942 0.21479
# Poissons Ratio (z) = 0.03851 0.91240
#
# Static dielectric constant tensor:
#      x y z
#    x 1.993730 0.000000 0.000000 
#    y 0.000000 1.893380 0.000000 
#    z 0.000000 0.000000 1.881970 
# 
# From -- ./inp_files/6877.got.cif
#   From: 2010.05.17/outbox.cif.g08.bks.cpg/sg39_4_cif.got.tgz:6877.got - 2010.06.03 18:22:40.
