data_PCOD9361990
_publ_section_title
;
Structure prediction by ZEFSAII (Michael W. Deem and Ramdas Pophale) SiO2 
 PCOD9361990
Probable space group: A B M 2
;
_chemical_formula_sum "Si O2"
_cell_formula_units_Z 48
_cell_length_a 9.216412
_cell_length_b 8.665538
_cell_length_c 32.090798
_cell_angle_alpha 90.000000
_cell_angle_beta 90.000000
_cell_angle_gamma 90.000000
_cell_volume 2562.936987
_symmetry_space_group_name_H-M "A B M 2"
_symmetry_group_IT_number 39
_symmetry_cell_setting 'orthorhombic'
loop_
_space_group_symop_operation_xyz
x,y,z
-x,-y,z
-x,1/2+y,z
x,1/2-y,z
x,1/2+y,1/2+z
-x,1/2-y,1/2+z
-x,y,1/2+z
x,-y,1/2+z
loop_
_atom_site_type_symbol
_atom_site_label
_atom_site_fract_x
_atom_site_fract_y
_atom_site_fract_z
Si Si1 0.338104 0.564829 0.783130
Si Si2 0.164237 0.564707 0.947673
Si Si3 0.164011 0.934123 0.361471
Si Si4 0.162011 0.935047 0.699355
Si Si5 0.163117 0.564126 0.039398
Si Si6 0.661855 0.935587 0.621003
O O1 0.500000 0.500000 0.780083
O O2 0.341857 0.750000 0.786751
O O3 0.257563 0.495062 0.823106
O O4 0.248966 0.524550 0.741412
O O5 0.162008 0.750000 0.943626
O O6 0.228127 0.492445 0.905707
O O7 0.000000 0.500000 0.948812
O O8 0.223944 0.522513 0.993424
O O9 0.156893 0.750000 0.361452
O O10 0.000000 0.000000 0.357763
O O11 0.157532 0.750000 0.695839
O O12 0.244257 0.003780 0.659593
O O13 0.000000 0.000000 0.701507
O O14 0.153016 0.750000 0.040380
O O15 0.262285 0.513891 0.077781
O O16 0.000000 0.500000 0.043832
O O17 0.658416 0.750000 0.621982
O O18 0.500000 0.000000 0.623791
#
# Coordination Sequence:
#
# PCOD9361990 Si02
#       6
#     8   8   8   8   8   8
#     4  11  24  41  60  84 115 150 187 229 280 336
#     4   9  16  30  52  79 111 145 186 235 284 331
#     4  11  21  35  57  85 115 149 191 236 283 333
#     4  11  24  41  63  89 115 146 186 231 278 331
#     4   9  19  34  55  82 111 146 188 235 282 333
#     4  11  23  39  58  83 116 152 190 232 282 336
#
# _framework density 18.728514000000001
#
# number of rings (size 3 to 8) (size 9 to 14) (size 15 to 20)
#    0.000    1.667    0.000    6.000    0.000    8.667 
#    0.000    0.833    0.000    2.000    0.000    0.000 
#    0.000    0.000    0.000    0.000    0.000    0.000 
#
# Total GULP energy -134064.878622 kJ/mol
# GULP energy per Si atom -5586.036609 kJ/mol
# Density = 1.868589 g / cm^3
# Si number density = 18.728514 Si / 1000 Ang^3
#
#
#
# Elastic Constant Matrix: (Units=GPa)
#
#
# Indices 1 2 3 4 5 6 
#
# 1 130.7348 48.2254 102.6513 0.0000 0.0000 0.0000
# 2 48.2254 81.4625 79.0250 0.0000 0.0000 0.0000
# 3 102.6513 79.0250 225.4970 0.0000 0.0000 0.0000
# 4 0.0000 0.0000 0.0000 18.1821 0.0000 0.0000
# 5 0.0000 0.0000 0.0000 0.0000 -49.2904 0.0000
# 6 0.0000 0.0000 0.0000 0.0000 0.0000 30.4472
#
#
#
# Elastic Compliance Matrix: (Units=1/GPa)
#
#
# Indices 1 2 3 4 5 6 
#
# 1 0.012313 -0.002806 -0.004622 0.000000 0.000000 0.000000
# 2 -0.002806 0.019238 -0.005465 0.000000 0.000000 0.000000
# 3 -0.004622 -0.005465 0.008454 0.000000 0.000000 0.000000
# 4 0.000000 0.000000 0.000000 0.054999 0.000000 0.000000
# 5 0.000000 0.000000 0.000000 0.000000 -0.020288 0.000000
# 6 0.000000 0.000000 0.000000 0.000000 0.000000 0.032844
#
#
# Mechanical properties :
#
#
# Convention : Reuss Voigt Hill
#
# Bulk Modulus (GPa) = 70.32331 99.72196 85.02263
# Shear Modulus (GPa) = 36.20987 13.72061 24.96524
#
# Velocity S-wave (km/s) = 4.40182 2.70961 3.65500
# Velocity P-wave (km/s) = 7.96650 7.94676 7.95663
#
# Compressibility (1/GPa) = 0.01422004
#
# Stress axis : x y z
#
# Youngs Moduli (GPa) = 81.21410 51.98162 118.29102
#
# Poissons Ratio (x) = 0.14584 0.54674
# Poissons Ratio (y) = 0.22786 0.64641
# Poissons Ratio (z) = 0.37537 0.28406
#
# Static dielectric constant tensor:
#      x y z
#    x 1.610290 0.000000 0.000000 
#    y 0.000000 1.631440 0.000000 
#    z 0.000000 0.000000 1.673230 
# 
# From -- ./inp_files/17579.got.cif
#   From: 2010.05.17/outbox.cif.g08.bks.cpg/sg39_9_cif.got.tgz:17579.got - 2010.06.03 18:22:40.
