data_PCOD9361632
_publ_section_title
;
Structure prediction by ZEFSAII (Michael W. Deem and Ramdas Pophale) SiO2 
 PCOD9361632
Probable space group: A B M 2
;
_chemical_formula_sum "Si O2"
_cell_formula_units_Z 40
_cell_length_a 8.510182
_cell_length_b 10.320309
_cell_length_c 21.733502
_cell_angle_alpha 90.000000
_cell_angle_beta 90.000000
_cell_angle_gamma 90.000000
_cell_volume 1908.803665
_symmetry_space_group_name_H-M "A B M 2"
_symmetry_group_IT_number 39
_symmetry_cell_setting 'orthorhombic'
loop_
_space_group_symop_operation_xyz
x,y,z
-x,-y,z
-x,1/2+y,z
x,1/2-y,z
x,1/2+y,1/2+z
-x,1/2-y,1/2+z
-x,y,1/2+z
x,-y,1/2+z
loop_
_atom_site_type_symbol
_atom_site_label
_atom_site_fract_x
_atom_site_fract_y
_atom_site_fract_z
Si Si1 0.000000 0.500000 0.753031
Si Si2 0.382763 0.750000 0.095711
Si Si3 0.500000 0.500000 0.800345
Si Si4 0.030623 0.750000 0.042784
Si Si5 0.271572 0.750000 0.631160
Si Si6 0.208957 0.605842 0.861134
Si Si7 0.711328 0.463783 0.189855
Si Si8 0.000000 0.000000 0.459755
O O1 0.108067 0.582581 0.799086
O O2 0.113599 0.422763 0.707918
O O3 0.573886 0.750000 0.085044
O O4 0.357352 0.620394 0.135585
O O5 0.220844 0.750000 0.055335
O O6 0.388252 0.585933 0.842251
O O7 0.385994 0.431309 0.751514
O O8 0.898370 0.750000 0.097244
O O9 0.995420 0.623505 0.002840
O O10 0.285492 0.616933 0.671712
O O11 0.179383 0.750000 0.883819
O O12 0.147644 0.508959 0.913149
#
# Coordination Sequence:
#
# PCOD9361632 Si02
#       8
#     4   4   4   4   4   8   8   4
#     4   9  22  33  62  96 132 181 212 257 336 414
#     4  12  24  42  64 100 132 172 230 280 332 414
#     4  10  22  38  64  98 136 178 204 272 340 410
#     4  12  26  46  74  90 132 182 232 296 350 386
#     4  12  24  44  64  98 138 176 226 280 334 414
#     4  10  22  43  66  96 134 173 231 284 338 419
#     4  11  22  38  62  99 139 175 213 266 333 417
#     4  11  24  51  66  96 124 175 238 299 338 396
#
# _framework density 20.955534
#
# number of rings (size 3 to 8) (size 9 to 14) (size 15 to 20)
#    0.000    1.200    3.000    2.400    8.400    0.000 
#    5.400    0.000    0.000    0.000    0.000    0.000 
#    0.000    0.000    0.000    0.000    0.000    0.000 
#
# Total GULP energy -111448.345225 kJ/mol
# GULP energy per Si atom -5572.417261 kJ/mol
# Density = 2.090784 g / cm^3
# Si number density = 20.955534 Si / 1000 Ang^3
#
#
#
# Elastic Constant Matrix: (Units=GPa)
#
#
# Indices 1 2 3 4 5 6 
#
# 1 134.6651 12.6677 36.5926 0.0000 0.0000 0.0000
# 2 12.6677 114.5554 35.5685 0.0000 0.0000 0.0000
# 3 36.5926 35.5685 67.4982 0.0000 0.0000 0.0000
# 4 0.0000 0.0000 0.0000 -89.8800 0.0000 0.0000
# 5 0.0000 0.0000 0.0000 0.0000 32.5160 0.0000
# 6 0.0000 0.0000 0.0000 0.0000 0.0000 186.1969
#
#
#
# Elastic Compliance Matrix: (Units=1/GPa)
#
#
# Indices 1 2 3 4 5 6 
#
# 1 0.008744 0.000604 -0.005058 0.000000 0.000000 0.000000
# 2 0.000604 0.010479 -0.005849 0.000000 0.000000 0.000000
# 3 -0.005058 -0.005849 0.020640 0.000000 0.000000 0.000000
# 4 0.000000 0.000000 0.000000 -0.011126 0.000000 0.000000
# 5 0.000000 0.000000 0.000000 0.000000 0.030754 0.000000
# 6 0.000000 0.000000 0.000000 0.000000 0.000000 0.005371
#
#
# Mechanical properties :
#
#
# Convention : Reuss Voigt Hill
#
# Bulk Modulus (GPa) = 51.93560 54.04179 52.98869
# Shear Modulus (GPa) = 54.41524 41.22590 47.82057
#
# Velocity S-wave (km/s) = 5.10131 4.44024 4.78221
# Velocity P-wave (km/s) = 7.71592 7.22028 7.47221
#
# Compressibility (1/GPa) = 0.01925462
#
# Stress axis : x y z
#
# Youngs Moduli (GPa) = 114.37059 95.43131 48.45060
#
# Poissons Ratio (x) = -0.05761 0.24507
# Poissons Ratio (y) = -0.06904 0.28339
# Poissons Ratio (z) = 0.57851 0.55819
#
# Static dielectric constant tensor:
#      x y z
#    x 1.855600 0.000000 0.000000 
#    y 0.000000 1.772710 0.000000 
#    z 0.000000 0.000000 1.752790 
# 
# From -- ./inp_files/13915.got.cif
#   From: 2010.05.17/outbox.cif.g08.bks.cpg/sg39_7_cif.got.tgz:13915.got - 2010.06.03 18:22:40.
