data_PCOD9361345
_publ_section_title
;
Structure prediction by ZEFSAII (Michael W. Deem and Ramdas Pophale) SiO2 
 PCOD9361345
Probable space group: A B M 2
;
_chemical_formula_sum "Si O2"
_cell_formula_units_Z 48
_cell_length_a 9.707474
_cell_length_b 8.613102
_cell_length_c 30.598087
_cell_angle_alpha 90.000000
_cell_angle_beta 90.000000
_cell_angle_gamma 90.000000
_cell_volume 2558.350841
_symmetry_space_group_name_H-M "A B M 2"
_symmetry_group_IT_number 39
_symmetry_cell_setting 'orthorhombic'
loop_
_space_group_symop_operation_xyz
x,y,z
-x,-y,z
-x,1/2+y,z
x,1/2-y,z
x,1/2+y,1/2+z
-x,1/2-y,1/2+z
-x,y,1/2+z
x,-y,1/2+z
loop_
_atom_site_type_symbol
_atom_site_label
_atom_site_fract_x
_atom_site_fract_y
_atom_site_fract_z
Si Si1 0.348973 0.935938 0.786300
Si Si2 0.154468 0.435644 0.861466
Si Si3 0.649843 0.064439 0.189047
Si Si4 0.652649 0.935634 0.437153
Si Si5 0.846038 0.063963 0.614510
Si Si6 0.650008 0.936095 0.033491
O O1 0.351537 0.750000 0.787086
O O2 0.500000 0.000000 0.799041
O O3 0.236118 0.000095 0.819491
O O4 0.322528 0.995232 0.737124
O O5 0.153048 0.250000 0.860559
O O6 0.237931 0.494634 0.903688
O O7 0.000000 0.500000 0.862105
O O8 0.643675 0.250000 0.191736
O O9 0.500000 0.000000 0.175174
O O10 0.763715 0.010152 0.154821
O O11 0.651379 0.750000 0.434236
O O12 0.500000 0.000000 0.426662
O O13 0.683281 0.988639 0.486695
O O14 0.847715 0.250000 0.619553
O O15 0.761775 0.027101 0.570325
O O16 0.000000 0.000000 0.612296
O O17 0.641160 0.750000 0.028307
O O18 0.500000 0.000000 0.046906
#
# Coordination Sequence:
#
# PCOD9361345 Si02
#       6
#     8   8   8   8   8   8
#     4  11  22  40  64  91 120 154 197 243 292 345
#     4  12  25  42  61  87 121 157 197 241 294 352
#     4  11  22  39  63  90 119 154 197 244 293 346
#     4  11  22  39  63  90 119 155 198 244 293 345
#     4  11  24  40  59  86 120 158 198 242 295 352
#     4  10  21  38  61  88 117 152 197 246 295 348
#
# _framework density 18.762086
#
# number of rings (size 3 to 8) (size 9 to 14) (size 15 to 20)
#    0.000    1.000    0.000   10.000    0.000    5.333 
#    0.000    5.000    0.000    0.000    0.000    0.000 
#    0.000    0.000    0.000    0.000    0.000    0.000 
#
# Total GULP energy -134310.099100 kJ/mol
# GULP energy per Si atom -5596.254129 kJ/mol
# Density = 1.871938 g / cm^3
# Si number density = 18.762086 Si / 1000 Ang^3
#
#
#
# Elastic Constant Matrix: (Units=GPa)
#
#
# Indices 1 2 3 4 5 6 
#
# 1 187.0906 98.5067 124.0240 0.0000 0.0000 0.0000
# 2 98.5067 196.1069 80.4970 0.0000 0.0000 0.0000
# 3 124.0240 80.4970 114.1820 0.0000 0.0000 0.0000
# 4 0.0000 0.0000 0.0000 32.7852 0.0000 0.0000
# 5 0.0000 0.0000 0.0000 0.0000 -63.4821 0.0000
# 6 0.0000 0.0000 0.0000 0.0000 0.0000 36.9113
#
#
#
# Elastic Compliance Matrix: (Units=1/GPa)
#
#
# Indices 1 2 3 4 5 6 
#
# 1 0.019419 -0.001543 -0.020005 0.000000 0.000000 0.000000
# 2 -0.001543 0.007298 -0.003470 0.000000 0.000000 0.000000
# 3 -0.020005 -0.003470 0.032933 0.000000 0.000000 0.000000
# 4 0.000000 0.000000 0.000000 0.030502 0.000000 0.000000
# 5 0.000000 0.000000 0.000000 0.000000 -0.015752 0.000000
# 6 0.000000 0.000000 0.000000 0.000000 0.000000 0.027092
#
#
# Mechanical properties :
#
#
# Convention : Reuss Voigt Hill
#
# Bulk Modulus (GPa) = 103.99479 122.60390 113.29935
# Shear Modulus (GPa) = 32.31417 14.19967 23.25692
#
# Velocity S-wave (km/s) = 4.15458 2.75404 3.52457
# Velocity P-wave (km/s) = 8.86355 8.69491 8.77963
#
# Compressibility (1/GPa) = 0.00961587
#
# Stress axis : x y z
#
# Youngs Moduli (GPa) = 51.49679 137.01715 30.36451
#
# Poissons Ratio (x) = 0.21138 0.60744
# Poissons Ratio (y) = 0.07944 0.10535
# Poissons Ratio (z) = 1.03019 0.47539
#
# Static dielectric constant tensor:
#      x y z
#    x 1.613330 0.000000 0.000000 
#    y 0.000000 1.625680 0.000000 
#    z 0.000000 0.000000 1.632870 
# 
# From -- ./inp_files/17609.got.cif
#   From: 2010.05.17/outbox.cif.g08.bks.cpg/sg39_9_cif.got.tgz:17609.got - 2010.06.03 18:22:40.
