data_PCOD9361687
_publ_section_title
;
Structure prediction by ZEFSAII (Michael W. Deem and Ramdas Pophale) SiO2 
 PCOD9361687
Probable space group: A B M 2
;
_chemical_formula_sum "Si O2"
_cell_formula_units_Z 48
_cell_length_a 5.049940
_cell_length_b 23.022173
_cell_length_c 19.438349
_cell_angle_alpha 90.000000
_cell_angle_beta 90.000000
_cell_angle_gamma 90.000000
_cell_volume 2259.913968
_symmetry_space_group_name_H-M "A B M 2"
_symmetry_group_IT_number 39
_symmetry_cell_setting 'orthorhombic'
loop_
_space_group_symop_operation_xyz
x,y,z
-x,-y,z
-x,1/2+y,z
x,1/2-y,z
x,1/2+y,1/2+z
-x,1/2-y,1/2+z
-x,y,1/2+z
x,-y,1/2+z
loop_
_atom_site_type_symbol
_atom_site_label
_atom_site_fract_x
_atom_site_fract_y
_atom_site_fract_z
Si Si1 0.544231 0.070291 0.925230
Si Si2 0.101004 0.123512 0.143554
Si Si3 0.856785 0.250000 0.664235
Si Si4 0.045947 0.069158 0.005254
Si Si5 0.553160 0.623511 0.285929
Si Si6 0.358597 0.750000 0.255124
Si Si7 0.742438 0.539849 0.704147
O O1 0.664646 0.101136 0.857757
O O2 0.500000 0.000000 0.917781
O O3 0.249503 0.088993 0.946358
O O4 0.749685 0.087742 0.985429
O O5 0.084410 0.190748 0.125949
O O6 0.182604 0.088616 0.076314
O O7 0.260254 0.120489 0.216894
O O8 0.816476 0.094189 0.156956
O O9 0.553186 0.250000 0.688775
O O10 0.054376 0.250000 0.730611
O O11 0.000000 0.000000 0.008650
O O12 0.433470 0.688433 0.290112
O O13 0.336820 0.572799 0.273179
O O14 0.500000 0.500000 0.681477
O O15 0.000000 0.500000 0.709435
#
# Coordination Sequence:
#
# PCOD9361687 Si02
#       7
#     8   8   4   8   8   4   8
#     4  10  24  42  61  88 132 171 203 258 331 386
#     4  11  24  42  68  95 130 168 224 267 315 379
#     4  10  22  40  62  94 128 168 207 273 324 356
#     4  10  24  42  61  88 132 171 203 258 331 386
#     4  11  24  42  68  95 130 168 224 267 315 379
#     4  10  22  40  62  94 128 168 207 273 324 356
#     4  12  24  35  60  99 126 156 206 270 314 370
#
# _framework density 21.239747000000001
#
# number of rings (size 3 to 8) (size 9 to 14) (size 15 to 20)
#    0.000    1.333    3.333    1.000    4.667    1.333 
#    0.000    1.667    0.000    0.000    0.000    0.000 
#    0.000    0.000    0.000    0.000    0.000    0.000 
#
# Total GULP energy -133644.418388 kJ/mol
# GULP energy per Si atom -5568.517433 kJ/mol
# Density = 2.119140 g / cm^3
# Si number density = 21.239747 Si / 1000 Ang^3
#
#
#
# Elastic Constant Matrix: (Units=GPa)
#
#
# Indices 1 2 3 4 5 6 
#
# 1 103.7412 31.9231 26.2699 0.0000 0.0000 0.0000
# 2 31.9231 69.0370 3.3212 0.0000 0.0000 0.0000
# 3 26.2699 3.3212 89.5143 0.0000 0.0000 0.0000
# 4 0.0000 0.0000 0.0000 18.5943 0.0000 0.0000
# 5 0.0000 0.0000 0.0000 0.0000 25.2334 0.0000
# 6 0.0000 0.0000 0.0000 0.0000 0.0000 3.0314
#
#
#
# Elastic Compliance Matrix: (Units=1/GPa)
#
#
# Indices 1 2 3 4 5 6 
#
# 1 0.012175 -0.005468 -0.003370 0.000000 0.000000 0.000000
# 2 -0.005468 0.016966 0.000975 0.000000 0.000000 0.000000
# 3 -0.003370 0.000975 0.012124 0.000000 0.000000 0.000000
# 4 0.000000 0.000000 0.000000 0.053780 0.000000 0.000000
# 5 0.000000 0.000000 0.000000 0.000000 0.039630 0.000000
# 6 0.000000 0.000000 0.000000 0.000000 0.000000 0.329882
#
#
# Mechanical properties :
#
#
# Convention : Reuss Voigt Hill
#
# Bulk Modulus (GPa) = 39.15390 42.81343 40.98367
# Shear Modulus (GPa) = 10.22919 22.75702 16.49311
#
# Velocity S-wave (km/s) = 2.19693 3.27683 2.78964
# Velocity P-wave (km/s) = 4.99096 5.87519 5.45103
#
# Compressibility (1/GPa) = 0.02554024
#
# Stress axis : x y z
#
# Youngs Moduli (GPa) = 82.13313 58.93991 82.47905
#
# Poissons Ratio (x) = 0.32227 0.27797
# Poissons Ratio (y) = 0.44909 -0.08043
# Poissons Ratio (z) = 0.27681 -0.05747
#
# Static dielectric constant tensor:
#      x y z
#    x 2.092250 0.000000 0.000000 
#    y 0.000000 1.786640 0.000000 
#    z 0.000000 0.000000 1.827960 
# 
# From -- ./inp_files/11060.got.cif
#   From: 2010.05.17/outbox.cif.g08.bks.cpg/sg39_6_cif.got.tgz:11060.got - 2010.06.03 18:22:40.
