data_PCOD9361360
_publ_section_title
;
Structure prediction by ZEFSAII (Michael W. Deem and Ramdas Pophale) SiO2 
 PCOD9361360
Probable space group: A B M 2
;
_chemical_formula_sum "Si O2"
_cell_formula_units_Z 48
_cell_length_a 20.911354
_cell_length_b 19.391965
_cell_length_c 5.196975
_cell_angle_alpha 90.000000
_cell_angle_beta 90.000000
_cell_angle_gamma 90.000000
_cell_volume 2107.436999
_symmetry_space_group_name_H-M "A B M 2"
_symmetry_group_IT_number 39
_symmetry_cell_setting 'orthorhombic'
loop_
_space_group_symop_operation_xyz
x,y,z
-x,-y,z
-x,1/2+y,z
x,1/2-y,z
x,1/2+y,1/2+z
-x,1/2-y,1/2+z
-x,y,1/2+z
x,-y,1/2+z
loop_
_atom_site_type_symbol
_atom_site_label
_atom_site_fract_x
_atom_site_fract_y
_atom_site_fract_z
Si Si1 0.966108 0.833415 0.316960
Si Si2 0.302343 0.827696 0.721830
Si Si3 0.472902 0.423619 0.554958
Si Si4 0.160443 0.670720 0.501675
Si Si5 0.330861 0.406388 0.724009
Si Si6 0.192197 0.540396 0.187627
O O1 0.970826 0.750000 0.333864
O O2 0.897899 0.847193 0.188863
O O3 0.982613 0.858479 0.602751
O O4 0.323350 0.750000 0.669232
O O5 0.226789 0.832269 0.658626
O O6 0.333602 0.879029 0.515065
O O7 0.314593 0.846863 0.016250
O O8 0.500000 0.500000 0.507942
O O9 0.487089 0.388275 0.282948
O O10 0.399636 0.432104 0.635162
O O11 0.151541 0.750000 0.408929
O O12 0.168023 0.615508 0.274274
O O13 0.269928 0.456163 0.697850
O O14 0.172174 0.487415 0.411593
#
# Coordination Sequence:
#
# PCOD9361360 Si02
#       6
#     8   8   8   8   8   8
#     4   9  18  32  55  87 119 155 205 264 306 349
#     4  10  21  38  62  90 118 159 203 254 305 368
#     4  10  22  36  57  84 113 149 191 246 292 370
#     4   9  20  40  63  91 125 166 213 253 312 382
#     4  11  22  38  61  87 123 155 200 248 313 371
#     4  11  24  38  60  90 127 160 194 258 314 360
#
# _framework density 22.776479999999999
#
# number of rings (size 3 to 8) (size 9 to 14) (size 15 to 20)
#    0.000    2.000    0.000    3.500    4.667    4.667 
#    0.000   10.833    0.000   13.000    0.000    0.000 
#    0.000    0.000    0.000    0.000    0.000    0.000 
#
# Total GULP energy -134182.990292 kJ/mol
# GULP energy per Si atom -5590.957929 kJ/mol
# Density = 2.272464 g / cm^3
# Si number density = 22.776480 Si / 1000 Ang^3
#
#
#
# Elastic Constant Matrix: (Units=GPa)
#
#
# Indices 1 2 3 4 5 6 
#
# 1 71.1797 14.2788 -5.4757 0.0000 0.0000 0.0000
# 2 14.2788 66.1424 8.0489 0.0000 0.0000 0.0000
# 3 -5.4757 8.0489 92.0440 0.0000 0.0000 0.0000
# 4 0.0000 0.0000 0.0000 28.6564 0.0000 0.0000
# 5 0.0000 0.0000 0.0000 0.0000 27.2539 0.0000
# 6 0.0000 0.0000 0.0000 0.0000 0.0000 17.5497
#
#
#
# Elastic Compliance Matrix: (Units=1/GPa)
#
#
# Indices 1 2 3 4 5 6 
#
# 1 0.014809 -0.003340 0.001173 0.000000 0.000000 0.000000
# 2 -0.003340 0.016035 -0.001601 0.000000 0.000000 0.000000
# 3 0.001173 -0.001601 0.011074 0.000000 0.000000 0.000000
# 4 0.000000 0.000000 0.000000 0.034896 0.000000 0.000000
# 5 0.000000 0.000000 0.000000 0.000000 0.036692 0.000000
# 6 0.000000 0.000000 0.000000 0.000000 0.000000 0.056981
#
#
# Mechanical properties :
#
#
# Convention : Reuss Voigt Hill
#
# Bulk Modulus (GPa) = 29.08423 29.23000 29.15712
# Shear Modulus (GPa) = 26.38755 28.85961 27.62358
#
# Velocity S-wave (km/s) = 3.40743 3.56347 3.48632
# Velocity P-wave (km/s) = 5.31770 5.45824 5.38843
#
# Compressibility (1/GPa) = 0.03438289
#
# Stress axis : x y z
#
# Youngs Moduli (GPa) = 67.52582 62.36482 90.30046
#
# Poissons Ratio (x) = 0.20828 -0.10593
# Poissons Ratio (y) = 0.22552 0.14456
# Poissons Ratio (z) = -0.07921 0.09984
#
# Static dielectric constant tensor:
#      x y z
#    x 1.865360 0.000000 0.000000 
#    y 0.000000 2.107600 0.000000 
#    z 0.000000 0.000000 1.897840 
# 
# From -- ./inp_files/1036.got.cif
#   From: 2010.05.17/outbox.cif.g08.bks.cpg/sg39_1_cif.got.tgz:1036.got - 2010.06.03 18:22:40.
