data_PCOD9361628
_publ_section_title
;
Structure prediction by ZEFSAII (Michael W. Deem and Ramdas Pophale) SiO2 
 PCOD9361628
Probable space group: A B M 2
;
_chemical_formula_sum "Si O2"
_cell_formula_units_Z 44
_cell_length_a 5.211015
_cell_length_b 15.460363
_cell_length_c 26.016498
_cell_angle_alpha 90.000000
_cell_angle_beta 90.000000
_cell_angle_gamma 90.000000
_cell_volume 2095.997919
_symmetry_space_group_name_H-M "A B M 2"
_symmetry_group_IT_number 39
_symmetry_cell_setting 'orthorhombic'
loop_
_space_group_symop_operation_xyz
x,y,z
-x,-y,z
-x,1/2+y,z
x,1/2-y,z
x,1/2+y,1/2+z
-x,1/2-y,1/2+z
-x,y,1/2+z
x,-y,1/2+z
loop_
_atom_site_type_symbol
_atom_site_label
_atom_site_fract_x
_atom_site_fract_y
_atom_site_fract_z
Si Si1 0.947815 0.250000 0.877060
Si Si2 0.036379 0.404583 0.456410
Si Si3 0.000000 0.000000 0.689274
Si Si4 0.538658 0.851138 0.013712
Si Si5 0.609995 0.596987 0.626882
Si Si6 0.309282 0.844424 0.723801
Si Si7 0.442231 0.750000 0.309661
O O1 0.992101 0.167353 0.913073
O O2 0.161468 0.250000 0.832862
O O3 0.662398 0.250000 0.853336
O O4 0.818653 0.389081 0.500357
O O5 0.000000 0.500000 0.435262
O O6 0.319168 0.395415 0.479914
O O7 0.828772 0.062633 0.724840
O O8 0.114401 0.073405 0.650693
O O9 0.546787 0.750000 0.000785
O O10 0.441231 0.861563 0.072063
O O11 0.500000 0.500000 0.623200
O O12 0.466802 0.649576 0.671015
O O13 0.164670 0.750000 0.723616
O O14 0.498730 0.831003 0.772049
#
# Coordination Sequence:
#
# PCOD9361628 Si02
#       7
#     4   8   4   8   8   8   4
#     4  12  24  52  70 103 137 170 244 298 360 408
#     4  12  26  47  73 102 141 183 235 292 349 414
#     4  10  22  40  66  98 148 178 238 280 330 422
#     4  12  24  43  70 106 143 189 229 277 348 419
#     4  10  22  38  61  99 146 181 228 272 331 419
#     4   9  22  41  64 101 133 191 223 284 349 408
#     4  10  26  44  78  93 137 180 230 300 356 412
#
# _framework density 20.992387999999998
#
# number of rings (size 3 to 8) (size 9 to 14) (size 15 to 20)
#    0.545    0.727    1.818    3.273    8.909    1.455 
#    1.636    0.000    0.000    0.000    0.000    0.000 
#    0.000    0.000    0.000    0.000    0.000    0.000 
#
# Total GULP energy -122669.835839 kJ/mol
# GULP energy per Si atom -5575.901629 kJ/mol
# Density = 2.094461 g / cm^3
# Si number density = 20.992388 Si / 1000 Ang^3
#
#
#
# Elastic Constant Matrix: (Units=GPa)
#
#
# Indices 1 2 3 4 5 6 
#
# 1 51.4098 -2.5996 -5.1283 0.0000 0.0000 0.0000
# 2 -2.5996 112.9277 17.5946 0.0000 0.0000 0.0000
# 3 -5.1283 17.5946 69.4462 0.0000 0.0000 0.0000
# 4 0.0000 0.0000 0.0000 90.6012 0.0000 0.0000
# 5 0.0000 0.0000 0.0000 0.0000 27.8016 0.0000
# 6 0.0000 0.0000 0.0000 0.0000 0.0000 -6.9044
#
#
#
# Elastic Compliance Matrix: (Units=1/GPa)
#
#
# Indices 1 2 3 4 5 6 
#
# 1 0.019602 0.000235 0.001388 0.000000 0.000000 0.000000
# 2 0.000235 0.009222 -0.002319 0.000000 0.000000 0.000000
# 3 0.001388 -0.002319 0.015090 0.000000 0.000000 0.000000
# 4 0.000000 0.000000 0.000000 0.011037 0.000000 0.000000
# 5 0.000000 0.000000 0.000000 0.000000 0.035969 0.000000
# 6 0.000000 0.000000 0.000000 0.000000 0.000000 -0.144836
#
#
# Mechanical properties :
#
#
# Convention : Reuss Voigt Hill
#
# Bulk Modulus (GPa) = 23.51763 28.16856 25.84309
# Shear Modulus (GPa) = -130.37864 37.22748 -46.57558
#
# Velocity S-wave (km/s) = -7.88939 4.21572 -4.71541
# Velocity P-wave (km/s) = 8.47128 6.09459 4.16045
#
# Compressibility (1/GPa) = 0.04252129
#
# Stress axis : x y z
#
# Youngs Moduli (GPa) = 51.01552 108.43681 66.27040
#
# Poissons Ratio (x) = -0.02548 -0.09198
# Poissons Ratio (y) = -0.01199 0.15369
# Poissons Ratio (z) = -0.07081 0.25147
#
# Static dielectric constant tensor:
#      x y z
#    x 1.894570 0.000000 0.000000 
#    y 0.000000 1.689020 0.000000 
#    z 0.000000 0.000000 1.766300 
# 
# From -- ./inp_files/16477.got.cif
#   From: 2010.05.17/outbox.cif.g08.bks.cpg/sg39_9_cif.got.tgz:16477.got - 2010.06.03 18:22:40.
