data_PCOD9361914
_publ_section_title
;
Structure prediction by ZEFSAII (Michael W. Deem and Ramdas Pophale) SiO2 
 PCOD9361914
Probable space group: A B M 2
;
_chemical_formula_sum "Si O2"
_cell_formula_units_Z 48
_cell_length_a 11.189888
_cell_length_b 15.897356
_cell_length_c 12.307472
_cell_angle_alpha 90.000000
_cell_angle_beta 90.000000
_cell_angle_gamma 90.000000
_cell_volume 2189.371679
_symmetry_space_group_name_H-M "A B M 2"
_symmetry_group_IT_number 39
_symmetry_cell_setting 'orthorhombic'
loop_
_space_group_symop_operation_xyz
x,y,z
-x,-y,z
-x,1/2+y,z
x,1/2-y,z
x,1/2+y,1/2+z
-x,1/2-y,1/2+z
-x,y,1/2+z
x,-y,1/2+z
loop_
_atom_site_type_symbol
_atom_site_label
_atom_site_fract_x
_atom_site_fract_y
_atom_site_fract_z
Si Si1 0.225908 0.078354 0.848760
Si Si2 0.871722 0.648702 0.050099
Si Si3 0.666413 0.655818 0.192235
Si Si4 0.737345 0.383553 0.915684
Si Si5 0.124525 0.848945 0.135504
Si Si6 0.508043 0.598038 0.860197
O O1 0.188281 0.093724 0.725090
O O2 0.355097 0.123546 0.865324
O O3 0.241922 0.981755 0.885720
O O4 0.126933 0.118767 0.926657
O O5 0.866874 0.750000 0.053951
O O6 0.747393 0.614774 0.100356
O O7 0.987812 0.623315 0.116907
O O8 0.632426 0.750000 0.160459
O O9 0.753781 0.659324 0.298135
O O10 0.549729 0.610806 0.239999
O O11 0.595685 0.363243 0.935518
O O12 0.813521 0.356964 0.017744
O O13 0.128388 0.750000 0.168189
O O14 0.500000 0.500000 0.884638
#
# Coordination Sequence:
#
# PCOD9361914 Si02
#       6
#     8   8   8   8   8   8
#     4  11  23  41  64  97 125 161 217 263 311 377
#     4  10  24  42  62  89 130 170 206 263 318 370
#     4   9  19  39  65  89 120 166 207 246 317 387
#     4   9  22  41  64  93 126 165 202 259 320 378
#     4  11  25  44  65  91 130 173 213 262 316 379
#     4   8  19  39  61  91 127 163 202 264 318 371
#
# _framework density 21.924097
#
# number of rings (size 3 to 8) (size 9 to 14) (size 15 to 20)
#    1.000    1.333    0.000    1.000    4.667    3.333 
#    0.000    5.000    0.000    0.000    0.000    0.000 
#    0.000    0.000    0.000    0.000    0.000    0.000 
#
# Total GULP energy -133650.825596 kJ/mol
# GULP energy per Si atom -5568.784400 kJ/mol
# Density = 2.187420 g / cm^3
# Si number density = 21.924097 Si / 1000 Ang^3
#
#
#
# Elastic Constant Matrix: (Units=GPa)
#
#
# Indices 1 2 3 4 5 6 
#
# 1 80.1060 9.9626 10.1663 0.0000 0.0000 0.0000
# 2 9.9626 34.4783 3.0442 0.0000 0.0000 0.0000
# 3 10.1663 3.0442 67.0233 0.0000 0.0000 0.0000
# 4 0.0000 0.0000 0.0000 33.4980 0.0000 0.0000
# 5 0.0000 0.0000 0.0000 0.0000 37.8013 0.0000
# 6 0.0000 0.0000 0.0000 0.0000 0.0000 15.0392
#
#
#
# Elastic Compliance Matrix: (Units=1/GPa)
#
#
# Indices 1 2 3 4 5 6 
#
# 1 0.013169 -0.003643 -0.001832 0.000000 0.000000 0.000000
# 2 -0.003643 0.030129 -0.000816 0.000000 0.000000 0.000000
# 3 -0.001832 -0.000816 0.015235 0.000000 0.000000 0.000000
# 4 0.000000 0.000000 0.000000 0.029853 0.000000 0.000000
# 5 0.000000 0.000000 0.000000 0.000000 0.026454 0.000000
# 6 0.000000 0.000000 0.000000 0.000000 0.000000 0.066493
#
#
# Mechanical properties :
#
#
# Convention : Reuss Voigt Hill
#
# Bulk Modulus (GPa) = 21.76269 25.32819 23.54544
# Shear Modulus (GPa) = 23.89693 27.82999 25.86346
#
# Velocity S-wave (km/s) = 3.30507 3.56670 3.43838
# Velocity P-wave (km/s) = 4.95102 5.34224 5.15035
#
# Compressibility (1/GPa) = 0.04595020
#
# Stress axis : x y z
#
# Youngs Moduli (GPa) = 75.93534 33.19104 65.63775
#
# Poissons Ratio (x) = 0.12093 0.12025
# Poissons Ratio (y) = 0.27667 0.05355
# Poissons Ratio (z) = 0.13912 0.02708
#
# Static dielectric constant tensor:
#      x y z
#    x 1.826040 0.000000 0.000000 
#    y 0.000000 1.814340 0.000000 
#    z 0.000000 0.000000 1.787900 
# 
# From -- ./inp_files/5828.got.cif
#   From: 2010.05.17/outbox.cif.g08.bks.cpg/sg39_3_cif.got.tgz:5828.got - 2010.06.03 18:22:40.
