data_PCOD9361177
_publ_section_title
;
Structure prediction by ZEFSAII (Michael W. Deem and Ramdas Pophale) SiO2 
 PCOD9361177
Probable space group: A B M 2
;
_chemical_formula_sum "Si O2"
_cell_formula_units_Z 60
_cell_length_a 10.986538
_cell_length_b 25.228581
_cell_length_c 9.058773
_cell_angle_alpha 90.000000
_cell_angle_beta 90.000000
_cell_angle_gamma 90.000000
_cell_volume 2510.863267
_symmetry_space_group_name_H-M "A B M 2"
_symmetry_group_IT_number 39
_symmetry_cell_setting 'orthorhombic'
loop_
_space_group_symop_operation_xyz
x,y,z
-x,-y,z
-x,1/2+y,z
x,1/2-y,z
x,1/2+y,1/2+z
-x,1/2-y,1/2+z
-x,y,1/2+z
x,-y,1/2+z
loop_
_atom_site_type_symbol
_atom_site_label
_atom_site_fract_x
_atom_site_fract_y
_atom_site_fract_z
Si Si1 0.072966 0.331533 0.283710
Si Si2 0.656891 0.404055 0.358050
Si Si3 0.661951 0.687295 0.350319
Si Si4 0.414221 0.812233 0.516359
Si Si5 0.942760 0.250000 0.510525
Si Si6 0.548715 0.552882 0.579720
Si Si7 0.916556 0.451138 0.747905
Si Si8 0.217595 0.005732 0.982670
O O1 0.206367 0.339003 0.361185
O O2 0.089502 0.296358 0.136203
O O3 0.034358 0.391511 0.242542
O O4 0.988643 0.296958 0.392293
O O5 0.677979 0.345128 0.414081
O O6 0.557290 0.425442 0.476573
O O7 0.597329 0.406797 0.199455
O O8 0.764396 0.446298 0.365966
O O9 0.685868 0.750000 0.363155
O O10 0.552011 0.676035 0.462378
O O11 0.610258 0.676318 0.186897
O O12 0.393255 0.750000 0.492688
O O13 0.500000 0.500000 0.662196
O O14 0.662399 0.530319 0.489899
O O15 0.880585 0.466072 0.915022
O O16 0.805418 0.461867 0.633767
O O17 0.000000 0.500000 0.700927
#
# Coordination Sequence:
#
# PCOD9361177 Si02
#       8
#     8   8   8   8   4   8   8   8
#     4  11  25  49  81 102 148 185 251 313 367 423
#     4  11  21  38  63  95 134 182 234 285 338 426
#     4  10  20  43  65  99 141 185 225 290 359 423
#     4  10  22  37  64  97 140 181 230 277 353 434
#     4  10  24  50  78 108 126 196 254 306 356 416
#     4  10  21  36  61  92 130 172 229 282 334 425
#     4  12  28  46  71 105 143 190 236 307 379 437
#     4  11  24  44  64  99 138 182 233 282 366 436
#
# _framework density 23.896163999999999
#
# number of rings (size 3 to 8) (size 9 to 14) (size 15 to 20)
#    0.000    1.333    2.667    3.200    7.467    0.000 
#    0.000    2.667    0.000    0.000    0.000    0.000 
#    0.000    0.000    0.000    0.000    0.000    0.000 
#
# Total GULP energy -167084.128708 kJ/mol
# GULP energy per Si atom -5569.470957 kJ/mol
# Density = 2.384178 g / cm^3
# Si number density = 23.896164 Si / 1000 Ang^3
#
#
#
# Elastic Constant Matrix: (Units=GPa)
#
#
# Indices 1 2 3 4 5 6 
#
# 1 29.2037 26.3697 0.6600 0.0000 0.0000 0.0000
# 2 26.3697 135.2457 20.0420 0.0000 0.0000 0.0000
# 3 0.6600 20.0420 63.0544 0.0000 0.0000 0.0000
# 4 0.0000 0.0000 0.0000 36.6256 0.0000 0.0000
# 5 0.0000 0.0000 0.0000 0.0000 26.6548 0.0000
# 6 0.0000 0.0000 0.0000 0.0000 0.0000 31.6744
#
#
#
# Elastic Compliance Matrix: (Units=1/GPa)
#
#
# Indices 1 2 3 4 5 6 
#
# 1 0.041864 -0.008498 0.002263 0.000000 0.000000 0.000000
# 2 -0.008498 0.009484 -0.002926 0.000000 0.000000 0.000000
# 3 0.002263 -0.002926 0.016766 0.000000 0.000000 0.000000
# 4 0.000000 0.000000 0.000000 0.027303 0.000000 0.000000
# 5 0.000000 0.000000 0.000000 0.000000 0.037517 0.000000
# 6 0.000000 0.000000 0.000000 0.000000 0.000000 0.031571
#
#
# Mechanical properties :
#
#
# Convention : Reuss Voigt Hill
#
# Bulk Modulus (GPa) = 20.08319 35.73858 27.91088
# Shear Modulus (GPa) = 25.07215 31.01977 28.04596
#
# Velocity S-wave (km/s) = 3.24267 3.60683 3.42959
# Velocity P-wave (km/s) = 4.73735 5.68629 5.23337
#
# Compressibility (1/GPa) = 0.04979287
#
# Stress axis : x y z
#
# Youngs Moduli (GPa) = 23.88670 105.43640 59.64604
#
# Poissons Ratio (x) = 0.89599 -0.13497
# Poissons Ratio (y) = 0.20299 0.17451
# Poissons Ratio (z) = -0.05405 0.30847
#
# Static dielectric constant tensor:
#      x y z
#    x 2.038720 0.000000 0.000000 
#    y 0.000000 1.747160 0.000000 
#    z 0.000000 0.000000 1.881810 
# 
# From -- ./inp_files/2824.got.cif
#   From: 2010.05.17/outbox.cif.g08.bks.cpg/sg39_2_cif.got.tgz:2824.got - 2010.06.03 18:22:40.
