data_PCOD9361783
_publ_section_title
;
Structure prediction by ZEFSAII (Michael W. Deem and Ramdas Pophale) SiO2 
 PCOD9361783
Probable space group: A B M 2
;
_chemical_formula_sum "Si O2"
_cell_formula_units_Z 48
_cell_length_a 12.372500
_cell_length_b 22.071323
_cell_length_c 8.303102
_cell_angle_alpha 90.000000
_cell_angle_beta 90.000000
_cell_angle_gamma 90.000000
_cell_volume 2267.389870
_symmetry_space_group_name_H-M "A B M 2"
_symmetry_group_IT_number 39
_symmetry_cell_setting 'orthorhombic'
loop_
_space_group_symop_operation_xyz
x,y,z
-x,-y,z
-x,1/2+y,z
x,1/2-y,z
x,1/2+y,1/2+z
-x,1/2-y,1/2+z
-x,y,1/2+z
x,-y,1/2+z
loop_
_atom_site_type_symbol
_atom_site_label
_atom_site_fract_x
_atom_site_fract_y
_atom_site_fract_z
Si Si1 0.376151 0.016361 0.046960
Si Si2 0.358012 0.628328 0.756231
Si Si3 0.891121 0.320228 0.319994
Si Si4 0.868182 0.680368 0.205422
Si Si5 0.299345 0.592407 0.242973
Si Si6 0.541799 0.820756 0.582429
O O1 0.381362 0.059843 0.204191
O O2 0.500000 0.000000 0.006428
O O3 0.311601 0.956627 0.099993
O O4 0.319846 0.055375 0.907387
O O5 0.230910 0.639858 0.762624
O O6 0.415490 0.667564 0.614903
O O7 0.413400 0.651809 0.917697
O O8 0.870577 0.250000 0.267366
O O9 0.875784 0.322566 0.512184
O O10 0.809792 0.368758 0.244167
O O11 0.014914 0.334718 0.277007
O O12 0.843808 0.750000 0.251954
O O13 0.394297 0.641147 0.216748
O O14 0.564874 0.750000 0.590691
#
# Coordination Sequence:
#
# PCOD9361783 Si02
#       6
#     8   8   8   8   8   8
#     4  12  25  44  70 101 138 189 237 287 350 421
#     4  12  25  45  69 103 141 185 233 285 354 430
#     4  10  23  44  72 102 136 181 231 291 359 423
#     4  10  22  43  71 102 140 180 228 289 357 429
#     4  12  25  45  70  99 137 185 239 290 348 418
#     4  12  26  42  67 106 145 178 223 291 361 426
#
# _framework density 21.169716999999999
#
# number of rings (size 3 to 8) (size 9 to 14) (size 15 to 20)
#    0.000    0.667    3.333    4.500    2.333    0.000 
#    0.000    0.833    0.000    0.000    0.000    0.000 
#    0.000    0.000    0.000    0.000    0.000    0.000 
#
# Total GULP energy -134333.228081 kJ/mol
# GULP energy per Si atom -5597.217837 kJ/mol
# Density = 2.112153 g / cm^3
# Si number density = 21.169717 Si / 1000 Ang^3
#
#
#
# Elastic Constant Matrix: (Units=GPa)
#
#
# Indices 1 2 3 4 5 6 
#
# 1 140.5361 64.4290 40.0807 0.0000 0.0000 0.0000
# 2 64.4290 135.0798 47.0980 0.0000 0.0000 0.0000
# 3 40.0807 47.0980 73.4837 0.0000 0.0000 0.0000
# 4 0.0000 0.0000 0.0000 20.5838 0.0000 0.0000
# 5 0.0000 0.0000 0.0000 0.0000 30.4090 0.0000
# 6 0.0000 0.0000 0.0000 0.0000 0.0000 37.7478
#
#
#
# Elastic Compliance Matrix: (Units=1/GPa)
#
#
# Indices 1 2 3 4 5 6 
#
# 1 0.009582 -0.003539 -0.002958 0.000000 0.000000 0.000000
# 2 -0.003539 0.010840 -0.005018 0.000000 0.000000 0.000000
# 3 -0.002958 -0.005018 0.018438 0.000000 0.000000 0.000000
# 4 0.000000 0.000000 0.000000 0.048582 0.000000 0.000000
# 5 0.000000 0.000000 0.000000 0.000000 0.032885 0.000000
# 6 0.000000 0.000000 0.000000 0.000000 0.000000 0.026492
#
#
# Mechanical properties :
#
#
# Convention : Reuss Voigt Hill
#
# Bulk Modulus (GPa) = 63.16816 72.47944 67.82380
# Shear Modulus (GPa) = 28.55109 30.91425 29.73267
#
# Velocity S-wave (km/s) = 3.67642 3.82554 3.75172
# Velocity P-wave (km/s) = 6.92279 7.33653 7.13266
#
# Compressibility (1/GPa) = 0.01583076
#
# Stress axis : x y z
#
# Youngs Moduli (GPa) = 104.36680 92.24696 54.23592
#
# Poissons Ratio (x) = 0.32644 0.16043
# Poissons Ratio (y) = 0.36933 0.27215
# Poissons Ratio (z) = 0.30872 0.46288
#
# Static dielectric constant tensor:
#      x y z
#    x 1.728190 0.000000 0.000000 
#    y 0.000000 1.769240 0.000000 
#    z 0.000000 0.000000 1.830380 
# 
# From -- ./inp_files/2706.got.cif
#   From: 2010.05.17/outbox.cif.g08.bks.cpg/sg39_2_cif.got.tgz:2706.got - 2010.06.03 18:22:40.
