data_PCOD9361404
_publ_section_title
;
Structure prediction by ZEFSAII (Michael W. Deem and Ramdas Pophale) SiO2 
 PCOD9361404
Probable space group: A B M 2
;
_chemical_formula_sum "Si O2"
_cell_formula_units_Z 64
_cell_length_a 7.973440
_cell_length_b 14.152064
_cell_length_c 27.330121
_cell_angle_alpha 90.000000
_cell_angle_beta 90.000000
_cell_angle_gamma 90.000000
_cell_volume 3083.948159
_symmetry_space_group_name_H-M "A B M 2"
_symmetry_group_IT_number 39
_symmetry_cell_setting 'orthorhombic'
loop_
_space_group_symop_operation_xyz
x,y,z
-x,-y,z
-x,1/2+y,z
x,1/2-y,z
x,1/2+y,1/2+z
-x,1/2-y,1/2+z
-x,y,1/2+z
x,-y,1/2+z
loop_
_atom_site_type_symbol
_atom_site_label
_atom_site_fract_x
_atom_site_fract_y
_atom_site_fract_z
Si Si1 0.199436 0.516352 0.179280
Si Si2 0.781032 0.142143 0.086109
Si Si3 0.340044 0.136650 0.768557
Si Si4 0.867519 0.145821 0.527970
Si Si5 0.325308 0.034275 0.500613
Si Si6 0.984390 0.864151 0.823077
Si Si7 0.082113 0.141585 0.431975
Si Si8 0.283474 0.637064 0.749330
O O1 0.242604 0.565158 0.128161
O O2 0.266041 0.588849 0.220108
O O3 0.276397 0.417098 0.197530
O O4 0.000000 0.500000 0.180369
O O5 0.759207 0.250000 0.103454
O O6 0.662741 0.118011 0.040275
O O7 0.968878 0.135213 0.062645
O O8 0.332179 0.250000 0.764001
O O9 0.536910 0.113490 0.773947
O O10 0.205019 0.107407 0.809546
O O11 0.793985 0.250000 0.538016
O O12 0.932996 0.145464 0.471758
O O13 0.755343 0.053424 0.530144
O O14 0.211651 0.071374 0.456975
O O15 0.500000 0.000000 0.480929
O O16 0.987544 0.750000 0.821635
O O17 0.031625 0.889803 0.878105
O O18 0.125132 0.893427 0.783111
O O19 0.148033 0.250000 0.429098
O O20 0.273736 0.750000 0.742820
#
# Coordination Sequence:
#
# PCOD9361404 Si02
#       8
#     8   8   8   8   8   8   8   8
#     4  12  22  37  61  90 120 164 212 264 320 385
#     4  10  22  41  66  90 119 163 211 257 309 375
#     4  10  21  39  61  86 122 163 211 264 315 369
#     4   9  19  39  62  87 118 155 205 256 300 367
#     4  11  22  38  59  94 130 161 200 252 317 381
#     4   9  18  38  63  88 119 165 213 256 316 371
#     4   9  18  37  64  87 117 161 207 256 309 368
#     4  10  22  40  60  88 128 167 212 268 315 371
#
# _framework density 20.75262
#
# number of rings (size 3 to 8) (size 9 to 14) (size 15 to 20)
#    0.000    2.000    1.250    4.125    0.000    2.500 
#    6.750    0.625    0.000    0.000    0.000    0.000 
#    0.000    0.000    0.000    0.000    0.000    0.000 
#
# Total GULP energy -178555.769811 kJ/mol
# GULP energy per Si atom -5579.867807 kJ/mol
# Density = 2.070539 g / cm^3
# Si number density = 20.752620 Si / 1000 Ang^3
#
#
#
# Elastic Constant Matrix: (Units=GPa)
#
#
# Indices 1 2 3 4 5 6 
#
# 1 75.1575 23.5860 17.5983 0.0000 0.0000 0.0000
# 2 23.5860 107.0863 21.6837 0.0000 0.0000 0.0000
# 3 17.5983 21.6837 108.3005 0.0000 0.0000 0.0000
# 4 0.0000 0.0000 0.0000 21.7621 0.0000 0.0000
# 5 0.0000 0.0000 0.0000 0.0000 0.1082 0.0000
# 6 0.0000 0.0000 0.0000 0.0000 0.0000 15.0818
#
#
#
# Elastic Compliance Matrix: (Units=1/GPa)
#
#
# Indices 1 2 3 4 5 6 
#
# 1 0.014624 -0.002856 -0.001805 0.000000 0.000000 0.000000
# 2 -0.002856 0.010290 -0.001596 0.000000 0.000000 0.000000
# 3 -0.001805 -0.001596 0.009846 0.000000 0.000000 0.000000
# 4 0.000000 0.000000 0.000000 0.045951 0.000000 0.000000
# 5 0.000000 0.000000 0.000000 0.000000 9.239055 0.000000
# 6 0.000000 0.000000 0.000000 0.000000 0.000000 0.066305
#
#
# Mechanical properties :
#
#
# Convention : Reuss Voigt Hill
#
# Bulk Modulus (GPa) = 44.94795 46.25337 45.60066
# Shear Modulus (GPa) = 0.53158 22.56884 11.55021
#
# Velocity S-wave (km/s) = 0.50666 3.30133 2.36173
# Velocity P-wave (km/s) = 4.69555 6.07191 5.42754
#
# Compressibility (1/GPa) = 0.02224795
#
# Stress axis : x y z
#
# Youngs Moduli (GPa) = 68.38035 97.17750 101.55981
#
# Poissons Ratio (x) = 0.27750 0.18328
# Poissons Ratio (y) = 0.19527 0.16212
# Poissons Ratio (z) = 0.12340 0.15513
#
# Static dielectric constant tensor:
#      x y z
#    x 1.751610 0.000000 0.000000 
#    y 0.000000 1.794930 0.000000 
#    z 0.000000 0.000000 1.709280 
# 
# From -- ./inp_files/15700.got.cif
#   From: 2010.05.17/outbox.cif.g08.bks.cpg/sg39_8_cif.got.tgz:15700.got - 2010.06.03 18:22:40.
