data_PCOD9361770
_publ_section_title
;
Structure prediction by ZEFSAII (Michael W. Deem and Ramdas Pophale) SiO2 
 PCOD9361770
Probable space group: A B M 2
;
_chemical_formula_sum "Si O2"
_cell_formula_units_Z 48
_cell_length_a 12.785877
_cell_length_b 17.703190
_cell_length_c 8.728207
_cell_angle_alpha 90.000000
_cell_angle_beta 90.000000
_cell_angle_gamma 90.000000
_cell_volume 1975.636723
_symmetry_space_group_name_H-M "A B M 2"
_symmetry_group_IT_number 39
_symmetry_cell_setting 'orthorhombic'
loop_
_space_group_symop_operation_xyz
x,y,z
-x,-y,z
-x,1/2+y,z
x,1/2-y,z
x,1/2+y,1/2+z
-x,1/2-y,1/2+z
-x,y,1/2+z
x,-y,1/2+z
loop_
_atom_site_type_symbol
_atom_site_label
_atom_site_fract_x
_atom_site_fract_y
_atom_site_fract_z
Si Si1 0.486550 0.750000 0.103190
Si Si2 0.857725 0.340518 0.262819
Si Si3 0.341501 0.477770 0.027465
Si Si4 0.226066 0.906873 0.799411
Si Si5 0.659526 0.250000 0.810989
Si Si6 0.382675 0.605565 0.253479
Si Si7 0.021562 0.412616 0.474784
O O1 0.609980 0.750000 0.139753
O O2 0.444489 0.675850 0.189097
O O3 0.434029 0.750000 0.936300
O O4 0.854501 0.250000 0.260646
O O5 0.740168 0.372670 0.256724
O O6 0.919471 0.370399 0.411730
O O7 0.919632 0.371617 0.114329
O O8 0.279027 0.531895 0.911462
O O9 0.410396 0.421934 0.924058
O O10 0.261829 0.430262 0.130957
O O11 0.397064 0.534755 0.142389
O O12 0.272275 0.824619 0.835141
O O13 0.104101 0.910396 0.833631
O O14 0.000000 0.500000 0.511927
#
# Coordination Sequence:
#
# PCOD9361770 Si02
#       7
#     4   8   8   8   4   8   8
#     4  12  26  50  75 102 138 185 232 299 357 427
#     4  12  26  42  64 100 140 187 232 290 347 415
#     4  10  22  42  74 101 130 186 229 283 352 414
#     4  11  25  46  72 101 146 184 232 291 355 415
#     4  12  28  50  75 106 140 187 236 293 363 421
#     4  11  23  46  72  98 144 183 235 293 358 415
#     4  12  26  42  68 100 140 186 236 284 343 420
#
# _framework density 24.295966
#
# number of rings (size 3 to 8) (size 9 to 14) (size 15 to 20)
#    0.000    0.667    4.167    3.000    9.333    0.000 
#    0.000    5.000    0.000    0.000    0.000    0.000 
#    0.000    0.000    0.000    0.000    0.000    0.000 
#
# Total GULP energy -134653.200259 kJ/mol
# GULP energy per Si atom -5610.550011 kJ/mol
# Density = 2.424067 g / cm^3
# Si number density = 24.295966 Si / 1000 Ang^3
#
#
#
# Elastic Constant Matrix: (Units=GPa)
#
#
# Indices 1 2 3 4 5 6 
#
# 1 91.6434 43.6371 19.1033 0.0000 0.0000 0.0000
# 2 43.6371 174.5443 58.0841 0.0000 0.0000 0.0000
# 3 19.1033 58.0841 114.4210 0.0000 0.0000 0.0000
# 4 0.0000 0.0000 0.0000 25.0830 0.0000 0.0000
# 5 0.0000 0.0000 0.0000 0.0000 30.1104 0.0000
# 6 0.0000 0.0000 0.0000 0.0000 0.0000 21.0117
#
#
#
# Elastic Compliance Matrix: (Units=1/GPa)
#
#
# Indices 1 2 3 4 5 6 
#
# 1 0.012420 -0.002906 -0.000598 0.000000 0.000000 0.000000
# 2 -0.002906 0.007574 -0.003359 0.000000 0.000000 0.000000
# 3 -0.000598 -0.003359 0.010545 0.000000 0.000000 0.000000
# 4 0.000000 0.000000 0.000000 0.039868 0.000000 0.000000
# 5 0.000000 0.000000 0.000000 0.000000 0.033211 0.000000
# 6 0.000000 0.000000 0.000000 0.000000 0.000000 0.047593
#
#
# Mechanical properties :
#
#
# Convention : Reuss Voigt Hill
#
# Bulk Modulus (GPa) = 59.48461 69.13974 64.31218
# Shear Modulus (GPa) = 29.31832 32.55997 30.93915
#
# Velocity S-wave (km/s) = 3.47755 3.66476 3.57238
# Velocity P-wave (km/s) = 6.37659 6.81369 6.59876
#
# Compressibility (1/GPa) = 0.01681107
#
# Stress axis : x y z
#
# Youngs Moduli (GPa) = 80.51305 132.03624 94.83201
#
# Poissons Ratio (x) = 0.38370 0.05675
# Poissons Ratio (y) = 0.23397 0.31859
# Poissons Ratio (z) = 0.04818 0.44357
#
# Static dielectric constant tensor:
#      x y z
#    x 1.901810 0.000000 0.000000 
#    y 0.000000 1.864300 0.000000 
#    z 0.000000 0.000000 1.952140 
# 
# From -- ./inp_files/3266.got.cif
#   From: 2010.05.17/outbox.cif.g08.bks.cpg/sg39_2_cif.got.tgz:3266.got - 2010.06.03 18:22:40.
