data_PCOD9361243
_publ_section_title
;
Structure prediction by ZEFSAII (Michael W. Deem and Ramdas Pophale) SiO2 
 PCOD9361243
Probable space group: A B M 2
;
_chemical_formula_sum "Si O2"
_cell_formula_units_Z 40
_cell_length_a 5.301785
_cell_length_b 27.961180
_cell_length_c 9.397692
_cell_angle_alpha 90.000000
_cell_angle_beta 90.000000
_cell_angle_gamma 90.000000
_cell_volume 1393.153001
_symmetry_space_group_name_H-M "A B M 2"
_symmetry_group_IT_number 39
_symmetry_cell_setting 'orthorhombic'
loop_
_space_group_symop_operation_xyz
x,y,z
-x,-y,z
-x,1/2+y,z
x,1/2-y,z
x,1/2+y,1/2+z
-x,1/2-y,1/2+z
-x,y,1/2+z
x,-y,1/2+z
loop_
_atom_site_type_symbol
_atom_site_label
_atom_site_fract_x
_atom_site_fract_y
_atom_site_fract_z
Si Si1 0.998201 0.051392 0.939790
Si Si2 0.505908 0.950101 0.127967
Si Si3 0.567933 0.651816 0.746929
Si Si4 0.051314 0.750000 0.365394
Si Si5 0.816191 0.348611 0.969169
Si Si6 0.684797 0.750000 0.130130
O O1 0.969731 0.107217 0.896834
O O2 0.754744 0.049945 0.042006
O O3 0.000000 0.000000 0.856157
O O4 0.258699 0.049434 0.023389
O O5 0.530603 0.901618 0.212464
O O6 0.500000 0.000000 0.212950
O O7 0.473627 0.651729 0.911348
O O8 0.810872 0.650123 0.640684
O O9 0.445823 0.701669 0.688527
O O10 0.937483 0.799596 0.419756
O O11 0.967859 0.750000 0.200264
O O12 0.308781 0.750000 0.458062
#
# Coordination Sequence:
#
# PCOD9361243 Si02
#       6
#     8   8   8   4   8   4
#     4   9  18  36  61  90 124 166 214 267 325 388
#     4   9  18  36  61  89 124 165 213 267 325 387
#     4  10  21  38  59  90 126 170 219 274 333 398
#     4  10  21  36  58  90 126 172 224 278 337 402
#     4  10  21  38  61  92 129 172 223 276 337 403
#     4  10  21  36  58  88 128 170 222 278 337 402
#
# _framework density 28.711849999999998
#
# number of rings (size 3 to 8) (size 9 to 14) (size 15 to 20)
#    0.000    2.400    0.000    1.800    0.000    1.600 
#    0.000   23.000    0.000    0.000    0.000   11.200 
#    0.000    0.000    0.000    0.000    0.000    0.000 
#
# Total GULP energy -111500.608832 kJ/mol
# GULP energy per Si atom -5575.030442 kJ/mol
# Density = 2.864650 g / cm^3
# Si number density = 28.711850 Si / 1000 Ang^3
#
#
#
# Elastic Constant Matrix: (Units=GPa)
#
#
# Indices 1 2 3 4 5 6 
#
# 1 116.3544 26.6403 45.6652 0.0000 0.0000 0.0000
# 2 26.6403 329.1568 49.1100 0.0000 0.0000 0.0000
# 3 45.6652 49.1100 118.3212 0.0000 0.0000 0.0000
# 4 0.0000 0.0000 0.0000 -122.1742 0.0000 0.0000
# 5 0.0000 0.0000 0.0000 0.0000 44.1970 0.0000
# 6 0.0000 0.0000 0.0000 0.0000 0.0000 54.2360
#
#
#
# Elastic Compliance Matrix: (Units=1/GPa)
#
#
# Indices 1 2 3 4 5 6 
#
# 1 0.010148 -0.000253 -0.003812 0.000000 0.000000 0.000000
# 2 -0.000253 0.003245 -0.001249 0.000000 0.000000 0.000000
# 3 -0.003812 -0.001249 0.010441 0.000000 0.000000 0.000000
# 4 0.000000 0.000000 0.000000 -0.008185 0.000000 0.000000
# 5 0.000000 0.000000 0.000000 0.000000 0.022626 0.000000
# 6 0.000000 0.000000 0.000000 0.000000 0.000000 0.018438
#
#
# Mechanical properties :
#
#
# Convention : Reuss Voigt Hill
#
# Bulk Modulus (GPa) = 75.71781 89.62927 82.67354
# Shear Modulus (GPa) = 69.69315 24.74625 47.21970
#
# Velocity S-wave (km/s) = 4.93214 2.93897 4.05977
# Velocity P-wave (km/s) = 7.67226 6.54227 7.12969
#
# Compressibility (1/GPa) = 0.01320693
#
# Stress axis : x y z
#
# Youngs Moduli (GPa) = 98.53894 308.17498 95.77405
#
# Poissons Ratio (x) = 0.07785 0.36507
# Poissons Ratio (y) = 0.02489 0.11965
# Poissons Ratio (z) = 0.37561 0.38501
#
# Static dielectric constant tensor:
#      x y z
#    x 2.315320 0.000000 0.000000 
#    y 0.000000 2.263780 0.000000 
#    z 0.000000 0.000000 2.206530 
# 
# From -- ./inp_files/4617.got.cif
#   From: 2010.05.17/outbox.cif.g08.bks.cpg/sg39_3_cif.got.tgz:4617.got - 2010.06.03 18:22:40.
