data_PCOD9361910
_publ_section_title
;
Structure prediction by ZEFSAII (Michael W. Deem and Ramdas Pophale) SiO2 
 PCOD9361910
Probable space group: A B M 2
;
_chemical_formula_sum "Si O2"
_cell_formula_units_Z 40
_cell_length_a 17.833960
_cell_length_b 12.072721
_cell_length_c 9.034969
_cell_angle_alpha 90.000000
_cell_angle_beta 90.000000
_cell_angle_gamma 90.000000
_cell_volume 1945.268791
_symmetry_space_group_name_H-M "A B M 2"
_symmetry_group_IT_number 39
_symmetry_cell_setting 'orthorhombic'
loop_
_space_group_symop_operation_xyz
x,y,z
-x,-y,z
-x,1/2+y,z
x,1/2-y,z
x,1/2+y,1/2+z
-x,1/2-y,1/2+z
-x,y,1/2+z
x,-y,1/2+z
loop_
_atom_site_type_symbol
_atom_site_label
_atom_site_fract_x
_atom_site_fract_y
_atom_site_fract_z
Si Si1 0.446946 0.113971 0.309430
Si Si2 0.265839 0.373029 0.811180
Si Si3 0.943200 0.372916 0.675471
Si Si4 0.352345 0.496989 0.560250
Si Si5 0.905152 0.422189 0.338378
O O1 0.467986 0.250000 0.306630
O O2 0.402484 0.088012 0.462481
O O3 0.500000 0.000000 0.308166
O O4 0.398525 0.084317 0.162273
O O5 0.295833 0.250000 0.816453
O O6 0.297633 0.430259 0.666515
O O7 0.176158 0.372095 0.818322
O O8 0.300389 0.438063 0.947247
O O9 0.914167 0.250000 0.685920
O O10 0.933122 0.409542 0.506109
O O11 0.899884 0.450952 0.788478
O O12 0.029693 0.377320 0.729492
#
# Coordination Sequence:
#
# PCOD9361910 Si02
#       5
#     8   8   8   8   8
#     4  11  24  43  68  98 130 165 206 252 305 364
#     4  11  22  41  63  86 123 165 206 253 307 364
#     4  11  22  39  58  83 120 154 199 260 313 361
#     4  10  24  41  63  94 127 163 206 251 302 367
#     4  11  23  38  61  89 115 158 209 251 308 372
#
# _framework density 20.562712000000001
#
# number of rings (size 3 to 8) (size 9 to 14) (size 15 to 20)
#    0.000    1.200    0.000    7.200    0.000    6.400 
#    0.000   11.000    0.000    0.000    0.000    0.000 
#    0.000    0.000    0.000    0.000    0.000    0.000 
#
# Total GULP energy -111468.986827 kJ/mol
# GULP energy per Si atom -5573.449341 kJ/mol
# Density = 2.051591 g / cm^3
# Si number density = 20.562712 Si / 1000 Ang^3
#
#
#
# Elastic Constant Matrix: (Units=GPa)
#
#
# Indices 1 2 3 4 5 6 
#
# 1 65.7260 22.3195 25.4982 0.0000 0.0000 0.0000
# 2 22.3195 184.8997 60.7332 0.0000 0.0000 0.0000
# 3 25.4982 60.7332 114.1206 0.0000 0.0000 0.0000
# 4 0.0000 0.0000 0.0000 9.3621 0.0000 0.0000
# 5 0.0000 0.0000 0.0000 0.0000 11.0480 0.0000
# 6 0.0000 0.0000 0.0000 0.0000 0.0000 9.4562
#
#
#
# Elastic Compliance Matrix: (Units=1/GPa)
#
#
# Indices 1 2 3 4 5 6 
#
# 1 0.016799 -0.000963 -0.003241 0.000000 0.000000 0.000000
# 2 -0.000963 0.006609 -0.003302 0.000000 0.000000 0.000000
# 3 -0.003241 -0.003302 0.011244 0.000000 0.000000 0.000000
# 4 0.000000 0.000000 0.000000 0.106813 0.000000 0.000000
# 5 0.000000 0.000000 0.000000 0.000000 0.090514 0.000000
# 6 0.000000 0.000000 0.000000 0.000000 0.000000 0.105751
#
#
# Mechanical properties :
#
#
# Convention : Reuss Voigt Hill
#
# Bulk Modulus (GPa) = 50.91663 64.64978 57.78321
# Shear Modulus (GPa) = 13.91633 23.05295 18.48464
#
# Velocity S-wave (km/s) = 2.60431 3.35192 3.00149
# Velocity P-wave (km/s) = 5.81882 6.81829 6.33828
#
# Compressibility (1/GPa) = 0.01963995
#
# Stress axis : x y z
#
# Youngs Moduli (GPa) = 59.52713 151.30314 88.93569
#
# Poissons Ratio (x) = 0.14576 0.28822
# Poissons Ratio (y) = 0.05735 0.29367
# Poissons Ratio (z) = 0.19291 0.49962
#
# Static dielectric constant tensor:
#      x y z
#    x 1.747910 0.000000 0.000000 
#    y 0.000000 1.801770 0.000000 
#    z 0.000000 0.000000 1.713620 
# 
# From -- ./inp_files/3617.got.cif
#   From: 2010.05.17/outbox.cif.g08.bks.cpg/sg39_2_cif.got.tgz:3617.got - 2010.06.03 18:22:40.
