data_PCOD9361513
_publ_section_title
;
Structure prediction by ZEFSAII (Michael W. Deem and Ramdas Pophale) SiO2 
 PCOD9361513
Probable space group: A B M 2
;
_chemical_formula_sum "Si O2"
_cell_formula_units_Z 40
_cell_length_a 4.909522
_cell_length_b 27.434731
_cell_length_c 12.757145
_cell_angle_alpha 90.000000
_cell_angle_beta 90.000000
_cell_angle_gamma 90.000000
_cell_volume 1718.277917
_symmetry_space_group_name_H-M "A B M 2"
_symmetry_group_IT_number 39
_symmetry_cell_setting 'orthorhombic'
loop_
_space_group_symop_operation_xyz
x,y,z
-x,-y,z
-x,1/2+y,z
x,1/2-y,z
x,1/2+y,1/2+z
-x,1/2-y,1/2+z
-x,y,1/2+z
x,-y,1/2+z
loop_
_atom_site_type_symbol
_atom_site_label
_atom_site_fract_x
_atom_site_fract_y
_atom_site_fract_z
Si Si1 0.490354 0.096873 0.067200
Si Si2 0.248243 0.467260 0.384470
Si Si3 0.002079 0.903889 0.198104
Si Si4 0.389850 0.305045 0.953528
Si Si5 0.890421 0.194868 0.807298
O O1 0.187326 0.082401 0.099926
O O2 0.686377 0.089706 0.166649
O O3 0.613592 0.066318 0.972252
O O4 0.477094 0.153171 0.032650
O O5 0.500000 0.500000 0.343036
O O6 0.104233 0.434967 0.295435
O O7 0.000000 0.500000 0.426949
O O8 0.950673 0.847352 0.225693
O O9 0.413986 0.250000 0.995621
O O10 0.586555 0.308610 0.852313
O O11 0.088045 0.312739 0.907817
O O12 0.939119 0.250000 0.768561
#
# Coordination Sequence:
#
# PCOD9361513 Si02
#       5
#     8   8   8   8   8
#     4  12  26  43  72 104 135 177 230 279 341 413
#     4  12  28  48  71  96 137 182 228 296 354 402
#     4  12  26  43  72 104 135 177 230 279 341 413
#     4  10  21  40  68  99 138 182 220 267 333 405
#     4  10  21  40  68  99 138 182 220 267 333 405
#
# _framework density 23.279123999999999
#
# number of rings (size 3 to 8) (size 9 to 14) (size 15 to 20)
#    0.000    0.800    2.000    4.800    2.800    6.400 
#    0.000    0.000    0.000    0.000    0.000    0.000 
#    0.000    0.000    0.000    0.000    0.000    0.000 
#
# Total GULP energy -112022.219146 kJ/mol
# GULP energy per Si atom -5601.110957 kJ/mol
# Density = 2.322614 g / cm^3
# Si number density = 23.279124 Si / 1000 Ang^3
#
#
#
# Elastic Constant Matrix: (Units=GPa)
#
#
# Indices 1 2 3 4 5 6 
#
# 1 76.0321 24.6507 -1.9760 0.0000 0.0000 0.0000
# 2 24.6507 111.4072 50.6538 0.0000 0.0000 0.0000
# 3 -1.9760 50.6538 56.3117 0.0000 0.0000 0.0000
# 4 0.0000 0.0000 0.0000 -187.8035 0.0000 0.0000
# 5 0.0000 0.0000 0.0000 0.0000 38.7215 0.0000
# 6 0.0000 0.0000 0.0000 0.0000 0.0000 31.8829
#
#
#
# Elastic Compliance Matrix: (Units=1/GPa)
#
#
# Indices 1 2 3 4 5 6 
#
# 1 0.015301 -0.006142 0.006061 0.000000 0.000000 0.000000
# 2 -0.006142 0.017653 -0.016095 0.000000 0.000000 0.000000
# 3 0.006061 -0.016095 0.032449 0.000000 0.000000 0.000000
# 4 0.000000 0.000000 0.000000 -0.005325 0.000000 0.000000
# 5 0.000000 0.000000 0.000000 0.000000 0.025825 0.000000
# 6 0.000000 0.000000 0.000000 0.000000 0.000000 0.031365
#
#
# Mechanical properties :
#
#
# Convention : Reuss Voigt Hill
#
# Bulk Modulus (GPa) = 30.25466 43.37866 36.81666
# Shear Modulus (GPa) = 31.12645 -12.07834 9.52405
#
# Velocity S-wave (km/s) = 3.66060 -2.28030 2.02488
# Velocity P-wave (km/s) = 5.55800 3.42660 4.61698
#
# Compressibility (1/GPa) = 0.03305276
#
# Stress axis : x y z
#
# Youngs Moduli (GPa) = 65.35499 56.64824 30.81805
#
# Poissons Ratio (x) = 0.34791 -0.18680
# Poissons Ratio (y) = 0.40138 0.49601
# Poissons Ratio (z) = -0.39614 0.91173
#
# Static dielectric constant tensor:
#      x y z
#    x 1.812670 0.000000 0.000000 
#    y 0.000000 1.865320 0.000000 
#    z 0.000000 0.000000 1.866300 
# 
# From -- ./inp_files/4508.got.cif
#   From: 2010.05.17/outbox.cif.g08.bks.cpg/sg39_3_cif.got.tgz:4508.got - 2010.06.03 18:22:40.
