data_PCOD9361556
_publ_section_title
;
Structure prediction by ZEFSAII (Michael W. Deem and Ramdas Pophale) SiO2 
 PCOD9361556
Probable space group: A B M 2
;
_chemical_formula_sum "Si O2"
_cell_formula_units_Z 40
_cell_length_a 6.891547
_cell_length_b 22.183977
_cell_length_c 9.492497
_cell_angle_alpha 90.000000
_cell_angle_beta 90.000000
_cell_angle_gamma 90.000000
_cell_volume 1451.231168
_symmetry_space_group_name_H-M "A B M 2"
_symmetry_group_IT_number 39
_symmetry_cell_setting 'orthorhombic'
loop_
_space_group_symop_operation_xyz
x,y,z
-x,-y,z
-x,1/2+y,z
x,1/2-y,z
x,1/2+y,1/2+z
-x,1/2-y,1/2+z
-x,y,1/2+z
x,-y,1/2+z
loop_
_atom_site_type_symbol
_atom_site_label
_atom_site_fract_x
_atom_site_fract_y
_atom_site_fract_z
Si Si1 0.500000 0.000000 0.198501
Si Si2 0.933679 0.250000 0.674904
Si Si3 0.138260 0.950112 0.527950
Si Si4 0.583385 0.383757 0.885141
Si Si5 0.537604 0.687287 0.130310
Si Si6 0.980828 0.374394 0.289045
O O1 0.683688 0.987068 0.096509
O O2 0.523256 0.943977 0.305870
O O3 0.768682 0.199396 0.621506
O O4 0.059177 0.194268 0.742519
O O5 0.169052 0.903069 0.400481
O O6 0.023209 0.917335 0.655432
O O7 0.000000 0.000000 0.460149
O O8 0.525710 0.370378 0.043795
O O9 0.506042 0.327454 0.792948
O O10 0.440189 0.750000 0.084845
O O11 0.815601 0.624327 0.374560
#
# Coordination Sequence:
#
# PCOD9361556 Si02
#       6
#     4   4   8   8   8   8
#     4  10  26  48  76 112 162 216 288 334 428 496
#     4   8  20  42  72 108 152 212 260 336 404 498
#     4  11  25  51  77 114 160 218 264 354 412 507
#     4  10  21  42  68 114 157 219 268 352 402 500
#     4   9  19  37  69 107 158 210 273 334 410 486
#     4  10  23  47  75 108 164 211 276 339 430 488
#
# _framework density 27.562802000000001
#
# number of rings (size 3 to 8) (size 9 to 14) (size 15 to 20)
#    0.600    1.600    0.000    1.200    4.200    1.600 
#   28.800    0.000    0.000    0.000    0.000    0.000 
#    0.000    0.000    0.000    0.000    0.000    0.000 
#
# Total GULP energy -111446.907219 kJ/mol
# GULP energy per Si atom -5572.345361 kJ/mol
# Density = 2.750007 g / cm^3
# Si number density = 27.562802 Si / 1000 Ang^3
#
#
#
# Elastic Constant Matrix: (Units=GPa)
#
#
# Indices 1 2 3 4 5 6 
#
# 1 99.8900 37.3167 19.8931 0.0000 0.0000 0.0000
# 2 37.3167 122.7135 -12.4182 0.0000 0.0000 0.0000
# 3 19.8931 -12.4182 66.9942 0.0000 0.0000 0.0000
# 4 0.0000 0.0000 0.0000 70.5389 0.0000 0.0000
# 5 0.0000 0.0000 0.0000 0.0000 35.5774 0.0000
# 6 0.0000 0.0000 0.0000 0.0000 0.0000 67.2597
#
#
#
# Elastic Compliance Matrix: (Units=1/GPa)
#
#
# Indices 1 2 3 4 5 6 
#
# 1 0.012497 -0.004256 -0.004500 0.000000 0.000000 0.000000
# 2 -0.004256 0.009754 0.003072 0.000000 0.000000 0.000000
# 3 -0.004500 0.003072 0.016832 0.000000 0.000000 0.000000
# 4 0.000000 0.000000 0.000000 0.014177 0.000000 0.000000
# 5 0.000000 0.000000 0.000000 0.000000 0.028108 0.000000
# 6 0.000000 0.000000 0.000000 0.000000 0.000000 0.014868
#
#
# Mechanical properties :
#
#
# Convention : Reuss Voigt Hill
#
# Bulk Modulus (GPa) = 36.08028 42.13119 39.10574
# Shear Modulus (GPa) = 42.79323 50.99561 46.89442
#
# Velocity S-wave (km/s) = 3.94454 4.30602 4.12924
# Velocity P-wave (km/s) = 5.81932 6.32780 6.07888
#
# Compressibility (1/GPa) = 0.02771597
#
# Stress axis : x y z
#
# Youngs Moduli (GPa) = 80.01975 102.52180 59.41013
#
# Poissons Ratio (x) = 0.43629 0.26732
# Poissons Ratio (y) = 0.34053 -0.18249
# Poissons Ratio (z) = 0.36006 -0.31491
#
# Static dielectric constant tensor:
#      x y z
#    x 2.229970 0.000000 0.000000 
#    y 0.000000 2.174570 0.000000 
#    z 0.000000 0.000000 2.059480 
# 
# From -- ./inp_files/4613.got.cif
#   From: 2010.05.17/outbox.cif.g08.bks.cpg/sg39_3_cif.got.tgz:4613.got - 2010.06.03 18:22:40.
