data_PCOD9361085
_publ_section_title
;
Structure prediction by ZEFSAII (Michael W. Deem and Ramdas Pophale) SiO2 
 PCOD9361085
Probable space group: A B M 2
;
_chemical_formula_sum "Si O2"
_cell_formula_units_Z 56
_cell_length_a 11.881463
_cell_length_b 14.919877
_cell_length_c 15.105072
_cell_angle_alpha 90.000000
_cell_angle_beta 90.000000
_cell_angle_gamma 90.000000
_cell_volume 2677.675608
_symmetry_space_group_name_H-M "A B M 2"
_symmetry_group_IT_number 39
_symmetry_cell_setting 'orthorhombic'
loop_
_space_group_symop_operation_xyz
x,y,z
-x,-y,z
-x,1/2+y,z
x,1/2-y,z
x,1/2+y,1/2+z
-x,1/2-y,1/2+z
-x,y,1/2+z
x,-y,1/2+z
loop_
_atom_site_type_symbol
_atom_site_label
_atom_site_fract_x
_atom_site_fract_y
_atom_site_fract_z
Si Si1 0.355661 0.545417 0.110300
Si Si2 0.698701 0.649216 0.138521
Si Si3 0.140199 0.856552 0.896307
Si Si4 0.485574 0.647072 0.260590
Si Si5 0.600474 0.857992 0.433929
Si Si6 0.866924 0.348573 0.093054
Si Si7 0.943954 0.405069 0.710555
O O1 0.345892 0.440005 0.090108
O O2 0.416571 0.577901 0.200238
O O3 0.229495 0.582619 0.118248
O O4 0.412642 0.596751 0.028791
O O5 0.697620 0.750000 0.098005
O O6 0.611305 0.653503 0.220031
O O7 0.823860 0.623908 0.170323
O O8 0.137262 0.750000 0.878479
O O9 0.272203 0.882950 0.902673
O O10 0.075081 0.900934 0.815619
O O11 0.090099 0.872535 0.994340
O O12 0.439278 0.750000 0.255929
O O13 0.506482 0.618414 0.361465
O O14 0.597791 0.750000 0.442163
O O15 0.812697 0.250000 0.082677
O O16 0.962588 0.343330 0.165792
O O17 0.000000 0.500000 0.686757
#
# Coordination Sequence:
#
# PCOD9361085 Si02
#       7
#     8   8   8   8   8   8   8
#     4  11  21  39  64  99 131 163 222 272 316 385
#     4  11  23  41  63  89 127 175 219 264 323 384
#     4   9  18  36  61  89 122 169 216 253 308 392
#     4  10  20  38  68  96 124 166 215 265 324 390
#     4   9  18  36  66  98 128 173 217 257 324 399
#     4  10  21  37  63  95 128 165 210 267 326 381
#     4  12  22  38  62  92 128 170 215 266 321 385
#
# _framework density 20.913661000000001
#
# number of rings (size 3 to 8) (size 9 to 14) (size 15 to 20)
#    0.000    1.714    2.857    3.857    0.000    0.571 
#    0.000    2.857    3.143    2.571    0.000    0.000 
#    0.000    0.000    0.000    0.000    0.000    0.000 
#
# Total GULP energy -156157.394314 kJ/mol
# GULP energy per Si atom -5577.049797 kJ/mol
# Density = 2.086606 g / cm^3
# Si number density = 20.913661 Si / 1000 Ang^3
#
#
#
# Elastic Constant Matrix: (Units=GPa)
#
#
# Indices 1 2 3 4 5 6 
#
# 1 86.4990 32.3104 39.0907 0.0000 0.0000 0.0000
# 2 32.3104 126.1922 40.1418 0.0000 0.0000 0.0000
# 3 39.0907 40.1418 104.0418 0.0000 0.0000 0.0000
# 4 0.0000 0.0000 0.0000 8.0556 0.0000 0.0000
# 5 0.0000 0.0000 0.0000 0.0000 36.8610 0.0000
# 6 0.0000 0.0000 0.0000 0.0000 0.0000 27.3456
#
#
#
# Elastic Compliance Matrix: (Units=1/GPa)
#
#
# Indices 1 2 3 4 5 6 
#
# 1 0.014465 -0.002251 -0.004566 0.000000 0.000000 0.000000
# 2 -0.002251 0.009383 -0.002775 0.000000 0.000000 0.000000
# 3 -0.004566 -0.002775 0.012398 0.000000 0.000000 0.000000
# 4 0.000000 0.000000 0.000000 0.124137 0.000000 0.000000
# 5 0.000000 0.000000 0.000000 0.000000 0.027129 0.000000
# 6 0.000000 0.000000 0.000000 0.000000 0.000000 0.036569
#
#
# Mechanical properties :
#
#
# Convention : Reuss Voigt Hill
#
# Bulk Modulus (GPa) = 58.60879 59.97987 59.29433
# Shear Modulus (GPa) = 20.08411 28.13177 24.10794
#
# Velocity S-wave (km/s) = 3.10229 3.67159 3.39888
# Velocity P-wave (km/s) = 6.39666 6.83492 6.61942
#
# Compressibility (1/GPa) = 0.01706229
#
# Stress axis : x y z
#
# Youngs Moduli (GPa) = 69.13059 106.57128 80.66015
#
# Poissons Ratio (x) = 0.23991 0.36833
# Poissons Ratio (y) = 0.15562 0.22379
# Poissons Ratio (z) = 0.31568 0.29568
#
# Static dielectric constant tensor:
#      x y z
#    x 1.745240 0.000000 0.000000 
#    y 0.000000 1.823530 0.000000 
#    z 0.000000 0.000000 1.757260 
# 
# From -- ./inp_files/9283.got.cif
#   From: 2010.05.17/outbox.cif.g08.bks.cpg/sg39_5_cif.got.tgz:9283.got - 2010.06.03 18:22:40.
