data_PCOD9361677
_publ_section_title
;
Structure prediction by ZEFSAII (Michael W. Deem and Ramdas Pophale) SiO2 
 PCOD9361677
Probable space group: A B M 2
;
_chemical_formula_sum "Si O2"
_cell_formula_units_Z 48
_cell_length_a 26.383644
_cell_length_b 9.075788
_cell_length_c 10.081162
_cell_angle_alpha 90.000000
_cell_angle_beta 90.000000
_cell_angle_gamma 90.000000
_cell_volume 2413.958029
_symmetry_space_group_name_H-M "A B M 2"
_symmetry_group_IT_number 39
_symmetry_cell_setting 'orthorhombic'
loop_
_space_group_symop_operation_xyz
x,y,z
-x,-y,z
-x,1/2+y,z
x,1/2-y,z
x,1/2+y,1/2+z
-x,1/2-y,1/2+z
-x,y,1/2+z
x,-y,1/2+z
loop_
_atom_site_type_symbol
_atom_site_label
_atom_site_fract_x
_atom_site_fract_y
_atom_site_fract_z
Si Si1 0.782782 0.574564 0.873070
Si Si2 0.554081 0.074950 0.457300
Si Si3 0.054266 0.076464 0.208727
Si Si4 0.612974 0.425851 0.725163
Si Si5 0.115206 0.576375 0.977562
Si Si6 0.273675 0.425935 0.137114
O O1 0.789718 0.750000 0.863119
O O2 0.833645 0.499364 0.926367
O O3 0.764981 0.508328 0.734004
O O4 0.739889 0.543647 0.984474
O O5 0.549627 0.250000 0.440949
O O6 0.574244 0.044326 0.605063
O O7 0.500000 0.000000 0.434655
O O8 0.594529 0.012089 0.353445
O O9 0.050407 0.250000 0.178430
O O10 0.074607 0.060702 0.358501
O O11 0.000000 0.000000 0.194130
O O12 0.093624 0.001365 0.108092
O O13 0.612612 0.250000 0.750833
O O14 0.669228 0.466972 0.676661
O O15 0.123506 0.750000 0.001300
O O16 0.267940 0.250000 0.156551
#
# Coordination Sequence:
#
# PCOD9361677 Si02
#       6
#     8   8   8   8   8   8
#     4  11  23  39  61  89 120 155 197 243 291 347
#     4  11  23  39  60  87 118 153 195 241 291 348
#     4  11  24  41  62  89 120 155 197 244 293 348
#     4  10  22  40  61  86 117 153 194 241 291 346
#     4  11  24  41  62  89 121 158 199 243 293 348
#     4  10  22  40  60  86 120 154 193 242 293 347
#
# _framework density 19.884354999999999
#
# number of rings (size 3 to 8) (size 9 to 14) (size 15 to 20)
#    0.000    1.333    0.000    5.000    0.000   14.000 
#    0.000    0.000    0.000    0.000    0.000    0.000 
#    0.000    0.000    0.000    0.000    0.000    0.000 
#
# Total GULP energy -134293.276806 kJ/mol
# GULP energy per Si atom -5595.553200 kJ/mol
# Density = 1.983910 g / cm^3
# Si number density = 19.884355 Si / 1000 Ang^3
#
#
#
# Elastic Constant Matrix: (Units=GPa)
#
#
# Indices 1 2 3 4 5 6 
#
# 1 54.0000 6.8445 -24.4783 0.0000 0.0000 0.0000
# 2 6.8445 43.6172 25.1060 0.0000 0.0000 0.0000
# 3 -24.4783 25.1060 52.1261 0.0000 0.0000 0.0000
# 4 0.0000 0.0000 0.0000 31.7573 0.0000 0.0000
# 5 0.0000 0.0000 0.0000 0.0000 31.0389 0.0000
# 6 0.0000 0.0000 0.0000 0.0000 0.0000 30.1999
#
#
#
# Elastic Compliance Matrix: (Units=1/GPa)
#
#
# Indices 1 2 3 4 5 6 
#
# 1 0.031756 -0.018770 0.023953 0.000000 0.000000 0.000000
# 2 -0.018770 0.042816 -0.029436 0.000000 0.000000 0.000000
# 3 0.023953 -0.029436 0.044610 0.000000 0.000000 0.000000
# 4 0.000000 0.000000 0.000000 0.031489 0.000000 0.000000
# 5 0.000000 0.000000 0.000000 0.000000 0.032218 0.000000
# 6 0.000000 0.000000 0.000000 0.000000 0.000000 0.033113
#
#
# Mechanical properties :
#
#
# Convention : Reuss Voigt Hill
#
# Bulk Modulus (GPa) = 14.14952 18.29864 16.22408
# Shear Modulus (GPa) = 17.35714 28.08396 22.72055
#
# Velocity S-wave (km/s) = 2.95770 3.76222 3.38396
# Velocity P-wave (km/s) = 4.33536 5.30046 4.84202
#
# Compressibility (1/GPa) = 0.07067376
#
# Stress axis : x y z
#
# Youngs Moduli (GPa) = 31.49061 23.35592 22.41646
#
# Poissons Ratio (x) = 0.43840 -0.53694
# Poissons Ratio (y) = 0.59109 0.65986
# Poissons Ratio (z) = -0.75429 0.68751
#
# Static dielectric constant tensor:
#      x y z
#    x 1.681070 0.000000 0.000000 
#    y 0.000000 1.659720 0.000000 
#    z 0.000000 0.000000 1.665220 
# 
# From -- ./inp_files/4137.got.cif
#   From: 2010.05.17/outbox.cif.g08.bks.cpg/sg39_3_cif.got.tgz:4137.got - 2010.06.03 18:22:40.
