data_PCOD9361893
_publ_section_title
;
Structure prediction by ZEFSAII (Michael W. Deem and Ramdas Pophale) SiO2 
 PCOD9361893
Probable space group: A B M 2
;
_chemical_formula_sum "Si O2"
_cell_formula_units_Z 56
_cell_length_a 9.557797
_cell_length_b 21.946405
_cell_length_c 11.732306
_cell_angle_alpha 90.000000
_cell_angle_beta 90.000000
_cell_angle_gamma 90.000000
_cell_volume 2460.960105
_symmetry_space_group_name_H-M "A B M 2"
_symmetry_group_IT_number 39
_symmetry_cell_setting 'orthorhombic'
loop_
_space_group_symop_operation_xyz
x,y,z
-x,-y,z
-x,1/2+y,z
x,1/2-y,z
x,1/2+y,1/2+z
-x,1/2-y,1/2+z
-x,y,1/2+z
x,-y,1/2+z
loop_
_atom_site_type_symbol
_atom_site_label
_atom_site_fract_x
_atom_site_fract_y
_atom_site_fract_z
Si Si1 0.619720 0.405789 0.447500
Si Si2 0.331983 0.500097 0.274552
Si Si3 0.014383 0.318578 0.805504
Si Si4 0.664791 0.181591 0.238571
Si Si5 0.329544 0.914845 0.058580
Si Si6 0.816954 0.893122 0.156437
Si Si7 0.974917 0.568349 0.469900
O O1 0.702437 0.462011 0.388379
O O2 0.609040 0.356703 0.346408
O O3 0.467724 0.428704 0.486637
O O4 0.703401 0.381645 0.557076
O O5 0.299107 0.539535 0.162473
O O6 0.258574 0.436375 0.248745
O O7 0.186905 0.415970 0.490336
O O8 0.992124 0.250000 0.853240
O O9 0.166278 0.317867 0.746720
O O10 0.890694 0.336593 0.718385
O O11 0.025225 0.374811 0.893261
O O12 0.611704 0.250000 0.242939
O O13 0.633180 0.148339 0.120802
O O14 0.500000 0.000000 0.271903
O O15 0.941640 0.927784 0.089662
O O16 0.000000 0.500000 0.422811
#
# Coordination Sequence:
#
# PCOD9361893 Si02
#       7
#     8   8   8   8   8   8   8
#     4  11  26  44  68 104 143 196 239 300 380 448
#     4  11  25  41  70 101 145 185 237 301 374 450
#     4  11  27  47  73 110 151 196 250 312 372 448
#     4  10  23  46  71 100 143 192 250 311 366 444
#     4  11  24  44  67 106 143 185 240 305 387 439
#     4  12  25  45  71 105 139 196 244 297 370 450
#     4  12  26  42  75 112 145 188 250 311 373 438
#
# _framework density 22.755347
#
# number of rings (size 3 to 8) (size 9 to 14) (size 15 to 20)
#    0.000    0.857    5.714    0.000    6.000    2.857 
#    0.000    1.429    0.000    0.000    0.000    0.000 
#    0.000    0.000    0.000    0.000    0.000    0.000 
#
# Total GULP energy -156647.995166 kJ/mol
# GULP energy per Si atom -5594.571256 kJ/mol
# Density = 2.270356 g / cm^3
# Si number density = 22.755347 Si / 1000 Ang^3
#
#
#
# Elastic Constant Matrix: (Units=GPa)
#
#
# Indices 1 2 3 4 5 6 
#
# 1 102.2307 18.4188 29.6700 0.0000 0.0000 0.0000
# 2 18.4188 146.6723 45.4771 0.0000 0.0000 0.0000
# 3 29.6700 45.4771 95.2468 0.0000 0.0000 0.0000
# 4 0.0000 0.0000 0.0000 18.2197 0.0000 0.0000
# 5 0.0000 0.0000 0.0000 0.0000 31.2066 0.0000
# 6 0.0000 0.0000 0.0000 0.0000 0.0000 29.9752
#
#
#
# Elastic Compliance Matrix: (Units=1/GPa)
#
#
# Indices 1 2 3 4 5 6 
#
# 1 0.010771 -0.000367 -0.003180 0.000000 0.000000 0.000000
# 2 -0.000367 0.008015 -0.003713 0.000000 0.000000 0.000000
# 3 -0.003180 -0.003713 0.013262 0.000000 0.000000 0.000000
# 4 0.000000 0.000000 0.000000 0.054886 0.000000 0.000000
# 5 0.000000 0.000000 0.000000 0.000000 0.032044 0.000000
# 6 0.000000 0.000000 0.000000 0.000000 0.000000 0.033361
#
#
# Mechanical properties :
#
#
# Convention : Reuss Voigt Hill
#
# Bulk Modulus (GPa) = 57.04706 59.03129 58.03918
# Shear Modulus (GPa) = 28.95168 32.58589 30.76879
#
# Velocity S-wave (km/s) = 3.57080 3.78830 3.68116
# Velocity P-wave (km/s) = 6.49038 6.71811 6.60522
#
# Compressibility (1/GPa) = 0.01752939
#
# Stress axis : x y z
#
# Youngs Moduli (GPa) = 92.84361 124.76406 75.40108
#
# Poissons Ratio (x) = 0.04573 0.23979
# Poissons Ratio (y) = 0.03403 0.27995
# Poissons Ratio (z) = 0.29526 0.46322
#
# Static dielectric constant tensor:
#      x y z
#    x 1.851880 0.000000 0.000000 
#    y 0.000000 1.879030 0.000000 
#    z 0.000000 0.000000 1.864820 
# 
# From -- ./inp_files/5971.got.cif
#   From: 2010.05.17/outbox.cif.g08.bks.cpg/sg39_3_cif.got.tgz:5971.got - 2010.06.03 18:22:40.
