data_PCOD9361144
_publ_section_title
;
Structure prediction by ZEFSAII (Michael W. Deem and Ramdas Pophale) SiO2 
 PCOD9361144
Probable space group: A B M 2
;
_chemical_formula_sum "Si O2"
_cell_formula_units_Z 44
_cell_length_a 7.785908
_cell_length_b 25.497661
_cell_length_c 9.664288
_cell_angle_alpha 90.000000
_cell_angle_beta 90.000000
_cell_angle_gamma 90.000000
_cell_volume 1918.578061
_symmetry_space_group_name_H-M "A B M 2"
_symmetry_group_IT_number 39
_symmetry_cell_setting 'orthorhombic'
loop_
_space_group_symop_operation_xyz
x,y,z
-x,-y,z
-x,1/2+y,z
x,1/2-y,z
x,1/2+y,1/2+z
-x,1/2-y,1/2+z
-x,y,1/2+z
x,-y,1/2+z
loop_
_atom_site_type_symbol
_atom_site_label
_atom_site_fract_x
_atom_site_fract_y
_atom_site_fract_z
Si Si1 0.576209 0.419723 0.663980
Si Si2 0.221288 0.476480 0.620469
Si Si3 0.541973 0.853888 0.908531
Si Si4 0.000000 0.500000 0.365605
Si Si5 0.124245 0.186131 0.748005
Si Si6 0.175099 0.311466 0.442153
O O1 0.396965 0.445508 0.618204
O O2 0.723779 0.462473 0.642446
O O3 0.537239 0.401881 0.819396
O O4 0.601299 0.371303 0.560591
O O5 0.123066 0.470884 0.475593
O O6 0.110291 0.464766 0.758382
O O7 0.704673 0.831208 0.828025
O O8 0.377235 0.816614 0.917178
O O9 0.125060 0.250000 0.742924
O O10 0.133304 0.165012 0.592047
O O11 0.951957 0.167366 0.824901
O O12 0.134156 0.250000 0.449682
#
# Coordination Sequence:
#
# PCOD9361144 Si02
#       6
#     8   8   8   4   8   8
#     4  11  24  42  63  86 134 166 213 256 324 375
#     4  10  22  44  62  90 122 174 206 260 314 390
#     4  12  23  43  62 102 126 176 208 275 315 384
#     4  10  20  40  68  90 112 156 230 250 316 372
#     4  10  23  44  67  94 130 171 215 263 323 387
#     4  10  23  44  67  94 130 171 215 263 323 387
#
# _framework density 22.93365
#
# number of rings (size 3 to 8) (size 9 to 14) (size 15 to 20)
#    0.000    1.455    1.818    2.727    2.545    2.909 
#   19.636    0.000    0.000    0.000    0.000    0.000 
#    0.000    0.000    0.000    0.000    0.000    0.000 
#
# Total GULP energy -122996.332867 kJ/mol
# GULP energy per Si atom -5590.742403 kJ/mol
# Density = 2.288145 g / cm^3
# Si number density = 22.933650 Si / 1000 Ang^3
#
#
#
# Elastic Constant Matrix: (Units=GPa)
#
#
# Indices 1 2 3 4 5 6 
#
# 1 69.5208 -0.2781 22.2800 0.0000 0.0000 0.0000
# 2 -0.2781 20.1903 1.6175 0.0000 0.0000 0.0000
# 3 22.2800 1.6175 102.9769 0.0000 0.0000 0.0000
# 4 0.0000 0.0000 0.0000 17.9068 0.0000 0.0000
# 5 0.0000 0.0000 0.0000 0.0000 36.1470 0.0000
# 6 0.0000 0.0000 0.0000 0.0000 0.0000 13.3717
#
#
#
# Elastic Compliance Matrix: (Units=1/GPa)
#
#
# Indices 1 2 3 4 5 6 
#
# 1 0.015461 0.000482 -0.003353 0.000000 0.000000 0.000000
# 2 0.000482 0.049606 -0.000883 0.000000 0.000000 0.000000
# 3 -0.003353 -0.000883 0.010450 0.000000 0.000000 0.000000
# 4 0.000000 0.000000 0.000000 0.055845 0.000000 0.000000
# 5 0.000000 0.000000 0.000000 0.000000 0.027665 0.000000
# 6 0.000000 0.000000 0.000000 0.000000 0.000000 0.074785
#
#
# Mechanical properties :
#
#
# Convention : Reuss Voigt Hill
#
# Bulk Modulus (GPa) = 14.70415 26.65852 20.68134
# Shear Modulus (GPa) = 18.94015 24.75633 21.84824
#
# Velocity S-wave (km/s) = 2.87691 3.28910 3.08989
# Velocity P-wave (km/s) = 4.17864 5.10624 4.66555
#
# Compressibility (1/GPa) = 0.06800800
#
# Stress axis : x y z
#
# Youngs Moduli (GPa) = 64.68073 20.15879 95.69234
#
# Poissons Ratio (x) = -0.00971 0.32082
# Poissons Ratio (y) = -0.03115 0.08453
# Poissons Ratio (z) = 0.21685 0.01781
#
# Static dielectric constant tensor:
#      x y z
#    x 1.823620 0.000000 0.000000 
#    y 0.000000 1.892890 0.000000 
#    z 0.000000 0.000000 1.836480 
# 
# From -- ./inp_files/2257.got.cif
#   From: 2010.05.17/outbox.cif.g08.bks.cpg/sg39_2_cif.got.tgz:2257.got - 2010.06.03 18:22:40.
