data_PCOD9361095
_publ_section_title
;
Structure prediction by ZEFSAII (Michael W. Deem and Ramdas Pophale) SiO2 
 PCOD9361095
Probable space group: A B M 2
;
_chemical_formula_sum "Si O2"
_cell_formula_units_Z 56
_cell_length_a 12.231121
_cell_length_b 21.222705
_cell_length_c 11.524174
_cell_angle_alpha 90.000000
_cell_angle_beta 90.000000
_cell_angle_gamma 90.000000
_cell_volume 2991.415963
_symmetry_space_group_name_H-M "A B M 2"
_symmetry_group_IT_number 39
_symmetry_cell_setting 'orthorhombic'
loop_
_space_group_symop_operation_xyz
x,y,z
-x,-y,z
-x,1/2+y,z
x,1/2-y,z
x,1/2+y,1/2+z
-x,1/2-y,1/2+z
-x,y,1/2+z
x,-y,1/2+z
loop_
_atom_site_type_symbol
_atom_site_label
_atom_site_fract_x
_atom_site_fract_y
_atom_site_fract_z
Si Si1 0.411688 0.087679 0.531290
Si Si2 0.206908 0.929890 0.357347
Si Si3 0.975822 0.613486 0.325652
Si Si4 0.722494 0.176220 0.184230
Si Si5 0.959850 0.323240 0.079186
Si Si6 0.728040 0.431900 0.810849
Si Si7 0.651626 0.556571 0.066827
O O1 0.376913 0.141668 0.620276
O O2 0.344785 0.095179 0.413444
O O3 0.541108 0.084079 0.511779
O O4 0.371825 0.018501 0.575157
O O5 0.247173 0.866246 0.295445
O O6 0.241287 0.930261 0.491010
O O7 0.078116 0.934391 0.332722
O O8 0.268977 0.991872 0.312857
O O9 0.987406 0.649919 0.450585
O O10 0.853502 0.587578 0.324536
O O11 0.991247 0.647563 0.199479
O O12 0.705595 0.250000 0.209213
O O13 0.829023 0.170805 0.100490
O O14 0.989504 0.250000 0.078701
O O15 0.673295 0.413830 0.690790
#
# Coordination Sequence:
#
# PCOD9361095 Si02
#       7
#     8   8   8   8   8   8   8
#     4  10  21  37  60  89 113 159 201 251 309 361
#     4  10  22  37  57  91 121 161 197 245 315 365
#     4  11  21  36  60  88 125 165 202 253 310 362
#     4  10  20  39  61  82 119 164 206 243 294 366
#     4  10  21  37  58  85 122 167 212 249 294 368
#     4  11  21  37  59  92 124 153 201 260 312 364
#     4  10  22  36  63  87 123 151 201 260 306 370
#
# _framework density 18.720231999999999
#
# number of rings (size 3 to 8) (size 9 to 14) (size 15 to 20)
#    0.000    1.714    2.857    1.714    2.000    1.714 
#    0.000    3.571    0.000    2.571    0.000    0.000 
#    0.000    0.000    0.000    0.000    0.000    0.000 
#
# Total GULP energy -155984.027469 kJ/mol
# GULP energy per Si atom -5570.858124 kJ/mol
# Density = 1.867762 g / cm^3
# Si number density = 18.720232 Si / 1000 Ang^3
#
#
#
# Elastic Constant Matrix: (Units=GPa)
#
#
# Indices 1 2 3 4 5 6 
#
# 1 60.4188 8.3074 22.4455 0.0000 0.0000 0.0000
# 2 8.3074 65.6156 17.9033 0.0000 0.0000 0.0000
# 3 22.4455 17.9033 92.7270 0.0000 0.0000 0.0000
# 4 0.0000 0.0000 0.0000 20.8619 0.0000 0.0000
# 5 0.0000 0.0000 0.0000 0.0000 22.2714 0.0000
# 6 0.0000 0.0000 0.0000 0.0000 0.0000 20.3008
#
#
#
# Elastic Compliance Matrix: (Units=1/GPa)
#
#
# Indices 1 2 3 4 5 6 
#
# 1 0.018271 -0.001168 -0.004197 0.000000 0.000000 0.000000
# 2 -0.001168 0.016162 -0.002838 0.000000 0.000000 0.000000
# 3 -0.004197 -0.002838 0.012348 0.000000 0.000000 0.000000
# 4 0.000000 0.000000 0.000000 0.047934 0.000000 0.000000
# 5 0.000000 0.000000 0.000000 0.000000 0.044901 0.000000
# 6 0.000000 0.000000 0.000000 0.000000 0.000000 0.049259
#
#
# Mechanical properties :
#
#
# Convention : Reuss Voigt Hill
#
# Bulk Modulus (GPa) = 32.92114 35.11931 34.02022
# Shear Modulus (GPa) = 23.21187 24.02716 23.61951
#
# Velocity S-wave (km/s) = 3.52509 3.58646 3.55591
# Velocity P-wave (km/s) = 5.84743 5.99592 5.92214
#
# Compressibility (1/GPa) = 0.03037562
#
# Stress axis : x y z
#
# Youngs Moduli (GPa) = 54.73163 61.87177 80.98331
#
# Poissons Ratio (x) = 0.07227 0.33990
# Poissons Ratio (y) = 0.06393 0.22982
# Poissons Ratio (z) = 0.22972 0.17558
#
# Static dielectric constant tensor:
#      x y z
#    x 1.640300 0.000000 0.000000 
#    y 0.000000 1.643190 0.000000 
#    z 0.000000 0.000000 1.694400 
# 
# From -- ./inp_files/5953.got.cif
#   From: 2010.05.17/outbox.cif.g08.bks.cpg/sg39_3_cif.got.tgz:5953.got - 2010.06.03 18:22:40.
