data_PCOD9361725
_publ_section_title
;
Structure prediction by ZEFSAII (Michael W. Deem and Ramdas Pophale) SiO2 
 PCOD9361725
Probable space group: A B M 2
;
_chemical_formula_sum "Si O2"
_cell_formula_units_Z 48
_cell_length_a 24.948103
_cell_length_b 8.110315
_cell_length_c 9.904973
_cell_angle_alpha 90.000000
_cell_angle_beta 90.000000
_cell_angle_gamma 90.000000
_cell_volume 2004.142264
_symmetry_space_group_name_H-M "A B M 2"
_symmetry_group_IT_number 39
_symmetry_cell_setting 'orthorhombic'
loop_
_space_group_symop_operation_xyz
x,y,z
-x,-y,z
-x,1/2+y,z
x,1/2-y,z
x,1/2+y,1/2+z
-x,1/2-y,1/2+z
-x,y,1/2+z
x,-y,1/2+z
loop_
_atom_site_type_symbol
_atom_site_label
_atom_site_fract_x
_atom_site_fract_y
_atom_site_fract_z
Si Si1 0.204460 0.942936 0.563300
Si Si2 0.983373 0.250000 0.031769
Si Si3 0.269247 0.449544 0.320946
Si Si4 0.108358 0.427444 0.391496
Si Si5 0.377473 0.445424 0.181609
Si Si6 0.934857 0.750000 0.806078
Si Si7 0.440507 0.948228 0.429349
O O1 0.191358 0.750000 0.558736
O O2 0.221989 0.988748 0.714034
O O3 0.255185 0.973266 0.464386
O O4 0.156336 0.041843 0.495213
O O5 0.946222 0.100880 0.976884
O O6 0.981199 0.250000 0.192922
O O7 0.038642 0.250000 0.953904
O O8 0.271325 0.250000 0.334686
O O9 0.323913 0.511806 0.252380
O O10 0.117121 0.250000 0.321458
O O11 0.099338 0.583800 0.296994
O O12 0.368898 0.250000 0.165738
O O13 0.425543 0.477047 0.285456
O O14 0.396573 0.510794 0.037423
O O15 0.437983 0.750000 0.422558
O O16 0.500000 0.000000 0.470956
#
# Coordination Sequence:
#
# PCOD9361725 Si02
#       7
#     8   4   8   8   8   4   8
#     4  11  23  42  66  96 132 174 220 273 332 393
#     4  10  28  46  76 102 138 180 230 268 347 400
#     4  10  23  41  65  94 129 171 216 274 334 392
#     4  10  25  44  69 104 134 180 222 278 333 403
#     4  10  22  41  62  91 128 165 216 271 328 390
#     4  12  24  54  70 106 140 180 224 284 331 406
#     4  11  23  39  62  91 126 168 216 266 327 392
#
# _framework density 23.950393999999999
#
# number of rings (size 3 to 8) (size 9 to 14) (size 15 to 20)
#    0.500    1.000    0.833    3.000    2.333    8.667 
#    1.500    0.000    0.000    0.000    0.000    0.000 
#    0.000    0.000    0.000    0.000    0.000    0.000 
#
# Total GULP energy -134282.145211 kJ/mol
# GULP energy per Si atom -5595.089384 kJ/mol
# Density = 2.389588 g / cm^3
# Si number density = 23.950394 Si / 1000 Ang^3
#
#
#
# Elastic Constant Matrix: (Units=GPa)
#
#
# Indices 1 2 3 4 5 6 
#
# 1 70.4130 7.7011 -14.0968 0.0000 0.0000 0.0000
# 2 7.7011 83.2657 10.5278 0.0000 0.0000 0.0000
# 3 -14.0968 10.5278 89.1869 0.0000 0.0000 0.0000
# 4 0.0000 0.0000 0.0000 6.3701 0.0000 0.0000
# 5 0.0000 0.0000 0.0000 0.0000 37.9716 0.0000
# 6 0.0000 0.0000 0.0000 0.0000 0.0000 30.2518
#
#
#
# Elastic Compliance Matrix: (Units=1/GPa)
#
#
# Indices 1 2 3 4 5 6 
#
# 1 0.014900 -0.001701 0.002556 0.000000 0.000000 0.000000
# 2 -0.001701 0.012386 -0.001731 0.000000 0.000000 0.000000
# 3 0.002556 -0.001731 0.011821 0.000000 0.000000 0.000000
# 4 0.000000 0.000000 0.000000 0.156985 0.000000 0.000000
# 5 0.000000 0.000000 0.000000 0.000000 0.026335 0.000000
# 6 0.000000 0.000000 0.000000 0.000000 0.000000 0.033056
#
#
# Mechanical properties :
#
#
# Convention : Reuss Voigt Hill
#
# Bulk Modulus (GPa) = 26.77112 27.90332 27.33722
# Shear Modulus (GPa) = 18.54008 30.83426 24.68717
#
# Velocity S-wave (km/s) = 2.78529 3.59196 3.21403
# Velocity P-wave (km/s) = 4.64174 5.37389 5.02118
#
# Compressibility (1/GPa) = 0.03735369
#
# Stress axis : x y z
#
# Youngs Moduli (GPa) = 67.11565 80.73669 84.59730
#
# Poissons Ratio (x) = 0.13735 -0.21622
# Poissons Ratio (y) = 0.11418 0.14643
# Poissons Ratio (z) = -0.17154 0.13975
#
# Static dielectric constant tensor:
#      x y z
#    x 1.931890 0.000000 0.000000 
#    y 0.000000 1.905100 0.000000 
#    z 0.000000 0.000000 1.866310 
# 
# From -- ./inp_files/4147.got.cif
#   From: 2010.05.17/outbox.cif.g08.bks.cpg/sg39_3_cif.got.tgz:4147.got - 2010.06.03 18:22:40.
