data_PCOD9361378
_publ_section_title
;
Structure prediction by ZEFSAII (Michael W. Deem and Ramdas Pophale) SiO2 
 PCOD9361378
Probable space group: A B M 2
;
_chemical_formula_sum "Si O2"
_cell_formula_units_Z 64
_cell_length_a 8.975468
_cell_length_b 16.468754
_cell_length_c 20.968912
_cell_angle_alpha 90.000000
_cell_angle_beta 90.000000
_cell_angle_gamma 90.000000
_cell_volume 3099.514999
_symmetry_space_group_name_H-M "A B M 2"
_symmetry_group_IT_number 39
_symmetry_cell_setting 'orthorhombic'
loop_
_space_group_symop_operation_xyz
x,y,z
-x,-y,z
-x,1/2+y,z
x,1/2-y,z
x,1/2+y,1/2+z
-x,1/2-y,1/2+z
-x,y,1/2+z
x,-y,1/2+z
loop_
_atom_site_type_symbol
_atom_site_label
_atom_site_fract_x
_atom_site_fract_y
_atom_site_fract_z
Si Si1 0.318814 0.407315 0.037760
Si Si2 0.893145 0.918551 0.161320
Si Si3 0.806442 0.842698 0.657996
Si Si4 0.649838 0.651108 0.786043
Si Si5 0.836077 0.346839 0.909866
Si Si6 0.172173 0.652936 0.410158
Si Si7 0.302598 0.349158 0.273920
Si Si8 0.655706 0.903658 0.532197
O O1 0.213606 0.409601 0.099833
O O2 0.487048 0.374322 0.045620
O O3 0.340844 0.500908 0.019450
O O4 0.243471 0.363408 0.978485
O O5 0.788964 0.900642 0.222086
O O6 0.016675 0.848319 0.159661
O O7 0.000000 0.000000 0.162264
O O8 0.756094 0.750000 0.652045
O O9 0.742480 0.876225 0.724333
O O10 0.747208 0.888540 0.596464
O O11 0.655548 0.750000 0.788062
O O12 0.726119 0.621558 0.851581
O O13 0.477718 0.630351 0.775189
O O14 0.849991 0.250000 0.908438
O O15 0.758965 0.369769 0.843838
O O16 0.004008 0.380979 0.911268
O O17 0.736824 0.365659 0.971411
O O18 0.163330 0.750000 0.401135
O O19 0.287131 0.250000 0.263399
#
# Coordination Sequence:
#
# PCOD9361378 Si02
#       8
#     8   8   8   8   8   8   8   8
#     4  11  25  41  60  85 127 166 209 258 317 373
#     4  12  24  42  61  90 127 168 209 265 317 380
#     4  11  22  39  66  92 121 162 208 258 311 373
#     4   9  19  38  64  96 126 157 205 262 314 371
#     4  10  21  39  65  94 125 159 206 259 311 373
#     4  10  21  38  64  95 125 163 207 257 312 374
#     4  10  21  40  65  92 125 164 208 261 318 379
#     4  11  23  42  60  89 124 167 209 259 313 375
#
# _framework density 20.648392999999999
#
# number of rings (size 3 to 8) (size 9 to 14) (size 15 to 20)
#    0.000    1.500    1.250    3.750    0.000    6.000 
#    4.500    0.000    0.000    0.000    0.000    0.000 
#    0.000    0.000    0.000    0.000    0.000    0.000 
#
# Total GULP energy -178650.136629 kJ/mol
# GULP energy per Si atom -5582.816770 kJ/mol
# Density = 2.060140 g / cm^3
# Si number density = 20.648393 Si / 1000 Ang^3
#
#
#
# Elastic Constant Matrix: (Units=GPa)
#
#
# Indices 1 2 3 4 5 6 
#
# 1 188.0666 15.6694 99.3418 0.0000 0.0000 0.0000
# 2 15.6694 19.8125 16.2041 0.0000 0.0000 0.0000
# 3 99.3418 16.2041 169.6510 0.0000 0.0000 0.0000
# 4 0.0000 0.0000 0.0000 837.7436 0.0000 0.0000
# 5 0.0000 0.0000 0.0000 0.0000 44.3577 0.0000
# 6 0.0000 0.0000 0.0000 0.0000 0.0000 9.7159
#
#
#
# Elastic Compliance Matrix: (Units=1/GPa)
#
#
# Indices 1 2 3 4 5 6 
#
# 1 0.007824 -0.002648 -0.004329 0.000000 0.000000 0.000000
# 2 -0.002648 0.055646 -0.003765 0.000000 0.000000 0.000000
# 3 -0.004329 -0.003765 0.008789 0.000000 0.000000 0.000000
# 4 0.000000 0.000000 0.000000 0.001194 0.000000 0.000000
# 5 0.000000 0.000000 0.000000 0.000000 0.022544 0.000000
# 6 0.000000 0.000000 0.000000 0.000000 0.000000 0.102924
#
#
# Mechanical properties :
#
#
# Convention : Reuss Voigt Hill
#
# Bulk Modulus (GPa) = 19.69389 71.10675 45.40032
# Shear Modulus (GPa) = 21.06779 194.78443 107.92611
#
# Velocity S-wave (km/s) = 3.19770 9.72310 7.23754
# Velocity P-wave (km/s) = 4.81582 12.67136 9.58529
#
# Compressibility (1/GPa) = 0.05077717
#
# Stress axis : x y z
#
# Youngs Moduli (GPa) = 127.80389 17.97065 113.78054
#
# Poissons Ratio (x) = 0.04758 0.49254
# Poissons Ratio (y) = 0.33840 0.42833
# Poissons Ratio (z) = 0.55324 0.06765
#
# Static dielectric constant tensor:
#      x y z
#    x 1.764380 0.000000 0.000000 
#    y 0.000000 1.634130 0.000000 
#    z 0.000000 0.000000 1.714640 
# 
# From -- ./inp_files/11956.got.cif
#   From: 2010.05.17/outbox.cif.g08.bks.cpg/sg39_6_cif.got.tgz:11956.got - 2010.06.03 18:22:40.
