data_PCOD9361726
_publ_section_title
;
Structure prediction by ZEFSAII (Michael W. Deem and Ramdas Pophale) SiO2 
 PCOD9361726
Probable space group: A B M 2
;
_chemical_formula_sum "Si O2"
_cell_formula_units_Z 36
_cell_length_a 22.287845
_cell_length_b 14.075783
_cell_length_c 5.229811
_cell_angle_alpha 90.000000
_cell_angle_beta 90.000000
_cell_angle_gamma 90.000000
_cell_volume 1640.690396
_symmetry_space_group_name_H-M "A B M 2"
_symmetry_group_IT_number 39
_symmetry_cell_setting 'orthorhombic'
loop_
_space_group_symop_operation_xyz
x,y,z
-x,-y,z
-x,1/2+y,z
x,1/2-y,z
x,1/2+y,1/2+z
-x,1/2-y,1/2+z
-x,y,1/2+z
x,-y,1/2+z
loop_
_atom_site_type_symbol
_atom_site_label
_atom_site_fract_x
_atom_site_fract_y
_atom_site_fract_z
Si Si1 0.747191 0.441991 0.661300
Si Si2 0.566823 0.958770 0.514609
Si Si3 0.108905 0.558395 0.639638
Si Si4 0.324665 0.250000 0.140878
Si Si5 0.038058 0.750000 0.754699
Si Si6 0.402191 0.750000 0.142221
O O1 0.732337 0.518488 0.442099
O O2 0.819165 0.427804 0.649661
O O3 0.714504 0.343851 0.603946
O O4 0.563798 0.848639 0.587963
O O5 0.500000 0.000000 0.478206
O O6 0.596640 0.981420 0.242852
O O7 0.092964 0.516733 0.362250
O O8 0.076504 0.656320 0.699209
O O9 0.349992 0.250000 0.429117
O O10 0.377395 0.250000 0.929689
O O11 0.984778 0.750000 0.545795
#
# Coordination Sequence:
#
# PCOD9361726 Si02
#       6
#     8   8   8   4   4   4
#     4  10  22  41  65  90 121 163 204 246 303 370
#     4  10  23  42  65  88 118 159 201 246 289 347
#     4  10  22  41  63  87 119 162 210 253 300 367
#     4  12  25  40  63  94 130 157 192 253 310 366
#     4  12  25  38  59  90 124 163 206 259 314 358
#     4  12  26  40  62  96 124 158 200 246 306 356
#
# _framework density 21.941981999999999
#
# number of rings (size 3 to 8) (size 9 to 14) (size 15 to 20)
#    0.000    1.333    0.000    4.667    0.000   11.556 
#    0.000    8.889    0.000    0.000    0.000    0.000 
#    0.000    0.000    0.000    0.000    0.000    0.000 
#
# Total GULP energy -100781.188508 kJ/mol
# GULP energy per Si atom -5598.954917 kJ/mol
# Density = 2.189204 g / cm^3
# Si number density = 21.941982 Si / 1000 Ang^3
#
#
#
# Elastic Constant Matrix: (Units=GPa)
#
#
# Indices 1 2 3 4 5 6 
#
# 1 25.9799 18.6002 -6.3923 0.0000 0.0000 0.0000
# 2 18.6002 131.3986 -12.9596 0.0000 0.0000 0.0000
# 3 -6.3923 -12.9596 98.0621 0.0000 0.0000 0.0000
# 4 0.0000 0.0000 0.0000 31.5085 0.0000 0.0000
# 5 0.0000 0.0000 0.0000 0.0000 17.4874 0.0000
# 6 0.0000 0.0000 0.0000 0.0000 0.0000 35.0204
#
#
#
# Elastic Compliance Matrix: (Units=1/GPa)
#
#
# Indices 1 2 3 4 5 6 
#
# 1 0.043230 -0.005919 0.002036 0.000000 0.000000 0.000000
# 2 -0.005919 0.008521 0.000740 0.000000 0.000000 0.000000
# 3 0.002036 0.000740 0.010428 0.000000 0.000000 0.000000
# 4 0.000000 0.000000 0.000000 0.031737 0.000000 0.000000
# 5 0.000000 0.000000 0.000000 0.000000 0.057184 0.000000
# 6 0.000000 0.000000 0.000000 0.000000 0.000000 0.028555
#
#
# Mechanical properties :
#
#
# Convention : Reuss Voigt Hill
#
# Bulk Modulus (GPa) = 17.89096 28.21524 23.05310
# Shear Modulus (GPa) = 24.44131 33.88274 29.16202
#
# Velocity S-wave (km/s) = 3.34114 3.93389 3.64957
# Velocity P-wave (km/s) = 4.80164 5.78973 5.31868
#
# Compressibility (1/GPa) = 0.05589414
#
# Stress axis : x y z
#
# Youngs Moduli (GPa) = 23.13225 117.35351 95.89409
#
# Poissons Ratio (x) = 0.69457 -0.19522
# Poissons Ratio (y) = 0.13691 -0.07099
# Poissons Ratio (z) = -0.04709 -0.08688
#
# Static dielectric constant tensor:
#      x y z
#    x 1.922430 0.000000 0.000000 
#    y 0.000000 1.746900 0.000000 
#    z 0.000000 0.000000 1.841250 
# 
# From -- ./inp_files/1194.got.cif
#   From: 2010.05.17/outbox.cif.g08.bks.cpg/sg39_1_cif.got.tgz:1194.got - 2010.06.03 18:22:40.
