data_PCOD9361461
_publ_section_title
;
Structure prediction by ZEFSAII (Michael W. Deem and Ramdas Pophale) SiO2 
 PCOD9361461
Probable space group: A B M 2
;
_chemical_formula_sum "Si O2"
_cell_formula_units_Z 48
_cell_length_a 9.610733
_cell_length_b 16.443040
_cell_length_c 14.248969
_cell_angle_alpha 90.000000
_cell_angle_beta 90.000000
_cell_angle_gamma 90.000000
_cell_volume 2251.759828
_symmetry_space_group_name_H-M "A B M 2"
_symmetry_group_IT_number 39
_symmetry_cell_setting 'orthorhombic'
loop_
_space_group_symop_operation_xyz
x,y,z
-x,-y,z
-x,1/2+y,z
x,1/2-y,z
x,1/2+y,1/2+z
-x,1/2-y,1/2+z
-x,y,1/2+z
x,-y,1/2+z
loop_
_atom_site_type_symbol
_atom_site_label
_atom_site_fract_x
_atom_site_fract_y
_atom_site_fract_z
Si Si1 0.684771 0.912970 0.645990
Si Si2 0.924589 0.656027 0.756650
Si Si3 0.180114 0.089767 0.151221
Si Si4 0.787730 0.847969 0.953958
Si Si5 0.460195 0.346992 0.464069
Si Si6 0.564269 0.656938 0.253415
O O1 0.802865 0.850683 0.679591
O O2 0.621396 0.894020 0.544422
O O3 0.556414 0.901342 0.716850
O O4 0.754991 0.000510 0.652116
O O5 0.969908 0.750000 0.765462
O O6 0.858536 0.628711 0.855701
O O7 0.051852 0.602383 0.720511
O O8 0.304009 0.148296 0.186338
O O9 0.141154 0.113876 0.045276
O O10 0.794729 0.750000 0.959475
O O11 0.623621 0.869942 0.958187
O O12 0.453868 0.250000 0.484649
O O13 0.398289 0.361179 0.360787
O O14 0.510844 0.750000 0.251041
#
# Coordination Sequence:
#
# PCOD9361461 Si02
#       6
#     8   8   8   8   8   8
#     4  12  24  42  66 102 141 177 229 285 355 412
#     4  11  24  45  71  97 135 189 235 282 342 420
#     4  12  26  42  65 104 144 178 224 291 360 416
#     4  10  21  41  69  97 130 182 236 281 338 408
#     4  10  21  39  69 101 131 177 236 287 332 406
#     4  11  22  41  68 100 135 182 236 284 337 412
#
# _framework density 21.316659000000001
#
# number of rings (size 3 to 8) (size 9 to 14) (size 15 to 20)
#    0.000    1.000    3.333    4.000    0.000    2.667 
#    3.000    3.333    0.000    0.000    0.000    0.000 
#    0.000    0.000    0.000    0.000    0.000    0.000 
#
# Total GULP energy -134288.793878 kJ/mol
# GULP energy per Si atom -5595.366412 kJ/mol
# Density = 2.126814 g / cm^3
# Si number density = 21.316659 Si / 1000 Ang^3
#
#
#
# Elastic Constant Matrix: (Units=GPa)
#
#
# Indices 1 2 3 4 5 6 
#
# 1 112.3371 45.7439 65.1689 0.0000 0.0000 0.0000
# 2 45.7439 74.9218 66.9209 0.0000 0.0000 0.0000
# 3 65.1689 66.9209 168.8910 0.0000 0.0000 0.0000
# 4 0.0000 0.0000 0.0000 -60.3438 0.0000 0.0000
# 5 0.0000 0.0000 0.0000 0.0000 39.8823 0.0000
# 6 0.0000 0.0000 0.0000 0.0000 0.0000 26.2502
#
#
#
# Elastic Compliance Matrix: (Units=1/GPa)
#
#
# Indices 1 2 3 4 5 6 
#
# 1 0.012660 -0.005210 -0.002820 0.000000 0.000000 0.000000
# 2 -0.005210 0.022803 -0.007025 0.000000 0.000000 0.000000
# 3 -0.002820 -0.007025 0.009793 0.000000 0.000000 0.000000
# 4 0.000000 0.000000 0.000000 -0.016572 0.000000 0.000000
# 5 0.000000 0.000000 0.000000 0.000000 0.025074 0.000000
# 6 0.000000 0.000000 0.000000 0.000000 0.000000 0.038095
#
#
# Mechanical properties :
#
#
# Convention : Reuss Voigt Hill
#
# Bulk Modulus (GPa) = 66.03116 79.09083 72.56100
# Shear Modulus (GPa) = 39.36637 13.04549 26.20593
#
# Velocity S-wave (km/s) = 4.30204 2.47652 3.51003
# Velocity P-wave (km/s) = 7.46460 6.73505 7.10919
#
# Compressibility (1/GPa) = 0.01514436
#
# Stress axis : x y z
#
# Youngs Moduli (GPa) = 78.99190 43.85351 102.11519
#
# Poissons Ratio (x) = 0.22848 0.28801
# Poissons Ratio (y) = 0.41156 0.71737
# Poissons Ratio (z) = 0.22279 0.30807
#
# Static dielectric constant tensor:
#      x y z
#    x 1.762030 0.000000 0.000000 
#    y 0.000000 1.785990 0.000000 
#    z 0.000000 0.000000 1.768550 
# 
# From -- ./inp_files/8353.got.cif
#   From: 2010.05.17/outbox.cif.g08.bks.cpg/sg39_5_cif.got.tgz:8353.got - 2010.06.03 18:22:40.
