data_PCOD9361971
_publ_section_title
;
Structure prediction by ZEFSAII (Michael W. Deem and Ramdas Pophale) SiO2 
 PCOD9361971
Probable space group: A B M 2
;
_chemical_formula_sum "Si O2"
_cell_formula_units_Z 52
_cell_length_a 10.127773
_cell_length_b 22.752847
_cell_length_c 8.742117
_cell_angle_alpha 90.000000
_cell_angle_beta 90.000000
_cell_angle_gamma 90.000000
_cell_volume 2014.495584
_symmetry_space_group_name_H-M "A B M 2"
_symmetry_group_IT_number 39
_symmetry_cell_setting 'orthorhombic'
loop_
_space_group_symop_operation_xyz
x,y,z
-x,-y,z
-x,1/2+y,z
x,1/2-y,z
x,1/2+y,1/2+z
-x,1/2-y,1/2+z
-x,y,1/2+z
x,-y,1/2+z
loop_
_atom_site_type_symbol
_atom_site_label
_atom_site_fract_x
_atom_site_fract_y
_atom_site_fract_z
Si Si1 0.756422 0.945468 0.364350
Si Si2 0.557365 0.165014 0.342022
Si Si3 0.957668 0.185450 0.126996
Si Si4 0.971899 0.103655 0.386349
Si Si5 0.232976 0.140454 0.099586
Si Si6 0.616603 0.044688 0.183791
Si Si7 0.405823 0.250000 0.552168
O O1 0.143329 0.907304 0.506205
O O2 0.717178 0.893887 0.245559
O O3 0.710807 0.006135 0.290835
O O4 0.692099 0.937138 0.529825
O O5 0.662228 0.167411 0.484095
O O6 0.560638 0.097772 0.285689
O O7 0.434199 0.198593 0.419431
O O8 0.600142 0.199799 0.189885
O O9 0.899690 0.250000 0.147583
O O10 0.909742 0.133817 0.237830
O O11 0.117437 0.186133 0.141674
O O12 0.945642 0.159510 0.958283
O O13 0.084224 0.056597 0.367263
O O14 0.500000 0.000000 0.136824
#
# Coordination Sequence:
#
# PCOD9361971 Si02
#       7
#     8   8   8   8   8   8   4
#     4  11  25  48  73 116 153 216 264 339 417 472
#     4  11  26  51  79 115 158 208 268 336 416 470
#     4   9  18  35  68 103 151 206 263 312 387 485
#     4   9  21  41  69 105 160 201 257 336 394 502
#     4   9  23  43  74 109 165 203 266 334 410 493
#     4  12  29  48  82 113 157 216 277 346 406 492
#     4  10  28  48  80 110 156 216 266 340 390 492
#
# _framework density 25.812913000000002
#
# number of rings (size 3 to 8) (size 9 to 14) (size 15 to 20)
#    0.923    0.923    0.000    1.846   10.769    1.231 
#    0.000    6.154   13.538    0.000    0.000    0.000 
#    0.000    0.000    0.000    0.000    0.000    0.000 
#
# Total GULP energy -144796.835943 kJ/mol
# GULP energy per Si atom -5569.109075 kJ/mol
# Density = 2.575416 g / cm^3
# Si number density = 25.812913 Si / 1000 Ang^3
#
#
#
# Elastic Constant Matrix: (Units=GPa)
#
#
# Indices 1 2 3 4 5 6 
#
# 1 58.9749 31.6517 27.7757 0.0000 0.0000 0.0000
# 2 31.6517 138.2124 55.5117 0.0000 0.0000 0.0000
# 3 27.7757 55.5117 161.0678 0.0000 0.0000 0.0000
# 4 0.0000 0.0000 0.0000 53.5559 0.0000 0.0000
# 5 0.0000 0.0000 0.0000 0.0000 41.9453 0.0000
# 6 0.0000 0.0000 0.0000 0.0000 0.0000 -2.2590
#
#
#
# Elastic Compliance Matrix: (Units=1/GPa)
#
#
# Indices 1 2 3 4 5 6 
#
# 1 0.019964 -0.003701 -0.002167 0.000000 0.000000 0.000000
# 2 -0.003701 0.009084 -0.002492 0.000000 0.000000 0.000000
# 3 -0.002167 -0.002492 0.007441 0.000000 0.000000 0.000000
# 4 0.000000 0.000000 0.000000 0.018672 0.000000 0.000000
# 5 0.000000 0.000000 0.000000 0.000000 0.023841 0.000000
# 6 0.000000 0.000000 0.000000 0.000000 0.000000 -0.442669
#
#
# Mechanical properties :
#
#
# Convention : Reuss Voigt Hill
#
# Bulk Modulus (GPa) = 50.58933 65.34814 57.96874
# Shear Modulus (GPa) = -14.69047 34.86951 10.08952
#
# Velocity S-wave (km/s) = -2.38820 3.67939 1.97919
# Velocity P-wave (km/s) = 3.46935 6.58950 5.26583
#
# Compressibility (1/GPa) = 0.01976701
#
# Stress axis : x y z
#
# Youngs Moduli (GPa) = 50.09137 110.08388 134.38555
#
# Poissons Ratio (x) = 0.40747 0.29121
# Poissons Ratio (y) = 0.18541 0.33495
# Poissons Ratio (z) = 0.10855 0.27438
#
# Static dielectric constant tensor:
#      x y z
#    x 2.167380 0.000000 0.000000 
#    y 0.000000 2.049030 0.000000 
#    z 0.000000 0.000000 1.997000 
# 
# From -- ./inp_files/2857.got.cif
#   From: 2010.05.17/outbox.cif.g08.bks.cpg/sg39_2_cif.got.tgz:2857.got - 2010.06.03 18:22:40.
