data_PCOD9361037
_publ_section_title
;
Structure prediction by ZEFSAII (Michael W. Deem and Ramdas Pophale) SiO2 
 PCOD9361037
Probable space group: A B M 2
;
_chemical_formula_sum "Si O2"
_cell_formula_units_Z 64
_cell_length_a 19.355835
_cell_length_b 8.880303
_cell_length_c 19.950345
_cell_angle_alpha 90.000000
_cell_angle_beta 90.000000
_cell_angle_gamma 90.000000
_cell_volume 3429.178609
_symmetry_space_group_name_H-M "A B M 2"
_symmetry_group_IT_number 39
_symmetry_cell_setting 'orthorhombic'
loop_
_space_group_symop_operation_xyz
x,y,z
-x,-y,z
-x,1/2+y,z
x,1/2-y,z
x,1/2+y,1/2+z
-x,1/2-y,1/2+z
-x,y,1/2+z
x,-y,1/2+z
loop_
_atom_site_type_symbol
_atom_site_label
_atom_site_fract_x
_atom_site_fract_y
_atom_site_fract_z
Si Si1 0.154201 0.074386 0.601430
Si Si2 0.425193 0.431609 0.328743
Si Si3 0.299602 0.066790 0.423836
Si Si4 0.928101 0.927266 0.986620
Si Si5 0.923948 0.927956 0.741159
Si Si6 0.425387 0.429886 0.173829
Si Si7 0.150873 0.569138 0.865095
Si Si8 0.689274 0.570657 0.579346
O O1 0.147064 0.250000 0.579194
O O2 0.108963 0.053089 0.667623
O O3 0.235316 0.047871 0.611888
O O4 0.127328 0.967346 0.543195
O O5 0.500000 0.500000 0.345255
O O6 0.429839 0.250000 0.332269
O O7 0.364736 0.481515 0.378965
O O8 0.408588 0.471902 0.251312
O O9 0.298720 0.250000 0.424113
O O10 0.227040 0.020335 0.390283
O O11 0.306332 0.020313 0.501501
O O12 0.935227 0.750000 0.977027
O O13 0.903537 0.006852 0.918867
O O14 0.000000 0.000000 0.008843
O O15 0.929252 0.750000 0.755196
O O16 0.872507 0.003945 0.794175
O O17 0.000000 0.000000 0.745002
O O18 0.500000 0.500000 0.158334
O O19 0.429651 0.250000 0.170558
O O20 0.368654 0.489134 0.122422
O O21 0.149076 0.750000 0.863766
O O22 0.675137 0.750000 0.579273
#
# Coordination Sequence:
#
# PCOD9361037 Si02
#       8
#     8   8   8   8   8   8   8   8
#     4  10  22  41  62  87 122 159 198 244 301 361
#     4   9  19  37  59  86 116 152 193 237 283 339
#     4   9  19  37  61  85 116 154 192 235 290 350
#     4  12  24  39  62  88 118 154 200 249 296 356
#     4  11  24  41  60  87 119 154 199 250 300 358
#     4  10  21  37  59  87 120 154 197 241 286 344
#     4  11  22  40  63  86 118 158 198 244 301 359
#     4  10  20  38  61  86 120 157 191 236 295 352
#
# _framework density 18.663361999999999
#
# number of rings (size 3 to 8) (size 9 to 14) (size 15 to 20)
#    0.000    1.750    1.250    3.000    1.750    3.500 
#    0.000    3.125    0.000    0.000    0.000    0.000 
#    0.000    0.000    0.000    0.000    0.000    0.000 
#
# Total GULP energy -178757.545833 kJ/mol
# GULP energy per Si atom -5586.173307 kJ/mol
# Density = 1.862088 g / cm^3
# Si number density = 18.663362 Si / 1000 Ang^3
#
#
#
# Elastic Constant Matrix: (Units=GPa)
#
#
# Indices 1 2 3 4 5 6 
#
# 1 104.4100 28.3905 37.1997 0.0000 0.0000 0.0000
# 2 28.3905 54.6561 30.2671 0.0000 0.0000 0.0000
# 3 37.1997 30.2671 58.9066 0.0000 0.0000 0.0000
# 4 0.0000 0.0000 0.0000 16.9639 0.0000 0.0000
# 5 0.0000 0.0000 0.0000 0.0000 45.5687 0.0000
# 6 0.0000 0.0000 0.0000 0.0000 0.0000 29.4220
#
#
#
# Elastic Compliance Matrix: (Units=1/GPa)
#
#
# Indices 1 2 3 4 5 6 
#
# 1 0.012704 -0.003014 -0.006474 0.000000 0.000000 0.000000
# 2 -0.003014 0.026287 -0.011604 0.000000 0.000000 0.000000
# 3 -0.006474 -0.011604 0.027027 0.000000 0.000000 0.000000
# 4 0.000000 0.000000 0.000000 0.058949 0.000000 0.000000
# 5 0.000000 0.000000 0.000000 0.000000 0.021945 0.000000
# 6 0.000000 0.000000 0.000000 0.000000 0.000000 0.033988
#
#
# Mechanical properties :
#
#
# Convention : Reuss Voigt Hill
#
# Bulk Modulus (GPa) = 41.95523 45.52080 43.73801
# Shear Modulus (GPa) = 21.64248 26.53196 24.08722
#
# Velocity S-wave (km/s) = 3.40902 3.77451 3.59641
# Velocity P-wave (km/s) = 6.16636 6.59085 6.38214
#
# Compressibility (1/GPa) = 0.02383493
#
# Stress axis : x y z
#
# Youngs Moduli (GPa) = 78.71763 38.04093 37.00070
#
# Poissons Ratio (x) = 0.11464 0.23954
# Poissons Ratio (y) = 0.23723 0.42935
# Poissons Ratio (z) = 0.50961 0.44142
#
# Static dielectric constant tensor:
#      x y z
#    x 1.611740 0.000000 0.000000 
#    y 0.000000 1.627290 0.000000 
#    z 0.000000 0.000000 1.634930 
# 
# From -- ./inp_files/13172.got.cif
#   From: 2010.05.17/outbox.cif.g08.bks.cpg/sg39_7_cif.got.tgz:13172.got - 2010.06.03 18:22:40.
