data_PCOD9361995
_publ_section_title
;
Structure prediction by ZEFSAII (Michael W. Deem and Ramdas Pophale) SiO2 
 PCOD9361995
Probable space group: A B M 2
;
_chemical_formula_sum "Si O2"
_cell_formula_units_Z 56
_cell_length_a 13.811193
_cell_length_b 17.622356
_cell_length_c 10.389463
_cell_angle_alpha 90.000000
_cell_angle_beta 90.000000
_cell_angle_gamma 90.000000
_cell_volume 2528.647346
_symmetry_space_group_name_H-M "A B M 2"
_symmetry_group_IT_number 39
_symmetry_cell_setting 'orthorhombic'
loop_
_space_group_symop_operation_xyz
x,y,z
-x,-y,z
-x,1/2+y,z
x,1/2-y,z
x,1/2+y,1/2+z
-x,1/2-y,1/2+z
-x,y,1/2+z
x,-y,1/2+z
loop_
_atom_site_type_symbol
_atom_site_label
_atom_site_fract_x
_atom_site_fract_y
_atom_site_fract_z
Si Si1 0.311521 0.120774 0.133530
Si Si2 0.586278 0.338262 0.390086
Si Si3 0.950121 0.079696 0.054595
Si Si4 0.257696 0.035547 0.546597
Si Si5 0.212277 0.895842 0.392117
Si Si6 0.629558 0.162053 0.902559
Si Si7 0.004695 0.339322 0.803295
O O1 0.308579 0.155945 0.272123
O O2 0.218716 0.985551 0.423267
O O3 0.400292 0.149234 0.044592
O O4 0.310300 0.028987 0.130855
O O5 0.591720 0.250000 0.359174
O O6 0.682757 0.376105 0.331156
O O7 0.478305 0.364607 0.360656
O O8 0.841760 0.065017 0.105857
O O9 0.945356 0.128567 0.924559
O O10 0.011128 0.119060 0.167684
O O11 0.000000 0.000000 0.022834
O O12 0.325237 0.103754 0.503061
O O13 0.223653 0.860095 0.536884
O O14 0.116058 0.860531 0.337763
O O15 0.624698 0.250000 0.945679
O O16 0.992384 0.250000 0.790462
#
# Coordination Sequence:
#
# PCOD9361995 Si02
#       7
#     8   8   8   8   8   8   8
#     4   8  20  36  61  86 121 171 220 254 311 392
#     4   8  17  36  57  91 131 167 210 256 318 375
#     4  12  25  46  71  96 134 177 218 272 342 412
#     4   9  23  40  62  96 125 165 214 272 321 388
#     4   8  20  39  65  90 127 171 217 263 315 398
#     4  11  21  37  65  95 129 170 217 268 317 377
#     4  12  26  44  70 103 133 169 222 282 336 396
#
# _framework density 22.146225999999999
#
# number of rings (size 3 to 8) (size 9 to 14) (size 15 to 20)
#    1.714    0.286    1.429    1.714    2.000    4.571 
#    2.571    2.857    0.000    0.000    0.000    0.000 
#    0.000    0.000    0.000    0.000    0.000    0.000 
#
# Total GULP energy -155990.122621 kJ/mol
# GULP energy per Si atom -5571.075808 kJ/mol
# Density = 2.209582 g / cm^3
# Si number density = 22.146226 Si / 1000 Ang^3
#
#
#
# Elastic Constant Matrix: (Units=GPa)
#
#
# Indices 1 2 3 4 5 6 
#
# 1 59.2453 4.3956 -23.6249 0.0000 0.0000 0.0000
# 2 4.3956 82.7565 -1.0947 0.0000 0.0000 0.0000
# 3 -23.6249 -1.0947 36.8012 0.0000 0.0000 0.0000
# 4 0.0000 0.0000 0.0000 23.1660 0.0000 0.0000
# 5 0.0000 0.0000 0.0000 0.0000 10.1104 0.0000
# 6 0.0000 0.0000 0.0000 0.0000 0.0000 15.8717
#
#
#
# Elastic Compliance Matrix: (Units=1/GPa)
#
#
# Indices 1 2 3 4 5 6 
#
# 1 0.022772 -0.001017 0.014588 0.000000 0.000000 0.000000
# 2 -0.001017 0.012134 -0.000292 0.000000 0.000000 0.000000
# 3 0.014588 -0.000292 0.036529 0.000000 0.000000 0.000000
# 4 0.000000 0.000000 0.000000 0.043167 0.000000 0.000000
# 5 0.000000 0.000000 0.000000 0.000000 0.098908 0.000000
# 6 0.000000 0.000000 0.000000 0.000000 0.000000 0.063005
#
#
# Mechanical properties :
#
#
# Convention : Reuss Voigt Hill
#
# Bulk Modulus (GPa) = 10.20459 15.35055 12.77757
# Shear Modulus (GPa) = 17.69162 23.10476 20.39819
#
# Velocity S-wave (km/s) = 2.82947 3.23349 3.03820
# Velocity P-wave (km/s) = 3.91054 4.57024 4.25320
#
# Compressibility (1/GPa) = 0.09799513
#
# Stress axis : x y z
#
# Youngs Moduli (GPa) = 43.91417 82.41454 27.37519
#
# Poissons Ratio (x) = 0.08378 -0.39936
# Poissons Ratio (y) = 0.04464 0.00798
# Poissons Ratio (z) = -0.64063 0.02404
#
# Static dielectric constant tensor:
#      x y z
#    x 2.032980 0.000000 0.000000 
#    y 0.000000 1.792540 0.000000 
#    z 0.000000 0.000000 1.901790 
# 
# From -- ./inp_files/6494.got.cif
#   From: 2010.05.17/outbox.cif.g08.bks.cpg/sg39_4_cif.got.tgz:6494.got - 2010.06.03 18:22:40.
