data_PCOD9361397
_publ_section_title
;
Structure prediction by ZEFSAII (Michael W. Deem and Ramdas Pophale) SiO2 
 PCOD9361397
Probable space group: A B M 2
;
_chemical_formula_sum "Si O2"
_cell_formula_units_Z 56
_cell_length_a 14.153287
_cell_length_b 22.184664
_cell_length_c 8.952577
_cell_angle_alpha 90.000000
_cell_angle_beta 90.000000
_cell_angle_gamma 90.000000
_cell_volume 2810.983095
_symmetry_space_group_name_H-M "A B M 2"
_symmetry_group_IT_number 39
_symmetry_cell_setting 'orthorhombic'
loop_
_space_group_symop_operation_xyz
x,y,z
-x,-y,z
-x,1/2+y,z
x,1/2-y,z
x,1/2+y,1/2+z
-x,1/2-y,1/2+z
-x,y,1/2+z
x,-y,1/2+z
loop_
_atom_site_type_symbol
_atom_site_label
_atom_site_fract_x
_atom_site_fract_y
_atom_site_fract_z
Si Si1 0.886580 0.546737 0.583290
Si Si2 0.066345 0.578308 0.741040
Si Si3 0.323373 0.919681 0.531629
Si Si4 0.783890 0.820463 0.179498
Si Si5 0.601310 0.819549 0.371599
Si Si6 0.305006 0.469621 0.716574
Si Si7 0.478953 0.890987 0.128649
O O1 0.899889 0.476725 0.633421
O O2 0.916046 0.558386 0.412344
O O3 0.777721 0.560361 0.618653
O O4 0.956700 0.582967 0.694211
O O5 0.124556 0.638940 0.710233
O O6 0.273498 0.855330 0.548554
O O7 0.286595 0.955571 0.388863
O O8 0.436039 0.914169 0.524092
O O9 0.304562 0.959827 0.678400
O O10 0.802211 0.750000 0.149899
O O11 0.709294 0.824386 0.316443
O O12 0.573616 0.750000 0.358018
O O13 0.535766 0.858563 0.261019
O O14 0.582587 0.843374 0.536364
O O15 0.407062 0.442918 0.676155
#
# Coordination Sequence:
#
# PCOD9361397 Si02
#       7
#     8   8   8   8   8   8   8
#     4  11  23  37  68  97 130 162 207 269 326 395
#     4  11  22  41  65  99 126 166 212 262 331 380
#     4  11  25  39  64  94 129 170 211 263 331 385
#     4  10  23  43  67  89 126 171 218 267 323 388
#     4  10  21  39  60  86 122 176 220 253 310 384
#     4  12  24  39  62  97 130 162 211 266 331 386
#     4  11  22  38  58  92 130 165 210 268 312 380
#
# _framework density 19.921855000000001
#
# number of rings (size 3 to 8) (size 9 to 14) (size 15 to 20)
#    0.000    1.143    2.857    4.286    6.000    1.714 
#    0.000    0.714    0.000    2.571    0.000    0.000 
#    0.000    0.000    0.000    0.000    0.000    0.000 
#
# Total GULP energy -156352.640835 kJ/mol
# GULP energy per Si atom -5584.022887 kJ/mol
# Density = 1.987651 g / cm^3
# Si number density = 19.921855 Si / 1000 Ang^3
#
#
#
# Elastic Constant Matrix: (Units=GPa)
#
#
# Indices 1 2 3 4 5 6 
#
# 1 94.5622 54.1111 12.2365 0.0000 0.0000 0.0000
# 2 54.1111 130.1928 42.7661 0.0000 0.0000 0.0000
# 3 12.2365 42.7661 83.3001 0.0000 0.0000 0.0000
# 4 0.0000 0.0000 0.0000 22.1109 0.0000 0.0000
# 5 0.0000 0.0000 0.0000 0.0000 3.4295 0.0000
# 6 0.0000 0.0000 0.0000 0.0000 0.0000 35.6088
#
#
#
# Elastic Compliance Matrix: (Units=1/GPa)
#
#
# Indices 1 2 3 4 5 6 
#
# 1 0.013961 -0.006169 0.001116 0.000000 0.000000 0.000000
# 2 -0.006169 0.011965 -0.005237 0.000000 0.000000 0.000000
# 3 0.001116 -0.005237 0.014529 0.000000 0.000000 0.000000
# 4 0.000000 0.000000 0.000000 0.045227 0.000000 0.000000
# 5 0.000000 0.000000 0.000000 0.000000 0.291587 0.000000
# 6 0.000000 0.000000 0.000000 0.000000 0.000000 0.028083
#
#
# Mechanical properties :
#
#
# Convention : Reuss Voigt Hill
#
# Bulk Modulus (GPa) = 50.31086 58.47585 54.39335
# Shear Modulus (GPa) = 11.55920 25.49261 18.52590
#
# Velocity S-wave (km/s) = 2.41140 3.58107 3.05278
# Velocity P-wave (km/s) = 5.74996 6.82020 6.30782
#
# Compressibility (1/GPa) = 0.01987643
#
# Stress axis : x y z
#
# Youngs Moduli (GPa) = 71.62947 83.57652 68.82670
#
# Poissons Ratio (x) = 0.51559 -0.07684
# Poissons Ratio (y) = 0.44189 0.36042
# Poissons Ratio (z) = -0.07997 0.43766
#
# Static dielectric constant tensor:
#      x y z
#    x 1.776740 0.000000 0.000000 
#    y 0.000000 1.683640 0.000000 
#    z 0.000000 0.000000 1.731770 
# 
# From -- ./inp_files/3390.got.cif
#   From: 2010.05.17/outbox.cif.g08.bks.cpg/sg39_2_cif.got.tgz:3390.got - 2010.06.03 18:22:40.
