data_PCOD9361715
_publ_section_title
;
Structure prediction by ZEFSAII (Michael W. Deem and Ramdas Pophale) SiO2 
 PCOD9361715
Probable space group: A B M 2
;
_chemical_formula_sum "Si O2"
_cell_formula_units_Z 44
_cell_length_a 17.171455
_cell_length_b 14.871365
_cell_length_c 7.349587
_cell_angle_alpha 90.000000
_cell_angle_beta 90.000000
_cell_angle_gamma 90.000000
_cell_volume 1876.812401
_symmetry_space_group_name_H-M "A B M 2"
_symmetry_group_IT_number 39
_symmetry_cell_setting 'orthorhombic'
loop_
_space_group_symop_operation_xyz
x,y,z
-x,-y,z
-x,1/2+y,z
x,1/2-y,z
x,1/2+y,1/2+z
-x,1/2-y,1/2+z
-x,y,1/2+z
x,-y,1/2+z
loop_
_atom_site_type_symbol
_atom_site_label
_atom_site_fract_x
_atom_site_fract_y
_atom_site_fract_z
Si Si1 0.612068 0.250000 0.394390
Si Si2 0.311177 0.887912 0.894849
Si Si3 0.434788 0.250000 0.316019
Si Si4 0.186410 0.750000 0.051476
Si Si5 0.277811 0.404124 0.969225
Si Si6 0.101473 0.596073 0.494991
Si Si7 0.069955 0.387380 0.413208
O O1 0.527472 0.250000 0.307764
O O2 0.593009 0.250000 0.608615
O O3 0.664502 0.162171 0.363099
O O4 0.395430 0.838903 0.905092
O O5 0.251561 0.828387 0.008018
O O6 0.285417 0.882552 0.683209
O O7 0.302925 0.992542 0.944796
O O8 0.117621 0.826270 0.047270
O O9 0.187613 0.384707 0.919231
O O10 0.086891 0.489349 0.474726
O O11 0.100882 0.622934 0.707458
O O12 0.021827 0.634083 0.412363
#
# Coordination Sequence:
#
# PCOD9361715 Si02
#       7
#     4   8   4   4   8   8   8
#     4  10  24  41  70  92 129 161 201 251 318 370
#     4  10  22  40  69  88 126 161 208 253 316 363
#     4   9  22  44  64 100 127 159 198 253 311 391
#     4  11  20  39  58  90 114 170 201 260 301 367
#     4  11  21  41  67  92 121 170 206 259 304 373
#     4  11  21  39  59  91 123 168 211 258 301 365
#     4  11  23  36  64  83 130 163 216 256 312 346
#
# _framework density 23.444006000000002
#
# number of rings (size 3 to 8) (size 9 to 14) (size 15 to 20)
#    0.000    1.455    3.636    2.727    0.000    3.636 
#    0.000    4.545    0.000    1.091    0.000    0.000 
#    0.000    0.000    0.000    0.000    0.000    0.000 
#
# Total GULP energy -122595.741523 kJ/mol
# GULP energy per Si atom -5572.533706 kJ/mol
# Density = 2.339065 g / cm^3
# Si number density = 23.444006 Si / 1000 Ang^3
#
#
#
# Elastic Constant Matrix: (Units=GPa)
#
#
# Indices 1 2 3 4 5 6 
#
# 1 236.3997 93.2476 37.6350 0.0000 0.0000 0.0000
# 2 93.2476 122.8396 6.4371 0.0000 0.0000 0.0000
# 3 37.6350 6.4371 73.8326 0.0000 0.0000 0.0000
# 4 0.0000 0.0000 0.0000 -3.3407 0.0000 0.0000
# 5 0.0000 0.0000 0.0000 0.0000 34.8266 0.0000
# 6 0.0000 0.0000 0.0000 0.0000 0.0000 31.3785
#
#
#
# Elastic Compliance Matrix: (Units=1/GPa)
#
#
# Indices 1 2 3 4 5 6 
#
# 1 0.006622 -0.004872 -0.002950 0.000000 0.000000 0.000000
# 2 -0.004872 0.011762 0.001458 0.000000 0.000000 0.000000
# 3 -0.002950 0.001458 0.014921 0.000000 0.000000 0.000000
# 4 0.000000 0.000000 0.000000 -0.299341 0.000000 0.000000
# 5 0.000000 0.000000 0.000000 0.000000 0.028714 0.000000
# 6 0.000000 0.000000 0.000000 0.000000 0.000000 0.031869
#
#
# Mechanical properties :
#
#
# Convention : Reuss Voigt Hill
#
# Bulk Modulus (GPa) = 48.60007 78.63459 63.61733
# Shear Modulus (GPa) = -26.90111 32.28971 2.69430
#
# Velocity S-wave (km/s) = -3.39110 3.71524 1.07319
# Velocity P-wave (km/s) = 2.33293 7.21237 5.36008
#
# Compressibility (1/GPa) = 0.02057610
#
# Stress axis : x y z
#
# Youngs Moduli (GPa) = 151.02304 85.01616 67.01961
#
# Poissons Ratio (x) = 0.41418 0.19774
# Poissons Ratio (y) = 0.73575 -0.09770
# Poissons Ratio (z) = 0.44559 -0.12394
#
# Static dielectric constant tensor:
#      x y z
#    x 1.866520 0.000000 0.000000 
#    y 0.000000 1.818200 0.000000 
#    z 0.000000 0.000000 1.958820 
# 
# From -- ./inp_files/3697.got.cif
#   From: 2010.05.17/outbox.cif.g08.bks.cpg/sg39_2_cif.got.tgz:3697.got - 2010.06.03 18:22:40.
