data_PCOD9361825
_publ_section_title
;
Structure prediction by ZEFSAII (Michael W. Deem and Ramdas Pophale) SiO2 
 PCOD9361825
Probable space group: A B M 2
;
_chemical_formula_sum "Si O2"
_cell_formula_units_Z 40
_cell_length_a 4.763400
_cell_length_b 30.537645
_cell_length_c 11.709282
_cell_angle_alpha 90.000000
_cell_angle_beta 90.000000
_cell_angle_gamma 90.000000
_cell_volume 1703.267501
_symmetry_space_group_name_H-M "A B M 2"
_symmetry_group_IT_number 39
_symmetry_cell_setting 'orthorhombic'
loop_
_space_group_symop_operation_xyz
x,y,z
-x,-y,z
-x,1/2+y,z
x,1/2-y,z
x,1/2+y,1/2+z
-x,1/2-y,1/2+z
-x,y,1/2+z
x,-y,1/2+z
loop_
_atom_site_type_symbol
_atom_site_label
_atom_site_fract_x
_atom_site_fract_y
_atom_site_fract_z
Si Si1 0.250000 0.884704 0.271670
Si Si2 0.956585 0.950402 0.444616
Si Si3 0.178835 0.250000 0.444491
Si Si4 0.321165 0.250000 0.098850
Si Si5 0.750000 0.324696 0.771670
Si Si6 0.543415 0.549598 0.098725
O O1 0.080183 0.915098 0.359477
O O2 0.496113 0.853780 0.320777
O O3 0.419818 0.915098 0.183863
O O4 0.003889 0.853780 0.222563
O O5 0.134530 0.946146 0.562262
O O6 0.634530 0.946146 0.481078
O O7 0.000000 0.000000 0.401312
O O8 0.499922 0.250000 0.484167
O O9 0.126788 0.207176 0.368637
O O10 0.999922 0.250000 0.559173
O O11 0.373212 0.207176 0.174703
O O12 0.500000 0.500000 0.142028
#
# Coordination Sequence:
#
# PCOD9361825 Si02
#       6
#     8   8   4   4   8   8
#     4  12  24  40  66  95 130 163 208 272 314 360
#     4  10  23  41  61  89 125 167 211 252 306 370
#     4  11  24  45  68  88 128 171 200 257 326 380
#     4  11  24  45  68  88 128 171 200 257 326 380
#     4  11  26  41  62 101 124 157 220 257 310 395
#     4  10  23  41  61  89 125 167 211 252 306 370
#
# _framework density 23.484273999999999
#
# number of rings (size 3 to 8) (size 9 to 14) (size 15 to 20)
#    0.000    1.200    0.000    4.800    0.000   19.200 
#    0.000    0.000    0.000    0.000    0.000    0.000 
#    0.000    0.000    0.000    0.000    0.000    0.000 
#
# Total GULP energy -111953.294397 kJ/mol
# GULP energy per Si atom -5597.664720 kJ/mol
# Density = 2.343082 g / cm^3
# Si number density = 23.484274 Si / 1000 Ang^3
#
#
#
# Elastic Constant Matrix: (Units=GPa)
#
#
# Indices 1 2 3 4 5 6 
#
# 1 89.7943 30.4645 -11.0412 0.0000 0.0000 0.0000
# 2 30.4645 142.2626 35.5256 0.0000 0.0000 0.0000
# 3 -11.0412 35.5256 38.4051 0.0000 0.0000 0.0000
# 4 0.0000 0.0000 0.0000 28.8724 0.0000 0.0000
# 5 0.0000 0.0000 0.0000 0.0000 38.8613 0.0000
# 6 0.0000 0.0000 0.0000 0.0000 0.0000 27.6205
#
#
#
# Elastic Compliance Matrix: (Units=1/GPa)
#
#
# Indices 1 2 3 4 5 6 
#
# 1 0.013987 -0.005201 0.008832 0.000000 0.000000 0.000000
# 2 -0.005201 0.011074 -0.011739 0.000000 0.000000 0.000000
# 3 0.008832 -0.011739 0.039436 0.000000 0.000000 0.000000
# 4 0.000000 0.000000 0.000000 0.034635 0.000000 0.000000
# 5 0.000000 0.000000 0.000000 0.000000 0.025733 0.000000
# 6 0.000000 0.000000 0.000000 0.000000 0.000000 0.036205
#
#
# Mechanical properties :
#
#
# Convention : Reuss Voigt Hill
#
# Bulk Modulus (GPa) = 20.71174 42.26220 31.48697
# Shear Modulus (GPa) = 25.85573 33.43838 29.64706
#
# Velocity S-wave (km/s) = 3.32170 3.77750 3.55691
# Velocity P-wave (km/s) = 4.85285 6.08778 5.50505
#
# Compressibility (1/GPa) = 0.04828178
#
# Stress axis : x y z
#
# Youngs Moduli (GPa) = 71.49493 90.29772 25.35725
#
# Poissons Ratio (x) = 0.46961 -0.22395
# Poissons Ratio (y) = 0.37183 0.29768
# Poissons Ratio (z) = -0.63144 1.06003
#
# Static dielectric constant tensor:
#      x y z
#    x 1.841960 0.000000 0.000000 
#    y 0.000000 1.862350 0.000000 
#    z 0.000000 0.000000 1.853700 
# 
# From -- ./inp_files/4567.got.cif
#   From: 2010.05.17/outbox.cif.g08.bks.cpg/sg39_3_cif.got.tgz:4567.got - 2010.06.03 18:22:40.
