data_PCOD9361522
_publ_section_title
;
Structure prediction by ZEFSAII (Michael W. Deem and Ramdas Pophale) SiO2 
 PCOD9361522
Probable space group: A B M 2
;
_chemical_formula_sum "Si O2"
_cell_formula_units_Z 52
_cell_length_a 5.296990
_cell_length_b 25.677185
_cell_length_c 17.747586
_cell_angle_alpha 90.000000
_cell_angle_beta 90.000000
_cell_angle_gamma 90.000000
_cell_volume 2413.880979
_symmetry_space_group_name_H-M "A B M 2"
_symmetry_group_IT_number 39
_symmetry_cell_setting 'orthorhombic'
loop_
_space_group_symop_operation_xyz
x,y,z
-x,-y,z
-x,1/2+y,z
x,1/2-y,z
x,1/2+y,1/2+z
-x,1/2-y,1/2+z
-x,y,1/2+z
x,-y,1/2+z
loop_
_atom_site_type_symbol
_atom_site_label
_atom_site_fract_x
_atom_site_fract_y
_atom_site_fract_z
Si Si1 0.594872 0.331263 0.739540
Si Si2 0.000000 0.000000 0.020433
Si Si3 0.915407 0.193062 0.331644
Si Si4 0.586798 0.558860 0.780343
Si Si5 0.126651 0.571648 0.135941
Si Si6 0.787733 0.900912 0.933582
Si Si7 0.382310 0.369268 0.091036
O O1 0.329067 0.314432 0.777007
O O2 0.589839 0.394234 0.751622
O O3 0.636757 0.321841 0.650450
O O4 0.830325 0.308770 0.783667
O O5 0.066594 0.049808 0.969865
O O6 0.804820 0.022346 0.082703
O O7 0.890352 0.250000 0.368242
O O8 0.931522 0.144970 0.389494
O O9 0.500000 0.500000 0.771995
O O10 0.829158 0.562668 0.724422
O O11 0.627183 0.572227 0.867524
O O12 0.336088 0.612312 0.109737
O O13 0.851271 0.593040 0.115530
O O14 0.644566 0.870969 0.001050
#
# Coordination Sequence:
#
# PCOD9361522 Si02
#       7
#     8   4   8   8   8   8   8
#     4  10  22  43  67  95 122 172 220 270 321 389
#     4  10  24  36  62  94 140 182 218 262 326 388
#     4  11  24  46  70  95 127 171 225 278 329 384
#     4  10  23  36  62  96 132 175 217 260 316 398
#     4  10  23  38  57  88 130 184 214 253 308 389
#     4  10  24  38  62  99 134 173 209 275 328 392
#     4  10  21  41  63  89 132 165 214 266 325 387
#
# _framework density 21.542072999999998
#
# number of rings (size 3 to 8) (size 9 to 14) (size 15 to 20)
#    0.000    1.846    0.000    3.231   12.923    4.308 
#    0.000    1.538    0.000    0.000    0.000    0.000 
#    0.000    0.000    0.000    0.000    0.000    0.000 
#
# Total GULP energy -144739.877955 kJ/mol
# GULP energy per Si atom -5566.918383 kJ/mol
# Density = 2.149304 g / cm^3
# Si number density = 21.542073 Si / 1000 Ang^3
#
#
#
# Elastic Constant Matrix: (Units=GPa)
#
#
# Indices 1 2 3 4 5 6 
#
# 1 62.0989 6.5243 8.2103 0.0000 0.0000 0.0000
# 2 6.5243 99.9476 4.7937 0.0000 0.0000 0.0000
# 3 8.2103 4.7937 132.4293 0.0000 0.0000 0.0000
# 4 0.0000 0.0000 0.0000 6.8253 0.0000 0.0000
# 5 0.0000 0.0000 0.0000 0.0000 -31.7520 0.0000
# 6 0.0000 0.0000 0.0000 0.0000 0.0000 27.8779
#
#
#
# Elastic Compliance Matrix: (Units=1/GPa)
#
#
# Indices 1 2 3 4 5 6 
#
# 1 0.016340 -0.001020 -0.000976 0.000000 0.000000 0.000000
# 2 -0.001020 0.010086 -0.000302 0.000000 0.000000 0.000000
# 3 -0.000976 -0.000302 0.007623 0.000000 0.000000 0.000000
# 4 0.000000 0.000000 0.000000 0.146514 0.000000 0.000000
# 5 0.000000 0.000000 0.000000 0.000000 -0.031494 0.000000
# 6 0.000000 0.000000 0.000000 0.000000 0.000000 0.035871
#
#
# Mechanical properties :
#
#
# Convention : Reuss Voigt Hill
#
# Bulk Modulus (GPa) = 33.95244 37.05914 35.50579
# Shear Modulus (GPa) = 25.08124 18.92005 22.00065
#
# Velocity S-wave (km/s) = 3.41587 2.96680 3.19923
# Velocity P-wave (km/s) = 5.59936 5.38297 5.49223
#
# Compressibility (1/GPa) = 0.02945296
#
# Stress axis : x y z
#
# Youngs Moduli (GPa) = 61.20119 99.14443 131.18812
#
# Poissons Ratio (x) = 0.10111 0.12805
# Poissons Ratio (y) = 0.06241 0.03960
# Poissons Ratio (z) = 0.05974 0.02993
#
# Static dielectric constant tensor:
#      x y z
#    x 1.821600 0.000000 0.000000 
#    y 0.000000 1.927330 0.000000 
#    z 0.000000 0.000000 1.870720 
# 
# From -- ./inp_files/11127.got.cif
#   From: 2010.05.17/outbox.cif.g08.bks.cpg/sg39_6_cif.got.tgz:11127.got - 2010.06.03 18:22:40.
