data_PCOD9361455
_publ_section_title
;
Structure prediction by ZEFSAII (Michael W. Deem and Ramdas Pophale) SiO2 
 PCOD9361455
Probable space group: A B M 2
;
_chemical_formula_sum "Si O2"
_cell_formula_units_Z 52
_cell_length_a 14.447406
_cell_length_b 19.898547
_cell_length_c 8.605757
_cell_angle_alpha 90.000000
_cell_angle_beta 90.000000
_cell_angle_gamma 90.000000
_cell_volume 2474.003567
_symmetry_space_group_name_H-M "A B M 2"
_symmetry_group_IT_number 39
_symmetry_cell_setting 'orthorhombic'
loop_
_space_group_symop_operation_xyz
x,y,z
-x,-y,z
-x,1/2+y,z
x,1/2-y,z
x,1/2+y,1/2+z
-x,1/2-y,1/2+z
-x,y,1/2+z
x,-y,1/2+z
loop_
_atom_site_type_symbol
_atom_site_label
_atom_site_fract_x
_atom_site_fract_y
_atom_site_fract_z
Si Si1 0.561075 0.330795 0.180750
Si Si2 0.869355 0.750000 0.674096
Si Si3 0.132672 0.473485 0.704382
Si Si4 0.626789 0.168339 0.836846
Si Si5 0.186819 0.371958 0.176503
Si Si6 0.070200 0.750000 0.812206
Si Si7 0.253325 0.633764 0.320695
Si Si8 0.000000 0.000000 0.453376
O O1 0.559228 0.250000 0.182752
O O2 0.457959 0.352345 0.225169
O O3 0.638227 0.352671 0.304478
O O4 0.596683 0.350832 0.010831
O O5 0.900932 0.750000 0.494161
O O6 0.804909 0.813050 0.718655
O O7 0.960691 0.750000 0.781286
O O8 0.146421 0.553362 0.695642
O O9 0.226984 0.436815 0.741158
O O10 0.071795 0.456879 0.554046
O O11 0.064175 0.455292 0.844885
O O12 0.637179 0.250000 0.830857
O O13 0.722747 0.136866 0.783661
O O14 0.114611 0.315362 0.229535
O O15 0.219722 0.362268 0.998301
#
# Coordination Sequence:
#
# PCOD9361455 Si02
#       8
#     8   4   8   8   8   4   8   4
#     4  10  21  39  66  96 131 172 215 267 326 390
#     4  12  28  42  63  92 133 170 214 272 330 382
#     4  11  26  42  69  92 130 170 229 266 327 380
#     4  10  21  39  66  96 131 172 215 267 326 390
#     4  12  25  43  66  98 131 172 216 271 325 392
#     4  12  28  42  63  92 133 170 214 272 330 382
#     4  12  25  43  66  98 131 172 216 271 325 392
#     4  10  24  46  64  92 122 182 224 272 308 398
#
# _framework density 21.018563
#
# number of rings (size 3 to 8) (size 9 to 14) (size 15 to 20)
#    0.000    0.923    3.077    3.231    8.615    1.231 
#    0.000    0.769    0.000    3.692    0.000    0.000 
#    0.000    0.000    0.000    0.000    0.000    0.000 
#
# Total GULP energy -145380.382345 kJ/mol
# GULP energy per Si atom -5591.553167 kJ/mol
# Density = 2.097072 g / cm^3
# Si number density = 21.018563 Si / 1000 Ang^3
#
#
#
# Elastic Constant Matrix: (Units=GPa)
#
#
# Indices 1 2 3 4 5 6 
#
# 1 90.4666 8.1672 -9.5080 0.0000 0.0000 0.0000
# 2 8.1672 69.2151 4.0862 0.0000 0.0000 0.0000
# 3 -9.5080 4.0862 85.8002 0.0000 0.0000 0.0000
# 4 0.0000 0.0000 0.0000 13.3031 0.0000 0.0000
# 5 0.0000 0.0000 0.0000 0.0000 37.0721 0.0000
# 6 0.0000 0.0000 0.0000 0.0000 0.0000 14.3230
#
#
#
# Elastic Compliance Matrix: (Units=1/GPa)
#
#
# Indices 1 2 3 4 5 6 
#
# 1 0.011320 -0.001414 0.001322 0.000000 0.000000 0.000000
# 2 -0.001414 0.014665 -0.000855 0.000000 0.000000 0.000000
# 3 0.001322 -0.000855 0.011842 0.000000 0.000000 0.000000
# 4 0.000000 0.000000 0.000000 0.075171 0.000000 0.000000
# 5 0.000000 0.000000 0.000000 0.000000 0.026974 0.000000
# 6 0.000000 0.000000 0.000000 0.000000 0.000000 0.069818
#
#
# Mechanical properties :
#
#
# Convention : Reuss Voigt Hill
#
# Bulk Modulus (GPa) = 27.82925 27.88583 27.85754
# Shear Modulus (GPa) = 22.35513 29.12207 25.73860
#
# Velocity S-wave (km/s) = 3.26481 3.72632 3.50318
# Velocity P-wave (km/s) = 5.24224 5.64004 5.44477
#
# Compressibility (1/GPa) = 0.03593342
#
# Stress axis : x y z
#
# Youngs Moduli (GPa) = 88.33644 68.18943 84.44383
#
# Poissons Ratio (x) = 0.09641 -0.11162
# Poissons Ratio (y) = 0.12489 0.07221
# Poissons Ratio (z) = -0.11676 0.05831
#
# Static dielectric constant tensor:
#      x y z
#    x 1.733400 0.000000 0.000000 
#    y 0.000000 1.774610 0.000000 
#    z 0.000000 0.000000 1.801220 
# 
# From -- ./inp_files/3363.got.cif
#   From: 2010.05.17/outbox.cif.g08.bks.cpg/sg39_2_cif.got.tgz:3363.got - 2010.06.03 18:22:40.
