data_PCOD9361831
_publ_section_title
;
Structure prediction by ZEFSAII (Michael W. Deem and Ramdas Pophale) SiO2 
 PCOD9361831
Probable space group: A B M 2
;
_chemical_formula_sum "Si O2"
_cell_formula_units_Z 64
_cell_length_a 13.192097
_cell_length_b 24.032267
_cell_length_c 9.378069
_cell_angle_alpha 90.000000
_cell_angle_beta 90.000000
_cell_angle_gamma 90.000000
_cell_volume 2973.185459
_symmetry_space_group_name_H-M "A B M 2"
_symmetry_group_IT_number 39
_symmetry_cell_setting 'orthorhombic'
loop_
_space_group_symop_operation_xyz
x,y,z
-x,-y,z
-x,1/2+y,z
x,1/2-y,z
x,1/2+y,1/2+z
-x,1/2-y,1/2+z
-x,y,1/2+z
x,-y,1/2+z
loop_
_atom_site_type_symbol
_atom_site_label
_atom_site_fract_x
_atom_site_fract_y
_atom_site_fract_z
Si Si1 0.431537 0.052674 0.162630
Si Si2 0.289630 0.683647 0.101042
Si Si3 0.937256 0.048578 0.154403
Si Si4 0.581106 0.101347 0.945411
Si Si5 0.261014 0.498010 0.506037
Si Si6 0.080154 0.640497 0.580189
Si Si7 0.097334 0.186007 0.397432
Si Si8 0.217056 0.893531 0.346982
O O1 0.434478 0.100853 0.278002
O O2 0.320110 0.030223 0.131648
O O3 0.500000 0.000000 0.211238
O O4 0.482662 0.075808 0.020192
O O5 0.292922 0.750000 0.126123
O O6 0.280208 0.646927 0.244951
O O7 0.383920 0.658631 0.014357
O O8 0.191087 0.671163 0.001279
O O9 0.884672 0.092308 0.258865
O O10 0.021260 0.082002 0.067321
O O11 0.848110 0.023157 0.057126
O O12 0.000000 0.000000 0.731197
O O13 0.669860 0.055342 0.971574
O O14 0.257989 0.544960 0.383518
O O15 0.093595 0.653452 0.747414
O O16 0.184539 0.635475 0.494049
O O17 0.004096 0.680416 0.493042
O O18 0.110451 0.250000 0.355994
#
# Coordination Sequence:
#
# PCOD9361831 Si02
#       8
#     8   8   8   8   8   8   8   8
#     4  10  23  41  68 103 135 170 220 274 349 425
#     4  11  26  47  70  96 136 186 235 288 350 411
#     4  12  24  38  58  95 141 179 219 271 345 405
#     4  11  23  43  71  98 134 167 221 279 345 415
#     4  11  23  39  66 101 137 180 218 275 349 404
#     4  12  23  39  60  94 130 177 235 276 333 399
#     4  11  23  42  64  89 124 177 237 291 330 385
#     4  12  25  41  66  96 138 186 232 279 343 410
#
# _framework density 21.525734
#
# number of rings (size 3 to 8) (size 9 to 14) (size 15 to 20)
#    0.000    0.750    5.000    2.250    7.000    3.000 
#    0.000    0.625    0.000    0.000    0.000    0.000 
#    0.000    0.000    0.000    0.000    0.000    0.000 
#
# Total GULP energy -178829.014932 kJ/mol
# GULP energy per Si atom -5588.406717 kJ/mol
# Density = 2.147674 g / cm^3
# Si number density = 21.525734 Si / 1000 Ang^3
#
#
#
# Elastic Constant Matrix: (Units=GPa)
#
#
# Indices 1 2 3 4 5 6 
#
# 1 21.3854 10.3790 7.6391 0.0000 0.0000 0.0000
# 2 10.3790 79.8780 31.9421 0.0000 0.0000 0.0000
# 3 7.6391 31.9421 94.8689 0.0000 0.0000 0.0000
# 4 0.0000 0.0000 0.0000 26.3207 0.0000 0.0000
# 5 0.0000 0.0000 0.0000 0.0000 15.6041 0.0000
# 6 0.0000 0.0000 0.0000 0.0000 0.0000 21.2548
#
#
#
# Elastic Compliance Matrix: (Units=1/GPa)
#
#
# Indices 1 2 3 4 5 6 
#
# 1 0.050280 -0.005679 -0.002137 0.000000 0.000000 0.000000
# 2 -0.005679 0.015108 -0.004630 0.000000 0.000000 0.000000
# 3 -0.002137 -0.004630 0.012272 0.000000 0.000000 0.000000
# 4 0.000000 0.000000 0.000000 0.037993 0.000000 0.000000
# 5 0.000000 0.000000 0.000000 0.000000 0.064086 0.000000
# 6 0.000000 0.000000 0.000000 0.000000 0.000000 0.047048
#
#
# Mechanical properties :
#
#
# Convention : Reuss Voigt Hill
#
# Bulk Modulus (GPa) = 18.95013 32.89473 25.92243
# Shear Modulus (GPa) = 18.56892 22.38073 20.47482
#
# Velocity S-wave (km/s) = 2.94026 3.22797 3.08746
# Velocity P-wave (km/s) = 4.51103 5.40442 4.97781
#
# Compressibility (1/GPa) = 0.05277007
#
# Stress axis : x y z
#
# Youngs Moduli (GPa) = 19.88853 66.18876 81.48823
#
# Poissons Ratio (x) = 0.37587 0.17411
# Poissons Ratio (y) = 0.11294 0.37726
# Poissons Ratio (z) = 0.04249 0.30643
#
# Static dielectric constant tensor:
#      x y z
#    x 1.791700 0.000000 0.000000 
#    y 0.000000 1.801890 0.000000 
#    z 0.000000 0.000000 1.827510 
# 
# From -- ./inp_files/3538.got.cif
#   From: 2010.05.17/outbox.cif.g08.bks.cpg/sg39_2_cif.got.tgz:3538.got - 2010.06.03 18:22:40.
