data_PCOD9361159
_publ_section_title
;
Structure prediction by ZEFSAII (Michael W. Deem and Ramdas Pophale) SiO2 
 PCOD9361159
Probable space group: A B M 2
;
_chemical_formula_sum "Si O2"
_cell_formula_units_Z 40
_cell_length_a 8.559742
_cell_length_b 10.261121
_cell_length_c 22.484026
_cell_angle_alpha 90.000000
_cell_angle_beta 90.000000
_cell_angle_gamma 90.000000
_cell_volume 1974.829302
_symmetry_space_group_name_H-M "A B M 2"
_symmetry_group_IT_number 39
_symmetry_cell_setting 'orthorhombic'
loop_
_space_group_symop_operation_xyz
x,y,z
-x,-y,z
-x,1/2+y,z
x,1/2-y,z
x,1/2+y,1/2+z
-x,1/2-y,1/2+z
-x,y,1/2+z
x,-y,1/2+z
loop_
_atom_site_type_symbol
_atom_site_label
_atom_site_fract_x
_atom_site_fract_y
_atom_site_fract_z
Si Si1 0.170052 0.250000 0.192480
Si Si2 0.684326 0.979083 0.267535
Si Si3 0.141148 0.100553 0.384600
Si Si4 0.276444 0.250000 0.064091
Si Si5 0.807900 0.250000 0.222912
Si Si6 0.684344 0.518901 0.504010
Si Si7 0.355552 0.750000 0.094167
O O1 0.257789 0.122818 0.217742
O O2 0.169043 0.250000 0.121585
O O3 0.992915 0.250000 0.214195
O O4 0.739240 0.921963 0.330480
O O5 0.500000 0.000000 0.264603
O O6 0.761861 0.119078 0.257021
O O7 0.086273 0.250000 0.383188
O O8 0.227023 0.071556 0.446657
O O9 0.000000 0.000000 0.377293
O O10 0.454993 0.250000 0.089993
O O11 0.254375 0.379070 0.025331
O O12 0.714254 0.250000 0.160087
O O13 0.500000 0.500000 0.490616
O O14 0.696888 0.622316 0.557652
#
# Coordination Sequence:
#
# PCOD9361159 Si02
#       7
#     4   8   8   4   4   8   4
#     4  12  24  45  66 105 140 175 223 279 343 400
#     4  12  26  46  71  98 133 181 230 275 333 410
#     4  12  27  46  69  98 137 177 224 284 345 405
#     4  10  22  37  68  99 136 175 229 273 327 404
#     4  12  26  41  72 101 140 177 219 285 343 398
#     4  10  22  42  68  97 133 178 227 276 329 400
#     4  10  20  41  64  99 134 183 225 271 327 400
#
# _framework density 20.254916000000001
#
# number of rings (size 3 to 8) (size 9 to 14) (size 15 to 20)
#    0.000    0.800    2.000    5.400    2.800    3.200 
#    0.000    0.000    0.000    0.000    0.000    0.000 
#    0.000    0.000    0.000    0.000    0.000    0.000 
#
# Total GULP energy -111983.730869 kJ/mol
# GULP energy per Si atom -5599.186543 kJ/mol
# Density = 2.020881 g / cm^3
# Si number density = 20.254916 Si / 1000 Ang^3
#
#
#
# Elastic Constant Matrix: (Units=GPa)
#
#
# Indices 1 2 3 4 5 6 
#
# 1 82.9990 37.0253 10.8290 0.0000 0.0000 0.0000
# 2 37.0253 184.2475 28.2201 0.0000 0.0000 0.0000
# 3 10.8290 28.2201 65.1138 0.0000 0.0000 0.0000
# 4 0.0000 0.0000 0.0000 18.0764 0.0000 0.0000
# 5 0.0000 0.0000 0.0000 0.0000 -106.2032 0.0000
# 6 0.0000 0.0000 0.0000 0.0000 0.0000 29.6309
#
#
#
# Elastic Compliance Matrix: (Units=1/GPa)
#
#
# Indices 1 2 3 4 5 6 
#
# 1 0.013312 -0.002502 -0.001129 0.000000 0.000000 0.000000
# 2 -0.002502 0.006284 -0.002307 0.000000 0.000000 0.000000
# 3 -0.001129 -0.002307 0.016546 0.000000 0.000000 0.000000
# 4 0.000000 0.000000 0.000000 0.055321 0.000000 0.000000
# 5 0.000000 0.000000 0.000000 0.000000 -0.009416 0.000000
# 6 0.000000 0.000000 0.000000 0.000000 0.000000 0.033749
#
#
# Mechanical properties :
#
#
# Convention : Reuss Voigt Hill
#
# Bulk Modulus (GPa) = 41.21417 53.83433 47.52425
# Shear Modulus (GPa) = 36.82980 5.38656 21.10818
#
# Velocity S-wave (km/s) = 4.26880 1.63253 3.23170
# Velocity P-wave (km/s) = 6.68496 5.49451 6.11876
#
# Compressibility (1/GPa) = 0.02426350
#
# Stress axis : x y z
#
# Youngs Moduli (GPa) = 75.12098 159.14280 60.43936
#
# Poissons Ratio (x) = 0.39819 0.06827
# Poissons Ratio (y) = 0.18796 0.13945
# Poissons Ratio (z) = 0.08485 0.36717
#
# Static dielectric constant tensor:
#      x y z
#    x 1.721710 0.000000 0.000000 
#    y 0.000000 1.698400 0.000000 
#    z 0.000000 0.000000 1.680730 
# 
# From -- ./inp_files/13903.got.cif
#   From: 2010.05.17/outbox.cif.g08.bks.cpg/sg39_7_cif.got.tgz:13903.got - 2010.06.03 18:22:40.
