data_PCOD9361310
_publ_section_title
;
Structure prediction by ZEFSAII (Michael W. Deem and Ramdas Pophale) SiO2 
 PCOD9361310
Probable space group: A B M 2
;
_chemical_formula_sum "Si O2"
_cell_formula_units_Z 44
_cell_length_a 7.335343
_cell_length_b 9.249490
_cell_length_c 30.017395
_cell_angle_alpha 90.000000
_cell_angle_beta 90.000000
_cell_angle_gamma 90.000000
_cell_volume 2036.625671
_symmetry_space_group_name_H-M "A B M 2"
_symmetry_group_IT_number 39
_symmetry_cell_setting 'orthorhombic'
loop_
_space_group_symop_operation_xyz
x,y,z
-x,-y,z
-x,1/2+y,z
x,1/2-y,z
x,1/2+y,1/2+z
-x,1/2-y,1/2+z
-x,y,1/2+z
x,-y,1/2+z
loop_
_atom_site_type_symbol
_atom_site_label
_atom_site_fract_x
_atom_site_fract_y
_atom_site_fract_z
Si Si1 0.000000 0.000000 0.816170
Si Si2 0.331563 0.415637 0.375991
Si Si3 0.689339 0.077420 0.150037
Si Si4 0.691281 0.915581 0.746836
Si Si5 0.190458 0.577946 0.559752
Si Si6 0.196999 0.577361 0.462038
O O1 0.141055 0.917259 0.848789
O O2 0.699776 0.997841 0.921701
O O3 0.500000 0.500000 0.353067
O O4 0.383624 0.250000 0.383772
O O5 0.149860 0.571730 0.283528
O O6 0.681374 0.250000 0.142141
O O7 0.781759 0.051308 0.198131
O O8 0.500000 0.000000 0.159224
O O9 0.745873 0.999507 0.104580
O O10 0.631728 0.750000 0.744321
O O11 0.500000 0.000000 0.754254
O O12 0.175562 0.750000 0.567470
O O13 0.284678 0.558497 0.511422
O O14 0.000000 0.500000 0.552192
O O15 0.176484 0.750000 0.455025
O O16 0.000000 0.500000 0.461425
#
# Coordination Sequence:
#
# PCOD9361310 Si02
#       6
#     4   8   8   8   8   8
#     4  12  26  44  72 100 130 170 224 274 344 398
#     4  12  27  45  69  99 135 175 222 277 333 398
#     4  10  21  39  62  91 128 171 214 265 321 384
#     4  10  24  45  68  99 134 173 222 274 332 395
#     4  10  21  37  61  95 131 171 214 262 314 382
#     4  10  21  40  66  95 132 173 218 267 326 392
#
# _framework density 21.604361000000001
#
# number of rings (size 3 to 8) (size 9 to 14) (size 15 to 20)
#    0.000    1.455    0.909    3.273    1.273    8.727 
#    0.000    0.000    0.000    0.000    0.000    0.000 
#    0.000    0.000    0.000    0.000    0.000    0.000 
#
# Total GULP energy -122514.519331 kJ/mol
# GULP energy per Si atom -5568.841788 kJ/mol
# Density = 2.155519 g / cm^3
# Si number density = 21.604361 Si / 1000 Ang^3
#
#
#
# Elastic Constant Matrix: (Units=GPa)
#
#
# Indices 1 2 3 4 5 6 
#
# 1 102.8216 50.6514 42.7764 0.0000 0.0000 0.0000
# 2 50.6514 148.5209 85.4152 0.0000 0.0000 0.0000
# 3 42.7764 85.4152 179.6911 0.0000 0.0000 0.0000
# 4 0.0000 0.0000 0.0000 30.8933 0.0000 0.0000
# 5 0.0000 0.0000 0.0000 0.0000 -11.7602 0.0000
# 6 0.0000 0.0000 0.0000 0.0000 0.0000 26.5297
#
#
#
# Elastic Compliance Matrix: (Units=1/GPa)
#
#
# Indices 1 2 3 4 5 6 
#
# 1 0.011888 -0.003340 -0.001242 0.000000 0.000000 0.000000
# 2 -0.003340 0.010204 -0.004056 0.000000 0.000000 0.000000
# 3 -0.001242 -0.004056 0.007789 0.000000 0.000000 0.000000
# 4 0.000000 0.000000 0.000000 0.032369 0.000000 0.000000
# 5 0.000000 0.000000 0.000000 0.000000 -0.085032 0.000000
# 6 0.000000 0.000000 0.000000 0.000000 0.000000 0.037694
#
#
# Mechanical properties :
#
#
# Convention : Reuss Voigt Hill
#
# Bulk Modulus (GPa) = 79.33108 87.63551 83.48329
# Shear Modulus (GPa) = 137.40714 25.94529 81.67622
#
# Velocity S-wave (km/s) = 7.98371 3.46920 6.15528
# Velocity P-wave (km/s) = 11.03566 7.52987 9.44682
#
# Compressibility (1/GPa) = 0.01260540
#
# Stress axis : x y z
#
# Youngs Moduli (GPa) = 84.12130 97.99713 128.39150
#
# Poissons Ratio (x) = 0.32727 0.15952
# Poissons Ratio (y) = 0.28093 0.52070
# Poissons Ratio (z) = 0.10452 0.39744
#
# Static dielectric constant tensor:
#      x y z
#    x 1.747550 0.000000 0.000000 
#    y 0.000000 1.741120 0.000000 
#    z 0.000000 0.000000 1.995090 
# 
# From -- ./inp_files/17440.got.cif
#   From: 2010.05.17/outbox.cif.g08.bks.cpg/sg39_9_cif.got.tgz:17440.got - 2010.06.03 18:22:40.
