data_PCOD9361019
_publ_section_title
;
Structure prediction by ZEFSAII (Michael W. Deem and Ramdas Pophale) SiO2 
 PCOD9361019
Probable space group: A B M 2
;
_chemical_formula_sum "Si O2"
_cell_formula_units_Z 52
_cell_length_a 13.810472
_cell_length_b 20.066473
_cell_length_c 8.505645
_cell_angle_alpha 90.000000
_cell_angle_beta 90.000000
_cell_angle_gamma 90.000000
_cell_volume 2357.147824
_symmetry_space_group_name_H-M "A B M 2"
_symmetry_group_IT_number 39
_symmetry_cell_setting 'orthorhombic'
loop_
_space_group_symop_operation_xyz
x,y,z
-x,-y,z
-x,1/2+y,z
x,1/2-y,z
x,1/2+y,1/2+z
-x,1/2-y,1/2+z
-x,y,1/2+z
x,-y,1/2+z
loop_
_atom_site_type_symbol
_atom_site_label
_atom_site_fract_x
_atom_site_fract_y
_atom_site_fract_z
Si Si1 0.541582 0.330045 0.441490
Si Si2 0.851718 0.750000 0.685579
Si Si3 0.136714 0.470470 0.648303
Si Si4 0.642304 0.170770 0.777440
Si Si5 0.173059 0.374776 0.121799
Si Si6 0.048915 0.750000 0.530604
Si Si7 0.273582 0.626778 0.276876
Si Si8 0.000000 0.000000 0.396417
O O1 0.545902 0.250000 0.415243
O O2 0.582837 0.341584 0.615200
O O3 0.430821 0.351171 0.413967
O O4 0.614175 0.361995 0.313824
O O5 0.780417 0.813228 0.687561
O O6 0.933551 0.750000 0.552366
O O7 0.911708 0.750000 0.851165
O O8 0.137642 0.550394 0.644183
O O9 0.239565 0.438592 0.682917
O O10 0.074512 0.454932 0.495028
O O11 0.066808 0.452454 0.792236
O O12 0.657917 0.250000 0.789609
O O13 0.746420 0.138603 0.754936
O O14 0.094528 0.316080 0.112071
O O15 0.227694 0.373031 0.952797
#
# Coordination Sequence:
#
# PCOD9361019 Si02
#       8
#     8   4   8   8   8   4   8   4
#     4   9  17  34  59  84 111 145 184 229 282 338
#     4  10  22  36  55  80 112 144 183 232 283 330
#     4  11  22  38  59  80 114 150 199 228 279 334
#     4   9  17  34  59  84 111 145 184 229 282 338
#     4  10  20  38  59  83 111 151 187 230 282 341
#     4  10  22  36  55  80 112 144 183 232 283 330
#     4  10  20  38  59  83 111 151 187 230 282 341
#     4  10  24  38  56  80 110 162 192 232 264 346
#
# _framework density 22.060559000000001
#
# number of rings (size 3 to 8) (size 9 to 14) (size 15 to 20)
#    0.000    2.154    3.077    0.000    4.308    0.000 
#    2.769    0.769    0.000    3.692    0.000    0.000 
#    0.000    0.000    0.000    0.000    0.000    0.000 
#
# Total GULP energy -145153.000586 kJ/mol
# GULP energy per Si atom -5582.807715 kJ/mol
# Density = 2.201035 g / cm^3
# Si number density = 22.060559 Si / 1000 Ang^3
#
#
#
# Elastic Constant Matrix: (Units=GPa)
#
#
# Indices 1 2 3 4 5 6 
#
# 1 39.3294 1.7259 -13.5239 0.0000 0.0000 0.0000
# 2 1.7259 70.9099 -4.4243 0.0000 0.0000 0.0000
# 3 -13.5239 -4.4243 30.5118 0.0000 0.0000 0.0000
# 4 0.0000 0.0000 0.0000 13.3256 0.0000 0.0000
# 5 0.0000 0.0000 0.0000 0.0000 34.7983 0.0000
# 6 0.0000 0.0000 0.0000 0.0000 0.0000 25.8331
#
#
#
# Elastic Compliance Matrix: (Units=1/GPa)
#
#
# Indices 1 2 3 4 5 6 
#
# 1 0.029999 0.000100 0.013311 0.000000 0.000000 0.000000
# 2 0.000100 0.014231 0.002108 0.000000 0.000000 0.000000
# 3 0.013311 0.002108 0.038980 0.000000 0.000000 0.000000
# 4 0.000000 0.000000 0.000000 0.075043 0.000000 0.000000
# 5 0.000000 0.000000 0.000000 0.000000 0.028737 0.000000
# 6 0.000000 0.000000 0.000000 0.000000 0.000000 0.038710
#
#
# Mechanical properties :
#
#
# Convention : Reuss Voigt Hill
#
# Bulk Modulus (GPa) = 8.75273 12.03404 10.39339
# Shear Modulus (GPa) = 21.48276 25.25631 23.36953
#
# Velocity S-wave (km/s) = 3.12398 3.38725 3.25827
# Velocity P-wave (km/s) = 4.12171 4.55684 4.34473
#
# Compressibility (1/GPa) = 0.11425004
#
# Stress axis : x y z
#
# Youngs Moduli (GPa) = 33.33427 70.26672 25.65423
#
# Poissons Ratio (x) = -0.00705 -0.34149
# Poissons Ratio (y) = -0.00335 -0.05408
# Poissons Ratio (z) = -0.44372 -0.14813
#
# Static dielectric constant tensor:
#      x y z
#    x 1.811000 0.000000 0.000000 
#    y 0.000000 1.796520 0.000000 
#    z 0.000000 0.000000 1.904110 
# 
# From -- ./inp_files/3364.got.cif
#   From: 2010.05.17/outbox.cif.g08.bks.cpg/sg39_2_cif.got.tgz:3364.got - 2010.06.03 18:22:40.
