data_PCOD9361189
_publ_section_title
;
Structure prediction by ZEFSAII (Michael W. Deem and Ramdas Pophale) SiO2 
 PCOD9361189
Probable space group: A B M 2
;
_chemical_formula_sum "Si O2"
_cell_formula_units_Z 64
_cell_length_a 8.619274
_cell_length_b 17.370626
_cell_length_c 23.893567
_cell_angle_alpha 90.000000
_cell_angle_beta 90.000000
_cell_angle_gamma 90.000000
_cell_volume 3577.397060
_symmetry_space_group_name_H-M "A B M 2"
_symmetry_group_IT_number 39
_symmetry_cell_setting 'orthorhombic'
loop_
_space_group_symop_operation_xyz
x,y,z
-x,-y,z
-x,1/2+y,z
x,1/2-y,z
x,1/2+y,1/2+z
-x,1/2-y,1/2+z
-x,y,1/2+z
x,-y,1/2+z
loop_
_atom_site_type_symbol
_atom_site_label
_atom_site_fract_x
_atom_site_fract_y
_atom_site_fract_z
Si Si1 0.812441 0.339895 0.937590
Si Si2 0.687884 0.660091 0.189005
Si Si3 0.712282 0.839313 0.058500
Si Si4 0.681966 0.483748 0.875807
Si Si5 0.108755 0.427671 0.963956
Si Si6 0.818477 0.982880 0.252089
Si Si7 0.612562 0.071277 0.163545
Si Si8 0.342657 0.339472 0.557600
O O1 0.791235 0.250000 0.924794
O O2 0.721353 0.397710 0.897165
O O3 0.992368 0.364585 0.937944
O O4 0.748329 0.354192 0.000534
O O5 0.704187 0.750000 0.202261
O O6 0.740787 0.647615 0.124436
O O7 0.778607 0.602661 0.229527
O O8 0.506619 0.634827 0.187854
O O9 0.750309 0.750000 0.046387
O O10 0.527738 0.849303 0.048620
O O11 0.806586 0.893907 0.017823
O O12 0.500000 0.500000 0.876255
O O13 0.769636 0.540947 0.918520
O O14 0.750212 0.492931 0.813923
O O15 0.000000 0.500000 0.978848
O O16 0.728786 0.039609 0.209743
O O17 0.000000 0.000000 0.251888
O O18 0.696438 0.105452 0.109239
O O19 0.500000 0.000000 0.147004
O O20 0.317623 0.250000 0.573290
#
# Coordination Sequence:
#
# PCOD9361189 Si02
#       8
#     8   8   8   8   8   8   8   8
#     4  10  21  36  56  84 116 146 177 221 277 328
#     4   9  19  36  58  83 111 146 186 225 266 316
#     4   9  17  32  54  80 111 145 182 222 264 317
#     4  11  23  41  61  78 103 143 190 232 269 319
#     4  10  21  34  53  80 112 145 178 221 275 326
#     4  11  23  39  57  80 111 143 180 228 279 327
#     4   9  18  33  56  80 108 146 185 223 265 316
#     4   9  18  33  54  81 112 144 179 220 265 317
#
# _framework density 17.890103
#
# number of rings (size 3 to 8) (size 9 to 14) (size 15 to 20)
#    0.000    2.250    0.000    4.500    0.000    8.500 
#    0.000    3.125    0.000    5.250    0.000    0.000 
#    0.000    0.000    0.000    0.000    0.000    0.000 
#
# Total GULP energy -178638.572395 kJ/mol
# GULP energy per Si atom -5582.455387 kJ/mol
# Density = 1.784938 g / cm^3
# Si number density = 17.890103 Si / 1000 Ang^3
#
#
#
# Elastic Constant Matrix: (Units=GPa)
#
#
# Indices 1 2 3 4 5 6 
#
# 1 90.6218 54.1064 61.4208 0.0000 0.0000 0.0000
# 2 54.1064 72.5008 63.4979 0.0000 0.0000 0.0000
# 3 61.4208 63.4979 99.7712 0.0000 0.0000 0.0000
# 4 0.0000 0.0000 0.0000 16.4727 0.0000 0.0000
# 5 0.0000 0.0000 0.0000 0.0000 98.4569 0.0000
# 6 0.0000 0.0000 0.0000 0.0000 0.0000 11.6971
#
#
#
# Elastic Compliance Matrix: (Units=1/GPa)
#
#
# Indices 1 2 3 4 5 6 
#
# 1 0.021842 -0.010221 -0.006941 0.000000 0.000000 0.000000
# 2 -0.010221 0.035947 -0.016586 0.000000 0.000000 0.000000
# 3 -0.006941 -0.016586 0.024852 0.000000 0.000000 0.000000
# 4 0.000000 0.000000 0.000000 0.060707 0.000000 0.000000
# 5 0.000000 0.000000 0.000000 0.000000 0.010157 0.000000
# 6 0.000000 0.000000 0.000000 0.000000 0.000000 0.085492
#
#
# Mechanical properties :
#
#
# Convention : Reuss Voigt Hill
#
# Bulk Modulus (GPa) = 66.02937 68.99375 67.51156
# Shear Modulus (GPa) = 16.04933 30.91658 23.48296
#
# Velocity S-wave (km/s) = 2.99842 4.16160 3.62694
# Velocity P-wave (km/s) = 6.99827 7.85754 7.44032
#
# Compressibility (1/GPa) = 0.01514477
#
# Stress axis : x y z
#
# Youngs Moduli (GPa) = 45.78329 27.81886 40.23868
#
# Poissons Ratio (x) = 0.28434 0.27931
# Poissons Ratio (y) = 0.46796 0.66738
# Poissons Ratio (z) = 0.31779 0.46139
#
# Static dielectric constant tensor:
#      x y z
#    x 1.599910 0.000000 0.000000 
#    y 0.000000 1.624950 0.000000 
#    z 0.000000 0.000000 1.588340 
# 
# From -- ./inp_files/14234.got.cif
#   From: 2010.05.17/outbox.cif.g08.bks.cpg/sg39_8_cif.got.tgz:14234.got - 2010.06.03 18:22:40.
