data_PCOD9361821
_publ_section_title
;
Structure prediction by ZEFSAII (Michael W. Deem and Ramdas Pophale) SiO2 
 PCOD9361821
Probable space group: A B M 2
;
_chemical_formula_sum "Si O2"
_cell_formula_units_Z 64
_cell_length_a 11.773623
_cell_length_b 31.380698
_cell_length_c 9.026556
_cell_angle_alpha 90.000000
_cell_angle_beta 90.000000
_cell_angle_gamma 90.000000
_cell_volume 3334.992069
_symmetry_space_group_name_H-M "A B M 2"
_symmetry_group_IT_number 39
_symmetry_cell_setting 'orthorhombic'
loop_
_space_group_symop_operation_xyz
x,y,z
-x,-y,z
-x,1/2+y,z
x,1/2-y,z
x,1/2+y,1/2+z
-x,1/2-y,1/2+z
-x,y,1/2+z
x,-y,1/2+z
loop_
_atom_site_type_symbol
_atom_site_label
_atom_site_fract_x
_atom_site_fract_y
_atom_site_fract_z
Si Si1 0.888646 0.530083 0.091370
Si Si2 0.855389 0.203057 0.106579
Si Si3 0.095467 0.297790 0.258018
Si Si4 0.797138 0.541046 0.778833
Si Si5 0.444936 0.543602 0.425336
Si Si6 0.778230 0.115044 0.729495
Si Si7 0.524655 0.596665 0.179370
Si Si8 0.272994 0.618027 0.080348
O O1 0.796405 0.498644 0.166473
O O2 0.856989 0.576263 0.165077
O O3 0.000000 0.500000 0.122762
O O4 0.886797 0.536638 0.913371
O O5 0.805882 0.250000 0.134421
O O6 0.770066 0.164524 0.124532
O O7 0.965984 0.197712 0.207255
O O8 0.895693 0.201708 0.935655
O O9 0.134054 0.250000 0.208707
O O10 0.164024 0.339044 0.202839
O O11 0.682859 0.542768 0.873373
O O12 0.795084 0.583133 0.678064
O O13 0.500000 0.500000 0.382284
O O14 0.501536 0.584455 0.348149
O O15 0.462816 0.551609 0.596894
O O16 0.650089 0.116270 0.662032
O O17 0.757995 0.109693 0.907369
O O18 0.406897 0.616174 0.120000
#
# Coordination Sequence:
#
# PCOD9361821 Si02
#       8
#     8   8   8   8   8   8   8   8
#     4  12  26  42  58  84 123 168 207 251 304 356
#     4   9  19  40  66  93 123 154 201 251 306 367
#     4   9  20  39  66  93 119 159 202 250 306 366
#     4  11  25  40  58  84 120 159 209 247 300 363
#     4  11  22  35  58  81 112 153 208 255 301 349
#     4  11  22  42  62  89 128 162 203 256 305 361
#     4  11  21  38  58  88 117 159 203 253 303 365
#     4  10  23  40  64  91 122 163 204 252 310 366
#
# _framework density 19.190450999999999
#
# number of rings (size 3 to 8) (size 9 to 14) (size 15 to 20)
#    0.000    1.500    2.500    2.250    5.250    1.000 
#    0.000    1.250    0.000    0.000    0.000    0.000 
#    0.000    0.000    0.000    0.000    0.000    0.000 
#
# Total GULP energy -178212.082648 kJ/mol
# GULP energy per Si atom -5569.127583 kJ/mol
# Density = 1.914677 g / cm^3
# Si number density = 19.190451 Si / 1000 Ang^3
#
#
#
# Elastic Constant Matrix: (Units=GPa)
#
#
# Indices 1 2 3 4 5 6 
#
# 1 77.4956 64.3430 26.2756 0.0000 0.0000 0.0000
# 2 64.3430 154.7960 58.5777 0.0000 0.0000 0.0000
# 3 26.2756 58.5777 72.7876 0.0000 0.0000 0.0000
# 4 0.0000 0.0000 0.0000 26.5178 0.0000 0.0000
# 5 0.0000 0.0000 0.0000 0.0000 33.2084 0.0000
# 6 0.0000 0.0000 0.0000 0.0000 0.0000 25.7604
#
#
#
# Elastic Compliance Matrix: (Units=1/GPa)
#
#
# Indices 1 2 3 4 5 6 
#
# 1 0.019733 -0.007918 -0.000751 0.000000 0.000000 0.000000
# 2 -0.007918 0.012466 -0.007174 0.000000 0.000000 0.000000
# 3 -0.000751 -0.007174 0.019783 0.000000 0.000000 0.000000
# 4 0.000000 0.000000 0.000000 0.037710 0.000000 0.000000
# 5 0.000000 0.000000 0.000000 0.000000 0.030113 0.000000
# 6 0.000000 0.000000 0.000000 0.000000 0.000000 0.038819
#
#
# Mechanical properties :
#
#
# Convention : Reuss Voigt Hill
#
# Bulk Modulus (GPa) = 49.27144 67.05243 58.16193
# Shear Modulus (GPa) = 25.37084 27.48951 26.43018
#
# Velocity S-wave (km/s) = 3.63995 3.78889 3.71517
# Velocity P-wave (km/s) = 6.58759 7.35916 6.98404
#
# Compressibility (1/GPa) = 0.02029573
#
# Stress axis : x y z
#
# Youngs Moduli (GPa) = 50.67720 80.21728 50.54757
#
# Poissons Ratio (x) = 0.63515 0.03797
# Poissons Ratio (y) = 0.40126 0.36264
# Poissons Ratio (z) = 0.03807 0.57549
#
# Static dielectric constant tensor:
#      x y z
#    x 1.725290 0.000000 0.000000 
#    y 0.000000 1.660710 0.000000 
#    z 0.000000 0.000000 1.676510 
# 
# From -- ./inp_files/2886.got.cif
#   From: 2010.05.17/outbox.cif.g08.bks.cpg/sg39_2_cif.got.tgz:2886.got - 2010.06.03 18:22:40.
