data_PCOD9361055
_publ_section_title
;
Structure prediction by ZEFSAII (Michael W. Deem and Ramdas Pophale) SiO2 
 PCOD9361055
Probable space group: A B M 2
;
_chemical_formula_sum "Si O2"
_cell_formula_units_Z 64
_cell_length_a 15.622375
_cell_length_b 14.910813
_cell_length_c 12.083612
_cell_angle_alpha 90.000000
_cell_angle_beta 90.000000
_cell_angle_gamma 90.000000
_cell_volume 2814.784520
_symmetry_space_group_name_H-M "A B M 2"
_symmetry_group_IT_number 39
_symmetry_cell_setting 'orthorhombic'
loop_
_space_group_symop_operation_xyz
x,y,z
-x,-y,z
-x,1/2+y,z
x,1/2-y,z
x,1/2+y,1/2+z
-x,1/2-y,1/2+z
-x,y,1/2+z
x,-y,1/2+z
loop_
_atom_site_type_symbol
_atom_site_label
_atom_site_fract_x
_atom_site_fract_y
_atom_site_fract_z
Si Si1 0.728286 0.351980 0.959010
Si Si2 0.367080 0.360321 0.050389
Si Si3 0.906371 0.613369 0.032875
Si Si4 0.091586 0.599844 0.069478
Si Si5 0.352005 0.649085 0.304273
Si Si6 0.222831 0.402764 0.217914
Si Si7 0.436089 0.860163 0.087821
Si Si8 0.166975 0.602161 0.290300
O O1 0.720876 0.250000 0.993321
O O2 0.741880 0.356095 0.827674
O O3 0.817234 0.381830 0.013618
O O4 0.638571 0.392289 0.003799
O O5 0.355771 0.250000 0.061791
O O6 0.303129 0.408233 0.134814
O O7 0.466350 0.383945 0.064814
O O8 0.345284 0.390520 0.925848
O O9 0.913378 0.506915 0.053624
O O10 0.850188 0.642477 0.139596
O O11 0.004841 0.643646 0.024025
O O12 0.860031 0.625340 0.914989
O O13 0.096759 0.624955 0.198772
O O14 0.385112 0.750000 0.321666
O O15 0.409519 0.606968 0.209901
O O16 0.255399 0.650415 0.261051
O O17 0.187535 0.497067 0.266741
O O18 0.436487 0.750000 0.088750
#
# Coordination Sequence:
#
# PCOD9361055 Si02
#       8
#     8   8   8   8   8   8   8   8
#     4  11  22  39  60  89 125 158 199 252 302 357
#     4  10  21  38  62  90 119 158 204 248 300 365
#     4  10  22  39  61  88 116 155 205 249 296 364
#     4  10  22  37  63  87 111 157 205 243 299 358
#     4  10  20  38  63  85 117 159 203 251 297 353
#     4  11  23  38  62  89 122 160 196 249 304 359
#     4   9  20  37  62  89 116 159 208 248 298 360
#     4  11  21  39  64  86 121 154 202 249 298 362
#
# _framework density 22.737086999999999
#
# number of rings (size 3 to 8) (size 9 to 14) (size 15 to 20)
#    0.000    1.750    3.750    0.375    3.500    1.000 
#    0.000    2.500    0.000    0.000    0.000    0.000 
#    0.000    0.000    0.000    0.000    0.000    0.000 
#
# Total GULP energy -178517.334069 kJ/mol
# GULP energy per Si atom -5578.666690 kJ/mol
# Density = 2.268534 g / cm^3
# Si number density = 22.737087 Si / 1000 Ang^3
#
#
#
# Elastic Constant Matrix: (Units=GPa)
#
#
# Indices 1 2 3 4 5 6 
#
# 1 134.8728 -10.7170 36.5417 0.0000 0.0000 0.0000
# 2 -10.7170 33.1521 -13.3875 0.0000 0.0000 0.0000
# 3 36.5417 -13.3875 113.9197 0.0000 0.0000 0.0000
# 4 0.0000 0.0000 0.0000 10.5675 0.0000 0.0000
# 5 0.0000 0.0000 0.0000 0.0000 27.3125 0.0000
# 6 0.0000 0.0000 0.0000 0.0000 0.0000 14.0181
#
#
#
# Elastic Compliance Matrix: (Units=1/GPa)
#
#
# Indices 1 2 3 4 5 6 
#
# 1 0.008207 0.001669 -0.002436 0.000000 0.000000 0.000000
# 2 0.001669 0.032006 0.003226 0.000000 0.000000 0.000000
# 3 -0.002436 0.003226 0.009939 0.000000 0.000000 0.000000
# 4 0.000000 0.000000 0.000000 0.094630 0.000000 0.000000
# 5 0.000000 0.000000 0.000000 0.000000 0.036613 0.000000
# 6 0.000000 0.000000 0.000000 0.000000 0.000000 0.071337
#
#
# Mechanical properties :
#
#
# Convention : Reuss Voigt Hill
#
# Bulk Modulus (GPa) = 18.15890 34.09099 26.12494
# Shear Modulus (GPa) = 18.78490 28.34677 23.56584
#
# Velocity S-wave (km/s) = 2.87745 3.53472 3.22289
# Velocity P-wave (km/s) = 4.36388 5.62895 5.03630
#
# Compressibility (1/GPa) = 0.05506943
#
# Stress axis : x y z
#
# Youngs Moduli (GPa) = 121.84516 31.24389 100.61648
#
# Poissons Ratio (x) = -0.05215 0.24514
# Poissons Ratio (y) = -0.20339 -0.32457
# Poissons Ratio (z) = 0.29687 -0.10079
#
# Static dielectric constant tensor:
#      x y z
#    x 1.915140 0.000000 0.000000 
#    y 0.000000 1.934540 0.000000 
#    z 0.000000 0.000000 1.835340 
# 
# From -- ./inp_files/6651.got.cif
#   From: 2010.05.17/outbox.cif.g08.bks.cpg/sg39_4_cif.got.tgz:6651.got - 2010.06.03 18:22:40.
