data_PCOD9361984
_publ_section_title
;
Structure prediction by ZEFSAII (Michael W. Deem and Ramdas Pophale) SiO2 
 PCOD9361984
Probable space group: A B M 2
;
_chemical_formula_sum "Si O2"
_cell_formula_units_Z 64
_cell_length_a 11.919818
_cell_length_b 17.354305
_cell_length_c 15.634191
_cell_angle_alpha 90.000000
_cell_angle_beta 90.000000
_cell_angle_gamma 90.000000
_cell_volume 3234.091207
_symmetry_space_group_name_H-M "A B M 2"
_symmetry_group_IT_number 39
_symmetry_cell_setting 'orthorhombic'
loop_
_space_group_symop_operation_xyz
x,y,z
-x,-y,z
-x,1/2+y,z
x,1/2-y,z
x,1/2+y,1/2+z
-x,1/2-y,1/2+z
-x,y,1/2+z
x,-y,1/2+z
loop_
_atom_site_type_symbol
_atom_site_label
_atom_site_fract_x
_atom_site_fract_y
_atom_site_fract_z
Si Si1 0.835141 0.091330 0.983660
Si Si2 0.778148 0.584309 0.938949
Si Si3 0.446232 0.584465 0.340004
Si Si4 0.751110 0.341102 0.612028
Si Si5 0.586912 0.659293 0.491253
Si Si6 0.476164 0.591061 0.659924
Si Si7 0.005409 0.406270 0.838474
Si Si8 0.999967 0.406871 0.642720
O O1 0.712948 0.127292 0.989825
O O2 0.896938 0.115706 0.895118
O O3 0.814508 0.998562 0.978454
O O4 0.913458 0.112196 0.065576
O O5 0.681357 0.574602 0.869204
O O6 0.888187 0.617455 0.894577
O O7 0.730874 0.638942 0.012659
O O8 0.500000 0.500000 0.336555
O O9 0.516493 0.629641 0.410606
O O10 0.462860 0.618629 0.245976
O O11 0.743574 0.250000 0.628803
O O12 0.655819 0.387857 0.663629
O O13 0.876337 0.373070 0.626109
O O14 0.590082 0.750000 0.490264
O O15 0.526618 0.630628 0.576854
O O16 0.500000 0.500000 0.650388
O O17 0.000000 0.500000 0.836267
O O18 0.022796 0.380907 0.740646
O O19 0.000000 0.500000 0.643211
#
# Coordination Sequence:
#
# PCOD9361984 Si02
#       8
#     8   8   8   8   8   8   8   8
#     4  11  21  41  65  96 129 172 224 272 331 399
#     4  11  20  42  69  91 129 171 220 285 327 403
#     4  11  24  42  71  99 126 170 230 281 340 408
#     4  12  25  43  67  96 135 180 225 277 347 418
#     4  12  26  42  63  95 137 175 215 278 347 413
#     4  11  26  44  70  99 129 175 232 288 337 414
#     4   9  21  36  63  99 124 159 221 272 322 388
#     4  11  22  39  70  97 127 175 220 276 336 400
#
# _framework density 19.789176000000001
#
# number of rings (size 3 to 8) (size 9 to 14) (size 15 to 20)
#    0.000    1.000    5.000    1.875    3.500    3.500 
#    0.000    0.625    0.000    0.000    0.000    0.000 
#    0.000    0.000    0.000    0.000    0.000    0.000 
#
# Total GULP energy -178703.238717 kJ/mol
# GULP energy per Si atom -5584.476210 kJ/mol
# Density = 1.974413 g / cm^3
# Si number density = 19.789176 Si / 1000 Ang^3
#
#
#
# Elastic Constant Matrix: (Units=GPa)
#
#
# Indices 1 2 3 4 5 6 
#
# 1 119.2697 25.5555 26.6880 0.0000 0.0000 0.0000
# 2 25.5555 70.7435 16.6871 0.0000 0.0000 0.0000
# 3 26.6880 16.6871 118.0928 0.0000 0.0000 0.0000
# 4 0.0000 0.0000 0.0000-8556.9002 0.0000 0.0000
# 5 0.0000 0.0000 0.0000 0.0000 30.4435 0.0000
# 6 0.0000 0.0000 0.0000 0.0000 0.0000 8.5865
#
#
#
# Elastic Compliance Matrix: (Units=1/GPa)
#
#
# Indices 1 2 3 4 5 6 
#
# 1 0.009407 -0.002997 -0.001703 0.000000 0.000000 0.000000
# 2 -0.002997 0.015578 -0.001524 0.000000 0.000000 0.000000
# 3 -0.001703 -0.001524 0.009068 0.000000 0.000000 0.000000
# 4 0.000000 0.000000 0.000000 -0.000117 0.000000 0.000000
# 5 0.000000 0.000000 0.000000 0.000000 0.032848 0.000000
# 6 0.000000 0.000000 0.000000 0.000000 0.000000 0.116462
#
#
# Mechanical properties :
#
#
# Convention : Reuss Voigt Hill
#
# Bulk Modulus (GPa) = 46.28228 49.55193 47.91710
# Shear Modulus (GPa) = 24.64328 -1687.62903 -831.49288
#
# Velocity S-wave (km/s) = 3.53270 -29.23449 -20.52042
# Velocity P-wave (km/s) = 6.33075 33.38332 23.17723
#
# Compressibility (1/GPa) = 0.02160654
#
# Stress axis : x y z
#
# Youngs Moduli (GPa) = 106.29897 64.19469 110.27762
#
# Poissons Ratio (x) = 0.19238 0.18775
# Poissons Ratio (y) = 0.31855 0.16806
# Poissons Ratio (z) = 0.18098 0.09783
#
# Static dielectric constant tensor:
#      x y z
#    x 1.651050 0.000000 0.000000 
#    y 0.000000 9.530150 0.000000 
#    z 0.000000 0.000000 1.739590 
# 
# From -- ./inp_files/9441.got.cif
#   From: 2010.05.17/outbox.cif.g08.bks.cpg/sg39_5_cif.got.tgz:9441.got - 2010.06.03 18:22:40.
