data_PCOD9361828
_publ_section_title
;
Structure prediction by ZEFSAII (Michael W. Deem and Ramdas Pophale) SiO2 
 PCOD9361828
Probable space group: A B M 2
;
_chemical_formula_sum "Si O2"
_cell_formula_units_Z 56
_cell_length_a 5.124220
_cell_length_b 15.060736
_cell_length_c 30.344612
_cell_angle_alpha 90.000000
_cell_angle_beta 90.000000
_cell_angle_gamma 90.000000
_cell_volume 2341.831006
_symmetry_space_group_name_H-M "A B M 2"
_symmetry_group_IT_number 39
_symmetry_cell_setting 'orthorhombic'
loop_
_space_group_symop_operation_xyz
x,y,z
-x,-y,z
-x,1/2+y,z
x,1/2-y,z
x,1/2+y,1/2+z
-x,1/2-y,1/2+z
-x,y,1/2+z
x,-y,1/2+z
loop_
_atom_site_type_symbol
_atom_site_label
_atom_site_fract_x
_atom_site_fract_y
_atom_site_fract_z
Si Si1 0.134417 0.648609 0.592080
Si Si2 0.835153 0.846300 0.679868
Si Si3 0.627868 0.092386 0.044872
Si Si4 0.460584 0.250000 0.980468
Si Si5 0.934114 0.649362 0.362798
Si Si6 0.586502 0.902401 0.914314
Si Si7 0.876772 0.902747 0.263690
Si Si8 0.500000 0.000000 0.204250
O O1 0.116334 0.750000 0.574919
O O2 0.059292 0.649292 0.643045
O O3 0.918441 0.594152 0.564601
O O4 0.426796 0.618484 0.583790
O O5 0.699253 0.750000 0.672866
O O6 0.950662 0.848456 0.729130
O O7 0.692173 0.940729 0.675627
O O8 0.500000 0.000000 0.028925
O O9 0.604403 0.170918 0.009522
O O10 0.327707 0.169988 0.950220
O O11 0.028077 0.750000 0.367373
O O12 0.675327 0.636150 0.391731
O O13 0.856442 0.635618 0.312010
O O14 0.175923 0.589769 0.379387
O O15 0.500000 0.000000 0.929789
O O16 0.617281 0.925240 0.236690
O O17 0.000000 0.000000 0.269002
#
# Coordination Sequence:
#
# PCOD9361828 Si02
#       8
#     8   8   8   4   8   8   8   4
#     4  11  24  48  71 108 150 191 243 300 358 435
#     4  10  24  42  69 103 147 198 247 296 361 420
#     4  12  27  46  78 108 144 192 237 302 367 439
#     4  12  26  54  76 110 148 180 246 302 378 442
#     4  12  25  47  72 109 148 192 243 300 357 433
#     4  12  27  48  77 108 145 192 237 301 367 440
#     4  10  23  41  65 100 146 191 244 294 352 413
#     4  10  24  42  66 106 142 198 238 320 334 434
#
# _framework density 23.912911000000001
#
# number of rings (size 3 to 8) (size 9 to 14) (size 15 to 20)
#    0.000    0.857    2.857    2.571    8.000    5.714 
#    0.000    2.857    0.000    0.000    0.000    0.000 
#    0.000    0.000    0.000    0.000    0.000    0.000 
#
# Total GULP energy -156024.554853 kJ/mol
# GULP energy per Si atom -5572.305530 kJ/mol
# Density = 2.385848 g / cm^3
# Si number density = 23.912911 Si / 1000 Ang^3
#
#
#
# Elastic Constant Matrix: (Units=GPa)
#
#
# Indices 1 2 3 4 5 6 
#
# 1 65.3259 2.7167 -11.8531 0.0000 0.0000 0.0000
# 2 2.7167 163.9234 9.2778 0.0000 0.0000 0.0000
# 3 -11.8531 9.2778 47.0768 0.0000 0.0000 0.0000
# 4 0.0000 0.0000 0.0000 -58.6869 0.0000 0.0000
# 5 0.0000 0.0000 0.0000 0.0000 -3.5167 0.0000
# 6 0.0000 0.0000 0.0000 0.0000 0.0000 27.5522
#
#
#
# Elastic Compliance Matrix: (Units=1/GPa)
#
#
# Indices 1 2 3 4 5 6 
#
# 1 0.016081 -0.000501 0.004148 0.000000 0.000000 0.000000
# 2 -0.000501 0.006185 -0.001345 0.000000 0.000000 0.000000
# 3 0.004148 -0.001345 0.022551 0.000000 0.000000 0.000000
# 4 0.000000 0.000000 0.000000 -0.017040 0.000000 0.000000
# 5 0.000000 0.000000 0.000000 0.000000 -0.284356 0.000000
# 6 0.000000 0.000000 0.000000 0.000000 0.000000 0.036295
#
#
# Mechanical properties :
#
#
# Convention : Reuss Voigt Hill
#
# Bulk Modulus (GPa) = 20.23463 30.73433 25.48448
# Shear Modulus (GPa) = -23.99088 11.48205 -6.25442
#
# Velocity S-wave (km/s) = -3.17087 2.19364 -1.61900
# Velocity P-wave (km/s) = 2.21939 4.39278 2.68057
#
# Compressibility (1/GPa) = 0.04942024
#
# Stress axis : x y z
#
# Youngs Moduli (GPa) = 62.18403 161.68544 44.34334
#
# Poissons Ratio (x) = 0.08105 -0.18393
# Poissons Ratio (y) = 0.03117 0.05965
# Poissons Ratio (z) = -0.25793 0.21749
#
# Static dielectric constant tensor:
#      x y z
#    x 1.970000 0.000000 0.000000 
#    y 0.000000 1.983070 0.000000 
#    z 0.000000 0.000000 1.941220 
# 
# From -- ./inp_files/17349.got.cif
#   From: 2010.05.17/outbox.cif.g08.bks.cpg/sg39_9_cif.got.tgz:17349.got - 2010.06.03 18:22:40.
