data_PCOD9361155
_publ_section_title
;
Structure prediction by ZEFSAII (Michael W. Deem and Ramdas Pophale) SiO2 
 PCOD9361155
Probable space group: A B M 2
;
_chemical_formula_sum "Si O2"
_cell_formula_units_Z 48
_cell_length_a 9.087777
_cell_length_b 24.039698
_cell_length_c 10.327795
_cell_angle_alpha 90.000000
_cell_angle_beta 90.000000
_cell_angle_gamma 90.000000
_cell_volume 2256.286672
_symmetry_space_group_name_H-M "A B M 2"
_symmetry_group_IT_number 39
_symmetry_cell_setting 'orthorhombic'
loop_
_space_group_symop_operation_xyz
x,y,z
-x,-y,z
-x,1/2+y,z
x,1/2-y,z
x,1/2+y,1/2+z
-x,1/2-y,1/2+z
-x,y,1/2+z
x,-y,1/2+z
loop_
_atom_site_type_symbol
_atom_site_label
_atom_site_fract_x
_atom_site_fract_y
_atom_site_fract_z
Si Si1 0.804885 0.750000 0.789090
Si Si2 0.686091 0.629035 0.753668
Si Si3 0.819707 0.082545 0.507970
Si Si4 0.045625 0.750000 0.009808
Si Si5 0.879679 0.128256 0.009237
Si Si6 0.421691 0.447057 0.190014
Si Si7 0.850997 0.021748 0.853657
O O1 0.702922 0.695420 0.772522
O O2 0.925659 0.750000 0.668543
O O3 0.891462 0.750000 0.927838
O O4 0.790892 0.605608 0.865335
O O5 0.754558 0.616658 0.613377
O O6 0.533188 0.595349 0.759760
O O7 0.674634 0.088585 0.591435
O O8 0.959390 0.113521 0.567637
O O9 0.843703 0.017110 0.481073
O O10 0.120971 0.807706 0.969426
O O11 0.869270 0.085452 0.892738
O O12 0.500000 0.500000 0.123479
O O13 0.302897 0.478561 0.280577
O O14 0.000000 0.000000 0.784304
#
# Coordination Sequence:
#
# PCOD9361155 Si02
#       7
#     4   8   8   4   8   8   8
#     4  10  22  44  68 100 134 182 228 298 336 408
#     4  11  24  43  67  97 136 171 223 281 339 402
#     4  11  24  40  65  93 130 176 218 273 335 404
#     4  10  20  40  72  96 132 172 232 282 340 388
#     4  10  23  42  68  96 127 170 226 280 330 397
#     4  12  26  39  66  94 138 175 218 265 348 410
#     4  10  24  41  65  96 134 171 222 276 332 406
#
# _framework density 21.273892
#
# number of rings (size 3 to 8) (size 9 to 14) (size 15 to 20)
#    0.000    1.333    3.333    1.000    9.333    0.667 
#    0.000    2.500    0.000    0.000    0.000    0.000 
#    0.000    0.000    0.000    0.000    0.000    0.000 
#
# Total GULP energy -133840.102218 kJ/mol
# GULP energy per Si atom -5576.670926 kJ/mol
# Density = 2.122547 g / cm^3
# Si number density = 21.273892 Si / 1000 Ang^3
#
#
#
# Elastic Constant Matrix: (Units=GPa)
#
#
# Indices 1 2 3 4 5 6 
#
# 1 94.6416 30.6782 12.0376 0.0000 0.0000 0.0000
# 2 30.6782 128.4964 19.5749 0.0000 0.0000 0.0000
# 3 12.0376 19.5749 29.0414 0.0000 0.0000 0.0000
# 4 0.0000 0.0000 0.0000 23.4398 0.0000 0.0000
# 5 0.0000 0.0000 0.0000 0.0000 15.5515 0.0000
# 6 0.0000 0.0000 0.0000 0.0000 0.0000 25.1272
#
#
#
# Elastic Compliance Matrix: (Units=1/GPa)
#
#
# Indices 1 2 3 4 5 6 
#
# 1 0.011732 -0.002296 -0.003315 0.000000 0.000000 0.000000
# 2 -0.002296 0.009122 -0.005197 0.000000 0.000000 0.000000
# 3 -0.003315 -0.005197 0.039311 0.000000 0.000000 0.000000
# 4 0.000000 0.000000 0.000000 0.042663 0.000000 0.000000
# 5 0.000000 0.000000 0.000000 0.000000 0.064303 0.000000
# 6 0.000000 0.000000 0.000000 0.000000 0.000000 0.039797
#
#
# Mechanical properties :
#
#
# Convention : Reuss Voigt Hill
#
# Bulk Modulus (GPa) = 25.94140 41.86232 33.90186
# Shear Modulus (GPa) = 20.71304 25.48294 23.09799
#
# Velocity S-wave (km/s) = 3.12370 3.46475 3.29864
# Velocity P-wave (km/s) = 5.02300 5.97717 5.52073
#
# Compressibility (1/GPa) = 0.03854843
#
# Stress axis : x y z
#
# Youngs Moduli (GPa) = 85.23625 109.62303 25.43828
#
# Poissons Ratio (x) = 0.25169 0.08434
# Poissons Ratio (y) = 0.19570 0.13220
# Poissons Ratio (z) = 0.28259 0.56971
#
# Static dielectric constant tensor:
#      x y z
#    x 1.841930 0.000000 0.000000 
#    y 0.000000 1.803730 0.000000 
#    z 0.000000 0.000000 1.777260 
# 
# From -- ./inp_files/5206.got.cif
#   From: 2010.05.17/outbox.cif.g08.bks.cpg/sg39_3_cif.got.tgz:5206.got - 2010.06.03 18:22:40.
