data_PCOD9361286
_publ_section_title
;
Structure prediction by ZEFSAII (Michael W. Deem and Ramdas Pophale) SiO2 
 PCOD9361286
Probable space group: A B M 2
;
_chemical_formula_sum "Si O2"
_cell_formula_units_Z 64
_cell_length_a 19.154498
_cell_length_b 9.365172
_cell_length_c 19.971320
_cell_angle_alpha 90.000000
_cell_angle_beta 90.000000
_cell_angle_gamma 90.000000
_cell_volume 3582.558600
_symmetry_space_group_name_H-M "A B M 2"
_symmetry_group_IT_number 39
_symmetry_cell_setting 'orthorhombic'
loop_
_space_group_symop_operation_xyz
x,y,z
-x,-y,z
-x,1/2+y,z
x,1/2-y,z
x,1/2+y,1/2+z
-x,1/2-y,1/2+z
-x,y,1/2+z
x,-y,1/2+z
loop_
_atom_site_type_symbol
_atom_site_label
_atom_site_fract_x
_atom_site_fract_y
_atom_site_fract_z
Si Si1 0.926303 0.579143 0.310940
Si Si2 0.799622 0.921562 0.562974
Si Si3 0.345057 0.083662 0.743467
Si Si4 0.428658 0.413884 0.134891
Si Si5 0.665958 0.084026 0.505636
Si Si6 0.573740 0.420184 0.381793
Si Si7 0.927442 0.920062 0.466671
Si Si8 0.185506 0.419475 0.720462
O O1 0.932930 0.750000 0.301953
O O2 0.906713 0.552385 0.389114
O O3 0.869984 0.512212 0.260926
O O4 0.000000 0.500000 0.299977
O O5 0.790983 0.750000 0.559472
O O6 0.866870 0.961406 0.518411
O O7 0.809915 0.957370 0.641458
O O8 0.731713 0.995689 0.531796
O O9 0.353340 0.250000 0.723380
O O10 0.389680 0.059598 0.810166
O O11 0.262599 0.059694 0.751450
O O12 0.374741 0.983398 0.686187
O O13 0.500000 0.500000 0.136843
O O14 0.442008 0.250000 0.152870
O O15 0.393510 0.420199 0.062323
O O16 0.686985 0.250000 0.496291
O O17 0.629001 0.031535 0.438042
O O18 0.500000 0.500000 0.385992
O O19 0.562317 0.250000 0.391633
O O20 0.938661 0.750000 0.472931
O O21 0.000000 0.000000 0.479759
O O22 0.168330 0.250000 0.725015
#
# Coordination Sequence:
#
# PCOD9361286 Si02
#       8
#     8   8   8   8   8   8   8   8
#     4  10  21  38  60  86 117 150 189 232 276 330
#     4  10  21  38  59  84 116 150 188 230 278 335
#     4  10  21  38  58  82 114 150 188 231 282 338
#     4  11  22  36  57  82 110 145 188 233 281 336
#     4  10  22  38  56  82 112 145 188 234 280 335
#     4  10  22  39  57  81 111 145 189 236 284 340
#     4   9  20  38  59  86 115 148 188 230 275 329
#     4  10  21  37  58  85 117 153 188 230 282 335
#
# _framework density 17.864325999999998
#
# number of rings (size 3 to 8) (size 9 to 14) (size 15 to 20)
#    0.000    2.000    1.250    1.500    1.750    5.000 
#    0.000    1.250    0.000    0.000    0.000    0.000 
#    0.000    0.000    0.000    0.000    0.000    0.000 
#
# Total GULP energy -178652.052310 kJ/mol
# GULP energy per Si atom -5582.876635 kJ/mol
# Density = 1.782367 g / cm^3
# Si number density = 17.864326 Si / 1000 Ang^3
#
#
#
# Elastic Constant Matrix: (Units=GPa)
#
#
# Indices 1 2 3 4 5 6 
#
# 1 92.4291 42.0093 30.8675 0.0000 0.0000 0.0000
# 2 42.0093 47.4684 28.7378 0.0000 0.0000 0.0000
# 3 30.8675 28.7378 53.5352 0.0000 0.0000 0.0000
# 4 0.0000 0.0000 0.0000 24.3632 0.0000 0.0000
# 5 0.0000 0.0000 0.0000 0.0000 -94.6512 0.0000
# 6 0.0000 0.0000 0.0000 0.0000 0.0000 38.6875
#
#
#
# Elastic Compliance Matrix: (Units=1/GPa)
#
#
# Indices 1 2 3 4 5 6 
#
# 1 0.018371 -0.014586 -0.002763 0.000000 0.000000 0.000000
# 2 -0.014586 0.042789 -0.014560 0.000000 0.000000 0.000000
# 3 -0.002763 -0.014560 0.028088 0.000000 0.000000 0.000000
# 4 0.000000 0.000000 0.000000 0.041045 0.000000 0.000000
# 5 0.000000 0.000000 0.000000 0.000000 -0.010565 0.000000
# 6 0.000000 0.000000 0.000000 0.000000 0.000000 0.025848
#
#
# Mechanical properties :
#
#
# Convention : Reuss Voigt Hill
#
# Bulk Modulus (GPa) = 39.32018 44.07352 41.69685
# Shear Modulus (GPa) = 22.94945 -0.19888 11.37528
#
# Velocity S-wave (km/s) = 3.58809 -0.33402 2.52615
# Velocity P-wave (km/s) = 6.26292 4.95742 5.64802
#
# Compressibility (1/GPa) = 0.02543223
#
# Stress axis : x y z
#
# Youngs Moduli (GPa) = 54.43368 23.37029 35.60253
#
# Poissons Ratio (x) = 0.34087 0.09836
# Poissons Ratio (y) = 0.79395 0.51836
# Poissons Ratio (z) = 0.15039 0.34026
#
# Static dielectric constant tensor:
#      x y z
#    x 1.603070 0.000000 0.000000 
#    y 0.000000 1.600420 0.000000 
#    z 0.000000 0.000000 1.607880 
# 
# From -- ./inp_files/13155.got.cif
#   From: 2010.05.17/outbox.cif.g08.bks.cpg/sg39_7_cif.got.tgz:13155.got - 2010.06.03 18:22:40.
