data_PCOD9361353
_publ_section_title
;
Structure prediction by ZEFSAII (Michael W. Deem and Ramdas Pophale) SiO2 
 PCOD9361353
Probable space group: A B M 2
;
_chemical_formula_sum "Si O2"
_cell_formula_units_Z 64
_cell_length_a 24.416373
_cell_length_b 8.589043
_cell_length_c 15.599092
_cell_angle_alpha 90.000000
_cell_angle_beta 90.000000
_cell_angle_gamma 90.000000
_cell_volume 3271.336711
_symmetry_space_group_name_H-M "A B M 2"
_symmetry_group_IT_number 39
_symmetry_cell_setting 'orthorhombic'
loop_
_space_group_symop_operation_xyz
x,y,z
-x,-y,z
-x,1/2+y,z
x,1/2-y,z
x,1/2+y,1/2+z
-x,1/2-y,1/2+z
-x,y,1/2+z
x,-y,1/2+z
loop_
_atom_site_type_symbol
_atom_site_label
_atom_site_fract_x
_atom_site_fract_y
_atom_site_fract_z
Si Si1 0.748687 0.567055 0.442050
Si Si2 0.439027 0.436714 0.307126
Si Si3 0.880491 0.062950 0.711650
Si Si4 0.939902 0.062201 0.539318
Si Si5 0.641977 0.438708 0.657110
Si Si6 0.139986 0.065264 0.887346
Si Si7 0.631124 0.935734 0.959572
Si Si8 0.236386 0.937411 0.630986
O O1 0.739906 0.750000 0.432483
O O2 0.800539 0.514031 0.387009
O O3 0.691399 0.481406 0.425396
O O4 0.764173 0.521769 0.539579
O O5 0.500000 0.500000 0.296354
O O6 0.439940 0.250000 0.304838
O O7 0.399497 0.494110 0.229927
O O8 0.413424 0.490343 0.397245
O O9 0.884356 0.250000 0.722523
O O10 0.919579 0.014810 0.633693
O O11 0.818226 0.026591 0.682683
O O12 0.891146 0.978800 0.800664
O O13 0.940627 0.250000 0.537363
O O14 0.895460 0.011210 0.468847
O O15 0.000000 0.000000 0.520537
O O16 0.639322 0.250000 0.656848
O O17 0.628448 0.489032 0.559402
O O18 0.705632 0.478646 0.674429
O O19 0.147795 0.250000 0.894421
O O20 0.625448 0.750000 0.958913
O O21 0.236576 0.750000 0.614951
#
# Coordination Sequence:
#
# PCOD9361353 Si02
#       8
#     8   8   8   8   8   8   8   8
#     4  11  21  35  59  91 124 160 201 247 301 367
#     4  11  23  40  60  87 119 159 205 249 297 361
#     4  10  21  38  61  90 122 158 198 246 307 362
#     4  10  23  43  64  85 120 163 204 251 304 359
#     4   8  18  36  60  85 115 155 195 238 295 353
#     4  11  23  40  60  89 123 160 203 251 303 360
#     4  10  21  40  62  88 120 159 199 250 306 358
#     4   9  17  36  61  85 121 159 193 245 308 361
#
# _framework density 19.563870000000001
#
# number of rings (size 3 to 8) (size 9 to 14) (size 15 to 20)
#    0.000    2.000    1.250    3.000    1.750    3.000 
#    0.000   10.000    0.000    0.000    0.000    0.000 
#    0.000    0.000    0.000    0.000    0.000    0.000 
#
# Total GULP energy -178731.739253 kJ/mol
# GULP energy per Si atom -5585.366852 kJ/mol
# Density = 1.951934 g / cm^3
# Si number density = 19.563870 Si / 1000 Ang^3
#
#
#
# Elastic Constant Matrix: (Units=GPa)
#
#
# Indices 1 2 3 4 5 6 
#
# 1 68.7233 8.8996 2.7025 0.0000 0.0000 0.0000
# 2 8.8996 30.5309 6.6054 0.0000 0.0000 0.0000
# 3 2.7025 6.6054 37.2467 0.0000 0.0000 0.0000
# 4 0.0000 0.0000 0.0000 22.7400 0.0000 0.0000
# 5 0.0000 0.0000 0.0000 0.0000 20.6007 0.0000
# 6 0.0000 0.0000 0.0000 0.0000 0.0000 28.2466
#
#
#
# Elastic Compliance Matrix: (Units=1/GPa)
#
#
# Indices 1 2 3 4 5 6 
#
# 1 0.015126 -0.004338 -0.000328 0.000000 0.000000 0.000000
# 2 -0.004338 0.035305 -0.005946 0.000000 0.000000 0.000000
# 3 -0.000328 -0.005946 0.027926 0.000000 0.000000 0.000000
# 4 0.000000 0.000000 0.000000 0.043975 0.000000 0.000000
# 5 0.000000 0.000000 0.000000 0.000000 0.048542 0.000000
# 6 0.000000 0.000000 0.000000 0.000000 0.000000 0.035402
#
#
# Mechanical properties :
#
#
# Convention : Reuss Voigt Hill
#
# Bulk Modulus (GPa) = 17.50339 19.21289 18.35814
# Shear Modulus (GPa) = 20.28022 22.20369 21.24195
#
# Velocity S-wave (km/s) = 3.22314 3.37253 3.29868
# Velocity P-wave (km/s) = 4.77679 5.00072 4.89004
#
# Compressibility (1/GPa) = 0.05713179
#
# Stress axis : x y z
#
# Youngs Moduli (GPa) = 66.11228 28.32486 35.80845
#
# Poissons Ratio (x) = 0.12288 0.01175
# Poissons Ratio (y) = 0.28680 0.21293
# Poissons Ratio (z) = 0.02169 0.16843
#
# Static dielectric constant tensor:
#      x y z
#    x 1.667230 0.000000 0.000000 
#    y 0.000000 1.666400 0.000000 
#    z 0.000000 0.000000 1.700720 
# 
# From -- ./inp_files/10587.got.cif
#   From: 2010.05.17/outbox.cif.g08.bks.cpg/sg39_6_cif.got.tgz:10587.got - 2010.06.03 18:22:40.
