data_PCOD9361894
_publ_section_title
;
Structure prediction by ZEFSAII (Michael W. Deem and Ramdas Pophale) SiO2 
 PCOD9361894
Probable space group: A B M 2
;
_chemical_formula_sum "Si O2"
_cell_formula_units_Z 32
_cell_length_a 7.420647
_cell_length_b 15.593727
_cell_length_c 11.219622
_cell_angle_alpha 90.000000
_cell_angle_beta 90.000000
_cell_angle_gamma 90.000000
_cell_volume 1298.284657
_symmetry_space_group_name_H-M "A B M 2"
_symmetry_group_IT_number 39
_symmetry_cell_setting 'orthorhombic'
loop_
_space_group_symop_operation_xyz
x,y,z
-x,-y,z
-x,1/2+y,z
x,1/2-y,z
x,1/2+y,1/2+z
-x,1/2-y,1/2+z
-x,y,1/2+z
x,-y,1/2+z
loop_
_atom_site_type_symbol
_atom_site_label
_atom_site_fract_x
_atom_site_fract_y
_atom_site_fract_z
Si Si1 0.798259 0.516752 0.077860
Si Si2 0.504707 0.912289 0.266065
Si Si3 0.225880 0.843091 0.931124
Si Si4 0.162249 0.849381 0.361300
O O1 0.641757 0.556048 0.162439
O O2 0.000000 0.500000 0.131400
O O3 0.757932 0.425187 0.015616
O O4 0.814337 0.588292 0.974326
O O5 0.603504 0.843243 0.345663
O O6 0.298380 0.881433 0.258871
O O7 0.500000 0.000000 0.341587
O O8 0.206796 0.750000 0.992371
O O9 0.052592 0.854094 0.844370
O O10 0.202710 0.750000 0.387913
#
# Coordination Sequence:
#
# PCOD9361894 Si02
#       4
#     8   8   8   8
#     4  10  24  44  73 103 143 187 236 290 359 428
#     4  12  25  39  71 102 139 182 231 293 349 417
#     4  10  23  48  73 100 140 187 234 292 355 425
#     4  10  23  46  72 101 143 185 235 294 357 425
#
# _framework density 24.64791
#
# number of rings (size 3 to 8) (size 9 to 14) (size 15 to 20)
#    0.000    1.500    2.500    0.750    7.000    2.000 
#    0.000    2.500    0.000    0.000    0.000    0.000 
#    0.000    0.000    0.000    0.000    0.000    0.000 
#
# Total GULP energy -89206.856531 kJ/mol
# GULP energy per Si atom -5575.428533 kJ/mol
# Density = 2.459181 g / cm^3
# Si number density = 24.647910 Si / 1000 Ang^3
#
#
#
# Elastic Constant Matrix: (Units=GPa)
#
#
# Indices 1 2 3 4 5 6 
#
# 1 139.4655 18.8088 68.0707 0.0000 0.0000 0.0000
# 2 18.8088 185.1653 44.9209 0.0000 0.0000 0.0000
# 3 68.0707 44.9209 51.2761 0.0000 0.0000 0.0000
# 4 0.0000 0.0000 0.0000 17.6144 0.0000 0.0000
# 5 0.0000 0.0000 0.0000 0.0000 44.2395 0.0000
# 6 0.0000 0.0000 0.0000 0.0000 0.0000 37.2464
#
#
#
# Elastic Compliance Matrix: (Units=1/GPa)
#
#
# Indices 1 2 3 4 5 6 
#
# 1 0.026547 0.007433 -0.041754 0.000000 0.000000 0.000000
# 2 0.007433 0.008939 -0.017698 0.000000 0.000000 0.000000
# 3 -0.041754 -0.017698 0.090436 0.000000 0.000000 0.000000
# 4 0.000000 0.000000 0.000000 0.056772 0.000000 0.000000
# 5 0.000000 0.000000 0.000000 0.000000 0.022604 0.000000
# 6 0.000000 0.000000 0.000000 0.000000 0.000000 0.026848
#
#
# Mechanical properties :
#
#
# Convention : Reuss Voigt Hill
#
# Bulk Modulus (GPa) = 45.69549 71.05643 58.37596
# Shear Modulus (GPa) = 14.55690 36.09383 25.32536
#
# Velocity S-wave (km/s) = 2.43285 3.83087 3.20892
# Velocity P-wave (km/s) = 5.14502 6.96122 6.12086
#
# Compressibility (1/GPa) = 0.02188400
#
# Stress axis : x y z
#
# Youngs Moduli (GPa) = 37.66904 111.86686 11.05751
#
# Poissons Ratio (x) = -0.83148 0.46169
# Poissons Ratio (y) = -0.27998 0.19570
# Poissons Ratio (z) = 1.57281 1.97987
#
# Static dielectric constant tensor:
#      x y z
#    x 2.075650 0.000000 0.000000 
#    y 0.000000 1.943140 0.000000 
#    z 0.000000 0.000000 1.979070 
# 
# From -- ./inp_files/4800.got.cif
#   From: 2010.05.17/outbox.cif.g08.bks.cpg/sg39_3_cif.got.tgz:4800.got - 2010.06.03 18:22:40.
