data_PCOD9361684
_publ_section_title
;
Structure prediction by ZEFSAII (Michael W. Deem and Ramdas Pophale) SiO2 
 PCOD9361684
Probable space group: A B M 2
;
_chemical_formula_sum "Si O2"
_cell_formula_units_Z 60
_cell_length_a 19.195751
_cell_length_b 7.833712
_cell_length_c 18.201661
_cell_angle_alpha 90.000000
_cell_angle_beta 90.000000
_cell_angle_gamma 90.000000
_cell_volume 2737.056297
_symmetry_space_group_name_H-M "A B M 2"
_symmetry_group_IT_number 39
_symmetry_cell_setting 'orthorhombic'
loop_
_space_group_symop_operation_xyz
x,y,z
-x,-y,z
-x,1/2+y,z
x,1/2-y,z
x,1/2+y,1/2+z
-x,1/2-y,1/2+z
-x,y,1/2+z
x,-y,1/2+z
loop_
_atom_site_type_symbol
_atom_site_label
_atom_site_fract_x
_atom_site_fract_y
_atom_site_fract_z
Si Si1 0.363549 0.067452 0.878660
Si Si2 0.788851 0.447556 0.558950
Si Si3 0.669696 0.949305 0.668402
Si Si4 0.639545 0.250000 0.784617
Si Si5 0.921986 0.046018 0.143151
Si Si6 0.921319 0.046198 0.313606
Si Si7 0.419834 0.951562 0.029193
Si Si8 0.217885 0.560765 0.893971
O O1 0.392038 0.250000 0.854921
O O2 0.392483 0.902515 0.838119
O O3 0.279633 0.060933 0.868248
O O4 0.377065 0.044976 0.965565
O O5 0.769173 0.250000 0.547713
O O6 0.738594 0.532538 0.618563
O O7 0.865862 0.458539 0.592011
O O8 0.786927 0.543022 0.481315
O O9 0.664444 0.750000 0.692781
O O10 0.607786 0.989613 0.610707
O O11 0.668496 0.096020 0.729197
O O12 0.912372 0.250000 0.140266
O O13 0.914269 0.990910 0.228445
O O14 0.000000 0.000000 0.120422
O O15 0.914877 0.250000 0.316772
O O16 0.857547 0.969811 0.359437
O O17 0.000000 0.000000 0.337952
O O18 0.409451 0.750000 0.018678
O O19 0.500000 0.000000 0.022093
O O20 0.244524 0.750000 0.871797
#
# Coordination Sequence:
#
# PCOD9361684 Si02
#       8
#     8   8   8   4   8   8   8   8
#     4  12  25  45  72 107 145 185 238 294 352 421
#     4  12  24  40  64  96 131 173 224 289 345 413
#     4  11  25  45  71 107 144 183 238 294 352 421
#     4  12  26  46  70 108 146 190 232 296 358 420
#     4  10  22  40  61  89 125 170 221 277 343 419
#     4  10  22  40  61  90 125 171 222 277 346 419
#     4  11  24  46  79 110 142 192 244 284 345 428
#     4  12  24  41  64  96 132 173 226 291 345 414
#
# _framework density 21.92136
#
# number of rings (size 3 to 8) (size 9 to 14) (size 15 to 20)
#    0.000    0.800    3.333    4.000    3.733    2.133 
#    0.000    3.333    0.000    0.000    0.000    0.000 
#    0.000    0.000    0.000    0.000    0.000    0.000 
#
# Total GULP energy -167337.367615 kJ/mol
# GULP energy per Si atom -5577.912254 kJ/mol
# Density = 2.187147 g / cm^3
# Si number density = 21.921360 Si / 1000 Ang^3
#
#
#
# Elastic Constant Matrix: (Units=GPa)
#
#
# Indices 1 2 3 4 5 6 
#
# 1 71.7405 4.0654 5.1740 0.0000 0.0000 0.0000
# 2 4.0654 146.5446 18.5992 0.0000 0.0000 0.0000
# 3 5.1740 18.5992 54.9668 0.0000 0.0000 0.0000
# 4 0.0000 0.0000 0.0000 -2.7072 0.0000 0.0000
# 5 0.0000 0.0000 0.0000 0.0000 -37.9451 0.0000
# 6 0.0000 0.0000 0.0000 0.0000 0.0000 32.2380
#
#
#
# Elastic Compliance Matrix: (Units=1/GPa)
#
#
# Indices 1 2 3 4 5 6 
#
# 1 0.014042 -0.000232 -0.001243 0.000000 0.000000 0.000000
# 2 -0.000232 0.007134 -0.002392 0.000000 0.000000 0.000000
# 3 -0.001243 -0.002392 0.019119 0.000000 0.000000 0.000000
# 4 0.000000 0.000000 0.000000 -0.369388 0.000000 0.000000
# 5 0.000000 0.000000 0.000000 0.000000 -0.026354 0.000000
# 6 0.000000 0.000000 0.000000 0.000000 0.000000 0.031019
#
#
# Mechanical properties :
#
#
# Convention : Reuss Voigt Hill
#
# Bulk Modulus (GPa) = 30.71186 36.54767 33.62977
# Shear Modulus (GPa) = -16.34844 14.67804 -0.83520
#
# Velocity S-wave (km/s) = -2.73385 2.59043 -0.61792
# Velocity P-wave (km/s) = 2.01870 5.06512 3.85555
#
# Compressibility (1/GPa) = 0.03256071
#
# Stress axis : x y z
#
# Youngs Moduli (GPa) = 71.21532 140.17602 52.30336
#
# Poissons Ratio (x) = 0.03248 0.06503
# Poissons Ratio (y) = 0.01650 0.12511
# Poissons Ratio (z) = 0.08854 0.33531
#
# Static dielectric constant tensor:
#      x y z
#    x 1.784130 0.000000 0.000000 
#    y 0.000000 1.817900 0.000000 
#    z 0.000000 0.000000 1.838750 
# 
# From -- ./inp_files/12957.got.cif
#   From: 2010.05.17/outbox.cif.g08.bks.cpg/sg39_7_cif.got.tgz:12957.got - 2010.06.03 18:22:40.
