data_PCOD9361590
_publ_section_title
;
Structure prediction by ZEFSAII (Michael W. Deem and Ramdas Pophale) SiO2 
 PCOD9361590
Probable space group: A B M 2
;
_chemical_formula_sum "Si O2"
_cell_formula_units_Z 48
_cell_length_a 14.620101
_cell_length_b 22.081740
_cell_length_c 7.808074
_cell_angle_alpha 90.000000
_cell_angle_beta 90.000000
_cell_angle_gamma 90.000000
_cell_volume 2520.737287
_symmetry_space_group_name_H-M "A B M 2"
_symmetry_group_IT_number 39
_symmetry_cell_setting 'orthorhombic'
loop_
_space_group_symop_operation_xyz
x,y,z
-x,-y,z
-x,1/2+y,z
x,1/2-y,z
x,1/2+y,1/2+z
-x,1/2-y,1/2+z
-x,y,1/2+z
x,-y,1/2+z
loop_
_atom_site_type_symbol
_atom_site_label
_atom_site_fract_x
_atom_site_fract_y
_atom_site_fract_z
Si Si1 0.000000 0.500000 0.049390
Si Si2 0.604698 0.885488 0.052596
Si Si3 0.500000 0.500000 0.967704
Si Si4 0.140043 0.051525 0.808888
Si Si5 0.446375 0.250000 0.009645
Si Si6 0.692734 0.544213 0.353382
Si Si7 0.360164 0.750000 0.129112
Si Si8 0.709227 0.376101 0.195258
O O1 0.921298 0.465131 0.147921
O O2 0.937875 0.548145 0.950442
O O3 0.678597 0.912053 0.188619
O O4 0.521312 0.934608 0.057813
O O5 0.579521 0.815417 0.093090
O O6 0.640321 0.883959 0.855936
O O7 0.404930 0.510296 0.868311
O O8 0.192839 0.113256 0.781695
O O9 0.221400 0.001299 0.832960
O O10 0.403376 0.250000 0.820684
O O11 0.555516 0.250000 0.000357
O O12 0.701413 0.577560 0.536422
O O13 0.303660 0.689311 0.115591
#
# Coordination Sequence:
#
# PCOD9361590 Si02
#       8
#     4   8   4   8   4   8   4   8
#     4  10  22  36  68  92 126 150 190 266 338 384
#     4  11  25  38  56  86 126 170 218 254 306 362
#     4  12  24  36  58  90 126 172 204 258 314 360
#     4  11  20  41  61  98 121 155 201 258 329 387
#     4  10  24  40  56  82 122 177 227 256 297 373
#     4  12  24  37  62  90 129 163 206 261 308 378
#     4  10  24  40  58  82 122 175 219 262 303 361
#     4  11  23  41  60  86 124 162 208 261 307 370
#
# _framework density 19.042048000000001
#
# number of rings (size 3 to 8) (size 9 to 14) (size 15 to 20)
#    0.000    1.000    3.333    3.500    9.333    0.000 
#    0.000    0.000    0.000    1.000    0.000    0.000 
#    0.000    0.000    0.000    0.000    0.000    0.000 
#
# Total GULP energy -133736.095432 kJ/mol
# GULP energy per Si atom -5572.337310 kJ/mol
# Density = 1.899871 g / cm^3
# Si number density = 19.042048 Si / 1000 Ang^3
#
#
#
# Elastic Constant Matrix: (Units=GPa)
#
#
# Indices 1 2 3 4 5 6 
#
# 1 126.7210 47.2783 22.3511 0.0000 0.0000 0.0000
# 2 47.2783 109.7548 22.8533 0.0000 0.0000 0.0000
# 3 22.3511 22.8533 62.6126 0.0000 0.0000 0.0000
# 4 0.0000 0.0000 0.0000 16.2557 0.0000 0.0000
# 5 0.0000 0.0000 0.0000 0.0000 77.3696 0.0000
# 6 0.0000 0.0000 0.0000 0.0000 0.0000 16.4993
#
#
#
# Elastic Compliance Matrix: (Units=1/GPa)
#
#
# Indices 1 2 3 4 5 6 
#
# 1 0.009648 -0.003722 -0.002086 0.000000 0.000000 0.000000
# 2 -0.003722 0.011296 -0.002795 0.000000 0.000000 0.000000
# 3 -0.002086 -0.002795 0.017736 0.000000 0.000000 0.000000
# 4 0.000000 0.000000 0.000000 0.061517 0.000000 0.000000
# 5 0.000000 0.000000 0.000000 0.000000 0.012925 0.000000
# 6 0.000000 0.000000 0.000000 0.000000 0.000000 0.060609
#
#
# Mechanical properties :
#
#
# Convention : Reuss Voigt Hill
#
# Bulk Modulus (GPa) = 46.56335 53.78377 50.17356
# Shear Modulus (GPa) = 25.24076 35.79864 30.51970
#
# Velocity S-wave (km/s) = 3.64473 4.34058 4.00778
# Velocity P-wave (km/s) = 6.49754 7.30937 6.91538
#
# Compressibility (1/GPa) = 0.02147612
#
# Stress axis : x y z
#
# Youngs Moduli (GPa) = 103.65159 88.52500 56.38335
#
# Poissons Ratio (x) = 0.32946 0.11759
# Poissons Ratio (y) = 0.38575 0.15757
# Poissons Ratio (z) = 0.21618 0.24739
#
# Static dielectric constant tensor:
#      x y z
#    x 1.609310 0.000000 0.000000 
#    y 0.000000 1.690700 0.000000 
#    z 0.000000 0.000000 1.827660 
# 
# From -- ./inp_files/3330.got.cif
#   From: 2010.05.17/outbox.cif.g08.bks.cpg/sg39_2_cif.got.tgz:3330.got - 2010.06.03 18:22:40.
