data_PCOD9361948
_publ_section_title
;
Structure prediction by ZEFSAII (Michael W. Deem and Ramdas Pophale) SiO2 
 PCOD9361948
Probable space group: A B M 2
;
_chemical_formula_sum "Si O2"
_cell_formula_units_Z 48
_cell_length_a 8.014214
_cell_length_b 27.626030
_cell_length_c 9.228976
_cell_angle_alpha 90.000000
_cell_angle_beta 90.000000
_cell_angle_gamma 90.000000
_cell_volume 2043.303744
_symmetry_space_group_name_H-M "A B M 2"
_symmetry_group_IT_number 39
_symmetry_cell_setting 'orthorhombic'
loop_
_space_group_symop_operation_xyz
x,y,z
-x,-y,z
-x,1/2+y,z
x,1/2-y,z
x,1/2+y,1/2+z
-x,1/2-y,1/2+z
-x,y,1/2+z
x,-y,1/2+z
loop_
_atom_site_type_symbol
_atom_site_label
_atom_site_fract_x
_atom_site_fract_y
_atom_site_fract_z
Si Si1 0.658508 0.611848 0.440330
Si Si2 0.316605 0.006618 0.520026
Si Si3 0.262943 0.250000 0.021152
Si Si4 0.654528 0.646898 0.116728
Si Si5 0.873703 0.040592 0.300517
Si Si6 0.932625 0.750000 0.728246
Si Si7 0.036263 0.637608 0.149139
O O1 0.681606 0.554459 0.419337
O O2 0.638434 0.638796 0.288753
O O3 0.495559 0.619513 0.538694
O O4 0.819766 0.631162 0.528226
O O5 0.196020 0.018553 0.651609
O O6 0.500000 0.000000 0.582153
O O7 0.266644 0.961076 0.423017
O O8 0.362034 0.297447 0.068946
O O9 0.088037 0.250000 0.109538
O O10 0.210463 0.250000 0.854367
O O11 0.848659 0.634143 0.086480
O O12 0.942608 0.092867 0.260335
O O13 0.000000 0.000000 0.358184
O O14 0.936334 0.810334 0.722744
#
# Coordination Sequence:
#
# PCOD9361948 Si02
#       7
#     8   8   4   8   8   4   8
#     4  11  28  47  73 111 145 207 248 320 378 462
#     4  11  26  43  70 101 148 188 243 305 378 444
#     4  10  26  45  75 112 147 200 259 319 379 466
#     4  11  27  47  75 109 151 195 257 306 390 450
#     4  11  24  46  70 108 139 196 246 308 369 453
#     4  10  24  47  75 112 147 204 245 317 389 450
#     4  10  26  47  80 104 154 196 259 315 384 453
#
# _framework density 23.49137
#
# number of rings (size 3 to 8) (size 9 to 14) (size 15 to 20)
#    0.000    1.333    0.000    2.000   21.000    2.667 
#    0.000    0.000    0.000    0.000    0.000    0.000 
#    0.000    0.000    0.000    0.000    0.000    0.000 
#
# Total GULP energy -133863.504229 kJ/mol
# GULP energy per Si atom -5577.646010 kJ/mol
# Density = 2.343790 g / cm^3
# Si number density = 23.491370 Si / 1000 Ang^3
#
#
#
# Elastic Constant Matrix: (Units=GPa)
#
#
# Indices 1 2 3 4 5 6 
#
# 1 130.4287 36.5914 45.0973 0.0000 0.0000 0.0000
# 2 36.5914 144.4763 32.1506 0.0000 0.0000 0.0000
# 3 45.0973 32.1506 78.3073 0.0000 0.0000 0.0000
# 4 0.0000 0.0000 0.0000 33.4003 0.0000 0.0000
# 5 0.0000 0.0000 0.0000 0.0000 21.6093 0.0000
# 6 0.0000 0.0000 0.0000 0.0000 0.0000 31.8837
#
#
#
# Elastic Compliance Matrix: (Units=1/GPa)
#
#
# Indices 1 2 3 4 5 6 
#
# 1 0.009807 -0.001350 -0.005093 0.000000 0.000000 0.000000
# 2 -0.001350 0.007803 -0.002426 0.000000 0.000000 0.000000
# 3 -0.005093 -0.002426 0.016700 0.000000 0.000000 0.000000
# 4 0.000000 0.000000 0.000000 0.029940 0.000000 0.000000
# 5 0.000000 0.000000 0.000000 0.000000 0.046276 0.000000
# 6 0.000000 0.000000 0.000000 0.000000 0.000000 0.031364
#
#
# Mechanical properties :
#
#
# Convention : Reuss Voigt Hill
#
# Bulk Modulus (GPa) = 60.34964 64.54343 62.44654
# Shear Modulus (GPa) = 30.27483 33.33685 31.80584
#
# Velocity S-wave (km/s) = 3.59383 3.77120 3.68358
# Velocity P-wave (km/s) = 6.55490 6.81891 6.68821
#
# Compressibility (1/GPa) = 0.01657011
#
# Stress axis : x y z
#
# Youngs Moduli (GPa) = 101.96823 128.14828 59.88152
#
# Poissons Ratio (x) = 0.17304 0.30500
# Poissons Ratio (y) = 0.13769 0.14528
# Poissons Ratio (z) = 0.51937 0.31091
#
# Static dielectric constant tensor:
#      x y z
#    x 1.980860 0.000000 0.000000 
#    y 0.000000 1.876700 0.000000 
#    z 0.000000 0.000000 1.828530 
# 
# From -- ./inp_files/2336.got.cif
#   From: 2010.05.17/outbox.cif.g08.bks.cpg/sg39_2_cif.got.tgz:2336.got - 2010.06.03 18:22:40.
