data_PCOD9361239
_publ_section_title
;
Structure prediction by ZEFSAII (Michael W. Deem and Ramdas Pophale) SiO2 
 PCOD9361239
Probable space group: A B M 2
;
_chemical_formula_sum "Si O2"
_cell_formula_units_Z 56
_cell_length_a 14.433473
_cell_length_b 8.459702
_cell_length_c 22.054978
_cell_angle_alpha 90.000000
_cell_angle_beta 90.000000
_cell_angle_gamma 90.000000
_cell_volume 2692.976341
_symmetry_space_group_name_H-M "A B M 2"
_symmetry_group_IT_number 39
_symmetry_cell_setting 'orthorhombic'
loop_
_space_group_symop_operation_xyz
x,y,z
-x,-y,z
-x,1/2+y,z
x,1/2-y,z
x,1/2+y,1/2+z
-x,1/2-y,1/2+z
-x,y,1/2+z
x,-y,1/2+z
loop_
_atom_site_type_symbol
_atom_site_label
_atom_site_fract_x
_atom_site_fract_y
_atom_site_fract_z
Si Si1 0.394438 0.941651 0.047530
Si Si2 0.715236 0.440227 0.929287
Si Si3 0.605270 0.060980 0.181047
Si Si4 0.105896 0.060192 0.118077
Si Si5 0.105090 0.436847 0.746219
Si Si6 0.714258 0.562093 0.297381
Si Si7 0.895290 0.939087 0.983161
O O1 0.392768 0.750000 0.046647
O O2 0.358474 0.993364 0.114359
O O3 0.500000 0.000000 0.043650
O O4 0.339945 0.000072 0.988252
O O5 0.710026 0.250000 0.929794
O O6 0.680291 0.495314 0.863427
O O7 0.821737 0.489731 0.937396
O O8 0.604974 0.250000 0.180471
O O9 0.500000 0.000000 0.185667
O O10 0.660931 0.006088 0.239710
O O11 0.108960 0.250000 0.125660
O O12 0.140540 0.017207 0.051210
O O13 0.142439 0.978417 0.178495
O O14 0.000000 0.000000 0.116063
O O15 0.104394 0.250000 0.754263
O O16 0.177853 0.516941 0.790760
O O17 0.000000 0.500000 0.751679
O O18 0.704915 0.750000 0.295103
O O19 0.896847 0.750000 0.979498
O O20 0.000000 0.000000 0.975398
#
# Coordination Sequence:
#
# PCOD9361239 Si02
#       7
#     8   8   8   8   8   8   8
#     4   9  20  40  65  93 120 152 194 241 298 356
#     4  10  23  41  60  86 122 162 202 248 300 356
#     4  10  21  40  66  95 123 156 197 246 303 364
#     4   9  17  31  51  80 111 145 191 242 297 349
#     4  11  22  37  58  84 117 159 205 253 304 359
#     4  11  24  41  60  87 124 163 205 251 303 361
#     4  10  21  36  57  85 118 159 203 249 299 355
#
# _framework density 20.794836
#
# number of rings (size 3 to 8) (size 9 to 14) (size 15 to 20)
#    0.000    2.000    0.000    3.857    2.000    5.143 
#    0.000    1.429    0.000    0.000    0.000    0.000 
#    0.000    0.000    0.000    0.000    0.000    0.000 
#
# Total GULP energy -156325.722246 kJ/mol
# GULP energy per Si atom -5583.061509 kJ/mol
# Density = 2.074751 g / cm^3
# Si number density = 20.794836 Si / 1000 Ang^3
#
#
#
# Elastic Constant Matrix: (Units=GPa)
#
#
# Indices 1 2 3 4 5 6 
#
# 1 75.5752 0.5836 72.8543 0.0000 0.0000 0.0000
# 2 0.5836 27.0742 30.4569 0.0000 0.0000 0.0000
# 3 72.8543 30.4569 189.1333 0.0000 0.0000 0.0000
# 4 0.0000 0.0000 0.0000 16.9105 0.0000 0.0000
# 5 0.0000 0.0000 0.0000 0.0000 24.2707 0.0000
# 6 0.0000 0.0000 0.0000 0.0000 0.0000 29.3158
#
#
#
# Elastic Compliance Matrix: (Units=1/GPa)
#
#
# Indices 1 2 3 4 5 6 
#
# 1 0.023863 0.012000 -0.011125 0.000000 0.000000 0.000000
# 2 0.012000 0.051141 -0.012858 0.000000 0.000000 0.000000
# 3 -0.011125 -0.012858 0.011643 0.000000 0.000000 0.000000
# 4 0.000000 0.000000 0.000000 0.059135 0.000000 0.000000
# 5 0.000000 0.000000 0.000000 0.000000 0.041202 0.000000
# 6 0.000000 0.000000 0.000000 0.000000 0.000000 0.034111
#
#
# Mechanical properties :
#
#
# Convention : Reuss Voigt Hill
#
# Bulk Modulus (GPa) = 15.95335 55.50803 35.73069
# Shear Modulus (GPa) = 18.80018 26.62524 22.71271
#
# Velocity S-wave (km/s) = 3.01005 3.58212 3.30847
# Velocity P-wave (km/s) = 4.44623 6.62268 5.64043
#
# Compressibility (1/GPa) = 0.06268276
#
# Stress axis : x y z
#
# Youngs Moduli (GPa) = 41.90549 19.55365 85.88828
#
# Poissons Ratio (x) = -0.23465 0.95547
# Poissons Ratio (y) = -0.50287 1.10435
# Poissons Ratio (z) = 0.46618 0.25142
#
# Static dielectric constant tensor:
#      x y z
#    x 1.712770 0.000000 0.000000 
#    y 0.000000 1.697120 0.000000 
#    z 0.000000 0.000000 1.816650 
# 
# From -- ./inp_files/14786.got.cif
#   From: 2010.05.17/outbox.cif.g08.bks.cpg/sg39_8_cif.got.tgz:14786.got - 2010.06.03 18:22:40.
