data_PCOD9361982
_publ_section_title
;
Structure prediction by ZEFSAII (Michael W. Deem and Ramdas Pophale) SiO2 
 PCOD9361982
Probable space group: A B M 2
;
_chemical_formula_sum "Si O2"
_cell_formula_units_Z 64
_cell_length_a 16.834732
_cell_length_b 13.821282
_cell_length_c 13.375680
_cell_angle_alpha 90.000000
_cell_angle_beta 90.000000
_cell_angle_gamma 90.000000
_cell_volume 3112.220831
_symmetry_space_group_name_H-M "A B M 2"
_symmetry_group_IT_number 39
_symmetry_cell_setting 'orthorhombic'
loop_
_space_group_symop_operation_xyz
x,y,z
-x,-y,z
-x,1/2+y,z
x,1/2-y,z
x,1/2+y,1/2+z
-x,1/2-y,1/2+z
-x,y,1/2+z
x,-y,1/2+z
loop_
_atom_site_type_symbol
_atom_site_label
_atom_site_fract_x
_atom_site_fract_y
_atom_site_fract_z
Si Si1 0.377909 0.442090 0.018210
Si Si2 0.219789 0.859064 0.743656
Si Si3 0.454289 0.143698 0.516027
Si Si4 0.198122 0.934983 0.530461
Si Si5 0.382339 0.558664 0.762094
Si Si6 0.933691 0.142231 0.400846
Si Si7 0.448358 0.643370 0.259540
Si Si8 0.894838 0.566966 0.399683
O O1 0.401718 0.551241 0.987066
O O2 0.453312 0.376285 0.988961
O O3 0.287551 0.417171 0.990657
O O4 0.379467 0.438736 0.140158
O O5 0.232279 0.750000 0.707028
O O6 0.202006 0.926066 0.648869
O O7 0.300404 0.895360 0.795147
O O8 0.148986 0.866359 0.821343
O O9 0.428812 0.250000 0.482405
O O10 0.450403 0.143428 0.637877
O O11 0.132181 0.860989 0.488315
O O12 0.163478 0.036555 0.489883
O O13 0.461532 0.617135 0.790181
O O14 0.393920 0.446601 0.790244
O O15 0.932297 0.250000 0.354864
O O16 0.023392 0.116100 0.434075
O O17 0.910605 0.039601 0.347824
O O18 0.424044 0.750000 0.291823
#
# Coordination Sequence:
#
# PCOD9361982 Si02
#       8
#     8   8   8   8   8   8   8   8
#     4   8  14  25  42  68 110 140 183 236 275 320
#     4  11  20  34  60  89 115 150 195 239 288 345
#     4   8  13  21  37  65 101 148 186 221 275 331
#     4   9  19  35  57  88 114 146 190 240 281 332
#     4   8  15  24  41  75 107 141 193 240 277 338
#     4   9  18  39  60  80 112 148 180 224 285 347
#     4   8  12  22  39  62 104 151 185 232 290 332
#     4   9  21  38  56  85 117 148 178 236 290 345
#
# _framework density 20.564091000000001
#
# number of rings (size 3 to 8) (size 9 to 14) (size 15 to 20)
#    0.750    2.500    0.000    2.625    0.000    3.500 
#    4.500    1.875    0.000    6.000    0.000    1.750 
#    0.000    0.000    0.000    0.000    0.000    0.000 
#
# Total GULP energy -178225.348477 kJ/mol
# GULP energy per Si atom -5569.542140 kJ/mol
# Density = 2.051729 g / cm^3
# Si number density = 20.564091 Si / 1000 Ang^3
#
#
#
# Elastic Constant Matrix: (Units=GPa)
#
#
# Indices 1 2 3 4 5 6 
#
# 1 128.0436 18.5345 24.5601 0.0000 0.0000 0.0000
# 2 18.5345 95.4151 8.9653 0.0000 0.0000 0.0000
# 3 24.5601 8.9653 50.3630 0.0000 0.0000 0.0000
# 4 0.0000 0.0000 0.0000 23.5759 0.0000 0.0000
# 5 0.0000 0.0000 0.0000 0.0000 13.7192 0.0000
# 6 0.0000 0.0000 0.0000 0.0000 0.0000 13.8182
#
#
#
# Elastic Compliance Matrix: (Units=1/GPa)
#
#
# Indices 1 2 3 4 5 6 
#
# 1 0.008777 -0.001325 -0.004045 0.000000 0.000000 0.000000
# 2 -0.001325 0.010859 -0.001287 0.000000 0.000000 0.000000
# 3 -0.004045 -0.001287 0.022057 0.000000 0.000000 0.000000
# 4 0.000000 0.000000 0.000000 0.042416 0.000000 0.000000
# 5 0.000000 0.000000 0.000000 0.000000 0.072890 0.000000
# 6 0.000000 0.000000 0.000000 0.000000 0.000000 0.072368
#
#
# Mechanical properties :
#
#
# Convention : Reuss Voigt Hill
#
# Bulk Modulus (GPa) = 35.23520 41.99351 38.61436
# Shear Modulus (GPa) = 19.83014 25.00678 22.41846
#
# Velocity S-wave (km/s) = 3.10870 3.49096 3.30536
# Velocity P-wave (km/s) = 5.48242 6.05923 5.77802
#
# Compressibility (1/GPa) = 0.02838071
#
# Stress axis : x y z
#
# Youngs Moduli (GPa) = 113.92870 92.09104 45.33653
#
# Poissons Ratio (x) = 0.12202 0.18337
# Poissons Ratio (y) = 0.15096 0.05834
# Poissons Ratio (z) = 0.46079 0.11851
#
# Static dielectric constant tensor:
#      x y z
#    x 1.714800 0.000000 0.000000 
#    y 0.000000 1.715880 0.000000 
#    z 0.000000 0.000000 1.813480 
# 
# From -- ./inp_files/12823.got.cif
#   From: 2010.05.17/outbox.cif.g08.bks.cpg/sg39_7_cif.got.tgz:12823.got - 2010.06.03 18:22:40.
