data_PCOD9361002
_publ_section_title
;
Structure prediction by ZEFSAII (Michael W. Deem and Ramdas Pophale) SiO2 
 PCOD9361002
Probable space group: A B M 2
;
_chemical_formula_sum "Si O2"
_cell_formula_units_Z 56
_cell_length_a 5.241642
_cell_length_b 14.404010
_cell_length_c 30.423841
_cell_angle_alpha 90.000000
_cell_angle_beta 90.000000
_cell_angle_gamma 90.000000
_cell_volume 2297.020190
_symmetry_space_group_name_H-M "A B M 2"
_symmetry_group_IT_number 39
_symmetry_cell_setting 'orthorhombic'
loop_
_space_group_symop_operation_xyz
x,y,z
-x,-y,z
-x,1/2+y,z
x,1/2-y,z
x,1/2+y,1/2+z
-x,1/2-y,1/2+z
-x,y,1/2+z
x,-y,1/2+z
loop_
_atom_site_type_symbol
_atom_site_label
_atom_site_fract_x
_atom_site_fract_y
_atom_site_fract_z
Si Si1 0.243052 0.860513 0.730110
Si Si2 0.177073 0.750000 0.446233
Si Si3 0.257015 0.361419 0.783936
Si Si4 0.462992 0.112097 0.595158
Si Si5 0.500000 0.500000 0.852278
Si Si6 0.037744 0.603942 0.635655
Si Si7 0.120331 0.405234 0.419938
Si Si8 0.482556 0.112059 0.495532
O O1 0.233119 0.750000 0.722830
O O2 0.027862 0.881244 0.766664
O O3 0.527680 0.882467 0.746432
O O4 0.147226 0.903295 0.684659
O O5 0.267625 0.832045 0.481262
O O6 0.096459 0.668531 0.410323
O O7 0.277222 0.250000 0.793193
O O8 0.335777 0.429407 0.822932
O O9 0.739381 0.149695 0.607720
O O10 0.398605 0.133642 0.544855
O O11 0.242905 0.144226 0.628426
O O12 0.500000 0.000000 0.598450
O O13 0.689020 0.437783 0.881981
O O14 0.000000 0.500000 0.618038
O O15 0.282303 0.356421 0.458410
O O16 0.000000 0.500000 0.436843
O O17 0.500000 0.000000 0.491777
#
# Coordination Sequence:
#
# PCOD9361002 Si02
#       8
#     8   4   8   8   4   8   8   8
#     4  10  22  44  67  98 143 187 235 298 378 445
#     4  12  26  46  80 108 148 204 248 324 386 468
#     4  10  25  45  71 102 142 191 241 303 378 469
#     4   9  21  37  64  99 141 190 245 302 361 437
#     4  12  28  46  72 114 140 188 248 318 398 456
#     4  10  20  37  64 100 136 184 241 302 363 439
#     4  12  26  48  76 107 149 195 254 315 394 461
#     4  11  23  48  71 105 148 202 257 308 380 467
#
# _framework density 24.379411999999999
#
# number of rings (size 3 to 8) (size 9 to 14) (size 15 to 20)
#    0.000    1.429    2.143    1.286    7.000    0.571 
#    3.857    0.000    0.000    0.000    0.000    0.000 
#    0.000    0.000    0.000    0.000    0.000    0.000 
#
# Total GULP energy -156077.784685 kJ/mol
# GULP energy per Si atom -5574.206596 kJ/mol
# Density = 2.432392 g / cm^3
# Si number density = 24.379412 Si / 1000 Ang^3
#
#
#
# Elastic Constant Matrix: (Units=GPa)
#
#
# Indices 1 2 3 4 5 6 
#
# 1 59.0306 -2.9517 10.4343 0.0000 0.0000 0.0000
# 2 -2.9517 141.5597 -0.6471 0.0000 0.0000 0.0000
# 3 10.4343 -0.6471 68.3804 0.0000 0.0000 0.0000
# 4 0.0000 0.0000 0.0000 -142.8022 0.0000 0.0000
# 5 0.0000 0.0000 0.0000 0.0000 8.8278 0.0000
# 6 0.0000 0.0000 0.0000 0.0000 0.0000 -57.1671
#
#
#
# Elastic Compliance Matrix: (Units=1/GPa)
#
#
# Indices 1 2 3 4 5 6 
#
# 1 0.017427 0.000351 -0.002656 0.000000 0.000000 0.000000
# 2 0.000351 0.007072 0.000013 0.000000 0.000000 0.000000
# 3 -0.002656 0.000013 0.015029 0.000000 0.000000 0.000000
# 4 0.000000 0.000000 0.000000 -0.007003 0.000000 0.000000
# 5 0.000000 0.000000 0.000000 0.000000 0.113278 0.000000
# 6 0.000000 0.000000 0.000000 0.000000 0.000000 -0.017493
#
#
# Mechanical properties :
#
#
# Convention : Reuss Voigt Hill
#
# Bulk Modulus (GPa) = 28.61587 31.40463 30.01025
# Shear Modulus (GPa) = 34.59194 -20.75261 6.91966
#
# Velocity S-wave (km/s) = 3.77091 -2.92076 1.68656
# Velocity P-wave (km/s) = 5.54283 1.23901 4.01610
#
# Compressibility (1/GPa) = 0.03494565
#
# Stress axis : x y z
#
# Youngs Moduli (GPa) = 57.38091 141.41187 66.53598
#
# Poissons Ratio (x) = -0.04967 0.17672
# Poissons Ratio (y) = -0.02015 -0.00089
# Poissons Ratio (z) = 0.15240 -0.00188
#
# Static dielectric constant tensor:
#      x y z
#    x 2.121880 0.000000 0.000000 
#    y 0.000000 2.012950 0.000000 
#    z 0.000000 0.000000 1.931420 
# 
# From -- ./inp_files/17293.got.cif
#   From: 2010.05.17/outbox.cif.g08.bks.cpg/sg39_9_cif.got.tgz:17293.got - 2010.06.03 18:22:40.
