data_PCOD9361829
_publ_section_title
;
Structure prediction by ZEFSAII (Michael W. Deem and Ramdas Pophale) SiO2 
 PCOD9361829
Probable space group: A B M 2
;
_chemical_formula_sum "Si O2"
_cell_formula_units_Z 40
_cell_length_a 9.356139
_cell_length_b 17.797070
_cell_length_c 9.645329
_cell_angle_alpha 90.000000
_cell_angle_beta 90.000000
_cell_angle_gamma 90.000000
_cell_volume 1606.061679
_symmetry_space_group_name_H-M "A B M 2"
_symmetry_group_IT_number 39
_symmetry_cell_setting 'orthorhombic'
loop_
_space_group_symop_operation_xyz
x,y,z
-x,-y,z
-x,1/2+y,z
x,1/2-y,z
x,1/2+y,1/2+z
-x,1/2-y,1/2+z
-x,y,1/2+z
x,-y,1/2+z
loop_
_atom_site_type_symbol
_atom_site_label
_atom_site_fract_x
_atom_site_fract_y
_atom_site_fract_z
Si Si1 0.413554 0.929157 0.216130
Si Si2 0.166313 0.365635 0.043930
Si Si3 0.161564 0.505173 0.882976
Si Si4 0.494691 0.164515 0.974625
Si Si5 0.096761 0.332365 0.355803
O O1 0.271360 0.963362 0.282768
O O2 0.497968 0.891676 0.344649
O O3 0.500000 0.000000 0.156217
O O4 0.409595 0.865605 0.100303
O O5 0.166968 0.455752 0.022801
O O6 0.328792 0.339047 0.027254
O O7 0.101861 0.340562 0.189686
O O8 0.181084 0.593627 0.905669
O O9 0.000000 0.500000 0.827823
O O10 0.061333 0.337868 0.921912
O O11 0.524292 0.250000 0.934576
O O12 0.153715 0.250000 0.392807
#
# Coordination Sequence:
#
# PCOD9361829 Si02
#       5
#     8   8   8   8   8
#     4  11  23  42  71  99 134 184 232 281 351 429
#     4  10  23  41  65  98 144 190 237 295 363 432
#     4   9  22  42  67  96 135 182 231 285 352 422
#     4  11  23  44  69 100 137 181 236 303 359 417
#     4  11  21  39  67 101 138 185 235 292 356 422
#
# _framework density 24.905645
#
# number of rings (size 3 to 8) (size 9 to 14) (size 15 to 20)
#    0.000    1.600    0.000    4.200    0.000    8.800 
#    0.000   16.000    0.000    0.000    0.000    1.400 
#    0.000    0.000    0.000    0.000    0.000    0.000 
#
# Total GULP energy -111977.640512 kJ/mol
# GULP energy per Si atom -5598.882026 kJ/mol
# Density = 2.484896 g / cm^3
# Si number density = 24.905645 Si / 1000 Ang^3
#
#
#
# Elastic Constant Matrix: (Units=GPa)
#
#
# Indices 1 2 3 4 5 6 
#
# 1 134.6676 29.6541 23.7634 0.0000 0.0000 0.0000
# 2 29.6541 218.1185 21.4741 0.0000 0.0000 0.0000
# 3 23.7634 21.4741 68.6153 0.0000 0.0000 0.0000
# 4 0.0000 0.0000 0.0000 21.2570 0.0000 0.0000
# 5 0.0000 0.0000 0.0000 0.0000 35.4260 0.0000
# 6 0.0000 0.0000 0.0000 0.0000 0.0000 87.0755
#
#
#
# Elastic Compliance Matrix: (Units=1/GPa)
#
#
# Indices 1 2 3 4 5 6 
#
# 1 0.008058 -0.000847 -0.002526 0.000000 0.000000 0.000000
# 2 -0.000847 0.004819 -0.001215 0.000000 0.000000 0.000000
# 3 -0.002526 -0.001215 0.015829 0.000000 0.000000 0.000000
# 4 0.000000 0.000000 0.000000 0.047043 0.000000 0.000000
# 5 0.000000 0.000000 0.000000 0.000000 0.028228 0.000000
# 6 0.000000 0.000000 0.000000 0.000000 0.000000 0.011484
#
#
# Mechanical properties :
#
#
# Convention : Reuss Voigt Hill
#
# Bulk Modulus (GPa) = 51.19999 63.46494 57.33247
# Shear Modulus (GPa) = 38.12510 51.85234 44.98872
#
# Velocity S-wave (km/s) = 3.91677 4.56779 4.25475
# Velocity P-wave (km/s) = 6.40757 7.30459 6.87074
#
# Compressibility (1/GPa) = 0.01953125
#
# Stress axis : x y z
#
# Youngs Moduli (GPa) = 124.10278 207.49407 63.17534
#
# Poissons Ratio (x) = 0.17572 0.15956
# Poissons Ratio (y) = 0.10510 0.07676
# Poissons Ratio (z) = 0.31344 0.25211
#
# Static dielectric constant tensor:
#      x y z
#    x 1.991940 0.000000 0.000000 
#    y 0.000000 2.005360 0.000000 
#    z 0.000000 0.000000 1.922110 
# 
# From -- ./inp_files/5669.got.cif
#   From: 2010.05.17/outbox.cif.g08.bks.cpg/sg39_3_cif.got.tgz:5669.got - 2010.06.03 18:22:40.
