data_PCOD9361510
_publ_section_title
;
Structure prediction by ZEFSAII (Michael W. Deem and Ramdas Pophale) SiO2 
 PCOD9361510
Probable space group: A B M 2
;
_chemical_formula_sum "Si O2"
_cell_formula_units_Z 56
_cell_length_a 9.096611
_cell_length_b 20.695424
_cell_length_c 13.838296
_cell_angle_alpha 90.000000
_cell_angle_beta 90.000000
_cell_angle_gamma 90.000000
_cell_volume 2605.172995
_symmetry_space_group_name_H-M "A B M 2"
_symmetry_group_IT_number 39
_symmetry_cell_setting 'orthorhombic'
loop_
_space_group_symop_operation_xyz
x,y,z
-x,-y,z
-x,1/2+y,z
x,1/2-y,z
x,1/2+y,1/2+z
-x,1/2-y,1/2+z
-x,y,1/2+z
x,-y,1/2+z
loop_
_atom_site_type_symbol
_atom_site_label
_atom_site_fract_x
_atom_site_fract_y
_atom_site_fract_z
Si Si1 0.920896 0.066195 0.783030
Si Si2 0.110790 0.058865 0.514122
Si Si3 0.446537 0.930924 0.009166
Si Si4 0.514973 0.825603 0.844013
Si Si5 0.921846 0.820289 0.042552
Si Si6 0.334237 0.124518 0.167361
Si Si7 0.851455 0.176610 0.314301
O O1 0.883818 0.063291 0.897062
O O2 0.775052 0.075526 0.721433
O O3 0.032903 0.126203 0.771461
O O4 0.000000 0.000000 0.757576
O O5 0.279960 0.057002 0.543694
O O6 0.036409 0.122634 0.556054
O O7 0.000000 0.000000 0.535791
O O8 0.549105 0.910369 0.098539
O O9 0.500000 0.000000 0.968152
O O10 0.463814 0.874306 0.928880
O O11 0.515316 0.750000 0.875363
O O12 0.410966 0.834912 0.751735
O O13 0.680381 0.842187 0.808785
O O14 0.983241 0.750000 0.065243
O O15 0.773244 0.832888 0.101055
O O16 0.882392 0.822399 0.929234
O O17 0.870896 0.250000 0.278220
#
# Coordination Sequence:
#
# PCOD9361510 Si02
#       7
#     8   8   8   8   8   8   8
#     4  10  23  41  69  99 135 180 229 290 341 419
#     4  10  22  45  69  99 135 183 234 285 354 420
#     4  12  27  45  72 105 144 189 238 299 358 426
#     4  11  25  45  71 102 144 189 237 294 356 424
#     4  10  21  40  68  97 133 177 229 287 342 414
#     4  12  25  43  68 109 141 181 233 295 355 421
#     4   9  20  41  67  95 131 181 229 282 348 412
#
# _framework density 21.495692999999999
#
# number of rings (size 3 to 8) (size 9 to 14) (size 15 to 20)
#    0.000    1.429    2.857    1.286    4.000    6.857 
#    0.000    1.429    0.000    0.000    0.000    0.000 
#    0.000    0.000    0.000    0.000    0.000    0.000 
#
# Total GULP energy -156615.615285 kJ/mol
# GULP energy per Si atom -5593.414832 kJ/mol
# Density = 2.144677 g / cm^3
# Si number density = 21.495693 Si / 1000 Ang^3
#
#
#
# Elastic Constant Matrix: (Units=GPa)
#
#
# Indices 1 2 3 4 5 6 
#
# 1 159.6231 75.1437 43.2902 0.0000 0.0000 0.0000
# 2 75.1437 143.8550 37.7685 0.0000 0.0000 0.0000
# 3 43.2902 37.7685 115.3688 0.0000 0.0000 0.0000
# 4 0.0000 0.0000 0.0000 -24.9043 0.0000 0.0000
# 5 0.0000 0.0000 0.0000 0.0000 46.6646 0.0000
# 6 0.0000 0.0000 0.0000 0.0000 0.0000 27.6016
#
#
#
# Elastic Compliance Matrix: (Units=1/GPa)
#
#
# Indices 1 2 3 4 5 6 
#
# 1 0.008688 -0.004028 -0.001941 0.000000 0.000000 0.000000
# 2 -0.004028 0.009473 -0.001590 0.000000 0.000000 0.000000
# 3 -0.001941 -0.001590 0.009917 0.000000 0.000000 0.000000
# 4 0.000000 0.000000 0.000000 -0.040154 0.000000 0.000000
# 5 0.000000 0.000000 0.000000 0.000000 0.021430 0.000000
# 6 0.000000 0.000000 0.000000 0.000000 0.000000 0.036230
#
#
# Mechanical properties :
#
#
# Convention : Reuss Voigt Hill
#
# Bulk Modulus (GPa) = 77.16622 81.25018 79.20820
# Shear Modulus (GPa) = 76.89868 27.38204 52.14036
#
# Velocity S-wave (km/s) = 5.98763 3.57296 4.93040
# Velocity P-wave (km/s) = 9.15306 7.40957 8.32708
#
# Compressibility (1/GPa) = 0.01295904
#
# Stress axis : x y z
#
# Youngs Moduli (GPa) = 115.10693 105.56263 100.84088
#
# Poissons Ratio (x) = 0.42525 0.19574
# Poissons Ratio (y) = 0.46370 0.16030
# Poissons Ratio (z) = 0.22343 0.16781
#
# Static dielectric constant tensor:
#      x y z
#    x 1.763510 0.000000 0.000000 
#    y 0.000000 1.772650 0.000000 
#    z 0.000000 0.000000 1.789440 
# 
# From -- ./inp_files/8624.got.cif
#   From: 2010.05.17/outbox.cif.g08.bks.cpg/sg39_5_cif.got.tgz:8624.got - 2010.06.03 18:22:40.
