data_PCOD9361686
_publ_section_title
;
Structure prediction by ZEFSAII (Michael W. Deem and Ramdas Pophale) SiO2 
 PCOD9361686
Probable space group: A B M 2
;
_chemical_formula_sum "Si O2"
_cell_formula_units_Z 40
_cell_length_a 5.102943
_cell_length_b 15.801955
_cell_length_c 18.302662
_cell_angle_alpha 90.000000
_cell_angle_beta 90.000000
_cell_angle_gamma 90.000000
_cell_volume 1475.862159
_symmetry_space_group_name_H-M "A B M 2"
_symmetry_group_IT_number 39
_symmetry_cell_setting 'orthorhombic'
loop_
_space_group_symop_operation_xyz
x,y,z
-x,-y,z
-x,1/2+y,z
x,1/2-y,z
x,1/2+y,1/2+z
-x,1/2-y,1/2+z
-x,y,1/2+z
x,-y,1/2+z
loop_
_atom_site_type_symbol
_atom_site_label
_atom_site_fract_x
_atom_site_fract_y
_atom_site_fract_z
Si Si1 0.033704 0.350813 0.934180
Si Si2 0.684183 0.075508 0.819925
Si Si3 0.043156 0.750000 0.183661
Si Si4 0.182494 0.576565 0.648347
Si Si5 0.461959 0.250000 0.283371
Si Si6 0.534311 0.850804 0.533524
O O1 0.021277 0.250000 0.916307
O O2 0.947933 0.405736 0.864557
O O3 0.302271 0.367514 0.975438
O O4 0.802450 0.369228 0.992431
O O5 0.748712 0.063768 0.733976
O O6 0.521546 0.163398 0.826758
O O7 0.500000 0.000000 0.844778
O O8 0.324393 0.750000 0.220171
O O9 0.981658 0.835876 0.141567
O O10 0.825274 0.750000 0.247572
O O11 0.000000 0.500000 0.624110
O O12 0.445608 0.595106 0.603310
O O13 0.530557 0.750000 0.551709
#
# Coordination Sequence:
#
# PCOD9361686 Si02
#       6
#     8   8   4   8   4   8
#     4  10  23  44  69  99 135 180 230 280 341 409
#     4  11  24  43  69 104 139 180 231 284 340 414
#     4  10  22  40  62  92 132 174 213 274 335 386
#     4  11  24  43  69 104 139 180 231 284 340 414
#     4  10  22  40  62  92 132 174 213 274 335 386
#     4  10  23  44  69  99 135 180 230 280 341 409
#
# _framework density 27.102805
#
# number of rings (size 3 to 8) (size 9 to 14) (size 15 to 20)
#    0.000    1.600    2.000    1.200    0.000   11.200 
#    0.000    0.000    0.000    0.000    0.000    0.000 
#    0.000    0.000    0.000    0.000    0.000    0.000 
#
# Total GULP energy -112406.462939 kJ/mol
# GULP energy per Si atom -5620.323147 kJ/mol
# Density = 2.704112 g / cm^3
# Si number density = 27.102805 Si / 1000 Ang^3
#
#
#
# Elastic Constant Matrix: (Units=GPa)
#
#
# Indices 1 2 3 4 5 6 
#
# 1 99.0123 23.5620 47.1140 0.0000 0.0000 0.0000
# 2 23.5620 165.6863 7.5143 0.0000 0.0000 0.0000
# 3 47.1140 7.5143 142.9625 0.0000 0.0000 0.0000
# 4 0.0000 0.0000 0.0000 6.7770 0.0000 0.0000
# 5 0.0000 0.0000 0.0000 0.0000 42.6196 0.0000
# 6 0.0000 0.0000 0.0000 0.0000 0.0000 41.2082
#
#
#
# Elastic Compliance Matrix: (Units=1/GPa)
#
#
# Indices 1 2 3 4 5 6 
#
# 1 0.012377 -0.001579 -0.003996 0.000000 0.000000 0.000000
# 2 -0.001579 0.006251 0.000192 0.000000 0.000000 0.000000
# 3 -0.003996 0.000192 0.008302 0.000000 0.000000 0.000000
# 4 0.000000 0.000000 0.000000 0.147559 0.000000 0.000000
# 5 0.000000 0.000000 0.000000 0.000000 0.023463 0.000000
# 6 0.000000 0.000000 0.000000 0.000000 0.000000 0.024267
#
#
# Mechanical properties :
#
#
# Convention : Reuss Voigt Hill
#
# Bulk Modulus (GPa) = 61.86650 62.67129 62.26890
# Shear Modulus (GPa) = 20.97555 40.08568 30.53062
#
# Velocity S-wave (km/s) = 2.78497 3.84998 3.35994
# Velocity P-wave (km/s) = 5.76347 6.55262 6.17067
#
# Compressibility (1/GPa) = 0.01616384
#
# Stress axis : x y z
#
# Youngs Moduli (GPa) = 80.79587 159.96580 120.45838
#
# Poissons Ratio (x) = 0.25257 0.48134
# Poissons Ratio (y) = 0.12757 -0.02310
# Poissons Ratio (z) = 0.32285 -0.03067
#
# Static dielectric constant tensor:
#      x y z
#    x 2.119940 0.000000 0.000000 
#    y 0.000000 2.131920 0.000000 
#    z 0.000000 0.000000 2.116500 
# 
# From -- ./inp_files/10929.got.cif
#   From: 2010.05.17/outbox.cif.g08.bks.cpg/sg39_6_cif.got.tgz:10929.got - 2010.06.03 18:22:40.
