data_PCOD9361200
_publ_section_title
;
Structure prediction by ZEFSAII (Michael W. Deem and Ramdas Pophale) SiO2 
 PCOD9361200
Probable space group: A B M 2
;
_chemical_formula_sum "Si O2"
_cell_formula_units_Z 40
_cell_length_a 24.300589
_cell_length_b 14.140212
_cell_length_c 5.197179
_cell_angle_alpha 90.000000
_cell_angle_beta 90.000000
_cell_angle_gamma 90.000000
_cell_volume 1785.831158
_symmetry_space_group_name_H-M "A B M 2"
_symmetry_group_IT_number 39
_symmetry_cell_setting 'orthorhombic'
loop_
_space_group_symop_operation_xyz
x,y,z
-x,-y,z
-x,1/2+y,z
x,1/2-y,z
x,1/2+y,1/2+z
-x,1/2-y,1/2+z
-x,y,1/2+z
x,-y,1/2+z
loop_
_atom_site_type_symbol
_atom_site_label
_atom_site_fract_x
_atom_site_fract_y
_atom_site_fract_z
Si Si1 0.438825 0.458343 0.195300
Si Si2 0.658524 0.750000 0.819932
Si Si3 0.267647 0.434420 0.784599
Si Si4 0.588347 0.250000 0.821883
Si Si5 0.143929 0.941298 0.211713
Si Si6 0.971064 0.637589 0.878920
O O1 0.500000 0.500000 0.160171
O O2 0.410878 0.516348 0.425645
O O3 0.442196 0.348286 0.262084
O O4 0.693353 0.655810 0.770053
O O5 0.608418 0.750000 0.615462
O O6 0.637860 0.750000 0.114555
O O7 0.275141 0.507044 0.548036
O O8 0.204099 0.399111 0.767172
O O9 0.090482 0.882761 0.287689
O O10 0.141742 0.029285 0.412933
O O11 0.977672 0.750000 0.894152
O O12 0.013290 0.601194 0.661366
#
# Coordination Sequence:
#
# PCOD9361200 Si02
#       6
#     8   4   8   4   8   8
#     4  10  23  42  67  96 133 178 211 258 315 351
#     4  12  26  42  69  96 128 177 206 268 334 358
#     4  10  23  43  64  92 127 162 214 267 318 389
#     4  12  26  42  65 104 130 163 232 254 302 400
#     4  10  21  37  58  83 110 151 198 247 305 369
#     4  10  21  35  52  80 114 150 191 242 302 366
#
# _framework density 22.398533
#
# number of rings (size 3 to 8) (size 9 to 14) (size 15 to 20)
#    0.000    1.600    0.000    3.600    1.400   10.400 
#    0.000    0.000    0.000    0.000    0.000    0.000 
#    0.000    0.000    0.000    0.000    0.000    0.000 
#
# Total GULP energy -111833.640239 kJ/mol
# GULP energy per Si atom -5591.682012 kJ/mol
# Density = 2.234755 g / cm^3
# Si number density = 22.398533 Si / 1000 Ang^3
#
#
#
# Elastic Constant Matrix: (Units=GPa)
#
#
# Indices 1 2 3 4 5 6 
#
# 1 70.0816 21.5289 -0.2699 0.0000 0.0000 0.0000
# 2 21.5289 102.0957 -2.8617 0.0000 0.0000 0.0000
# 3 -0.2699 -2.8617 94.7583 0.0000 0.0000 0.0000
# 4 0.0000 0.0000 0.0000 16.2520 0.0000 0.0000
# 5 0.0000 0.0000 0.0000 0.0000 22.0715 0.0000
# 6 0.0000 0.0000 0.0000 0.0000 0.0000 16.2894
#
#
#
# Elastic Compliance Matrix: (Units=1/GPa)
#
#
# Indices 1 2 3 4 5 6 
#
# 1 0.015258 -0.003219 -0.000054 0.000000 0.000000 0.000000
# 2 -0.003219 0.010482 0.000307 0.000000 0.000000 0.000000
# 3 -0.000054 0.000307 0.010562 0.000000 0.000000 0.000000
# 4 0.000000 0.000000 0.000000 0.061531 0.000000 0.000000
# 5 0.000000 0.000000 0.000000 0.000000 0.045307 0.000000
# 6 0.000000 0.000000 0.000000 0.000000 0.000000 0.061390
#
#
# Mechanical properties :
#
#
# Convention : Reuss Voigt Hill
#
# Bulk Modulus (GPa) = 32.92549 33.74781 33.33665
# Shear Modulus (GPa) = 22.66707 27.49181 25.07944
#
# Velocity S-wave (km/s) = 3.18463 3.50722 3.34981
# Velocity P-wave (km/s) = 5.31547 5.61253 5.46602
#
# Compressibility (1/GPa) = 0.03037161
#
# Stress axis : x y z
#
# Youngs Moduli (GPa) = 65.54059 95.40061 94.67640
#
# Poissons Ratio (x) = 0.30709 0.00509
# Poissons Ratio (y) = 0.21097 -0.02910
# Poissons Ratio (z) = 0.00352 -0.02933
#
# Static dielectric constant tensor:
#      x y z
#    x 2.003980 0.000000 0.000000 
#    y 0.000000 1.782700 0.000000 
#    z 0.000000 0.000000 1.886040 
# 
# From -- ./inp_files/1223.got.cif
#   From: 2010.05.17/outbox.cif.g08.bks.cpg/sg39_1_cif.got.tgz:1223.got - 2010.06.03 18:22:40.
