data_PCOD9361076
_publ_section_title
;
Structure prediction by ZEFSAII (Michael W. Deem and Ramdas Pophale) SiO2 
 PCOD9361076
Probable space group: A B M 2
;
_chemical_formula_sum "Si O2"
_cell_formula_units_Z 52
_cell_length_a 14.789506
_cell_length_b 21.811148
_cell_length_c 9.076904
_cell_angle_alpha 90.000000
_cell_angle_beta 90.000000
_cell_angle_gamma 90.000000
_cell_volume 2927.992331
_symmetry_space_group_name_H-M "A B M 2"
_symmetry_group_IT_number 39
_symmetry_cell_setting 'orthorhombic'
loop_
_space_group_symop_operation_xyz
x,y,z
-x,-y,z
-x,1/2+y,z
x,1/2-y,z
x,1/2+y,1/2+z
-x,1/2-y,1/2+z
-x,y,1/2+z
x,-y,1/2+z
loop_
_atom_site_type_symbol
_atom_site_label
_atom_site_fract_x
_atom_site_fract_y
_atom_site_fract_z
Si Si1 0.584804 0.116602 0.510960
Si Si2 0.000000 0.000000 0.331928
Si Si3 0.634438 0.250000 0.927506
Si Si4 0.877159 0.449073 0.089683
Si Si5 0.266500 0.874365 0.968039
Si Si6 0.286428 0.038486 0.187270
Si Si7 0.533480 0.750000 0.123858
Si Si8 0.584639 0.426612 0.186570
O O1 0.677778 0.084901 0.562149
O O2 0.574747 0.187015 0.559044
O O3 0.570569 0.108976 0.338203
O O4 0.506941 0.077967 0.594265
O O5 0.928092 0.969464 0.441504
O O6 0.051649 0.952920 0.223278
O O7 0.699723 0.191551 0.916994
O O8 0.560881 0.250000 0.795582
O O9 0.572237 0.250000 0.075414
O O10 0.798358 0.498261 0.131969
O O11 0.827237 0.385249 0.054333
O O12 0.265938 0.921486 0.831287
O O13 0.342974 0.894586 0.082257
O O14 0.368517 0.991484 0.223241
#
# Coordination Sequence:
#
# PCOD9361076 Si02
#       8
#     8   4   4   8   8   8   4   8
#     4  12  23  37  55  78 116 163 210 255 290 346
#     4  10  20  38  66  94 124 146 178 244 314 382
#     4  12  24  42  58  78 120 173 215 261 286 341
#     4  10  21  38  63  96 121 150 186 239 312 379
#     4  11  22  39  60  86 121 160 202 250 294 359
#     4  11  22  38  56  87 122 149 195 244 309 360
#     4  12  24  40  56  76 114 171 231 247 286 335
#     4  11  23  36  55  79 115 158 200 256 306 346
#
# _framework density 17.759609000000001
#
# number of rings (size 3 to 8) (size 9 to 14) (size 15 to 20)
#    0.000    0.923    4.615    4.154    2.154    1.231 
#    0.000    0.000    0.000    0.923    0.000    0.000 
#    0.000    0.000    0.000    0.000    0.000    0.000 
#
# Total GULP energy -145112.842011 kJ/mol
# GULP energy per Si atom -5581.263154 kJ/mol
# Density = 1.771919 g / cm^3
# Si number density = 17.759609 Si / 1000 Ang^3
#
#
#
# Elastic Constant Matrix: (Units=GPa)
#
#
# Indices 1 2 3 4 5 6 
#
# 1 85.6581 37.6106 44.7077 0.0000 0.0000 0.0000
# 2 37.6106 98.9366 17.5086 0.0000 0.0000 0.0000
# 3 44.7077 17.5086 111.4022 0.0000 0.0000 0.0000
# 4 0.0000 0.0000 0.0000 17.3569 0.0000 0.0000
# 5 0.0000 0.0000 0.0000 0.0000 34.6167 0.0000
# 6 0.0000 0.0000 0.0000 0.0000 0.0000 16.3894
#
#
#
# Elastic Compliance Matrix: (Units=1/GPa)
#
#
# Indices 1 2 3 4 5 6 
#
# 1 0.017244 -0.005483 -0.006059 0.000000 0.000000 0.000000
# 2 -0.005483 0.012140 0.000292 0.000000 0.000000 0.000000
# 3 -0.006059 0.000292 0.011362 0.000000 0.000000 0.000000
# 4 0.000000 0.000000 0.000000 0.057614 0.000000 0.000000
# 5 0.000000 0.000000 0.000000 0.000000 0.028888 0.000000
# 6 0.000000 0.000000 0.000000 0.000000 0.000000 0.061015
#
#
# Mechanical properties :
#
#
# Convention : Reuss Voigt Hill
#
# Bulk Modulus (GPa) = 54.80167 55.07229 54.93698
# Shear Modulus (GPa) = 23.05809 26.75061 24.90435
#
# Velocity S-wave (km/s) = 3.60716 3.88527 3.74880
# Velocity P-wave (km/s) = 6.94790 7.15571 7.05257
#
# Compressibility (1/GPa) = 0.01824762
#
# Stress axis : x y z
#
# Youngs Moduli (GPa) = 57.99121 82.37153 88.01319
#
# Poissons Ratio (x) = 0.45165 0.53323
# Poissons Ratio (y) = 0.31797 -0.02574
# Poissons Ratio (z) = 0.35134 -0.02409
#
# Static dielectric constant tensor:
#      x y z
#    x 1.629070 0.000000 0.000000 
#    y 0.000000 1.625850 0.000000 
#    z 0.000000 0.000000 1.616270 
# 
# From -- ./inp_files/3370.got.cif
#   From: 2010.05.17/outbox.cif.g08.bks.cpg/sg39_2_cif.got.tgz:3370.got - 2010.06.03 18:22:40.
