data_PCOD9361196
_publ_section_title
;
Structure prediction by ZEFSAII (Michael W. Deem and Ramdas Pophale) SiO2 
 PCOD9361196
Probable space group: A B M 2
;
_chemical_formula_sum "Si O2"
_cell_formula_units_Z 64
_cell_length_a 12.157468
_cell_length_b 23.857917
_cell_length_c 11.758522
_cell_angle_alpha 90.000000
_cell_angle_beta 90.000000
_cell_angle_gamma 90.000000
_cell_volume 3410.581206
_symmetry_space_group_name_H-M "A B M 2"
_symmetry_group_IT_number 39
_symmetry_cell_setting 'orthorhombic'
loop_
_space_group_symop_operation_xyz
x,y,z
-x,-y,z
-x,1/2+y,z
x,1/2-y,z
x,1/2+y,1/2+z
-x,1/2-y,1/2+z
-x,y,1/2+z
x,-y,1/2+z
loop_
_atom_site_type_symbol
_atom_site_label
_atom_site_fract_x
_atom_site_fract_y
_atom_site_fract_z
Si Si1 0.370884 0.484701 0.716590
Si Si2 0.231817 0.316427 0.862941
Si Si3 0.418330 0.355111 0.725736
Si Si4 0.627524 0.021096 0.965180
Si Si5 0.653658 0.813761 0.254086
Si Si6 0.144396 0.818396 0.602656
Si Si7 0.311904 0.650487 0.000393
Si Si8 0.108091 0.181736 0.632654
O O1 0.500000 0.500000 0.714953
O O2 0.371355 0.417572 0.721855
O O3 0.325720 0.505224 0.839519
O O4 0.327697 0.501001 0.589164
O O5 0.856718 0.250000 0.602781
O O6 0.358970 0.328267 0.834428
O O7 0.160114 0.334516 0.754291
O O8 0.187760 0.339544 0.981130
O O9 0.548563 0.351841 0.728427
O O10 0.375962 0.326299 0.610451
O O11 0.641856 0.088234 0.974773
O O12 0.500000 0.000000 0.962376
O O13 0.630549 0.750000 0.214794
O O14 0.764902 0.834704 0.195269
O O15 0.670600 0.814295 0.388224
O O16 0.218419 0.750000 0.369527
O O17 0.019065 0.834841 0.625222
O O18 0.184568 0.653190 0.037723
O O19 0.116129 0.250000 0.620506
#
# Coordination Sequence:
#
# PCOD9361196 Si02
#       8
#     8   8   8   8   8   8   8   8
#     4   9  17  32  51  73 104 135 170 218 267 327
#     4   9  18  34  52  73 105 144 182 218 267 325
#     4  10  21  35  51  75 112 146 178 214 278 347
#     4   9  17  32  52  76 108 133 170 221 273 335
#     4  11  22  32  48  76 112 147 185 226 269 326
#     4   9  20  34  50  75 105 144 192 232 265 308
#     4  10  21  35  53  79 109 140 184 225 280 330
#     4   9  18  34  56  75 103 146 188 231 270 315
#
# _framework density 18.765129999999999
#
# number of rings (size 3 to 8) (size 9 to 14) (size 15 to 20)
#    0.000    2.500    0.000    2.250    3.500    1.500 
#    2.250    0.000    0.000    0.000    0.000    0.875 
#    3.750    0.000    0.000    0.000    0.000    0.000 
#
# Total GULP energy -178153.826799 kJ/mol
# GULP energy per Si atom -5567.307087 kJ/mol
# Density = 1.872242 g / cm^3
# Si number density = 18.765130 Si / 1000 Ang^3
#
#
#
# Elastic Constant Matrix: (Units=GPa)
#
#
# Indices 1 2 3 4 5 6 
#
# 1 102.6850 9.4554 17.5160 0.0000 0.0000 0.0000
# 2 9.4554 32.3079 12.6612 0.0000 0.0000 0.0000
# 3 17.5160 12.6612 99.4569 0.0000 0.0000 0.0000
# 4 0.0000 0.0000 0.0000 17.6006 0.0000 0.0000
# 5 0.0000 0.0000 0.0000 0.0000 13.0577 0.0000
# 6 0.0000 0.0000 0.0000 0.0000 0.0000 7.0498
#
#
#
# Elastic Compliance Matrix: (Units=1/GPa)
#
#
# Indices 1 2 3 4 5 6 
#
# 1 0.010215 -0.002404 -0.001493 0.000000 0.000000 0.000000
# 2 -0.002404 0.033143 -0.003796 0.000000 0.000000 0.000000
# 3 -0.001493 -0.003796 0.010801 0.000000 0.000000 0.000000
# 4 0.000000 0.000000 0.000000 0.056816 0.000000 0.000000
# 5 0.000000 0.000000 0.000000 0.000000 0.076583 0.000000
# 6 0.000000 0.000000 0.000000 0.000000 0.000000 0.141849
#
#
# Mechanical properties :
#
#
# Convention : Reuss Voigt Hill
#
# Bulk Modulus (GPa) = 25.79146 34.85724 30.32435
# Shear Modulus (GPa) = 13.97752 20.52943 17.25348
#
# Velocity S-wave (km/s) = 2.73219 3.31119 3.03552
# Velocity P-wave (km/s) = 4.87107 5.76493 5.33675
#
# Compressibility (1/GPa) = 0.03877253
#
# Stress axis : x y z
#
# Youngs Moduli (GPa) = 97.89930 30.17195 92.58620
#
# Poissons Ratio (x) = 0.07255 0.13822
# Poissons Ratio (y) = 0.23539 0.35144
# Poissons Ratio (z) = 0.14615 0.11453
#
# Static dielectric constant tensor:
#      x y z
#    x 1.599810 0.000000 0.000000 
#    y 0.000000 1.727400 0.000000 
#    z 0.000000 0.000000 1.716100 
# 
# From -- ./inp_files/6094.got.cif
#   From: 2010.05.17/outbox.cif.g08.bks.cpg/sg39_4_cif.got.tgz:6094.got - 2010.06.03 18:22:40.
