data_PCOD9361774
_publ_section_title
;
Structure prediction by ZEFSAII (Michael W. Deem and Ramdas Pophale) SiO2 
 PCOD9361774
Probable space group: A B M 2
;
_chemical_formula_sum "Si O2"
_cell_formula_units_Z 48
_cell_length_a 12.365217
_cell_length_b 17.453747
_cell_length_c 10.754032
_cell_angle_alpha 90.000000
_cell_angle_beta 90.000000
_cell_angle_gamma 90.000000
_cell_volume 2320.928402
_symmetry_space_group_name_H-M "A B M 2"
_symmetry_group_IT_number 39
_symmetry_cell_setting 'orthorhombic'
loop_
_space_group_symop_operation_xyz
x,y,z
-x,-y,z
-x,1/2+y,z
x,1/2-y,z
x,1/2+y,1/2+z
-x,1/2-y,1/2+z
-x,y,1/2+z
x,-y,1/2+z
loop_
_atom_site_type_symbol
_atom_site_label
_atom_site_fract_x
_atom_site_fract_y
_atom_site_fract_z
Si Si1 0.934316 0.157876 0.399520
Si Si2 0.698875 0.162483 0.010689
Si Si3 0.488755 0.337469 0.694257
Si Si4 0.296499 0.923249 0.755177
Si Si5 0.085246 0.657661 0.673045
Si Si6 0.727684 0.895841 0.768622
O O1 0.926874 0.250000 0.390652
O O2 0.967576 0.138891 0.539961
O O3 0.816591 0.124381 0.369234
O O4 0.015944 0.131997 0.292012
O O5 0.723084 0.250000 0.974652
O O6 0.714693 0.106866 0.896503
O O7 0.575418 0.158021 0.062873
O O8 0.763656 0.140486 0.135603
O O9 0.524338 0.250000 0.714853
O O10 0.587933 0.394160 0.706493
O O11 0.390872 0.358826 0.788523
O O12 0.200918 0.882685 0.680057
O O13 0.286858 0.014123 0.751413
O O14 0.098130 0.750000 0.679694
#
# Coordination Sequence:
#
# PCOD9361774 Si02
#       6
#     8   8   8   8   8   8
#     4  10  22  43  67  93 127 170 222 267 322 399
#     4   9  21  40  64  88 124 178 218 256 316 394
#     4   9  20  40  62  90 127 172 215 258 315 392
#     4  12  23  39  64  98 132 163 216 274 332 383
#     4  10  24  41  67  96 125 170 218 271 324 394
#     4  10  23  40  63  95 127 169 209 267 334 383
#
# _framework density 20.681380000000001
#
# number of rings (size 3 to 8) (size 9 to 14) (size 15 to 20)
#    1.000    1.000    0.000    3.000    4.667    2.000 
#    3.000    3.333    0.000    0.000    0.000    0.000 
#    0.000    0.000    0.000    0.000    0.000    0.000 
#
# Total GULP energy -133948.829873 kJ/mol
# GULP energy per Si atom -5581.201245 kJ/mol
# Density = 2.063431 g / cm^3
# Si number density = 20.681380 Si / 1000 Ang^3
#
#
#
# Elastic Constant Matrix: (Units=GPa)
#
#
# Indices 1 2 3 4 5 6 
#
# 1 75.6039 3.1278 18.5203 0.0000 0.0000 0.0000
# 2 3.1278 24.1445 10.9575 0.0000 0.0000 0.0000
# 3 18.5203 10.9575 82.3062 0.0000 0.0000 0.0000
# 4 0.0000 0.0000 0.0000 3.6696 0.0000 0.0000
# 5 0.0000 0.0000 0.0000 0.0000 27.1556 0.0000
# 6 0.0000 0.0000 0.0000 0.0000 0.0000 -12.8538
#
#
#
# Elastic Compliance Matrix: (Units=1/GPa)
#
#
# Indices 1 2 3 4 5 6 
#
# 1 0.014002 -0.000409 -0.003096 0.000000 0.000000 0.000000
# 2 -0.000409 0.044093 -0.005778 0.000000 0.000000 0.000000
# 3 -0.003096 -0.005778 0.013616 0.000000 0.000000 0.000000
# 4 0.000000 0.000000 0.000000 0.272509 0.000000 0.000000
# 5 0.000000 0.000000 0.000000 0.000000 0.036825 0.000000
# 6 0.000000 0.000000 0.000000 0.000000 0.000000 -0.077798
#
#
# Mechanical properties :
#
#
# Convention : Reuss Voigt Hill
#
# Bulk Modulus (GPa) = 18.81671 27.47396 23.14534
# Shear Modulus (GPa) = 14.72636 13.55755 14.14195
#
# Velocity S-wave (km/s) = 2.67134 2.56314 2.61780
# Velocity P-wave (km/s) = 4.31658 4.69817 4.51141
#
# Compressibility (1/GPa) = 0.05314424
#
# Stress axis : x y z
#
# Youngs Moduli (GPa) = 71.41716 22.67956 73.44449
#
# Poissons Ratio (x) = 0.00927 0.22741
# Poissons Ratio (y) = 0.02919 0.42437
# Poissons Ratio (z) = 0.22113 0.13104
#
# Static dielectric constant tensor:
#      x y z
#    x 1.753570 0.000000 0.000000 
#    y 0.000000 1.684170 0.000000 
#    z 0.000000 0.000000 1.776400 
# 
# From -- ./inp_files/5838.got.cif
#   From: 2010.05.17/outbox.cif.g08.bks.cpg/sg39_3_cif.got.tgz:5838.got - 2010.06.03 18:22:40.
