data_PCOD9361975
_publ_section_title
;
Structure prediction by ZEFSAII (Michael W. Deem and Ramdas Pophale) SiO2 
 PCOD9361975
Probable space group: A B M 2
;
_chemical_formula_sum "Si O2"
_cell_formula_units_Z 40
_cell_length_a 7.985038
_cell_length_b 20.263871
_cell_length_c 9.922884
_cell_angle_alpha 90.000000
_cell_angle_beta 90.000000
_cell_angle_gamma 90.000000
_cell_volume 1605.599831
_symmetry_space_group_name_H-M "A B M 2"
_symmetry_group_IT_number 39
_symmetry_cell_setting 'orthorhombic'
loop_
_space_group_symop_operation_xyz
x,y,z
-x,-y,z
-x,1/2+y,z
x,1/2-y,z
x,1/2+y,1/2+z
-x,1/2-y,1/2+z
-x,y,1/2+z
x,-y,1/2+z
loop_
_atom_site_type_symbol
_atom_site_label
_atom_site_fract_x
_atom_site_fract_y
_atom_site_fract_z
Si Si1 0.785274 0.640768 0.029770
Si Si2 0.000000 0.500000 0.770555
Si Si3 0.734340 0.750000 0.824433
Si Si4 0.725217 0.250000 0.055755
Si Si5 0.143187 0.750000 0.758469
Si Si6 0.320369 0.497647 0.958353
Si Si7 0.123469 0.391610 0.572681
O O1 0.816854 0.686591 0.161597
O O2 0.970003 0.621649 0.970365
O O3 0.698694 0.686499 0.917801
O O4 0.693321 0.570653 0.041113
O O5 0.166786 0.502195 0.857016
O O6 0.022910 0.435642 0.679183
O O7 0.611767 0.750000 0.692315
O O8 0.944089 0.750000 0.805365
O O9 0.813647 0.181373 0.095198
O O10 0.740231 0.250000 0.893508
O O11 0.500000 0.500000 0.891422
O O12 0.283230 0.563187 0.043494
#
# Coordination Sequence:
#
# PCOD9361975 Si02
#       7
#     8   4   4   4   4   8   8
#     4  11  21  42  71 109 151 196 251 319 384 466
#     4  12  24  46  76 108 154 206 256 332 398 470
#     4  11  19  37  70 108 148 191 251 314 384 463
#     4  12  24  36  70 116 145 193 262 317 377 476
#     4  11  21  35  70 114 147 190 251 317 391 461
#     4  12  28  47  73 111 154 204 269 324 389 466
#     4  12  23  42  73 105 150 197 252 314 394 456
#
# _framework density 24.912807999999998
#
# number of rings (size 3 to 8) (size 9 to 14) (size 15 to 20)
#    0.000    0.400    8.000    1.200    2.800    0.800 
#    0.000    2.000    0.000    2.400    0.000    0.000 
#    0.000    0.000    0.000    0.000    0.000    0.000 
#
# Total GULP energy -111389.357219 kJ/mol
# GULP energy per Si atom -5569.467861 kJ/mol
# Density = 2.485611 g / cm^3
# Si number density = 24.912808 Si / 1000 Ang^3
#
#
#
# Elastic Constant Matrix: (Units=GPa)
#
#
# Indices 1 2 3 4 5 6 
#
# 1 102.3093 36.1575 18.2655 0.0000 0.0000 0.0000
# 2 36.1575 213.9235 38.6851 0.0000 0.0000 0.0000
# 3 18.2655 38.6851 116.9024 0.0000 0.0000 0.0000
# 4 0.0000 0.0000 0.0000 -1.5915 0.0000 0.0000
# 5 0.0000 0.0000 0.0000 0.0000 -14.7016 0.0000
# 6 0.0000 0.0000 0.0000 0.0000 0.0000 -5.1325
#
#
#
# Elastic Compliance Matrix: (Units=1/GPa)
#
#
# Indices 1 2 3 4 5 6 
#
# 1 0.010532 -0.001577 -0.001124 0.000000 0.000000 0.000000
# 2 -0.001577 0.005208 -0.001477 0.000000 0.000000 0.000000
# 3 -0.001124 -0.001477 0.009219 0.000000 0.000000 0.000000
# 4 0.000000 0.000000 0.000000 -0.628329 0.000000 0.000000
# 5 0.000000 0.000000 0.000000 0.000000 -0.068020 0.000000
# 6 0.000000 0.000000 0.000000 0.000000 0.000000 -0.194835
#
#
# Mechanical properties :
#
#
# Convention : Reuss Voigt Hill
#
# Bulk Modulus (GPa) = 60.22889 68.81682 64.52285
# Shear Modulus (GPa) = -5.86624 18.38335 6.25856
#
# Velocity S-wave (km/s) = -1.53617 2.71939 1.58671
# Velocity P-wave (km/s) = 4.59151 6.12725 5.41411
#
# Compressibility (1/GPa) = 0.01660333
#
# Stress axis : x y z
#
# Youngs Moduli (GPa) = 94.94671 192.00423 108.47718
#
# Poissons Ratio (x) = 0.30278 0.12190
# Poissons Ratio (y) = 0.14973 0.16023
# Poissons Ratio (z) = 0.10670 0.28361
#
# Static dielectric constant tensor:
#      x y z
#    x 2.001270 0.000000 0.000000 
#    y 0.000000 2.206240 0.000000 
#    z 0.000000 0.000000 2.169630 
# 
# From -- ./inp_files/5099.got.cif
#   From: 2010.05.17/outbox.cif.g08.bks.cpg/sg39_3_cif.got.tgz:5099.got - 2010.06.03 18:22:40.
