data_PCOD9361450
_publ_section_title
;
Structure prediction by ZEFSAII (Michael W. Deem and Ramdas Pophale) SiO2 
 PCOD9361450
Probable space group: A B M 2
;
_chemical_formula_sum "Si O2"
_cell_formula_units_Z 48
_cell_length_a 11.874296
_cell_length_b 15.566562
_cell_length_c 13.417459
_cell_angle_alpha 90.000000
_cell_angle_beta 90.000000
_cell_angle_gamma 90.000000
_cell_volume 2480.109485
_symmetry_space_group_name_H-M "A B M 2"
_symmetry_group_IT_number 39
_symmetry_cell_setting 'orthorhombic'
loop_
_space_group_symop_operation_xyz
x,y,z
-x,-y,z
-x,1/2+y,z
x,1/2-y,z
x,1/2+y,1/2+z
-x,1/2-y,1/2+z
-x,y,1/2+z
x,-y,1/2+z
loop_
_atom_site_type_symbol
_atom_site_label
_atom_site_fract_x
_atom_site_fract_y
_atom_site_fract_z
Si Si1 0.261225 0.095200 0.463840
Si Si2 0.993303 0.750000 0.748306
Si Si3 0.208295 0.151968 0.249733
Si Si4 0.511867 0.400539 0.400032
Si Si5 0.729864 0.905282 0.037977
Si Si6 0.782777 0.250000 0.103164
Si Si7 0.385456 0.750000 0.279598
Si Si8 0.832327 0.750000 0.925866
O O1 0.219462 0.099405 0.350492
O O2 0.393627 0.117277 0.452718
O O3 0.210032 0.167544 0.533183
O O4 0.240086 0.002350 0.510444
O O5 0.887559 0.750000 0.677217
O O6 0.945067 0.750000 0.860645
O O7 0.076172 0.669598 0.729806
O O8 0.252961 0.250000 0.266313
O O9 0.269743 0.110467 0.155892
O O10 0.500000 0.500000 0.365471
O O11 0.610307 0.392138 0.482463
O O12 0.543696 0.334209 0.312279
O O13 0.814847 0.834528 0.992576
O O14 0.667526 0.250000 0.169237
O O15 0.274046 0.750000 0.350001
#
# Coordination Sequence:
#
# PCOD9361450 Si02
#       8
#     8   4   8   8   8   4   4   4
#     4  11  23  39  61  93 131 157 204 261 303 362
#     4   9  22  40  67  81 123 161 204 264 317 354
#     4  10  22  41  62  87 119 169 199 254 313 358
#     4   9  20  38  58  90 126 160 196 251 301 362
#     4  10  21  39  66  90 123 167 206 242 305 382
#     4  11  22  41  58  90 122 165 208 259 311 359
#     4   9  19  32  61  85 115 159 202 242 294 372
#     4   9  17  39  60  88 112 157 208 249 296 359
#
# _framework density 19.353984000000001
#
# number of rings (size 3 to 8) (size 9 to 14) (size 15 to 20)
#    0.500    1.667    1.667    0.500    0.000    9.333 
#    0.000   10.000    0.000    0.000    0.000    0.000 
#    0.000    0.000    0.000    0.000    0.000    0.000 
#
# Total GULP energy -133845.685260 kJ/mol
# GULP energy per Si atom -5576.903552 kJ/mol
# Density = 1.930993 g / cm^3
# Si number density = 19.353984 Si / 1000 Ang^3
#
#
#
# Elastic Constant Matrix: (Units=GPa)
#
#
# Indices 1 2 3 4 5 6 
#
# 1 64.3264 34.8149 17.0824 0.0000 0.0000 0.0000
# 2 34.8149 73.8410 33.4674 0.0000 0.0000 0.0000
# 3 17.0824 33.4674 87.1917 0.0000 0.0000 0.0000
# 4 0.0000 0.0000 0.0000 29.7186 0.0000 0.0000
# 5 0.0000 0.0000 0.0000 0.0000 20.7823 0.0000
# 6 0.0000 0.0000 0.0000 0.0000 0.0000 -48.2357
#
#
#
# Elastic Compliance Matrix: (Units=1/GPa)
#
#
# Indices 1 2 3 4 5 6 
#
# 1 0.020882 -0.009674 -0.000378 0.000000 0.000000 0.000000
# 2 -0.009674 0.020877 -0.006118 0.000000 0.000000 0.000000
# 3 -0.000378 -0.006118 0.013891 0.000000 0.000000 0.000000
# 4 0.000000 0.000000 0.000000 0.033649 0.000000 0.000000
# 5 0.000000 0.000000 0.000000 0.000000 0.048118 0.000000
# 6 0.000000 0.000000 0.000000 0.000000 0.000000 -0.020732
#
#
# Mechanical properties :
#
#
# Convention : Reuss Voigt Hill
#
# Bulk Modulus (GPa) = 42.90003 44.00984 43.45494
# Shear Modulus (GPa) = 31.88871 9.78600 20.83736
#
# Velocity S-wave (km/s) = 4.06354 2.25107 3.28479
# Velocity P-wave (km/s) = 6.65061 5.43555 6.07354
#
# Compressibility (1/GPa) = 0.02331001
#
# Stress axis : x y z
#
# Youngs Moduli (GPa) = 47.88810 47.90015 71.98763
#
# Poissons Ratio (x) = 0.46340 0.02720
# Poissons Ratio (y) = 0.46328 0.44041
# Poissons Ratio (z) = 0.01809 0.29305
#
# Static dielectric constant tensor:
#      x y z
#    x 1.690110 0.000000 0.000000 
#    y 0.000000 1.667620 0.000000 
#    z 0.000000 0.000000 1.662020 
# 
# From -- ./inp_files/5875.got.cif
#   From: 2010.05.17/outbox.cif.g08.bks.cpg/sg39_3_cif.got.tgz:5875.got - 2010.06.03 18:22:40.
