data_PCOD9361921
_publ_section_title
;
Structure prediction by ZEFSAII (Michael W. Deem and Ramdas Pophale) SiO2 
 PCOD9361921
Probable space group: A B M 2
;
_chemical_formula_sum "Si O2"
_cell_formula_units_Z 36
_cell_length_a 12.089966
_cell_length_b 20.528808
_cell_length_c 5.426504
_cell_angle_alpha 90.000000
_cell_angle_beta 90.000000
_cell_angle_gamma 90.000000
_cell_volume 1346.818086
_symmetry_space_group_name_H-M "A B M 2"
_symmetry_group_IT_number 39
_symmetry_cell_setting 'orthorhombic'
loop_
_space_group_symop_operation_xyz
x,y,z
-x,-y,z
-x,1/2+y,z
x,1/2-y,z
x,1/2+y,1/2+z
-x,1/2-y,1/2+z
-x,y,1/2+z
x,-y,1/2+z
loop_
_atom_site_type_symbol
_atom_site_label
_atom_site_fract_x
_atom_site_fract_y
_atom_site_fract_z
Si Si1 0.739904 0.366222 0.192030
Si Si2 0.128359 0.471881 0.979230
Si Si3 0.949726 0.326445 0.924351
Si Si4 0.424444 0.250000 0.810045
Si Si5 0.459634 0.426180 0.442647
O O1 0.817862 0.404436 0.382374
O O2 0.822668 0.334229 0.993750
O O3 0.660191 0.311180 0.302645
O O4 0.659485 0.416870 0.058650
O O5 0.169679 0.517467 0.754832
O O6 0.000000 0.500000 0.996163
O O7 0.978800 0.250000 0.907882
O O8 0.013580 0.355221 0.162928
O O9 0.496151 0.250000 0.552308
O O10 0.500000 0.500000 0.408249
O O11 0.534117 0.397644 0.667409
#
# Coordination Sequence:
#
# PCOD9361921 Si02
#       5
#     8   8   8   4   8
#     4  12  26  48  80 105 153 198 247 307 392 428
#     4  10  26  45  69 108 151 196 249 306 371 452
#     4  10  24  44  69 107 144 183 236 288 359 453
#     4  12  30  54  78 116 150 198 262 324 376 458
#     4  10  24  43  65  98 135 184 242 296 350 423
#
# _framework density 26.729668
#
# number of rings (size 3 to 8) (size 9 to 14) (size 15 to 20)
#    0.000    1.333    1.111    1.333   12.444    5.333 
#    0.000    0.000    0.000    0.000    0.000    0.000 
#    0.000    0.000    0.000    0.000    0.000    0.000 
#
# Total GULP energy -100562.211192 kJ/mol
# GULP energy per Si atom -5586.789511 kJ/mol
# Density = 2.666883 g / cm^3
# Si number density = 26.729668 Si / 1000 Ang^3
#
#
#
# Elastic Constant Matrix: (Units=GPa)
#
#
# Indices 1 2 3 4 5 6 
#
# 1 146.0661 76.5009 75.0894 0.0000 0.0000 0.0000
# 2 76.5009 119.9213 51.6355 0.0000 0.0000 0.0000
# 3 75.0894 51.6355 186.3404 0.0000 0.0000 0.0000
# 4 0.0000 0.0000 0.0000 17.3813 0.0000 0.0000
# 5 0.0000 0.0000 0.0000 0.0000 47.7681 0.0000
# 6 0.0000 0.0000 0.0000 0.0000 0.0000 61.9653
#
#
#
# Elastic Compliance Matrix: (Units=1/GPa)
#
#
# Indices 1 2 3 4 5 6 
#
# 1 0.011569 -0.006101 -0.002971 0.000000 0.000000 0.000000
# 2 -0.006101 0.012686 -0.001057 0.000000 0.000000 0.000000
# 3 -0.002971 -0.001057 0.006857 0.000000 0.000000 0.000000
# 4 0.000000 0.000000 0.000000 0.057533 0.000000 0.000000
# 5 0.000000 0.000000 0.000000 0.000000 0.020934 0.000000
# 6 0.000000 0.000000 0.000000 0.000000 0.000000 0.016138
#
#
# Mechanical properties :
#
#
# Convention : Reuss Voigt Hill
#
# Bulk Modulus (GPa) = 92.13651 95.41994 93.77823
# Shear Modulus (GPa) = 33.42408 42.02973 37.72691
#
# Velocity S-wave (km/s) = 3.54000 3.96965 3.76097
# Velocity P-wave (km/s) = 7.15915 7.53568 7.34983
#
# Compressibility (1/GPa) = 0.01085346
#
# Stress axis : x y z
#
# Youngs Moduli (GPa) = 86.43823 78.82915 145.84157
#
# Poissons Ratio (x) = 0.48091 0.43335
# Poissons Ratio (y) = 0.52734 0.15413
# Poissons Ratio (z) = 0.25684 0.08331
#
# Static dielectric constant tensor:
#      x y z
#    x 2.099700 0.000000 0.000000 
#    y 0.000000 2.265970 0.000000 
#    z 0.000000 0.000000 2.082660 
# 
# From -- ./inp_files/312.got.cif
#   From: 2010.05.17/outbox.cif.g08.bks.cpg/sg39_1_cif.got.tgz:312.got - 2010.06.03 18:22:40.
