data_PCOD9361225
_publ_section_title
;
Structure prediction by ZEFSAII (Michael W. Deem and Ramdas Pophale) SiO2 
 PCOD9361225
Probable space group: A B M 2
;
_chemical_formula_sum "Si O2"
_cell_formula_units_Z 56
_cell_length_a 19.650324
_cell_length_b 10.809363
_cell_length_c 13.844247
_cell_angle_alpha 90.000000
_cell_angle_beta 90.000000
_cell_angle_gamma 90.000000
_cell_volume 2940.621690
_symmetry_space_group_name_H-M "A B M 2"
_symmetry_group_IT_number 39
_symmetry_cell_setting 'orthorhombic'
loop_
_space_group_symop_operation_xyz
x,y,z
-x,-y,z
-x,1/2+y,z
x,1/2-y,z
x,1/2+y,1/2+z
-x,1/2-y,1/2+z
-x,y,1/2+z
x,-y,1/2+z
loop_
_atom_site_type_symbol
_atom_site_label
_atom_site_fract_x
_atom_site_fract_y
_atom_site_fract_z
Si Si1 0.778012 0.889933 0.707700
Si Si2 0.076592 0.620143 0.497298
Si Si3 0.332934 0.607180 0.039051
Si Si4 0.882272 0.886406 0.207642
Si Si5 0.332932 0.392821 0.876348
Si Si6 0.923436 0.120145 0.917941
Si Si7 0.444391 0.892446 0.207700
O O1 0.806905 0.750000 0.707702
O O2 0.731020 0.902740 0.612403
O O3 0.731021 0.902748 0.802995
O O4 0.832289 0.998711 0.707685
O O5 0.110405 0.750000 0.470798
O O6 0.073446 0.609647 0.611677
O O7 0.113319 0.499993 0.457605
O O8 0.000009 0.622651 0.457635
O O9 0.333534 0.750000 0.000664
O O10 0.397170 0.594665 0.112150
O O11 0.332411 0.499999 0.957700
O O12 0.847371 0.750000 0.207656
O O13 0.926606 0.890337 0.303561
O O14 0.333529 0.250000 0.914732
O O15 0.397170 0.405333 0.803249
O O16 0.889617 0.250000 0.944432
O O17 0.470925 0.750000 0.207699
O O18 0.500000 0.000000 0.207701
#
# Coordination Sequence:
#
# PCOD9361225 Si02
#       7
#     8   8   8   8   8   8   8
#     4   9  20  38  56  76 105 140 177 219 268 320
#     4   9  19  35  53  74 101 132 166 205 252 309
#     4   9  19  36  56  78 107 144 183 223 268 317
#     4  10  21  36  54  78 106 135 171 216 264 317
#     4   9  19  36  56  78 107 144 183 223 268 317
#     4   9  19  35  53  74 101 132 166 205 252 309
#     4   9  19  35  53  78 113 148 185 226 266 314
#
# _framework density 19.043592
#
# number of rings (size 3 to 8) (size 9 to 14) (size 15 to 20)
#    0.000    2.857    0.000    1.714    0.000    7.429 
#    0.000   12.857    0.000    0.000    0.000    0.000 
#    0.000    0.000    0.000    0.000    0.000    0.000 
#
# Total GULP energy -155956.407512 kJ/mol
# GULP energy per Si atom -5569.871697 kJ/mol
# Density = 1.900025 g / cm^3
# Si number density = 19.043592 Si / 1000 Ang^3
#
#
#
# Elastic Constant Matrix: (Units=GPa)
#
#
# Indices 1 2 3 4 5 6 
#
# 1 60.2529 56.6978 25.2792 0.0000 0.0000 0.0000
# 2 56.6978 224.2135 101.4505 0.0000 0.0000 0.0000
# 3 25.2792 101.4505 112.6245 0.0000 0.0000 0.0000
# 4 0.0000 0.0000 0.0000 40.4879 0.0000 0.0000
# 5 0.0000 0.0000 0.0000 0.0000 -0.7813 0.0000
# 6 0.0000 0.0000 0.0000 0.0000 0.0000 8.0577
#
#
#
# Elastic Compliance Matrix: (Units=1/GPa)
#
#
# Indices 1 2 3 4 5 6 
#
# 1 0.021780 -0.005563 0.000122 0.000000 0.000000 0.000000
# 2 -0.005563 0.008949 -0.006813 0.000000 0.000000 0.000000
# 3 0.000122 -0.006813 0.014989 0.000000 0.000000 0.000000
# 4 0.000000 0.000000 0.000000 0.024699 0.000000 0.000000
# 5 0.000000 0.000000 0.000000 0.000000 -1.279930 0.000000
# 6 0.000000 0.000000 0.000000 0.000000 0.000000 0.124104
#
#
# Mechanical properties :
#
#
# Convention : Reuss Voigt Hill
#
# Bulk Modulus (GPa) = 47.14504 84.88289 66.01397
# Shear Modulus (GPa) = -4.74459 23.79708 9.52624
#
# Velocity S-wave (km/s) = -1.58014 3.53882 2.23902
# Velocity P-wave (km/s) = 4.63476 7.83373 6.43616
#
# Compressibility (1/GPa) = 0.02121114
#
# Stress axis : x y z
#
# Youngs Moduli (GPa) = 45.91337 111.73919 66.71779
#
# Poissons Ratio (x) = 0.62161 -0.00817
# Poissons Ratio (y) = 0.25542 0.45454
# Poissons Ratio (z) = -0.00562 0.76126
#
# Static dielectric constant tensor:
#      x y z
#    x 1.633030 0.000000 0.000000 
#    y 0.000000 1.756020 0.000000 
#    z 0.000000 0.000000 1.672620 
# 
# From -- ./inp_files/6981.got.cif
#   From: 2010.05.17/outbox.cif.g08.bks.cpg/sg39_4_cif.got.tgz:6981.got - 2010.06.03 18:22:40.
