data_PCOD9361387
_publ_section_title
;
Structure prediction by ZEFSAII (Michael W. Deem and Ramdas Pophale) SiO2 
 PCOD9361387
Probable space group: A B M 2
;
_chemical_formula_sum "Si O2"
_cell_formula_units_Z 56
_cell_length_a 8.084610
_cell_length_b 21.426776
_cell_length_c 15.685741
_cell_angle_alpha 90.000000
_cell_angle_beta 90.000000
_cell_angle_gamma 90.000000
_cell_volume 2717.195856
_symmetry_space_group_name_H-M "A B M 2"
_symmetry_group_IT_number 39
_symmetry_cell_setting 'orthorhombic'
loop_
_space_group_symop_operation_xyz
x,y,z
-x,-y,z
-x,1/2+y,z
x,1/2-y,z
x,1/2+y,1/2+z
-x,1/2-y,1/2+z
-x,y,1/2+z
x,-y,1/2+z
loop_
_atom_site_type_symbol
_atom_site_label
_atom_site_fract_x
_atom_site_fract_y
_atom_site_fract_z
Si Si1 0.992936 0.181586 0.699560
Si Si2 0.341030 0.960344 0.267885
Si Si3 0.809949 0.928135 0.469470
Si Si4 0.687545 0.182117 0.567184
Si Si5 0.338843 0.356311 0.625887
Si Si6 0.795485 0.570924 0.953496
Si Si7 0.113526 0.057587 0.291429
O O1 0.976820 0.250000 0.743214
O O2 0.842169 0.177797 0.632221
O O3 0.974015 0.117591 0.753336
O O4 0.173699 0.179028 0.656988
O O5 0.369570 0.909395 0.196551
O O6 0.268221 0.930648 0.355283
O O7 0.500000 0.000000 0.291421
O O8 0.219335 0.014247 0.228715
O O9 0.714361 0.886110 0.535632
O O10 0.772051 0.919779 0.369145
O O11 0.008452 0.915461 0.468602
O O12 0.772744 0.000689 0.488314
O O13 0.701156 0.250000 0.523766
O O14 0.511248 0.178942 0.614368
O O15 0.699364 0.124034 0.503931
O O16 0.000000 0.000000 0.327437
#
# Coordination Sequence:
#
# PCOD9361387 Si02
#       7
#     8   8   8   8   8   8   8
#     4  11  24  44  68  92 131 179 218 273 338 399
#     4  11  24  39  66 103 137 170 215 282 337 394
#     4  10  21  38  69  99 128 162 215 278 331 392
#     4  11  26  44  62  92 134 174 225 274 325 402
#     4  12  24  41  69  98 130 171 224 271 332 400
#     4  10  21  42  63  96 133 169 217 266 332 392
#     4  11  20  42  64  97 130 162 218 273 325 394
#
# _framework density 20.609483000000001
#
# number of rings (size 3 to 8) (size 9 to 14) (size 15 to 20)
#    0.000    1.143    5.714    1.286    8.000    0.000 
#    0.000    5.000    0.000    0.000    0.000    0.000 
#    0.000    0.000    0.000    0.000    0.000    0.000 
#
# Total GULP energy -156006.282244 kJ/mol
# GULP energy per Si atom -5571.652937 kJ/mol
# Density = 2.056258 g / cm^3
# Si number density = 20.609483 Si / 1000 Ang^3
#
#
#
# Elastic Constant Matrix: (Units=GPa)
#
#
# Indices 1 2 3 4 5 6 
#
# 1 109.8281 40.3992 28.2115 0.0000 0.0000 0.0000
# 2 40.3992 135.7165 50.0783 0.0000 0.0000 0.0000
# 3 28.2115 50.0783 64.8624 0.0000 0.0000 0.0000
# 4 0.0000 0.0000 0.0000 27.2567 0.0000 0.0000
# 5 0.0000 0.0000 0.0000 0.0000 19.0738 0.0000
# 6 0.0000 0.0000 0.0000 0.0000 0.0000 -2.1741
#
#
#
# Elastic Compliance Matrix: (Units=1/GPa)
#
#
# Indices 1 2 3 4 5 6 
#
# 1 0.010640 -0.002041 -0.003052 0.000000 0.000000 0.000000
# 2 -0.002041 0.010695 -0.007370 0.000000 0.000000 0.000000
# 3 -0.003052 -0.007370 0.022435 0.000000 0.000000 0.000000
# 4 0.000000 0.000000 0.000000 0.036688 0.000000 0.000000
# 5 0.000000 0.000000 0.000000 0.000000 0.052428 0.000000
# 6 0.000000 0.000000 0.000000 0.000000 0.000000 -0.459962
#
#
# Mechanical properties :
#
#
# Convention : Reuss Voigt Hill
#
# Bulk Modulus (GPa) = 53.06636 60.86500 56.96568
# Shear Modulus (GPa) = -16.89937 21.61248 2.35656
#
# Velocity S-wave (km/s) = -2.86664 3.24183 1.07048
# Velocity P-wave (km/s) = 3.85326 6.60373 5.40633
#
# Compressibility (1/GPa) = 0.01884433
#
# Stress axis : x y z
#
# Youngs Moduli (GPa) = 93.98610 93.49939 44.57401
#
# Poissons Ratio (x) = 0.19084 0.13603
# Poissons Ratio (y) = 0.19183 0.32850
# Poissons Ratio (z) = 0.28683 0.68907
#
# Static dielectric constant tensor:
#      x y z
#    x 1.869860 0.000000 0.000000 
#    y 0.000000 1.491310 0.000000 
#    z 0.000000 0.000000 1.745050 
# 
# From -- ./inp_files/8618.got.cif
#   From: 2010.05.17/outbox.cif.g08.bks.cpg/sg39_5_cif.got.tgz:8618.got - 2010.06.03 18:22:40.
