data_PCOD9361420
_publ_section_title
;
Structure prediction by ZEFSAII (Michael W. Deem and Ramdas Pophale) SiO2 
 PCOD9361420
Probable space group: A B M 2
;
_chemical_formula_sum "Si O2"
_cell_formula_units_Z 64
_cell_length_a 15.899131
_cell_length_b 20.168560
_cell_length_c 9.822728
_cell_angle_alpha 90.000000
_cell_angle_beta 90.000000
_cell_angle_gamma 90.000000
_cell_volume 3149.781279
_symmetry_space_group_name_H-M "A B M 2"
_symmetry_group_IT_number 39
_symmetry_cell_setting 'orthorhombic'
loop_
_space_group_symop_operation_xyz
x,y,z
-x,-y,z
-x,1/2+y,z
x,1/2-y,z
x,1/2+y,1/2+z
-x,1/2-y,1/2+z
-x,y,1/2+z
x,-y,1/2+z
loop_
_atom_site_type_symbol
_atom_site_label
_atom_site_fract_x
_atom_site_fract_y
_atom_site_fract_z
Si Si1 0.057892 0.324663 0.090150
Si Si2 0.588658 0.961741 0.422905
Si Si3 0.542006 0.329288 0.762728
Si Si4 0.771291 0.395754 0.536376
Si Si5 0.303065 0.508566 0.183906
Si Si6 0.861913 0.521348 0.820766
Si Si7 0.972966 0.103547 0.849898
Si Si8 0.392174 0.327153 0.959048
O O1 0.043206 0.250000 0.047369
O O2 0.155468 0.344284 0.068969
O O3 0.039528 0.336096 0.248064
O O4 0.999109 0.372590 0.999405
O O5 0.581724 0.888258 0.355939
O O6 0.636929 0.007099 0.313443
O O7 0.500000 0.000000 0.449205
O O8 0.645303 0.962761 0.557979
O O9 0.566320 0.250000 0.783910
O O10 0.557766 0.344826 0.601657
O O11 0.447458 0.333920 0.822883
O O12 0.722673 0.431599 0.657985
O O13 0.820178 0.454747 0.460669
O O14 0.696133 0.364047 0.451335
O O15 0.211586 0.538189 0.214955
O O16 0.894000 0.445998 0.834572
O O17 0.945590 0.563256 0.797834
O O18 0.373391 0.250000 0.976166
#
# Coordination Sequence:
#
# PCOD9361420 Si02
#       8
#     8   8   8   8   8   8   8   8
#     4  11  23  40  64  92 125 166 206 248 303 378
#     4  12  26  40  63  94 128 165 211 268 319 378
#     4  10  23  41  62  88 122 168 214 260 325 385
#     4  11  21  39  61  91 121 159 206 253 312 366
#     4  12  23  39  62  91 127 159 208 258 320 368
#     4  10  23  39  65  95 123 161 201 263 311 371
#     4  10  23  40  66  92 129 159 208 249 315 372
#     4  10  21  39  62  88 123 165 212 260 311 379
#
# _framework density 20.318871999999999
#
# number of rings (size 3 to 8) (size 9 to 14) (size 15 to 20)
#    0.000    1.250    3.750    1.875    3.500    1.000 
#    0.000    0.000    0.000    3.750    0.000    0.000 
#    0.000    0.000    0.000    0.000    0.000    0.000 
#
# Total GULP energy -178353.352662 kJ/mol
# GULP energy per Si atom -5573.542271 kJ/mol
# Density = 2.027262 g / cm^3
# Si number density = 20.318872 Si / 1000 Ang^3
#
#
#
# Elastic Constant Matrix: (Units=GPa)
#
#
# Indices 1 2 3 4 5 6 
#
# 1 109.5406 25.2832 35.0210 0.0000 0.0000 0.0000
# 2 25.2832 65.0263 7.9735 0.0000 0.0000 0.0000
# 3 35.0210 7.9735 66.0478 0.0000 0.0000 0.0000
# 4 0.0000 0.0000 0.0000 23.5950 0.0000 0.0000
# 5 0.0000 0.0000 0.0000 0.0000 29.3911 0.0000
# 6 0.0000 0.0000 0.0000 0.0000 0.0000 20.7769
#
#
#
# Elastic Compliance Matrix: (Units=1/GPa)
#
#
# Indices 1 2 3 4 5 6 
#
# 1 0.011898 -0.003910 -0.005836 0.000000 0.000000 0.000000
# 2 -0.003910 0.016895 0.000034 0.000000 0.000000 0.000000
# 3 -0.005836 0.000034 0.018231 0.000000 0.000000 0.000000
# 4 0.000000 0.000000 0.000000 0.042382 0.000000 0.000000
# 5 0.000000 0.000000 0.000000 0.000000 0.034024 0.000000
# 6 0.000000 0.000000 0.000000 0.000000 0.000000 0.048130
#
#
# Mechanical properties :
#
#
# Convention : Reuss Voigt Hill
#
# Bulk Modulus (GPa) = 36.23520 41.90778 39.07149
# Shear Modulus (GPa) = 24.97696 26.24173 25.60934
#
# Velocity S-wave (km/s) = 3.50987 3.59764 3.55402
# Velocity P-wave (km/s) = 5.85641 6.15850 6.00936
#
# Compressibility (1/GPa) = 0.02759747
#
# Stress axis : x y z
#
# Youngs Moduli (GPa) = 84.05107 59.19047 54.85112
#
# Poissons Ratio (x) = 0.23145 0.32014
# Poissons Ratio (y) = 0.32866 -0.00185
# Poissons Ratio (z) = 0.49056 -0.00200
#
# Static dielectric constant tensor:
#      x y z
#    x 1.734140 0.000000 0.000000 
#    y 0.000000 1.758590 0.000000 
#    z 0.000000 0.000000 1.750310 
# 
# From -- ./inp_files/3518.got.cif
#   From: 2010.05.17/outbox.cif.g08.bks.cpg/sg39_2_cif.got.tgz:3518.got - 2010.06.03 18:22:40.
