data_PCOD9361761
_publ_section_title
;
Structure prediction by ZEFSAII (Michael W. Deem and Ramdas Pophale) SiO2 
 PCOD9361761
Probable space group: A B M 2
;
_chemical_formula_sum "Si O2"
_cell_formula_units_Z 56
_cell_length_a 13.442381
_cell_length_b 16.649287
_cell_length_c 9.957482
_cell_angle_alpha 90.000000
_cell_angle_beta 90.000000
_cell_angle_gamma 90.000000
_cell_volume 2228.544806
_symmetry_space_group_name_H-M "A B M 2"
_symmetry_group_IT_number 39
_symmetry_cell_setting 'orthorhombic'
loop_
_space_group_symop_operation_xyz
x,y,z
-x,-y,z
-x,1/2+y,z
x,1/2-y,z
x,1/2+y,1/2+z
-x,1/2-y,1/2+z
-x,y,1/2+z
x,-y,1/2+z
loop_
_atom_site_type_symbol
_atom_site_label
_atom_site_fract_x
_atom_site_fract_y
_atom_site_fract_z
Si Si1 0.895648 0.338999 0.757340
Si Si2 0.074082 0.439289 0.720114
Si Si3 0.501243 0.837328 0.107067
Si Si4 0.451031 0.924282 0.851464
Si Si5 0.744727 0.994759 0.386274
Si Si6 0.785681 0.842193 0.536775
Si Si7 0.268194 0.659444 0.530458
O O1 0.933218 0.250000 0.724968
O O2 0.822651 0.359993 0.632463
O O3 0.990638 0.390858 0.801053
O O4 0.824598 0.334350 0.885387
O O5 0.152938 0.491847 0.804647
O O6 0.129078 0.369944 0.638321
O O7 0.000000 0.500000 0.638404
O O8 0.469653 0.750000 0.155193
O O9 0.482310 0.899404 0.225631
O O10 0.620986 0.835939 0.092532
O O11 0.451949 0.855330 0.963533
O O12 0.500000 0.000000 0.924826
O O13 0.344356 0.955156 0.802863
O O14 0.723947 0.085877 0.428974
O O15 0.738708 0.933486 0.515165
O O16 0.749656 0.750000 0.571064
O O17 0.249089 0.750000 0.476139
#
# Coordination Sequence:
#
# PCOD9361761 Si02
#       7
#     8   8   8   8   8   8   8
#     4  10  22  42  68 100 141 192 248 311 378 449
#     4  12  26  42  68 104 143 197 252 307 371 447
#     4  11  25  48  78 110 146 197 256 322 390 467
#     4  12  26  47  77 111 153 195 251 315 391 462
#     4  12  27  46  75 107 150 199 250 309 384 456
#     4  11  26  45  68 102 143 189 247 308 373 444
#     4  10  23  45  75 109 145 194 254 314 385 458
#
# _framework density 25.128504
#
# number of rings (size 3 to 8) (size 9 to 14) (size 15 to 20)
#    0.000    0.857    2.857    3.000    6.000    3.429 
#    0.000    0.000    0.000    0.000    0.000    0.000 
#    0.000    0.000    0.000    0.000    0.000    0.000 
#
# Total GULP energy -155980.146179 kJ/mol
# GULP energy per Si atom -5570.719506 kJ/mol
# Density = 2.507131 g / cm^3
# Si number density = 25.128504 Si / 1000 Ang^3
#
#
#
# Elastic Constant Matrix: (Units=GPa)
#
#
# Indices 1 2 3 4 5 6 
#
# 1 113.2214 47.6112 21.9509 0.0000 0.0000 0.0000
# 2 47.6112 160.7711 28.3408 0.0000 0.0000 0.0000
# 3 21.9509 28.3408 53.7274 0.0000 0.0000 0.0000
# 4 0.0000 0.0000 0.0000 34.6039 0.0000 0.0000
# 5 0.0000 0.0000 0.0000 0.0000 21.0592 0.0000
# 6 0.0000 0.0000 0.0000 0.0000 0.0000 18.0537
#
#
#
# Elastic Compliance Matrix: (Units=1/GPa)
#
#
# Indices 1 2 3 4 5 6 
#
# 1 0.010488 -0.002591 -0.002918 0.000000 0.000000 0.000000
# 2 -0.002591 0.007498 -0.002896 0.000000 0.000000 0.000000
# 3 -0.002918 -0.002896 0.021332 0.000000 0.000000 0.000000
# 4 0.000000 0.000000 0.000000 0.028899 0.000000 0.000000
# 5 0.000000 0.000000 0.000000 0.000000 0.047485 0.000000
# 6 0.000000 0.000000 0.000000 0.000000 0.000000 0.055390
#
#
# Mechanical properties :
#
#
# Convention : Reuss Voigt Hill
#
# Bulk Modulus (GPa) = 44.43122 58.16951 51.30037
# Shear Modulus (GPa) = 25.58777 30.06449 27.82613
#
# Velocity S-wave (km/s) = 3.19451 3.46270 3.33130
# Velocity P-wave (km/s) = 5.59701 6.25988 5.93770
#
# Compressibility (1/GPa) = 0.02250670
#
# Stress axis : x y z
#
# Youngs Moduli (GPa) = 95.34967 133.36793 46.87700
#
# Poissons Ratio (x) = 0.34562 0.13678
# Poissons Ratio (y) = 0.24710 0.13577
# Poissons Ratio (z) = 0.27822 0.38628
#
# Static dielectric constant tensor:
#      x y z
#    x 2.093430 0.000000 0.000000 
#    y 0.000000 2.117440 0.000000 
#    z 0.000000 0.000000 1.930990 
# 
# From -- ./inp_files/6517.got.cif
#   From: 2010.05.17/outbox.cif.g08.bks.cpg/sg39_4_cif.got.tgz:6517.got - 2010.06.03 18:22:40.
