data_PCOD9361574
_publ_section_title
;
Structure prediction by ZEFSAII (Michael W. Deem and Ramdas Pophale) SiO2 
 PCOD9361574
Probable space group: A B M 2
;
_chemical_formula_sum "Si O2"
_cell_formula_units_Z 60
_cell_length_a 11.258434
_cell_length_b 26.871645
_cell_length_c 8.753502
_cell_angle_alpha 90.000000
_cell_angle_beta 90.000000
_cell_angle_gamma 90.000000
_cell_volume 2648.220084
_symmetry_space_group_name_H-M "A B M 2"
_symmetry_group_IT_number 39
_symmetry_cell_setting 'orthorhombic'
loop_
_space_group_symop_operation_xyz
x,y,z
-x,-y,z
-x,1/2+y,z
x,1/2-y,z
x,1/2+y,1/2+z
-x,1/2-y,1/2+z
-x,y,1/2+z
x,-y,1/2+z
loop_
_atom_site_type_symbol
_atom_site_label
_atom_site_fract_x
_atom_site_fract_y
_atom_site_fract_z
Si Si1 0.363429 0.250000 0.908600
Si Si2 0.744224 0.933260 0.099106
Si Si3 0.610964 0.849456 0.731878
Si Si4 0.965950 0.835274 0.346563
Si Si5 0.247104 0.031675 0.440612
Si Si6 0.175126 0.320171 0.057931
Si Si7 0.491242 0.411425 0.488475
Si Si8 0.137972 0.386294 0.639268
O O1 0.410371 0.205340 0.793838
O O2 0.295614 0.292754 0.014997
O O3 0.779018 0.951536 0.268169
O O4 0.797286 0.879092 0.067073
O O5 0.601185 0.930323 0.088714
O O6 0.775139 0.973881 0.971156
O O7 0.563072 0.861544 0.563755
O O8 0.550599 0.892121 0.833895
O O9 0.749948 0.861940 0.722629
O O10 0.077558 0.808266 0.426913
O O11 0.027333 0.880519 0.252221
O O12 0.886137 0.808026 0.220585
O O13 0.889643 0.853638 0.488744
O O14 0.384153 0.049363 0.470377
O O15 0.171816 0.061002 0.568593
#
# Coordination Sequence:
#
# PCOD9361574 Si02
#       8
#     4   8   8   8   8   8   8   8
#     4  12  24  44  72  98 132 186 224 296 352 398
#     4  12  24  43  66 102 141 184 230 294 339 419
#     4  11  24  43  70 100 141 177 232 286 340 416
#     4  10  21  43  73  93 137 185 226 294 353 415
#     4  11  26  39  69 102 139 184 234 277 354 412
#     4  11  24  44  69  97 140 178 233 294 353 410
#     4  11  23  44  69  96 140 183 225 279 347 419
#     4  10  21  44  67 100 138 178 229 288 347 412
#
# _framework density 22.656725999999999
#
# number of rings (size 3 to 8) (size 9 to 14) (size 15 to 20)
#    0.000    1.067    5.333    0.400    5.600    2.133 
#    0.000    4.667    0.000    0.000    0.000    0.000 
#    0.000    0.000    0.000    0.000    0.000    0.000 
#
# Total GULP energy -167114.223646 kJ/mol
# GULP energy per Si atom -5570.474122 kJ/mol
# Density = 2.260516 g / cm^3
# Si number density = 22.656726 Si / 1000 Ang^3
#
#
#
# Elastic Constant Matrix: (Units=GPa)
#
#
# Indices 1 2 3 4 5 6 
#
# 1 38.3856 3.7222 16.5208 0.0000 0.0000 0.0000
# 2 3.7222 134.6357 23.0860 0.0000 0.0000 0.0000
# 3 16.5208 23.0860 106.2171 0.0000 0.0000 0.0000
# 4 0.0000 0.0000 0.0000 43.3311 0.0000 0.0000
# 5 0.0000 0.0000 0.0000 0.0000 37.1327 0.0000
# 6 0.0000 0.0000 0.0000 0.0000 0.0000 12.5890
#
#
#
# Elastic Compliance Matrix: (Units=1/GPa)
#
#
# Indices 1 2 3 4 5 6 
#
# 1 0.027921 -0.000028 -0.004337 0.000000 0.000000 0.000000
# 2 -0.000028 0.007715 -0.001672 0.000000 0.000000 0.000000
# 3 -0.004337 -0.001672 0.010453 0.000000 0.000000 0.000000
# 4 0.000000 0.000000 0.000000 0.023078 0.000000 0.000000
# 5 0.000000 0.000000 0.000000 0.000000 0.026930 0.000000
# 6 0.000000 0.000000 0.000000 0.000000 0.000000 0.079434
#
#
# Mechanical properties :
#
#
# Convention : Reuss Voigt Hill
#
# Bulk Modulus (GPa) = 29.39994 40.65516 35.02755
# Shear Modulus (GPa) = 25.13273 34.33786 29.73530
#
# Velocity S-wave (km/s) = 3.33420 3.89726 3.62667
# Velocity P-wave (km/s) = 5.27513 6.18340 5.74723
#
# Compressibility (1/GPa) = 0.03401368
#
# Stress axis : x y z
#
# Youngs Moduli (GPa) = 35.81586 129.61757 95.66929
#
# Poissons Ratio (x) = 0.00367 0.41487
# Poissons Ratio (y) = 0.00101 0.16000
# Poissons Ratio (z) = 0.15532 0.21678
#
# Static dielectric constant tensor:
#      x y z
#    x 1.890020 0.000000 0.000000 
#    y 0.000000 1.815980 0.000000 
#    z 0.000000 0.000000 1.896620 
# 
# From -- ./inp_files/2821.got.cif
#   From: 2010.05.17/outbox.cif.g08.bks.cpg/sg39_2_cif.got.tgz:2821.got - 2010.06.03 18:22:40.
