data_PCOD9361641
_publ_section_title
;
Structure prediction by ZEFSAII (Michael W. Deem and Ramdas Pophale) SiO2 
 PCOD9361641
Probable space group: A B M 2
;
_chemical_formula_sum "Si O2"
_cell_formula_units_Z 64
_cell_length_a 17.245235
_cell_length_b 14.964397
_cell_length_c 11.166984
_cell_angle_alpha 90.000000
_cell_angle_beta 90.000000
_cell_angle_gamma 90.000000
_cell_volume 2881.802622
_symmetry_space_group_name_H-M "A B M 2"
_symmetry_group_IT_number 39
_symmetry_cell_setting 'orthorhombic'
loop_
_space_group_symop_operation_xyz
x,y,z
-x,-y,z
-x,1/2+y,z
x,1/2-y,z
x,1/2+y,1/2+z
-x,1/2-y,1/2+z
-x,y,1/2+z
x,-y,1/2+z
loop_
_atom_site_type_symbol
_atom_site_label
_atom_site_fract_x
_atom_site_fract_y
_atom_site_fract_z
Si Si1 0.195066 0.147557 0.792640
Si Si2 0.651186 0.854126 0.676380
Si Si3 0.657444 0.847594 0.401897
Si Si4 0.912971 0.972596 0.941508
Si Si5 0.587029 0.972596 0.879492
Si Si6 0.151186 0.854126 0.644620
Si Si7 0.304934 0.647557 0.528361
Si Si8 0.157444 0.847594 0.919103
O O1 0.167764 0.250000 0.770812
O O2 0.257780 0.119220 0.692533
O O3 0.129355 0.077106 0.829910
O O4 0.250000 0.149676 0.910500
O O5 0.650020 0.750000 0.711381
O O6 0.628169 0.859001 0.538513
O O7 0.597011 0.906731 0.767108
O O8 0.632297 0.750000 0.355386
O O9 0.750000 0.846140 0.410500
O O10 0.629737 0.936532 0.339282
O O11 0.870263 0.063468 0.981718
O O12 0.902989 0.906731 0.053893
O O13 0.000000 0.000000 0.913845
O O14 0.500000 0.000000 0.907155
O O15 0.629355 0.922894 0.991090
O O16 0.150020 0.750000 0.609620
O O17 0.242220 0.880780 0.628468
O O18 0.128169 0.859001 0.782488
O O19 0.332236 0.750000 0.550189
O O20 0.132297 0.750000 0.965614
#
# Coordination Sequence:
#
# PCOD9361641 Si02
#       8
#     8   8   8   8   8   8   8   8
#     4   8  15  31  56  81 103 138 192 239 268 311
#     4   9  19  39  63  81 104 146 195 236 276 327
#     4  10  22  39  58  83 114 146 185 236 285 325
#     4  11  22  33  54  86 119 149 182 224 279 341
#     4  11  22  33  54  86 119 149 182 224 279 341
#     4   9  19  39  63  81 104 146 195 236 276 327
#     4   8  15  31  56  81 103 138 192 239 268 311
#     4  10  22  39  58  83 114 146 185 236 285 325
#
# _framework density 22.208321999999999
#
# number of rings (size 3 to 8) (size 9 to 14) (size 15 to 20)
#    0.000    2.500    0.000    4.500    0.000    7.000 
#    0.000    0.000    0.000    7.500    0.000    0.000 
#    0.000    0.000    0.000    0.000    0.000    0.000 
#
# Total GULP energy -178650.272446 kJ/mol
# GULP energy per Si atom -5582.821014 kJ/mol
# Density = 2.215778 g / cm^3
# Si number density = 22.208322 Si / 1000 Ang^3
#
#
#
# Elastic Constant Matrix: (Units=GPa)
#
#
# Indices 1 2 3 4 5 6 
#
# 1 87.3402 48.8365 -6.9307 0.0000 0.0000 0.0000
# 2 48.8365 125.3162 4.4637 0.0000 0.0000 0.0000
# 3 -6.9307 4.4637 43.5804 0.0000 0.0000 0.0000
# 4 0.0000 0.0000 0.0000 -9.4343 0.0000 0.0000
# 5 0.0000 0.0000 0.0000 0.0000 15.5430 0.0000
# 6 0.0000 0.0000 0.0000 0.0000 0.0000 -17.2707
#
#
#
# Elastic Compliance Matrix: (Units=1/GPa)
#
#
# Indices 1 2 3 4 5 6 
#
# 1 0.015020 -0.005960 0.002999 0.000000 0.000000 0.000000
# 2 -0.005960 0.010374 -0.002010 0.000000 0.000000 0.000000
# 3 0.002999 -0.002010 0.023629 0.000000 0.000000 0.000000
# 4 0.000000 0.000000 0.000000 -0.105997 0.000000 0.000000
# 5 0.000000 0.000000 0.000000 0.000000 0.064338 0.000000
# 6 0.000000 0.000000 0.000000 0.000000 0.000000 -0.057902
#
#
# Mechanical properties :
#
#
# Convention : Reuss Voigt Hill
#
# Bulk Modulus (GPa) = 25.58839 38.77508 32.18174
# Shear Modulus (GPa) = -181.37359 11.75876 -84.80742
#
# Velocity S-wave (km/s) = -9.04691 2.30353 -6.18629
# Velocity P-wave (km/s) = 9.87834 4.95708 6.04190
#
# Compressibility (1/GPa) = 0.03908022
#
# Stress axis : x y z
#
# Youngs Moduli (GPa) = 66.57706 96.39312 42.32091
#
# Poissons Ratio (x) = 0.57453 -0.12693
# Poissons Ratio (y) = 0.39682 0.08508
# Poissons Ratio (z) = -0.19968 0.19379
#
# Static dielectric constant tensor:
#      x y z
#    x 1.806910 0.000000 0.000000 
#    y 0.000000 1.840580 0.000000 
#    z 0.000000 0.000000 1.905540 
# 
# From -- ./inp_files/6912.got.cif
#   From: 2010.05.17/outbox.cif.g08.bks.cpg/sg39_4_cif.got.tgz:6912.got - 2010.06.03 18:22:40.
