data_PCOD9361846
_publ_section_title
;
Structure prediction by ZEFSAII (Michael W. Deem and Ramdas Pophale) SiO2 
 PCOD9361846
Probable space group: A B M 2
;
_chemical_formula_sum "Si O2"
_cell_formula_units_Z 40
_cell_length_a 21.167379
_cell_length_b 9.866657
_cell_length_c 9.393162
_cell_angle_alpha 90.000000
_cell_angle_beta 90.000000
_cell_angle_gamma 90.000000
_cell_volume 1961.773796
_symmetry_space_group_name_H-M "A B M 2"
_symmetry_group_IT_number 39
_symmetry_cell_setting 'orthorhombic'
loop_
_space_group_symop_operation_xyz
x,y,z
-x,-y,z
-x,1/2+y,z
x,1/2-y,z
x,1/2+y,1/2+z
-x,1/2-y,1/2+z
-x,y,1/2+z
x,-y,1/2+z
loop_
_atom_site_type_symbol
_atom_site_label
_atom_site_fract_x
_atom_site_fract_y
_atom_site_fract_z
Si Si1 0.561979 0.591991 0.377800
Si Si2 0.772984 0.087437 0.714818
Si Si3 0.365499 0.904778 0.584794
Si Si4 0.848118 0.011641 0.964163
Si Si5 0.070404 0.250000 0.998324
Si Si6 0.935245 0.250000 0.845341
O O1 0.500000 0.500000 0.394795
O O2 0.552323 0.750000 0.418773
O O3 0.615240 0.518345 0.472263
O O4 0.584780 0.590059 0.214597
O O5 0.787296 0.250000 0.706787
O O6 0.703118 0.071842 0.653957
O O7 0.822864 0.999493 0.624353
O O8 0.784647 0.033915 0.872705
O O9 0.366433 0.750000 0.525588
O O10 0.888045 0.876217 0.949442
O O11 0.895584 0.124975 0.908077
O O12 0.003931 0.250000 0.917037
O O13 0.061465 0.250000 0.171928
#
# Coordination Sequence:
#
# PCOD9361846 Si02
#       6
#     8   8   8   8   4   4
#     4  11  23  41  65  97 133 175 220 267 326 384
#     4  11  23  44  66  97 133 168 219 274 325 389
#     4  10  23  42  66  95 132 173 219 274 322 384
#     4  12  22  46  67  93 132 170 215 271 330 387
#     4  12  28  46  66 100 128 170 219 270 326 392
#     4  12  28  46  68  96 134 166 221 272 324 392
#
# _framework density 20.389711999999999
#
# number of rings (size 3 to 8) (size 9 to 14) (size 15 to 20)
#    0.000    0.800    4.000    3.000    2.800    4.800 
#    3.600    0.000    0.000    0.000    0.000    0.000 
#    0.000    0.000    0.000    0.000    0.000    0.000 
#
# Total GULP energy -111661.165672 kJ/mol
# GULP energy per Si atom -5583.058284 kJ/mol
# Density = 2.034330 g / cm^3
# Si number density = 20.389712 Si / 1000 Ang^3
#
#
#
# Elastic Constant Matrix: (Units=GPa)
#
#
# Indices 1 2 3 4 5 6 
#
# 1 77.9069 31.0804 -0.7737 0.0000 0.0000 0.0000
# 2 31.0804 141.6340 41.5578 0.0000 0.0000 0.0000
# 3 -0.7737 41.5578 62.6584 0.0000 0.0000 0.0000
# 4 0.0000 0.0000 0.0000 28.6417 0.0000 0.0000
# 5 0.0000 0.0000 0.0000 0.0000 41.1689 0.0000
# 6 0.0000 0.0000 0.0000 0.0000 0.0000 28.8734
#
#
#
# Elastic Compliance Matrix: (Units=1/GPa)
#
#
# Indices 1 2 3 4 5 6 
#
# 1 0.014462 -0.004005 0.002835 0.000000 0.000000 0.000000
# 2 -0.004005 0.009876 -0.006600 0.000000 0.000000 0.000000
# 3 0.002835 -0.006600 0.020372 0.000000 0.000000 0.000000
# 4 0.000000 0.000000 0.000000 0.034914 0.000000 0.000000
# 5 0.000000 0.000000 0.000000 0.000000 0.024290 0.000000
# 6 0.000000 0.000000 0.000000 0.000000 0.000000 0.034634
#
#
# Mechanical properties :
#
#
# Convention : Reuss Voigt Hill
#
# Bulk Modulus (GPa) = 34.28208 47.32538 40.80373
# Shear Modulus (GPa) = 30.52307 33.75912 32.14109
#
# Velocity S-wave (km/s) = 3.87328 4.07344 3.97462
# Velocity P-wave (km/s) = 6.07067 6.73681 6.41240
#
# Compressibility (1/GPa) = 0.02916976
#
# Stress axis : x y z
#
# Youngs Moduli (GPa) = 69.14708 101.25736 49.08783
#
# Poissons Ratio (x) = 0.40558 -0.13917
# Poissons Ratio (y) = 0.27696 0.32396
# Poissons Ratio (z) = -0.19604 0.66825
#
# Static dielectric constant tensor:
#      x y z
#    x 1.742180 0.000000 0.000000 
#    y 0.000000 1.680310 0.000000 
#    z 0.000000 0.000000 1.698640 
# 
# From -- ./inp_files/4047.got.cif
#   From: 2010.05.17/outbox.cif.g08.bks.cpg/sg39_3_cif.got.tgz:4047.got - 2010.06.03 18:22:40.
