data_PCOD9361525
_publ_section_title
;
Structure prediction by ZEFSAII (Michael W. Deem and Ramdas Pophale) SiO2 
 PCOD9361525
Probable space group: A B M 2
;
_chemical_formula_sum "Si O2"
_cell_formula_units_Z 64
_cell_length_a 22.224574
_cell_length_b 15.087799
_cell_length_c 9.975343
_cell_angle_alpha 90.000000
_cell_angle_beta 90.000000
_cell_angle_gamma 90.000000
_cell_volume 3344.931071
_symmetry_space_group_name_H-M "A B M 2"
_symmetry_group_IT_number 39
_symmetry_cell_setting 'orthorhombic'
loop_
_space_group_symop_operation_xyz
x,y,z
-x,-y,z
-x,1/2+y,z
x,1/2-y,z
x,1/2+y,1/2+z
-x,1/2-y,1/2+z
-x,y,1/2+z
x,-y,1/2+z
loop_
_atom_site_type_symbol
_atom_site_label
_atom_site_fract_x
_atom_site_fract_y
_atom_site_fract_z
Si Si1 0.563984 0.857877 0.544770
Si Si2 0.942347 0.653394 0.378343
Si Si3 0.850339 0.003972 0.785121
Si Si4 0.462972 0.141553 0.844420
Si Si5 0.329839 0.645465 0.416049
Si Si6 0.699459 0.853826 0.599004
Si Si7 0.769835 0.974937 0.035608
Si Si8 0.037375 0.909690 0.168895
O O1 0.561179 0.750000 0.545984
O O2 0.540276 0.887957 0.690272
O O3 0.520932 0.889325 0.426241
O O4 0.634564 0.878161 0.535670
O O5 0.917259 0.750000 0.349694
O O6 0.893923 0.578962 0.343835
O O7 0.960261 0.644345 0.532701
O O8 0.000743 0.636833 0.287010
O O9 0.805980 0.042216 0.672100
O O10 0.895620 0.934616 0.715514
O O11 0.812928 0.964033 0.907675
O O12 0.463783 0.250000 0.841592
O O13 0.400003 0.118159 0.916160
O O14 0.325940 0.750000 0.449511
O O15 0.308744 0.636501 0.260272
O O16 0.287692 0.587077 0.510378
O O17 0.712410 0.750000 0.572476
O O18 0.747901 0.923109 0.546182
O O19 0.000000 0.000000 0.139786
#
# Coordination Sequence:
#
# PCOD9361525 Si02
#       8
#     8   8   8   8   8   8   8   8
#     4   8  14  28  51  78 106 141 186 238 294 351
#     4  11  23  40  64  95 123 147 189 242 285 332
#     4  11  24  40  63  85 117 163 193 230 289 344
#     4   8  14  28  51  77 106 140 185 238 295 351
#     4   9  19  37  59  82 112 155 198 241 295 355
#     4   9  19  37  60  82 112 156 199 239 295 358
#     4  12  22  41  61  85 118 158 202 241 284 340
#     4  10  21  41  64  88 120 156 189 227 286 346
#
# _framework density 19.133429
#
# number of rings (size 3 to 8) (size 9 to 14) (size 15 to 20)
#    0.000    2.250    2.500    3.000    1.750    1.000 
#    2.250    1.875    0.000    3.000    0.000    0.000 
#    0.000    0.000    0.000    0.000    0.000    0.000 
#
# Total GULP energy -178600.111739 kJ/mol
# GULP energy per Si atom -5581.253492 kJ/mol
# Density = 1.908988 g / cm^3
# Si number density = 19.133429 Si / 1000 Ang^3
#
#
#
# Elastic Constant Matrix: (Units=GPa)
#
#
# Indices 1 2 3 4 5 6 
#
# 1 55.0043 6.5007 15.3019 0.0000 0.0000 0.0000
# 2 6.5007 40.0866 3.1443 0.0000 0.0000 0.0000
# 3 15.3019 3.1443 56.4062 0.0000 0.0000 0.0000
# 4 0.0000 0.0000 0.0000 2.4708 0.0000 0.0000
# 5 0.0000 0.0000 0.0000 0.0000 35.7200 0.0000
# 6 0.0000 0.0000 0.0000 0.0000 0.0000 -4.5131
#
#
#
# Elastic Compliance Matrix: (Units=1/GPa)
#
#
# Indices 1 2 3 4 5 6 
#
# 1 0.019978 -0.002827 -0.005262 0.000000 0.000000 0.000000
# 2 -0.002827 0.025456 -0.000652 0.000000 0.000000 0.000000
# 3 -0.005262 -0.000652 0.019192 0.000000 0.000000 0.000000
# 4 0.000000 0.000000 0.000000 0.404727 0.000000 0.000000
# 5 0.000000 0.000000 0.000000 0.000000 0.027996 0.000000
# 6 0.000000 0.000000 0.000000 0.000000 0.000000 -0.221578
#
#
# Mechanical properties :
#
#
# Convention : Reuss Voigt Hill
#
# Bulk Modulus (GPa) = 21.21168 22.37676 21.79422
# Shear Modulus (GPa) = 16.18291 15.17222 15.67756
#
# Velocity S-wave (km/s) = 2.91141 2.81903 2.86559
# Velocity P-wave (km/s) = 4.73413 4.72402 4.72908
#
# Compressibility (1/GPa) = 0.04714385
#
# Stress axis : x y z
#
# Youngs Moduli (GPa) = 50.05404 39.28405 52.10397
#
# Poissons Ratio (x) = 0.11106 0.27418
# Poissons Ratio (y) = 0.14151 0.03397
# Poissons Ratio (z) = 0.26339 0.02562
#
# Static dielectric constant tensor:
#      x y z
#    x 1.658910 0.000000 0.000000 
#    y 0.000000 1.662070 0.000000 
#    z 0.000000 0.000000 1.651730 
# 
# From -- ./inp_files/4104.got.cif
#   From: 2010.05.17/outbox.cif.g08.bks.cpg/sg39_3_cif.got.tgz:4104.got - 2010.06.03 18:22:40.
