data_PCOD9361174
_publ_section_title
;
Structure prediction by ZEFSAII (Michael W. Deem and Ramdas Pophale) SiO2 
 PCOD9361174
Probable space group: A B M 2
;
_chemical_formula_sum "Si O2"
_cell_formula_units_Z 48
_cell_length_a 16.701463
_cell_length_b 14.418134
_cell_length_c 9.600007
_cell_angle_alpha 90.000000
_cell_angle_beta 90.000000
_cell_angle_gamma 90.000000
_cell_volume 2311.719428
_symmetry_space_group_name_H-M "A B M 2"
_symmetry_group_IT_number 39
_symmetry_cell_setting 'orthorhombic'
loop_
_space_group_symop_operation_xyz
x,y,z
-x,-y,z
-x,1/2+y,z
x,1/2-y,z
x,1/2+y,1/2+z
-x,1/2-y,1/2+z
-x,y,1/2+z
x,-y,1/2+z
loop_
_atom_site_type_symbol
_atom_site_label
_atom_site_fract_x
_atom_site_fract_y
_atom_site_fract_z
Si Si1 0.003887 0.142249 0.358190
Si Si2 0.717058 0.084731 0.081170
Si Si3 0.402613 0.250000 0.620201
Si Si4 0.856346 0.148553 0.638327
Si Si5 0.100751 0.938996 0.115442
Si Si6 0.559272 0.750000 0.298844
Si Si7 0.311061 0.096212 0.254801
O O1 0.977826 0.250000 0.364709
O O2 0.084505 0.145949 0.268261
O O3 0.037225 0.103666 0.505525
O O4 0.940537 0.081469 0.266576
O O5 0.708374 0.073093 0.915247
O O6 0.657150 0.164234 0.127668
O O7 0.810653 0.105680 0.112708
O O8 0.686513 0.995228 0.162917
O O9 0.441905 0.250000 0.466294
O O10 0.472207 0.250000 0.732809
O O11 0.867377 0.250000 0.568867
O O12 0.766184 0.146793 0.691934
O O13 0.877119 0.046519 0.575281
O O14 0.611091 0.839392 0.252277
#
# Coordination Sequence:
#
# PCOD9361174 Si02
#       7
#     8   8   4   8   8   4   8
#     4  11  24  41  68  94 130 176 231 285 331 399
#     4  10  23  42  71  97 135 184 224 276 337 411
#     4  10  24  42  72 103 135 177 217 276 348 406
#     4  10  21  40  66  95 128 179 227 278 336 401
#     4  11  24  43  66  97 138 178 235 283 339 397
#     4  10  22  42  72 101 139 173 217 280 338 418
#     4  10  20  42  69 101 132 181 223 276 339 406
#
# _framework density 20.763764999999999
#
# number of rings (size 3 to 8) (size 9 to 14) (size 15 to 20)
#    0.000    1.667    2.500    1.000    2.333    4.667 
#    3.000    5.833    0.000    1.000    0.000    0.000 
#    0.000    0.000    0.000    0.000    0.000    0.000 
#
# Total GULP energy -133896.598307 kJ/mol
# GULP energy per Si atom -5579.024929 kJ/mol
# Density = 2.071651 g / cm^3
# Si number density = 20.763765 Si / 1000 Ang^3
#
#
#
# Elastic Constant Matrix: (Units=GPa)
#
#
# Indices 1 2 3 4 5 6 
#
# 1 140.7072 58.9194 63.3807 0.0000 0.0000 0.0000
# 2 58.9194 154.0305 56.8794 0.0000 0.0000 0.0000
# 3 63.3807 56.8794 76.7912 0.0000 0.0000 0.0000
# 4 0.0000 0.0000 0.0000 20.5082 0.0000 0.0000
# 5 0.0000 0.0000 0.0000 0.0000 30.3918 0.0000
# 6 0.0000 0.0000 0.0000 0.0000 0.0000 48.3511
#
#
#
# Elastic Compliance Matrix: (Units=1/GPa)
#
#
# Indices 1 2 3 4 5 6 
#
# 1 0.011479 -0.001228 -0.008565 0.000000 0.000000 0.000000
# 2 -0.001228 0.009068 -0.005703 0.000000 0.000000 0.000000
# 3 -0.008565 -0.005703 0.024316 0.000000 0.000000 0.000000
# 4 0.000000 0.000000 0.000000 0.048761 0.000000 0.000000
# 5 0.000000 0.000000 0.000000 0.000000 0.032904 0.000000
# 6 0.000000 0.000000 0.000000 0.000000 0.000000 0.020682
#
#
# Mechanical properties :
#
#
# Convention : Reuss Voigt Hill
#
# Bulk Modulus (GPa) = 72.09354 81.09865 76.59609
# Shear Modulus (GPa) = 27.34859 32.67351 30.01105
#
# Velocity S-wave (km/s) = 3.63317 3.97115 3.80591
# Velocity P-wave (km/s) = 7.23851 7.75688 7.50218
#
# Compressibility (1/GPa) = 0.01387087
#
# Stress axis : x y z
#
# Youngs Moduli (GPa) = 87.11392 110.27797 41.12597
#
# Poissons Ratio (x) = 0.13545 0.35223
# Poissons Ratio (y) = 0.10700 0.23454
# Poissons Ratio (z) = 0.74611 0.62891
#
# Static dielectric constant tensor:
#      x y z
#    x 1.705280 0.000000 0.000000 
#    y 0.000000 1.824590 0.000000 
#    z 0.000000 0.000000 1.745250 
# 
# From -- ./inp_files/3734.got.cif
#   From: 2010.05.17/outbox.cif.g08.bks.cpg/sg39_2_cif.got.tgz:3734.got - 2010.06.03 18:22:40.
