data_PCOD9361212
_publ_section_title
;
Structure prediction by ZEFSAII (Michael W. Deem and Ramdas Pophale) SiO2 
 PCOD9361212
Probable space group: A B M 2
;
_chemical_formula_sum "Si O2"
_cell_formula_units_Z 48
_cell_length_a 15.379750
_cell_length_b 13.887712
_cell_length_c 10.533566
_cell_angle_alpha 90.000000
_cell_angle_beta 90.000000
_cell_angle_gamma 90.000000
_cell_volume 2249.859502
_symmetry_space_group_name_H-M "A B M 2"
_symmetry_group_IT_number 39
_symmetry_cell_setting 'orthorhombic'
loop_
_space_group_symop_operation_xyz
x,y,z
-x,-y,z
-x,1/2+y,z
x,1/2-y,z
x,1/2+y,1/2+z
-x,1/2-y,1/2+z
-x,y,1/2+z
x,-y,1/2+z
loop_
_atom_site_type_symbol
_atom_site_label
_atom_site_fract_x
_atom_site_fract_y
_atom_site_fract_z
Si Si1 0.802000 0.353390 0.405720
Si Si2 0.065161 0.858515 0.170356
Si Si3 0.883198 0.064625 0.645806
Si Si4 0.589849 0.864549 0.647642
Si Si5 0.291285 0.507014 0.773718
Si Si6 0.448848 0.364028 0.362732
O O1 0.757164 0.250000 0.408540
O O2 0.867556 0.356254 0.286905
O O3 0.859888 0.369557 0.527802
O O4 0.733179 0.437945 0.390759
O O5 0.065213 0.750000 0.114206
O O6 0.967607 0.888722 0.211269
O O7 0.095106 0.955486 0.097040
O O8 0.797597 0.057108 0.730975
O O9 0.611486 0.750000 0.648878
O O10 0.672860 0.933046 0.666674
O O11 0.542661 0.885188 0.513249
O O12 0.529339 0.886019 0.769818
O O13 0.365210 0.581229 0.810078
O O14 0.434960 0.250000 0.352279
#
# Coordination Sequence:
#
# PCOD9361212 Si02
#       6
#     8   8   8   8   8   8
#     4  10  21  38  59  84 115 153 195 241 296 353
#     4   9  20  38  57  79 111 152 196 242 292 346
#     4  10  21  35  57  86 115 149 197 245 292 351
#     4  10  22  42  64  87 118 157 199 244 298 360
#     4  11  22  37  59  88 119 152 193 243 298 356
#     4  10  23  41  62  89 121 157 199 246 299 361
#
# _framework density 21.334665999999999
#
# number of rings (size 3 to 8) (size 9 to 14) (size 15 to 20)
#    0.000    2.000    0.000    2.500    0.000   11.333 
#    0.000    2.500    0.000    3.000    0.000    0.000 
#    0.000    0.000    0.000    0.000    0.000    0.000 
#
# Total GULP energy -133912.147872 kJ/mol
# GULP energy per Si atom -5579.672828 kJ/mol
# Density = 2.128611 g / cm^3
# Si number density = 21.334666 Si / 1000 Ang^3
#
#
#
# Elastic Constant Matrix: (Units=GPa)
#
#
# Indices 1 2 3 4 5 6 
#
# 1 70.7593 12.6353 0.0418 0.0000 0.0000 0.0000
# 2 12.6353 70.0954 1.7274 0.0000 0.0000 0.0000
# 3 0.0418 1.7274 43.8100 0.0000 0.0000 0.0000
# 4 0.0000 0.0000 0.0000 17.5829 0.0000 0.0000
# 5 0.0000 0.0000 0.0000 0.0000 7.2910 0.0000
# 6 0.0000 0.0000 0.0000 0.0000 0.0000 17.3530
#
#
#
# Elastic Compliance Matrix: (Units=1/GPa)
#
#
# Indices 1 2 3 4 5 6 
#
# 1 0.014603 -0.002635 0.000090 0.000000 0.000000 0.000000
# 2 -0.002635 0.014755 -0.000579 0.000000 0.000000 0.000000
# 3 0.000090 -0.000579 0.022849 0.000000 0.000000 0.000000
# 4 0.000000 0.000000 0.000000 0.056874 0.000000 0.000000
# 5 0.000000 0.000000 0.000000 0.000000 0.137155 0.000000
# 6 0.000000 0.000000 0.000000 0.000000 0.000000 0.057627
#
#
# Mechanical properties :
#
#
# Convention : Reuss Voigt Hill
#
# Bulk Modulus (GPa) = 21.75845 23.71931 22.73888
# Shear Modulus (GPa) = 15.36432 19.79606 17.58019
#
# Velocity S-wave (km/s) = 2.68649 3.04942 2.87369
# Velocity P-wave (km/s) = 4.45463 4.85185 4.65748
#
# Compressibility (1/GPa) = 0.04595917
#
# Stress axis : x y z
#
# Youngs Moduli (GPa) = 68.48004 67.77163 43.76632
#
# Poissons Ratio (x) = 0.17854 -0.00394
# Poissons Ratio (y) = 0.18041 0.02535
# Poissons Ratio (z) = -0.00616 0.03926
#
# Static dielectric constant tensor:
#      x y z
#    x 1.765070 0.000000 0.000000 
#    y 0.000000 1.808250 0.000000 
#    z 0.000000 0.000000 1.765460 
# 
# From -- ./inp_files/6395.got.cif
#   From: 2010.05.17/outbox.cif.g08.bks.cpg/sg39_4_cif.got.tgz:6395.got - 2010.06.03 18:22:40.
