data_PCOD9361320
_publ_section_title
;
Structure prediction by ZEFSAII (Michael W. Deem and Ramdas Pophale) SiO2 
 PCOD9361320
Probable space group: A B M 2
;
_chemical_formula_sum "Si O2"
_cell_formula_units_Z 56
_cell_length_a 5.414603
_cell_length_b 14.311626
_cell_length_c 30.789337
_cell_angle_alpha 90.000000
_cell_angle_beta 90.000000
_cell_angle_gamma 90.000000
_cell_volume 2385.920316
_symmetry_space_group_name_H-M "A B M 2"
_symmetry_group_IT_number 39
_symmetry_cell_setting 'orthorhombic'
loop_
_space_group_symop_operation_xyz
x,y,z
-x,-y,z
-x,1/2+y,z
x,1/2-y,z
x,1/2+y,1/2+z
-x,1/2-y,1/2+z
-x,y,1/2+z
x,-y,1/2+z
loop_
_atom_site_type_symbol
_atom_site_label
_atom_site_fract_x
_atom_site_fract_y
_atom_site_fract_z
Si Si1 0.325899 0.135626 0.458030
Si Si2 0.633215 0.639632 0.096317
Si Si3 0.858499 0.911226 0.185657
Si Si4 0.500000 0.500000 0.755797
Si Si5 0.011804 0.750000 0.247094
Si Si6 0.139414 0.364560 0.553793
Si Si7 0.829409 0.139152 0.414571
Si Si8 0.146471 0.403202 0.814887
O O1 0.337997 0.250000 0.457183
O O2 0.234454 0.109264 0.505983
O O3 0.596491 0.102893 0.442502
O O4 0.103056 0.104001 0.426663
O O5 0.621368 0.750000 0.086162
O O6 0.696745 0.629119 0.146783
O O7 0.360464 0.603316 0.085444
O O8 0.866329 0.603200 0.067999
O O9 0.696593 0.954182 0.224154
O O10 0.018973 0.831815 0.208904
O O11 0.000000 0.000000 0.166986
O O12 0.391314 0.421205 0.786915
O O13 0.001583 0.829569 0.285822
O O14 0.126390 0.250000 0.554960
O O15 0.838494 0.250000 0.423655
O O16 0.789319 0.126385 0.363453
O O17 0.000000 0.500000 0.816802
#
# Coordination Sequence:
#
# PCOD9361320 Si02
#       8
#     8   8   8   4   4   8   8   8
#     4   9  18  35  62  98 135 174 227 282 339 411
#     4  10  21  37  64  98 133 180 227 280 344 413
#     4  12  26  46  67 101 139 178 233 291 353 409
#     4  12  26  46  68  98 132 188 226 290 354 412
#     4  12  22  50  68  94 136 184 230 290 340 432
#     4   9  18  35  62  98 135 174 227 282 339 411
#     4  10  21  37  64  98 133 180 227 280 344 413
#     4  12  26  46  67 101 139 178 233 291 353 409
#
# _framework density 23.471025999999998
#
# number of rings (size 3 to 8) (size 9 to 14) (size 15 to 20)
#    0.000    1.429    4.286    0.857    4.000    4.000 
#    5.143    0.000    0.000    5.143    0.000    0.000 
#    0.000    0.000    0.000    0.000    0.000    0.000 
#
# Total GULP energy -156050.834024 kJ/mol
# GULP energy per Si atom -5573.244072 kJ/mol
# Density = 2.341760 g / cm^3
# Si number density = 23.471026 Si / 1000 Ang^3
#
#
#
# Elastic Constant Matrix: (Units=GPa)
#
#
# Indices 1 2 3 4 5 6 
#
# 1 97.6761 16.8543 21.3764 0.0000 0.0000 0.0000
# 2 16.8543 78.6895 -15.9378 0.0000 0.0000 0.0000
# 3 21.3764 -15.9378 91.3779 0.0000 0.0000 0.0000
# 4 0.0000 0.0000 0.0000 12.5691 0.0000 0.0000
# 5 0.0000 0.0000 0.0000 0.0000 738.6606 0.0000
# 6 0.0000 0.0000 0.0000 0.0000 0.0000 21.0524
#
#
#
# Elastic Compliance Matrix: (Units=1/GPa)
#
#
# Indices 1 2 3 4 5 6 
#
# 1 0.011482 -0.003113 -0.003229 0.000000 0.000000 0.000000
# 2 -0.003113 0.014018 0.003173 0.000000 0.000000 0.000000
# 3 -0.003229 0.003173 0.012252 0.000000 0.000000 0.000000
# 4 0.000000 0.000000 0.000000 0.079560 0.000000 0.000000
# 5 0.000000 0.000000 0.000000 0.000000 0.001354 0.000000
# 6 0.000000 0.000000 0.000000 0.000000 0.000000 0.047501
#
#
# Mechanical properties :
#
#
# Convention : Reuss Voigt Hill
#
# Bulk Modulus (GPa) = 31.83312 34.70325 33.26818
# Shear Modulus (GPa) = 27.32600 170.81978 99.07289
#
# Velocity S-wave (km/s) = 3.41580 8.54032 6.50403
# Velocity P-wave (km/s) = 5.39899 10.58617 8.40286
#
# Compressibility (1/GPa) = 0.03141383
#
# Stress axis : x y z
#
# Youngs Moduli (GPa) = 87.09451 71.33839 81.61675
#
# Poissons Ratio (x) = 0.22209 0.26354
# Poissons Ratio (y) = 0.27115 -0.25899
# Poissons Ratio (z) = 0.28123 -0.22637
#
# Static dielectric constant tensor:
#      x y z
#    x 1.833500 0.000000 0.000000 
#    y 0.000000 1.928060 0.000000 
#    z 0.000000 0.000000 1.818140 
# 
# From -- ./inp_files/17318.got.cif
#   From: 2010.05.17/outbox.cif.g08.bks.cpg/sg39_9_cif.got.tgz:17318.got - 2010.06.03 18:22:40.
