data_PCOD9361492
_publ_section_title
;
Structure prediction by ZEFSAII (Michael W. Deem and Ramdas Pophale) SiO2 
 PCOD9361492
Probable space group: A B M 2
;
_chemical_formula_sum "Si O2"
_cell_formula_units_Z 40
_cell_length_a 6.979915
_cell_length_b 19.311721
_cell_length_c 15.100971
_cell_angle_alpha 90.000000
_cell_angle_beta 90.000000
_cell_angle_gamma 90.000000
_cell_volume 2035.522869
_symmetry_space_group_name_H-M "A B M 2"
_symmetry_group_IT_number 39
_symmetry_cell_setting 'orthorhombic'
loop_
_space_group_symop_operation_xyz
x,y,z
-x,-y,z
-x,1/2+y,z
x,1/2-y,z
x,1/2+y,1/2+z
-x,1/2-y,1/2+z
-x,y,1/2+z
x,-y,1/2+z
loop_
_atom_site_type_symbol
_atom_site_label
_atom_site_fract_x
_atom_site_fract_y
_atom_site_fract_z
Si Si1 0.457541 0.613916 0.800520
Si Si2 0.795851 0.976138 0.821429
Si Si3 0.943219 0.572727 0.012654
Si Si4 0.307026 0.170289 0.480247
Si Si5 0.348314 0.329613 0.113770
O O1 0.333832 0.544373 0.816118
O O2 0.673046 0.586871 0.781640
O O3 0.428319 0.656151 0.890856
O O4 0.379557 0.654757 0.716621
O O5 0.837163 0.951214 0.922117
O O6 0.000000 0.000000 0.783476
O O7 0.000000 0.500000 0.057153
O O8 0.129430 0.617847 0.987384
O O9 0.805040 0.618403 0.072393
O O10 0.240049 0.250000 0.480126
O O11 0.452144 0.159988 0.561642
O O12 0.289138 0.250000 0.100105
#
# Coordination Sequence:
#
# PCOD9361492 Si02
#       5
#     8   8   8   8   8
#     4  11  22  41  68  94 133 174 220 272 326 395
#     4  10  21  40  65  98 128 164 221 272 328 385
#     4  11  22  42  69  95 131 171 222 277 337 394
#     4  11  23  42  65  93 134 180 220 270 333 398
#     4  11  26  44  65  98 134 177 225 270 330 403
#
# _framework density 19.650970999999998
#
# number of rings (size 3 to 8) (size 9 to 14) (size 15 to 20)
#    0.000    1.200    6.000    1.200    0.000    6.400 
#    0.000    0.000    0.000    0.000    0.000    0.000 
#    0.000    0.000    0.000    0.000    0.000    0.000 
#
# Total GULP energy -111665.438207 kJ/mol
# GULP energy per Si atom -5583.271910 kJ/mol
# Density = 1.960624 g / cm^3
# Si number density = 19.650971 Si / 1000 Ang^3
#
#
#
# Elastic Constant Matrix: (Units=GPa)
#
#
# Indices 1 2 3 4 5 6 
#
# 1 77.7082 37.8187 17.0544 0.0000 0.0000 0.0000
# 2 37.8187 104.4293 33.7617 0.0000 0.0000 0.0000
# 3 17.0544 33.7617 80.0157 0.0000 0.0000 0.0000
# 4 0.0000 0.0000 0.0000 -36.4992 0.0000 0.0000
# 5 0.0000 0.0000 0.0000 0.0000 1.2563 0.0000
# 6 0.0000 0.0000 0.0000 0.0000 0.0000 32.7835
#
#
#
# Elastic Compliance Matrix: (Units=1/GPa)
#
#
# Indices 1 2 3 4 5 6 
#
# 1 0.015705 -0.005333 -0.001097 0.000000 0.000000 0.000000
# 2 -0.005333 0.012899 -0.004306 0.000000 0.000000 0.000000
# 3 -0.001097 -0.004306 0.014548 0.000000 0.000000 0.000000
# 4 0.000000 0.000000 0.000000 -0.027398 0.000000 0.000000
# 5 0.000000 0.000000 0.000000 0.000000 0.795961 0.000000
# 6 0.000000 0.000000 0.000000 0.000000 0.000000 0.030503
#
#
# Mechanical properties :
#
#
# Convention : Reuss Voigt Hill
#
# Bulk Modulus (GPa) = 46.12481 48.82476 47.47479
# Shear Modulus (GPa) = 5.74107 11.07602 8.40854
#
# Velocity S-wave (km/s) = 1.71110 2.37668 2.07081
# Velocity P-wave (km/s) = 5.23706 5.69486 5.47075
#
# Compressibility (1/GPa) = 0.02168030
#
# Stress axis : x y z
#
# Youngs Moduli (GPa) = 63.67498 77.52406 68.73655
#
# Poissons Ratio (x) = 0.41341 0.07542
# Poissons Ratio (y) = 0.33956 0.29598
# Poissons Ratio (z) = 0.06986 0.33382
#
# Static dielectric constant tensor:
#      x y z
#    x 1.710960 0.000000 0.000000 
#    y 0.000000 1.685480 0.000000 
#    z 0.000000 0.000000 1.664650 
# 
# From -- ./inp_files/10918.got.cif
#   From: 2010.05.17/outbox.cif.g08.bks.cpg/sg39_6_cif.got.tgz:10918.got - 2010.06.03 18:22:40.
