data_PCOD9361322
_publ_section_title
;
Structure prediction by ZEFSAII (Michael W. Deem and Ramdas Pophale) SiO2 
 PCOD9361322
Probable space group: A B M 2
;
_chemical_formula_sum "Si O2"
_cell_formula_units_Z 64
_cell_length_a 8.629938
_cell_length_b 31.120251
_cell_length_c 12.155439
_cell_angle_alpha 90.000000
_cell_angle_beta 90.000000
_cell_angle_gamma 90.000000
_cell_volume 3264.535645
_symmetry_space_group_name_H-M "A B M 2"
_symmetry_group_IT_number 39
_symmetry_cell_setting 'orthorhombic'
loop_
_space_group_symop_operation_xyz
x,y,z
-x,-y,z
-x,1/2+y,z
x,1/2-y,z
x,1/2+y,1/2+z
-x,1/2-y,1/2+z
-x,y,1/2+z
x,-y,1/2+z
loop_
_atom_site_type_symbol
_atom_site_label
_atom_site_fract_x
_atom_site_fract_y
_atom_site_fract_z
Si Si1 0.571092 0.136359 0.994470
Si Si2 0.795803 0.341818 0.181742
Si Si3 0.336277 0.920459 0.623406
Si Si4 0.102341 0.149481 0.045147
Si Si5 0.320806 0.799280 0.399921
Si Si6 0.086498 0.913688 0.334159
Si Si7 0.737053 0.428080 0.853220
Si Si8 0.180210 0.010555 0.976852
O O1 0.461477 0.168065 0.925631
O O2 0.700526 0.115222 0.918192
O O3 0.653691 0.158532 0.097554
O O4 0.469989 0.097323 0.044410
O O5 0.757934 0.310485 0.282930
O O6 0.824698 0.388238 0.239447
O O7 0.952816 0.335556 0.112094
O O8 0.214131 0.880537 0.618886
O O9 0.377175 0.929476 0.749537
O O10 0.260988 0.963262 0.573627
O O11 0.196877 0.189081 0.994648
O O12 0.070513 0.118280 0.939837
O O13 0.369008 0.750000 0.403721
O O14 0.174189 0.955710 0.375967
O O15 0.912142 0.927543 0.306062
O O16 0.735004 0.467830 0.936770
O O17 0.000000 0.000000 0.004133
#
# Coordination Sequence:
#
# PCOD9361322 Si02
#       8
#     8   8   8   8   8   8   8   8
#     4  11  24  40  62  89 123 169 203 253 318 391
#     4  11  20  38  71  90 116 166 213 247 318 375
#     4  10  21  38  56  85 123 164 206 250 315 368
#     4   9  18  37  64  89 117 154 202 252 299 367
#     4  10  24  43  61  93 131 154 197 262 320 387
#     4   9  18  35  58  92 118 153 205 261 294 357
#     4  11  20  36  60  84 119 162 214 255 306 363
#     4   9  21  35  55  88 126 160 210 266 310 346
#
# _framework density 19.604626
#
# number of rings (size 3 to 8) (size 9 to 14) (size 15 to 20)
#    0.000    2.000    2.500    1.500    0.000    4.000 
#    0.000    1.250    0.000    0.000    0.000    0.000 
#    0.000    0.000    0.000    0.000    0.000    0.000 
#
# Total GULP energy -178539.022499 kJ/mol
# GULP energy per Si atom -5579.344453 kJ/mol
# Density = 1.956001 g / cm^3
# Si number density = 19.604626 Si / 1000 Ang^3
#
#
#
# Elastic Constant Matrix: (Units=GPa)
#
#
# Indices 1 2 3 4 5 6 
#
# 1 52.8060 15.3108 13.3003 0.0000 0.0000 0.0000
# 2 15.3108 78.0857 19.1741 0.0000 0.0000 0.0000
# 3 13.3003 19.1741 70.0220 0.0000 0.0000 0.0000
# 4 0.0000 0.0000 0.0000 14.8677 0.0000 0.0000
# 5 0.0000 0.0000 0.0000 0.0000 23.7650 0.0000
# 6 0.0000 0.0000 0.0000 0.0000 0.0000 16.3742
#
#
#
# Elastic Compliance Matrix: (Units=1/GPa)
#
#
# Indices 1 2 3 4 5 6 
#
# 1 0.020657 -0.003309 -0.003017 0.000000 0.000000 0.000000
# 2 -0.003309 0.014260 -0.003276 0.000000 0.000000 0.000000
# 3 -0.003017 -0.003276 0.015751 0.000000 0.000000 0.000000
# 4 0.000000 0.000000 0.000000 0.067260 0.000000 0.000000
# 5 0.000000 0.000000 0.000000 0.000000 0.042079 0.000000
# 6 0.000000 0.000000 0.000000 0.000000 0.000000 0.061072
#
#
# Mechanical properties :
#
#
# Convention : Reuss Voigt Hill
#
# Bulk Modulus (GPa) = 31.78425 32.94267 32.36346
# Shear Modulus (GPa) = 19.93846 21.20995 20.57421
#
# Velocity S-wave (km/s) = 3.19255 3.29277 3.24305
# Velocity P-wave (km/s) = 5.46238 5.59432 5.52875
#
# Compressibility (1/GPa) = 0.03146212
#
# Stress axis : x y z
#
# Youngs Moduli (GPa) = 48.41025 70.12717 63.48603
#
# Poissons Ratio (x) = 0.23208 0.19157
# Poissons Ratio (y) = 0.16021 0.20799
# Poissons Ratio (z) = 0.14608 0.22975
#
# Static dielectric constant tensor:
#      x y z
#    x 1.710120 0.000000 0.000000 
#    y 0.000000 1.654830 0.000000 
#    z 0.000000 0.000000 1.699850 
# 
# From -- ./inp_files/5386.got.cif
#   From: 2010.05.17/outbox.cif.g08.bks.cpg/sg39_3_cif.got.tgz:5386.got - 2010.06.03 18:22:40.
