data_PCOD9361998
_publ_section_title
;
Structure prediction by ZEFSAII (Michael W. Deem and Ramdas Pophale) SiO2 
 PCOD9361998
Probable space group: A B M 2
;
_chemical_formula_sum "Si O2"
_cell_formula_units_Z 56
_cell_length_a 14.653012
_cell_length_b 21.431069
_cell_length_c 7.919508
_cell_angle_alpha 90.000000
_cell_angle_beta 90.000000
_cell_angle_gamma 90.000000
_cell_volume 2486.960810
_symmetry_space_group_name_H-M "A B M 2"
_symmetry_group_IT_number 39
_symmetry_cell_setting 'orthorhombic'
loop_
_space_group_symop_operation_xyz
x,y,z
-x,-y,z
-x,1/2+y,z
x,1/2-y,z
x,1/2+y,1/2+z
-x,1/2-y,1/2+z
-x,y,1/2+z
x,-y,1/2+z
loop_
_atom_site_type_symbol
_atom_site_label
_atom_site_fract_x
_atom_site_fract_y
_atom_site_fract_z
Si Si1 0.214452 0.624088 0.877580
Si Si2 0.287629 0.824838 0.517643
Si Si3 0.107971 0.132055 0.901730
Si Si4 0.427383 0.917271 0.410048
Si Si5 0.957715 0.250000 0.621089
Si Si6 0.961548 0.068644 0.713001
Si Si7 0.143709 0.250000 0.486264
Si Si8 0.378224 0.549580 0.029940
O O1 0.254033 0.649773 0.699331
O O2 0.117542 0.591059 0.840879
O O3 0.199932 0.686495 0.986997
O O4 0.284586 0.576219 0.959102
O O5 0.283898 0.750000 0.513428
O O6 0.214874 0.855226 0.386627
O O7 0.386076 0.853031 0.476952
O O8 0.046566 0.115748 0.741727
O O9 0.084813 0.075560 0.030160
O O10 0.073034 0.190883 0.010871
O O11 0.396295 0.929384 0.219925
O O12 0.536090 0.923581 0.423776
O O13 0.385495 0.974815 0.517294
O O14 0.066806 0.250000 0.628980
O O15 0.909390 0.250000 0.803261
O O16 0.000000 0.000000 0.735318
#
# Coordination Sequence:
#
# PCOD9361998 Si02
#       8
#     8   8   8   8   4   8   4   8
#     4  11  22  43  65  95 137 181 232 283 339 400
#     4  11  22  42  65  96 134 184 230 277 342 397
#     4  11  21  39  60  84 127 171 221 268 323 389
#     4  11  24  47  75 101 136 175 221 278 346 422
#     4  12  18  42  62  87 119 182 232 267 323 395
#     4  11  24  38  57  90 131 171 219 272 330 383
#     4  12  22  42  64  93 135 186 232 281 333 399
#     4  11  24  47  74 105 132 174 225 275 348 421
#
# _framework density 22.517443
#
# number of rings (size 3 to 8) (size 9 to 14) (size 15 to 20)
#    0.000    0.857    5.714    3.857    2.000    1.143 
#    5.143    0.000    0.000    0.000    0.000    0.000 
#    0.000    0.000    0.000    0.000    0.000    0.000 
#
# Total GULP energy -156804.479566 kJ/mol
# GULP energy per Si atom -5600.159985 kJ/mol
# Density = 2.246619 g / cm^3
# Si number density = 22.517443 Si / 1000 Ang^3
#
#
#
# Elastic Constant Matrix: (Units=GPa)
#
#
# Indices 1 2 3 4 5 6 
#
# 1 63.7613 35.9709 -1.0626 0.0000 0.0000 0.0000
# 2 35.9709 117.4233 11.2145 0.0000 0.0000 0.0000
# 3 -1.0626 11.2145 71.0644 0.0000 0.0000 0.0000
# 4 0.0000 0.0000 0.0000 21.8850 0.0000 0.0000
# 5 0.0000 0.0000 0.0000 0.0000 28.2852 0.0000
# 6 0.0000 0.0000 0.0000 0.0000 0.0000 43.2100
#
#
#
# Elastic Compliance Matrix: (Units=1/GPa)
#
#
# Indices 1 2 3 4 5 6 
#
# 1 0.019065 -0.005957 0.001225 0.000000 0.000000 0.000000
# 2 -0.005957 0.010508 -0.001747 0.000000 0.000000 0.000000
# 3 0.001225 -0.001747 0.014366 0.000000 0.000000 0.000000
# 4 0.000000 0.000000 0.000000 0.045693 0.000000 0.000000
# 5 0.000000 0.000000 0.000000 0.000000 0.035354 0.000000
# 6 0.000000 0.000000 0.000000 0.000000 0.000000 0.023143
#
#
# Mechanical properties :
#
#
# Convention : Reuss Voigt Hill
#
# Bulk Modulus (GPa) = 32.27914 38.27716 35.27815
# Shear Modulus (GPa) = 29.16913 32.41778 30.79345
#
# Velocity S-wave (km/s) = 3.60307 3.79842 3.70204
# Velocity P-wave (km/s) = 5.62813 6.02272 5.82876
#
# Compressibility (1/GPa) = 0.03097976
#
# Stress axis : x y z
#
# Youngs Moduli (GPa) = 52.45310 95.16585 69.60975
#
# Poissons Ratio (x) = 0.56692 -0.08528
# Poissons Ratio (y) = 0.31247 0.12163
# Poissons Ratio (z) = -0.06426 0.16628
#
# Static dielectric constant tensor:
#      x y z
#    x 1.834560 0.000000 0.000000 
#    y 0.000000 1.830940 0.000000 
#    z 0.000000 0.000000 1.882280 
# 
# From -- ./inp_files/3432.got.cif
#   From: 2010.05.17/outbox.cif.g08.bks.cpg/sg39_2_cif.got.tgz:3432.got - 2010.06.03 18:22:40.
