data_PCOD9361882
_publ_section_title
;
Structure prediction by ZEFSAII (Michael W. Deem and Ramdas Pophale) SiO2 
 PCOD9361882
Probable space group: A B M 2
;
_chemical_formula_sum "Si O2"
_cell_formula_units_Z 40
_cell_length_a 18.519634
_cell_length_b 16.376757
_cell_length_c 5.196196
_cell_angle_alpha 90.000000
_cell_angle_beta 90.000000
_cell_angle_gamma 90.000000
_cell_volume 1575.962317
_symmetry_space_group_name_H-M "A B M 2"
_symmetry_group_IT_number 39
_symmetry_cell_setting 'orthorhombic'
loop_
_space_group_symop_operation_xyz
x,y,z
-x,-y,z
-x,1/2+y,z
x,1/2-y,z
x,1/2+y,1/2+z
-x,1/2-y,1/2+z
-x,y,1/2+z
x,-y,1/2+z
loop_
_atom_site_type_symbol
_atom_site_label
_atom_site_fract_x
_atom_site_fract_y
_atom_site_fract_z
Si Si1 0.742209 0.056642 0.715760
Si Si2 0.958554 0.349592 0.049038
Si Si3 0.530191 0.407210 0.333093
Si Si4 0.331948 0.342889 0.581462
Si Si5 0.823346 0.156924 0.370797
O O1 0.812291 0.108289 0.634642
O O2 0.737691 0.998558 0.469110
O O3 0.682863 0.124192 0.793520
O O4 0.956018 0.250000 0.040907
O O5 0.883364 0.376954 0.177602
O O6 0.018121 0.374726 0.263563
O O7 0.500000 0.500000 0.367670
O O8 0.518441 0.368306 0.609764
O O9 0.610683 0.400170 0.225882
O O10 0.358382 0.250000 0.581550
O O11 0.254225 0.342459 0.725885
O O12 0.842680 0.250000 0.435167
#
# Coordination Sequence:
#
# PCOD9361882 Si02
#       5
#     8   8   8   8   8
#     4  12  26  43  69 100 139 184 239 287 351 432
#     4   9  19  35  62 100 141 186 238 298 366 428
#     4  10  25  44  69  97 137 183 235 286 360 435
#     4  11  26  46  73 109 146 188 242 306 368 428
#     4  10  23  44  72 107 148 189 246 312 364 424
#
# _framework density 25.381316999999999
#
# number of rings (size 3 to 8) (size 9 to 14) (size 15 to 20)
#    0.000    1.600    2.000    0.600   11.200    0.800 
#    0.000    0.000    0.000    3.600    0.000    0.000 
#    0.000    0.000    0.000    0.000    0.000    0.000 
#
# Total GULP energy -111765.921076 kJ/mol
# GULP energy per Si atom -5588.296054 kJ/mol
# Density = 2.532355 g / cm^3
# Si number density = 25.381317 Si / 1000 Ang^3
#
#
#
# Elastic Constant Matrix: (Units=GPa)
#
#
# Indices 1 2 3 4 5 6 
#
# 1 114.3093 5.8589 0.1194 0.0000 0.0000 0.0000
# 2 5.8589 79.4426 14.8379 0.0000 0.0000 0.0000
# 3 0.1194 14.8379 137.4544 0.0000 0.0000 0.0000
# 4 0.0000 0.0000 0.0000 28.9330 0.0000 0.0000
# 5 0.0000 0.0000 0.0000 0.0000 42.6106 0.0000
# 6 0.0000 0.0000 0.0000 0.0000 0.0000 16.4837
#
#
#
# Elastic Compliance Matrix: (Units=1/GPa)
#
#
# Indices 1 2 3 4 5 6 
#
# 1 0.008782 -0.000660 0.000064 0.000000 0.000000 0.000000
# 2 -0.000660 0.012896 -0.001392 0.000000 0.000000 0.000000
# 3 0.000064 -0.001392 0.007425 0.000000 0.000000 0.000000
# 4 0.000000 0.000000 0.000000 0.034563 0.000000 0.000000
# 5 0.000000 0.000000 0.000000 0.000000 0.023468 0.000000
# 6 0.000000 0.000000 0.000000 0.000000 0.000000 0.060666
#
#
# Mechanical properties :
#
#
# Convention : Reuss Voigt Hill
#
# Bulk Modulus (GPa) = 39.79555 41.42653 40.61104
# Shear Modulus (GPa) = 31.22043 38.29814 34.75928
#
# Velocity S-wave (km/s) = 3.51102 3.88868 3.70467
# Velocity P-wave (km/s) = 5.67005 6.04314 5.85957
#
# Compressibility (1/GPa) = 0.02512844
#
# Stress axis : x y z
#
# Youngs Moduli (GPa) = 113.87014 77.54188 134.67471
#
# Poissons Ratio (x) = 0.05114 -0.00856
# Poissons Ratio (y) = 0.07510 0.18741
# Poissons Ratio (z) = -0.00724 0.10790
#
# Static dielectric constant tensor:
#      x y z
#    x 2.097030 0.000000 0.000000 
#    y 0.000000 3.703190 0.000000 
#    z 0.000000 0.000000 2.059630 
# 
# From -- ./inp_files/751.got.cif
#   From: 2010.05.17/outbox.cif.g08.bks.cpg/sg39_1_cif.got.tgz:751.got - 2010.06.03 18:22:40.
