data_PCOD9361021
_publ_section_title
;
Structure prediction by ZEFSAII (Michael W. Deem and Ramdas Pophale) SiO2 
 PCOD9361021
Probable space group: A B M 2
;
_chemical_formula_sum "Si O2"
_cell_formula_units_Z 36
_cell_length_a 8.221285
_cell_length_b 15.647875
_cell_length_c 13.958978
_cell_angle_alpha 90.000000
_cell_angle_beta 90.000000
_cell_angle_gamma 90.000000
_cell_volume 1795.761659
_symmetry_space_group_name_H-M "A B M 2"
_symmetry_group_IT_number 39
_symmetry_cell_setting 'orthorhombic'
loop_
_space_group_symop_operation_xyz
x,y,z
-x,-y,z
-x,1/2+y,z
x,1/2-y,z
x,1/2+y,1/2+z
-x,1/2-y,1/2+z
-x,y,1/2+z
x,-y,1/2+z
loop_
_atom_site_type_symbol
_atom_site_label
_atom_site_fract_x
_atom_site_fract_y
_atom_site_fract_z
Si Si1 0.334197 0.108888 0.896860
Si Si2 0.338561 0.443992 0.696765
Si Si3 0.000000 0.000000 0.654678
Si Si4 0.012275 0.844798 0.506095
Si Si5 0.323731 0.088875 0.469961
O O1 0.337617 0.122649 0.783077
O O2 0.511576 0.133880 0.935808
O O3 0.320872 0.007224 0.925902
O O4 0.176528 0.149661 0.944729
O O5 0.500000 0.500000 0.710227
O O6 0.167360 0.492602 0.711538
O O7 0.336632 0.416392 0.585955
O O8 0.979741 0.082353 0.586738
O O9 0.996413 0.750000 0.547351
O O10 0.847426 0.866296 0.447874
#
# Coordination Sequence:
#
# PCOD9361021 Si02
#       5
#     8   8   4   8   8
#     4  11  20  35  64  88 119 158 204 246 306 355
#     4  11  19  33  61  94 114 156 205 247 299 363
#     4  10  22  38  62  90 122 160 202 246 306 358
#     4  11  22  40  63  88 123 164 202 247 304 362
#     4  10  20  38  59  89 120 158 204 248 300 357
#
# _framework density 20.047205000000002
#
# number of rings (size 3 to 8) (size 9 to 14) (size 15 to 20)
#    0.000    1.333    8.889    0.000    3.111    0.889 
#    0.000    4.444    0.000    1.333    0.000    0.000 
#    0.000    0.000    0.000    0.000    0.000    0.000 
#
# Total GULP energy -100351.508090 kJ/mol
# GULP energy per Si atom -5575.083783 kJ/mol
# Density = 2.000158 g / cm^3
# Si number density = 20.047205 Si / 1000 Ang^3
#
#
#
# Elastic Constant Matrix: (Units=GPa)
#
#
# Indices 1 2 3 4 5 6 
#
# 1 192.7141 11.6138 11.5825 0.0000 0.0000 0.0000
# 2 11.6138 72.8216 2.8555 0.0000 0.0000 0.0000
# 3 11.5825 2.8555 78.2452 0.0000 0.0000 0.0000
# 4 0.0000 0.0000 0.0000 -74.4524 0.0000 0.0000
# 5 0.0000 0.0000 0.0000 0.0000 -18.1272 0.0000
# 6 0.0000 0.0000 0.0000 0.0000 0.0000 -10.2921
#
#
#
# Elastic Compliance Matrix: (Units=1/GPa)
#
#
# Indices 1 2 3 4 5 6 
#
# 1 0.005283 -0.000813 -0.000752 0.000000 0.000000 0.000000
# 2 -0.000813 0.013877 -0.000386 0.000000 0.000000 0.000000
# 3 -0.000752 -0.000386 0.012906 0.000000 0.000000 0.000000
# 4 0.000000 0.000000 0.000000 -0.013431 0.000000 0.000000
# 5 0.000000 0.000000 0.000000 0.000000 -0.055166 0.000000
# 6 0.000000 0.000000 0.000000 0.000000 0.000000 -0.097162
#
#
# Mechanical properties :
#
#
# Convention : Reuss Voigt Hill
#
# Bulk Modulus (GPa) = 35.50764 43.98715 39.74740
# Shear Modulus (GPa) = -41.52730 0.60761 -20.45985
#
# Velocity S-wave (km/s) = -4.55628 0.55113 -3.19812
# Velocity P-wave (km/s) = 3.15106 4.73227 2.49652
#
# Compressibility (1/GPa) = 0.02816295
#
# Stress axis : x y z
#
# Youngs Moduli (GPa) = 189.27723 72.06166 77.48449
#
# Poissons Ratio (x) = 0.05859 0.05830
# Poissons Ratio (y) = 0.15390 0.02991
# Poissons Ratio (z) = 0.14241 0.02782
#
# Static dielectric constant tensor:
#      x y z
#    x 1.747380 0.000000 0.000000 
#    y 0.000000 1.795410 0.000000 
#    z 0.000000 0.000000 1.696710 
# 
# From -- ./inp_files/8027.got.cif
#   From: 2010.05.17/outbox.cif.g08.bks.cpg/sg39_5_cif.got.tgz:8027.got - 2010.06.03 18:22:40.
