data_PCOD9361540
_publ_section_title
;
Structure prediction by ZEFSAII (Michael W. Deem and Ramdas Pophale) SiO2 
 PCOD9361540
Probable space group: A B M 2
;
_chemical_formula_sum "Si O2"
_cell_formula_units_Z 48
_cell_length_a 14.739314
_cell_length_b 18.275013
_cell_length_c 8.399815
_cell_angle_alpha 90.000000
_cell_angle_beta 90.000000
_cell_angle_gamma 90.000000
_cell_volume 2262.583870
_symmetry_space_group_name_H-M "A B M 2"
_symmetry_group_IT_number 39
_symmetry_cell_setting 'orthorhombic'
loop_
_space_group_symop_operation_xyz
x,y,z
-x,-y,z
-x,1/2+y,z
x,1/2-y,z
x,1/2+y,1/2+z
-x,1/2-y,1/2+z
-x,y,1/2+z
x,-y,1/2+z
loop_
_atom_site_type_symbol
_atom_site_label
_atom_site_fract_x
_atom_site_fract_y
_atom_site_fract_z
Si Si1 0.894019 0.834775 0.582150
Si Si2 0.728543 0.593478 0.436361
Si Si3 0.370019 0.336425 0.922656
Si Si4 0.222002 0.437213 0.073140
Si Si5 0.441295 0.663161 0.065201
Si Si6 0.959028 0.920219 0.888473
O O1 0.911950 0.750000 0.615495
O O2 0.792456 0.846094 0.518453
O O3 0.911637 0.884511 0.736164
O O4 0.962197 0.866923 0.449993
O O5 0.746024 0.518827 0.531858
O O6 0.625246 0.618884 0.450179
O O7 0.760228 0.580707 0.256473
O O8 0.350676 0.250000 0.939311
O O9 0.282548 0.382786 0.966881
O O10 0.453930 0.356360 0.038175
O O11 0.406095 0.349262 0.744005
O O12 0.117305 0.429386 0.024195
O O13 0.434395 0.750000 0.029978
O O14 0.000000 0.000000 0.852996
#
# Coordination Sequence:
#
# PCOD9361540 Si02
#       6
#     8   8   8   8   8   8
#     4  12  26  44  69 102 136 177 230 287 342 412
#     4  12  25  43  66  98 135 177 230 282 346 411
#     4  10  22  41  68 100 137 180 229 282 343 413
#     4  12  26  43  68  97 131 181 229 282 348 415
#     4  10  21  41  67  98 138 181 224 283 347 407
#     4  12  25  45  71  98 135 183 226 283 349 416
#
# _framework density 21.214683000000001
#
# number of rings (size 3 to 8) (size 9 to 14) (size 15 to 20)
#    0.000    0.667    1.667    6.500    0.000    6.000 
#    0.000    3.333    0.000    0.000    0.000    0.000 
#    0.000    0.000    0.000    0.000    0.000    0.000 
#
# Total GULP energy -134454.000919 kJ/mol
# GULP energy per Si atom -5602.250038 kJ/mol
# Density = 2.116640 g / cm^3
# Si number density = 21.214683 Si / 1000 Ang^3
#
#
#
# Elastic Constant Matrix: (Units=GPa)
#
#
# Indices 1 2 3 4 5 6 
#
# 1 79.5342 36.2727 -3.0273 0.0000 0.0000 0.0000
# 2 36.2727 101.5274 31.4426 0.0000 0.0000 0.0000
# 3 -3.0273 31.4426 75.1755 0.0000 0.0000 0.0000
# 4 0.0000 0.0000 0.0000 26.1421 0.0000 0.0000
# 5 0.0000 0.0000 0.0000 0.0000 36.7104 0.0000
# 6 0.0000 0.0000 0.0000 0.0000 0.0000 23.4692
#
#
#
# Elastic Compliance Matrix: (Units=1/GPa)
#
#
# Indices 1 2 3 4 5 6 
#
# 1 0.015756 -0.006693 0.003434 0.000000 0.000000 0.000000
# 2 -0.006693 0.014158 -0.006191 0.000000 0.000000 0.000000
# 3 0.003434 -0.006191 0.016030 0.000000 0.000000 0.000000
# 4 0.000000 0.000000 0.000000 0.038253 0.000000 0.000000
# 5 0.000000 0.000000 0.000000 0.000000 0.027240 0.000000
# 6 0.000000 0.000000 0.000000 0.000000 0.000000 0.042609
#
#
# Mechanical properties :
#
#
# Convention : Reuss Voigt Hill
#
# Bulk Modulus (GPa) = 36.97675 42.84588 39.91131
# Shear Modulus (GPa) = 27.47847 30.03429 28.75638
#
# Velocity S-wave (km/s) = 3.60287 3.76670 3.68570
# Velocity P-wave (km/s) = 5.89705 6.25760 6.08000
#
# Compressibility (1/GPa) = 0.02704402
#
# Stress axis : x y z
#
# Youngs Moduli (GPa) = 63.46723 70.63142 62.38309
#
# Poissons Ratio (x) = 0.47271 -0.21421
# Poissons Ratio (y) = 0.42476 0.38622
# Poissons Ratio (z) = -0.21793 0.43729
#
# Static dielectric constant tensor:
#      x y z
#    x 1.736520 0.000000 0.000000 
#    y 0.000000 1.716880 0.000000 
#    z 0.000000 0.000000 1.772340 
# 
# From -- ./inp_files/3223.got.cif
#   From: 2010.05.17/outbox.cif.g08.bks.cpg/sg39_2_cif.got.tgz:3223.got - 2010.06.03 18:22:40.
