data_PCOD9361385
_publ_section_title
;
Structure prediction by ZEFSAII (Michael W. Deem and Ramdas Pophale) SiO2 
 PCOD9361385
Probable space group: A B M 2
;
_chemical_formula_sum "Si O2"
_cell_formula_units_Z 48
_cell_length_a 8.612759
_cell_length_b 9.713050
_cell_length_c 28.989789
_cell_angle_alpha 90.000000
_cell_angle_beta 90.000000
_cell_angle_gamma 90.000000
_cell_volume 2425.174392
_symmetry_space_group_name_H-M "A B M 2"
_symmetry_group_IT_number 39
_symmetry_cell_setting 'orthorhombic'
loop_
_space_group_symop_operation_xyz
x,y,z
-x,-y,z
-x,1/2+y,z
x,1/2-y,z
x,1/2+y,1/2+z
-x,1/2-y,1/2+z
-x,y,1/2+z
x,-y,1/2+z
loop_
_atom_site_type_symbol
_atom_site_label
_atom_site_fract_x
_atom_site_fract_y
_atom_site_fract_z
Si Si1 0.811338 0.250000 0.569021
Si Si2 0.316952 0.515895 0.631249
Si Si3 0.168426 0.078119 0.813804
Si Si4 0.188876 0.998893 0.915609
Si Si5 0.324666 0.750000 0.470360
Si Si6 0.822548 0.750000 0.584056
Si Si7 0.306802 0.750000 0.978550
Si Si8 0.161056 0.915676 0.727248
O O1 0.728034 0.378691 0.591562
O O2 0.780386 0.250000 0.515473
O O3 0.992179 0.250000 0.580610
O O4 0.500000 0.500000 0.634141
O O5 0.235945 0.377873 0.613901
O O6 0.253760 0.570323 0.679854
O O7 0.162047 0.250000 0.813043
O O8 0.235040 0.019958 0.861882
O O9 0.241036 0.005303 0.768469
O O10 0.000000 0.000000 0.813083
O O11 0.272165 0.122890 0.940510
O O12 0.246750 0.874087 0.946777
O O13 0.000000 0.000000 0.917185
O O14 0.506529 0.750000 0.481780
O O15 0.758118 0.750000 0.531151
O O16 0.139320 0.750000 0.737734
O O17 0.000000 0.000000 0.719127
#
# Coordination Sequence:
#
# PCOD9361385 Si02
#       8
#     4   8   8   8   4   4   4   8
#     4  12  24  46  69  96 129 170 231 274 322 398
#     4  12  26  44  66  98 138 173 216 273 340 396
#     4  10  21  38  67 102 133 172 222 280 327 381
#     4  11  23  41  68  98 131 173 227 275 322 389
#     4  12  24  44  65  94 141 172 217 274 334 404
#     4  12  26  44  71  98 127 180 225 276 322 390
#     4  12  26  42  65  98 135 182 215 268 346 388
#     4  11  23  41  69 102 134 175 223 273 327 395
#
# _framework density 19.792390999999999
#
# number of rings (size 3 to 8) (size 9 to 14) (size 15 to 20)
#    0.000    0.667    1.667    8.000    7.000    0.000 
#    0.000    1.667    0.000    0.000    0.000    0.000 
#    0.000    0.000    0.000    0.000    0.000    0.000 
#
# Total GULP energy -133819.050253 kJ/mol
# GULP energy per Si atom -5575.793761 kJ/mol
# Density = 1.974734 g / cm^3
# Si number density = 19.792391 Si / 1000 Ang^3
#
#
#
# Elastic Constant Matrix: (Units=GPa)
#
#
# Indices 1 2 3 4 5 6 
#
# 1 80.4351 -10.4031 -10.3823 0.0000 0.0000 0.0000
# 2 -10.4031 122.8542 -2.6305 0.0000 0.0000 0.0000
# 3 -10.3823 -2.6305 93.3700 0.0000 0.0000 0.0000
# 4 0.0000 0.0000 0.0000 44.1955 0.0000 0.0000
# 5 0.0000 0.0000 0.0000 0.0000 20.1389 0.0000
# 6 0.0000 0.0000 0.0000 0.0000 0.0000 25.6101
#
#
#
# Elastic Compliance Matrix: (Units=1/GPa)
#
#
# Indices 1 2 3 4 5 6 
#
# 1 0.012763 0.001112 0.001451 0.000000 0.000000 0.000000
# 2 0.001112 0.008241 0.000356 0.000000 0.000000 0.000000
# 3 0.001451 0.000356 0.010881 0.000000 0.000000 0.000000
# 4 0.000000 0.000000 0.000000 0.022627 0.000000 0.000000
# 5 0.000000 0.000000 0.000000 0.000000 0.049655 0.000000
# 6 0.000000 0.000000 0.000000 0.000000 0.000000 0.039047
#
#
# Mechanical properties :
#
#
# Convention : Reuss Voigt Hill
#
# Bulk Modulus (GPa) = 26.50920 27.75860 27.13390
# Shear Modulus (GPa) = 33.34379 39.32727 36.33553
#
# Velocity S-wave (km/s) = 4.10893 4.46240 4.28931
# Velocity P-wave (km/s) = 5.99448 6.37229 6.18627
#
# Compressibility (1/GPa) = 0.03772276
#
# Stress axis : x y z
#
# Youngs Moduli (GPa) = 78.34893 121.33721 91.89998
#
# Poissons Ratio (x) = -0.13491 -0.13331
# Poissons Ratio (y) = -0.08711 -0.03270
# Poissons Ratio (z) = -0.11365 -0.04317
#
# Static dielectric constant tensor:
#      x y z
#    x 1.681210 0.000000 0.000000 
#    y 0.000000 1.601430 0.000000 
#    z 0.000000 0.000000 1.706790 
# 
# From -- ./inp_files/17721.got.cif
#   From: 2010.05.17/outbox.cif.g08.bks.cpg/sg39_9_cif.got.tgz:17721.got - 2010.06.03 18:22:40.
