data_PCOD9361202
_publ_section_title
;
Structure prediction by ZEFSAII (Michael W. Deem and Ramdas Pophale) SiO2 
 PCOD9361202
Probable space group: A B M 2
;
_chemical_formula_sum "Si O2"
_cell_formula_units_Z 48
_cell_length_a 31.044387
_cell_length_b 14.140642
_cell_length_c 5.125848
_cell_angle_alpha 90.000000
_cell_angle_beta 90.000000
_cell_angle_gamma 90.000000
_cell_volume 2250.183520
_symmetry_space_group_name_H-M "A B M 2"
_symmetry_group_IT_number 39
_symmetry_cell_setting 'orthorhombic'
loop_
_space_group_symop_operation_xyz
x,y,z
-x,-y,z
-x,1/2+y,z
x,1/2-y,z
x,1/2+y,1/2+z
-x,1/2-y,1/2+z
-x,y,1/2+z
x,-y,1/2+z
loop_
_atom_site_type_symbol
_atom_site_label
_atom_site_fract_x
_atom_site_fract_y
_atom_site_fract_z
Si Si1 0.528352 0.636768 0.071160
Si Si2 0.324710 0.750000 0.728568
Si Si3 0.731047 0.250000 0.228082
Si Si4 0.976434 0.137193 0.276918
Si Si5 0.790079 0.067242 0.180013
Si Si6 0.113815 0.940927 0.100494
Si Si7 0.623591 0.940234 0.103721
O O1 0.537316 0.750000 0.081757
O O2 0.493804 0.615852 0.295767
O O3 0.572708 0.582476 0.111958
O O4 0.285132 0.750000 0.525576
O O5 0.351923 0.656203 0.668580
O O6 0.308488 0.750000 0.025228
O O7 0.758547 0.155781 0.176202
O O8 0.980148 0.250000 0.289385
O O9 0.928752 0.114372 0.180465
O O10 0.989089 0.101841 0.563224
O O11 0.839671 0.103245 0.162963
O O12 0.784092 0.004441 0.438883
O O13 0.112877 0.031325 0.296511
O O14 0.634381 0.018546 0.320524
#
# Coordination Sequence:
#
# PCOD9361202 Si02
#       7
#     8   4   4   8   8   8   8
#     4  10  21  39  65  95 133 174 218 272 313 363
#     4  12  28  48  64 103 132 161 228 260 316 406
#     4  12  26  44  76  93 124 177 202 262 342 382
#     4  10  21  35  52  80 116 156 199 240 284 351
#     4  10  23  43  66  99 129 155 211 266 315 388
#     4  10  21  37  58  85 117 153 193 248 301 356
#     4  12  26  44  69  97 135 180 216 267 324 373
#
# _framework density 21.331593000000002
#
# number of rings (size 3 to 8) (size 9 to 14) (size 15 to 20)
#    0.000    1.333    0.833    4.000    1.167    8.000 
#    0.000    0.000    0.000    0.000    0.000    0.000 
#    0.000    0.000    0.000    0.000    0.000    0.000 
#
# Total GULP energy -134293.905046 kJ/mol
# GULP energy per Si atom -5595.579377 kJ/mol
# Density = 2.128304 g / cm^3
# Si number density = 21.331593 Si / 1000 Ang^3
#
#
#
# Elastic Constant Matrix: (Units=GPa)
#
#
# Indices 1 2 3 4 5 6 
#
# 1 56.2930 23.9121 -6.1521 0.0000 0.0000 0.0000
# 2 23.9121 68.1356 -8.6212 0.0000 0.0000 0.0000
# 3 -6.1521 -8.6212 65.2782 0.0000 0.0000 0.0000
# 4 0.0000 0.0000 0.0000 17.4159 0.0000 0.0000
# 5 0.0000 0.0000 0.0000 0.0000 24.2604 0.0000
# 6 0.0000 0.0000 0.0000 0.0000 0.0000 30.9122
#
#
#
# Elastic Compliance Matrix: (Units=1/GPa)
#
#
# Indices 1 2 3 4 5 6 
#
# 1 0.020943 -0.007221 0.001020 0.000000 0.000000 0.000000
# 2 -0.007221 0.017416 0.001620 0.000000 0.000000 0.000000
# 3 0.001020 0.001620 0.015629 0.000000 0.000000 0.000000
# 4 0.000000 0.000000 0.000000 0.057419 0.000000 0.000000
# 5 0.000000 0.000000 0.000000 0.000000 0.041219 0.000000
# 6 0.000000 0.000000 0.000000 0.000000 0.000000 0.032350
#
#
# Mechanical properties :
#
#
# Convention : Reuss Voigt Hill
#
# Bulk Modulus (GPa) = 22.30879 23.10936 22.70907
# Shear Modulus (GPa) = 23.91433 26.55557 25.23495
#
# Velocity S-wave (km/s) = 3.35188 3.53213 3.44319
# Velocity P-wave (km/s) = 5.04588 5.24324 5.14551
#
# Compressibility (1/GPa) = 0.04482538
#
# Stress axis : x y z
#
# Youngs Moduli (GPa) = 47.74877 57.41955 63.98334
#
# Poissons Ratio (x) = 0.41462 -0.06527
# Poissons Ratio (y) = 0.34478 -0.10362
# Poissons Ratio (z) = -0.04871 -0.09299
#
# Static dielectric constant tensor:
#      x y z
#    x 1.754740 0.000000 0.000000 
#    y 0.000000 1.749240 0.000000 
#    z 0.000000 0.000000 1.741340 
# 
# From -- ./inp_files/1395.got.cif
#   From: 2010.05.17/outbox.cif.g08.bks.cpg/sg39_1_cif.got.tgz:1395.got - 2010.06.03 18:22:40.
