data_PCOD9361235
_publ_section_title
;
Structure prediction by ZEFSAII (Michael W. Deem and Ramdas Pophale) SiO2 
 PCOD9361235
Probable space group: A B M 2
;
_chemical_formula_sum "Si O2"
_cell_formula_units_Z 44
_cell_length_a 17.164739
_cell_length_b 8.010496
_cell_length_c 14.748843
_cell_angle_alpha 90.000000
_cell_angle_beta 90.000000
_cell_angle_gamma 90.000000
_cell_volume 2027.937493
_symmetry_space_group_name_H-M "A B M 2"
_symmetry_group_IT_number 39
_symmetry_cell_setting 'orthorhombic'
loop_
_space_group_symop_operation_xyz
x,y,z
-x,-y,z
-x,1/2+y,z
x,1/2-y,z
x,1/2+y,1/2+z
-x,1/2-y,1/2+z
-x,y,1/2+z
x,-y,1/2+z
loop_
_atom_site_type_symbol
_atom_site_label
_atom_site_fract_x
_atom_site_fract_y
_atom_site_fract_z
Si Si1 0.000000 0.500000 0.860850
Si Si2 0.713551 0.055641 0.735418
Si Si3 0.703243 0.451140 0.034520
Si Si4 0.881528 0.561172 0.202731
Si Si5 0.882757 0.053712 0.004131
Si Si6 0.589478 0.549014 0.376405
O O1 0.941549 0.426030 0.784853
O O2 0.935183 0.554202 0.935832
O O3 0.721087 0.250000 0.762942
O O4 0.801015 0.983980 0.740919
O O5 0.644456 0.983289 0.795521
O O6 0.693183 0.038311 0.630463
O O7 0.700618 0.250000 0.047283
O O8 0.635335 0.502427 0.966740
O O9 0.790714 0.485968 0.998200
O O10 0.864751 0.750000 0.170829
O O11 0.905092 0.467240 0.110428
O O12 0.894193 0.250000 0.979085
O O13 0.500000 0.500000 0.371743
O O14 0.590326 0.750000 0.373938
#
# Coordination Sequence:
#
# PCOD9361235 Si02
#       6
#     4   8   8   8   8   8
#     4  12  22  32  56  84 112 144 180 228 278 326
#     4   9  19  38  60  80 107 146 186 225 271 324
#     4   9  19  38  60  80 107 146 186 225 271 324
#     4  10  22  39  58  81 110 146 189 232 276 329
#     4  10  22  39  58  81 110 146 189 232 276 329
#     4  10  21  36  56  83 114 144 178 222 273 328
#
# _framework density 21.696923000000002
#
# number of rings (size 3 to 8) (size 9 to 14) (size 15 to 20)
#    0.000    2.182    0.000    2.182    0.000    9.455 
#    0.000    3.636    0.000   13.091    0.000    0.000 
#    0.000    0.000    0.000    0.000    0.000    0.000 
#
# Total GULP energy -122545.905938 kJ/mol
# GULP energy per Si atom -5570.268452 kJ/mol
# Density = 2.164754 g / cm^3
# Si number density = 21.696923 Si / 1000 Ang^3
#
#
#
# Elastic Constant Matrix: (Units=GPa)
#
#
# Indices 1 2 3 4 5 6 
#
# 1 144.7053 19.3457 74.4193 0.0000 0.0000 0.0000
# 2 19.3457 24.1868 16.3482 0.0000 0.0000 0.0000
# 3 74.4193 16.3482 104.1536 0.0000 0.0000 0.0000
# 4 0.0000 0.0000 0.0000 6.8613 0.0000 0.0000
# 5 0.0000 0.0000 0.0000 0.0000 -1.4163 0.0000
# 6 0.0000 0.0000 0.0000 0.0000 0.0000 67.8563
#
#
#
# Elastic Compliance Matrix: (Units=1/GPa)
#
#
# Indices 1 2 3 4 5 6 
#
# 1 0.011259 -0.003992 -0.007419 0.000000 0.000000 0.000000
# 2 -0.003992 0.047667 -0.004630 0.000000 0.000000 0.000000
# 3 -0.007419 -0.004630 0.015629 0.000000 0.000000 0.000000
# 4 0.000000 0.000000 0.000000 0.145744 0.000000 0.000000
# 5 0.000000 0.000000 0.000000 0.000000 -0.706078 0.000000
# 6 0.000000 0.000000 0.000000 0.000000 0.000000 0.014737
#
#
# Mechanical properties :
#
#
# Convention : Reuss Voigt Hill
#
# Bulk Modulus (GPa) = 23.54328 54.80803 39.17565
# Shear Modulus (GPa) = -11.77013 25.52243 6.87615
#
# Velocity S-wave (km/s) = -2.33165 3.43347 1.78215
# Velocity P-wave (km/s) = 1.90415 6.40577 4.72544
#
# Compressibility (1/GPa) = 0.04247497
#
# Stress axis : x y z
#
# Youngs Moduli (GPa) = 88.81435 20.97894 63.98537
#
# Poissons Ratio (x) = 0.08374 0.47468
# Poissons Ratio (y) = 0.35451 0.29624
# Poissons Ratio (z) = 0.65887 0.09713
#
# Static dielectric constant tensor:
#      x y z
#    x 1.800750 0.000000 0.000000 
#    y 0.000000 1.839510 0.000000 
#    z 0.000000 0.000000 1.762900 
# 
# From -- ./inp_files/9976.got.cif
#   From: 2010.05.17/outbox.cif.g08.bks.cpg/sg39_5_cif.got.tgz:9976.got - 2010.06.03 18:22:40.
