data_PCOD9361530
_publ_section_title
;
Structure prediction by ZEFSAII (Michael W. Deem and Ramdas Pophale) SiO2 
 PCOD9361530
Probable space group: A B M 2
;
_chemical_formula_sum "Si O2"
_cell_formula_units_Z 48
_cell_length_a 9.190213
_cell_length_b 18.608563
_cell_length_c 14.313060
_cell_angle_alpha 90.000000
_cell_angle_beta 90.000000
_cell_angle_gamma 90.000000
_cell_volume 2447.771681
_symmetry_space_group_name_H-M "A B M 2"
_symmetry_group_IT_number 39
_symmetry_cell_setting 'orthorhombic'
loop_
_space_group_symop_operation_xyz
x,y,z
-x,-y,z
-x,1/2+y,z
x,1/2-y,z
x,1/2+y,1/2+z
-x,1/2-y,1/2+z
-x,y,1/2+z
x,-y,1/2+z
loop_
_atom_site_type_symbol
_atom_site_label
_atom_site_fract_x
_atom_site_fract_y
_atom_site_fract_z
Si Si1 0.300989 0.942654 0.574450
Si Si2 0.100448 0.067934 0.249310
Si Si3 0.372491 0.103688 0.570042
Si Si4 0.803411 0.169385 0.909951
Si Si5 0.860182 0.669580 0.946402
Si Si6 0.163528 0.334034 0.723756
O O1 0.215152 0.952409 0.670848
O O2 0.456156 0.903727 0.586969
O O3 0.209693 0.893585 0.504865
O O4 0.323997 0.023632 0.539586
O O5 0.185117 0.107866 0.332174
O O6 0.987800 0.125393 0.205472
O O7 0.000000 0.000000 0.278635
O O8 0.319498 0.154844 0.486465
O O9 0.289155 0.129200 0.663181
O O10 0.787681 0.250000 0.869531
O O11 0.964756 0.166989 0.955253
O O12 0.812732 0.750000 0.975334
O O13 0.821000 0.660853 0.836420
O O14 0.154905 0.250000 0.699753
#
# Coordination Sequence:
#
# PCOD9361530 Si02
#       6
#     8   8   8   8   8   8
#     4  11  25  39  58  94 125 166 213 253 314 384
#     4  11  22  40  66  96 122 165 213 269 317 373
#     4  11  24  40  59  88 132 167 206 258 313 383
#     4  10  23  41  64  95 124 162 212 265 319 377
#     4   9  21  39  63  90 120 155 208 264 311 372
#     4  10  21  41  65  91 123 164 209 263 317 374
#
# _framework density 19.609670999999999
#
# number of rings (size 3 to 8) (size 9 to 14) (size 15 to 20)
#    0.000    1.667    1.667    3.000    4.667    5.333 
#    0.000    5.000    0.000    0.000    0.000    0.000 
#    0.000    0.000    0.000    0.000    0.000    0.000 
#
# Total GULP energy -134001.425389 kJ/mol
# GULP energy per Si atom -5583.392725 kJ/mol
# Density = 1.956504 g / cm^3
# Si number density = 19.609671 Si / 1000 Ang^3
#
#
#
# Elastic Constant Matrix: (Units=GPa)
#
#
# Indices 1 2 3 4 5 6 
#
# 1 26.6220 18.3099 11.7101 0.0000 0.0000 0.0000
# 2 18.3099 96.9089 22.1191 0.0000 0.0000 0.0000
# 3 11.7101 22.1191 35.8749 0.0000 0.0000 0.0000
# 4 0.0000 0.0000 0.0000 33.9554 0.0000 0.0000
# 5 0.0000 0.0000 0.0000 0.0000 -6.7282 0.0000
# 6 0.0000 0.0000 0.0000 0.0000 0.0000 22.1204
#
#
#
# Elastic Compliance Matrix: (Units=1/GPa)
#
#
# Indices 1 2 3 4 5 6 
#
# 1 0.046898 -0.006246 -0.011457 0.000000 0.000000 0.000000
# 2 -0.006246 0.012841 -0.005878 0.000000 0.000000 0.000000
# 3 -0.011457 -0.005878 0.035239 0.000000 0.000000 0.000000
# 4 0.000000 0.000000 0.000000 0.029450 0.000000 0.000000
# 5 0.000000 0.000000 0.000000 0.000000 -0.148627 0.000000
# 6 0.000000 0.000000 0.000000 0.000000 0.000000 0.045207
#
#
# Mechanical properties :
#
#
# Convention : Reuss Voigt Hill
#
# Bulk Modulus (GPa) = 20.91404 29.29822 25.10613
# Shear Modulus (GPa) = 59.44614 17.02063 38.23338
#
# Velocity S-wave (km/s) = 5.51185 2.94933 4.42035
# Velocity P-wave (km/s) = 7.15512 5.15473 6.23566
#
# Compressibility (1/GPa) = 0.04781477
#
# Stress axis : x y z
#
# Youngs Moduli (GPa) = 21.32272 77.87694 28.37777
#
# Poissons Ratio (x) = 0.48641 0.32513
# Poissons Ratio (y) = 0.13318 0.16682
# Poissons Ratio (z) = 0.24430 0.45779
#
# Static dielectric constant tensor:
#      x y z
#    x 1.666460 0.000000 0.000000 
#    y 0.000000 1.701990 0.000000 
#    z 0.000000 0.000000 1.682080 
# 
# From -- ./inp_files/8341.got.cif
#   From: 2010.05.17/outbox.cif.g08.bks.cpg/sg39_5_cif.got.tgz:8341.got - 2010.06.03 18:22:40.
