data_PCOD9361862
_publ_section_title
;
Structure prediction by ZEFSAII (Michael W. Deem and Ramdas Pophale) SiO2 
 PCOD9361862
Probable space group: A B M 2
;
_chemical_formula_sum "Si O2"
_cell_formula_units_Z 64
_cell_length_a 22.171446
_cell_length_b 15.638359
_cell_length_c 8.979171
_cell_angle_alpha 90.000000
_cell_angle_beta 90.000000
_cell_angle_gamma 90.000000
_cell_volume 3113.303353
_symmetry_space_group_name_H-M "A B M 2"
_symmetry_group_IT_number 39
_symmetry_cell_setting 'orthorhombic'
loop_
_space_group_symop_operation_xyz
x,y,z
-x,-y,z
-x,1/2+y,z
x,1/2-y,z
x,1/2+y,1/2+z
-x,1/2-y,1/2+z
-x,y,1/2+z
x,-y,1/2+z
loop_
_atom_site_type_symbol
_atom_site_label
_atom_site_fract_x
_atom_site_fract_y
_atom_site_fract_z
Si Si1 0.183116 0.346208 0.020650
Si Si2 0.733663 0.002211 0.633054
Si Si3 0.059790 0.403882 0.524626
Si Si4 0.820701 0.655047 0.670664
Si Si5 0.571847 0.151614 0.402496
Si Si6 0.558561 0.651098 0.258462
Si Si7 0.649597 0.011503 0.883663
Si Si8 0.062818 0.406623 0.167852
O O1 0.206831 0.250000 0.039777
O O2 0.231835 0.416519 0.066924
O O3 0.123319 0.359041 0.118857
O O4 0.166246 0.357283 0.846751
O O5 0.775868 0.919948 0.624198
O O6 0.669627 0.986081 0.554433
O O7 0.713611 0.020684 0.800970
O O8 0.117951 0.352537 0.577887
O O9 0.056534 0.410423 0.346123
O O10 0.067623 0.498035 0.598089
O O11 0.997476 0.368732 0.592976
O O12 0.794552 0.750000 0.651763
O O13 0.590587 0.250000 0.374308
O O14 0.508967 0.135976 0.317877
O O15 0.560928 0.142116 0.579891
O O16 0.620096 0.080936 0.356665
O O17 0.574074 0.750000 0.294374
O O18 0.604079 0.585225 0.334928
#
# Coordination Sequence:
#
# PCOD9361862 Si02
#       8
#     8   8   8   8   8   8   8   8
#     4  11  25  45  68  93 130 175 218 271 333 391
#     4  12  26  44  65  95 128 174 224 268 316 379
#     4  11  22  39  67  98 130 168 215 270 333 394
#     4  11  25  45  67  94 131 172 218 274 331 390
#     4  10  23  43  68  98 134 170 211 262 323 381
#     4  10  23  43  67  99 134 169 210 264 321 381
#     4  12  25  42  69  95 129 173 220 267 314 383
#     4  11  22  39  67  98 129 169 214 270 333 395
#
# _framework density 20.556943
#
# number of rings (size 3 to 8) (size 9 to 14) (size 15 to 20)
#    0.000    1.000    3.750    3.375    3.500    4.000 
#    0.000    0.000    0.000    0.000    0.000    0.000 
#    0.000    0.000    0.000    0.000    0.000    0.000 
#
# Total GULP energy -178900.679978 kJ/mol
# GULP energy per Si atom -5590.646249 kJ/mol
# Density = 2.051015 g / cm^3
# Si number density = 20.556943 Si / 1000 Ang^3
#
#
#
# Elastic Constant Matrix: (Units=GPa)
#
#
# Indices 1 2 3 4 5 6 
#
# 1 69.8870 46.5497 43.5506 0.0000 0.0000 0.0000
# 2 46.5497 98.6780 60.5886 0.0000 0.0000 0.0000
# 3 43.5506 60.5886 110.9412 0.0000 0.0000 0.0000
# 4 0.0000 0.0000 0.0000 25.9113 0.0000 0.0000
# 5 0.0000 0.0000 0.0000 0.0000 45.5173 0.0000
# 6 0.0000 0.0000 0.0000 0.0000 0.0000 -28.0806
#
#
#
# Elastic Compliance Matrix: (Units=1/GPa)
#
#
# Indices 1 2 3 4 5 6 
#
# 1 0.022277 -0.007732 -0.004522 0.000000 0.000000 0.000000
# 2 -0.007732 0.017930 -0.006757 0.000000 0.000000 0.000000
# 3 -0.004522 -0.006757 0.014479 0.000000 0.000000 0.000000
# 4 0.000000 0.000000 0.000000 0.038593 0.000000 0.000000
# 5 0.000000 0.000000 0.000000 0.000000 0.021970 0.000000
# 6 0.000000 0.000000 0.000000 0.000000 0.000000 -0.035612
#
#
# Mechanical properties :
#
#
# Convention : Reuss Voigt Hill
#
# Bulk Modulus (GPa) = 60.01027 64.54266 62.27647
# Shear Modulus (GPa) = 40.57946 17.25742 28.91844
#
# Velocity S-wave (km/s) = 4.44780 2.90055 3.75473
# Velocity P-wave (km/s) = 7.45874 6.53320 7.01126
#
# Compressibility (1/GPa) = 0.01666381
#
# Stress axis : x y z
#
# Youngs Moduli (GPa) = 44.88931 55.77141 69.06444
#
# Poissons Ratio (x) = 0.43123 0.31232
# Poissons Ratio (y) = 0.34709 0.46667
# Poissons Ratio (z) = 0.20300 0.37685
#
# Static dielectric constant tensor:
#      x y z
#    x 1.706160 0.000000 0.000000 
#    y 0.000000 1.735300 0.000000 
#    z 0.000000 0.000000 1.712150 
# 
# From -- ./inp_files/4090.got.cif
#   From: 2010.05.17/outbox.cif.g08.bks.cpg/sg39_3_cif.got.tgz:4090.got - 2010.06.03 18:22:40.
