data_PCOD9361557
_publ_section_title
;
Structure prediction by ZEFSAII (Michael W. Deem and Ramdas Pophale) SiO2 
 PCOD9361557
Probable space group: A B M 2
;
_chemical_formula_sum "Si O2"
_cell_formula_units_Z 48
_cell_length_a 9.266600
_cell_length_b 27.789345
_cell_length_c 8.996633
_cell_angle_alpha 90.000000
_cell_angle_beta 90.000000
_cell_angle_gamma 90.000000
_cell_volume 2316.747654
_symmetry_space_group_name_H-M "A B M 2"
_symmetry_group_IT_number 39
_symmetry_cell_setting 'orthorhombic'
loop_
_space_group_symop_operation_xyz
x,y,z
-x,-y,z
-x,1/2+y,z
x,1/2-y,z
x,1/2+y,1/2+z
-x,1/2-y,1/2+z
-x,y,1/2+z
x,-y,1/2+z
loop_
_atom_site_type_symbol
_atom_site_label
_atom_site_fract_x
_atom_site_fract_y
_atom_site_fract_z
Si Si1 0.985233 0.361405 0.661300
Si Si2 0.404701 0.141582 0.411643
Si Si3 0.870864 0.304044 0.928465
Si Si4 0.225992 0.063005 0.593577
Si Si5 0.665914 0.616532 0.079065
Si Si6 0.664152 0.018787 0.401385
O O1 0.944593 0.345391 0.827373
O O2 0.830354 0.366569 0.583709
O O3 0.075838 0.317786 0.591512
O O4 0.078350 0.409677 0.637279
O O5 0.300231 0.187435 0.413974
O O6 0.330790 0.103948 0.526029
O O7 0.395803 0.120236 0.246024
O O8 0.566029 0.147623 0.469246
O O9 0.909288 0.250000 0.886361
O O10 0.287623 0.038698 0.742087
O O11 0.229491 0.022263 0.465801
O O12 0.662742 0.562641 0.017431
O O13 0.500000 0.000000 0.392023
#
# Coordination Sequence:
#
# PCOD9361557 Si02
#       6
#     8   8   8   8   8   8
#     4  10  23  42  66  94 131 173 204 269 334 391
#     4  10  22  39  62  90 124 164 210 268 324 390
#     4  10  21  42  68  96 125 163 213 265 330 407
#     4  11  23  40  61  92 129 167 225 264 324 374
#     4  11  22  40  63  89 125 168 216 262 324 377
#     4  12  23  36  64  92 125 175 225 269 307 380
#
# _framework density 20.718698
#
# number of rings (size 3 to 8) (size 9 to 14) (size 15 to 20)
#    0.000    1.333    1.667    4.000    0.000    2.000 
#    0.000    5.833    0.000    0.000    0.000    0.000 
#    0.000    0.000    0.000    0.000    0.000    0.000 
#
# Total GULP energy -134085.631322 kJ/mol
# GULP energy per Si atom -5586.901305 kJ/mol
# Density = 2.067154 g / cm^3
# Si number density = 20.718698 Si / 1000 Ang^3
#
#
#
# Elastic Constant Matrix: (Units=GPa)
#
#
# Indices 1 2 3 4 5 6 
#
# 1 59.3606 23.3913 21.2700 0.0000 0.0000 0.0000
# 2 23.3913 62.6104 37.4869 0.0000 0.0000 0.0000
# 3 21.2700 37.4869 69.6473 0.0000 0.0000 0.0000
# 4 0.0000 0.0000 0.0000 19.6570 0.0000 0.0000
# 5 0.0000 0.0000 0.0000 0.0000 35.0360 0.0000
# 6 0.0000 0.0000 0.0000 0.0000 0.0000 23.4872
#
#
#
# Elastic Compliance Matrix: (Units=1/GPa)
#
#
# Indices 1 2 3 4 5 6 
#
# 1 0.020201 -0.005685 -0.003109 0.000000 0.000000 0.000000
# 2 -0.005685 0.025166 -0.011809 0.000000 0.000000 0.000000
# 3 -0.003109 -0.011809 0.021664 0.000000 0.000000 0.000000
# 4 0.000000 0.000000 0.000000 0.050873 0.000000 0.000000
# 5 0.000000 0.000000 0.000000 0.000000 0.028542 0.000000
# 6 0.000000 0.000000 0.000000 0.000000 0.000000 0.042576
#
#
# Mechanical properties :
#
#
# Convention : Reuss Voigt Hill
#
# Bulk Modulus (GPa) = 38.72473 39.54607 39.13540
# Shear Modulus (GPa) = 20.93478 22.93404 21.93441
#
# Velocity S-wave (km/s) = 3.18217 3.33066 3.25726
# Velocity P-wave (km/s) = 5.67741 5.82405 5.75120
#
# Compressibility (1/GPa) = 0.02582329
#
# Stress axis : x y z
#
# Youngs Moduli (GPa) = 49.50341 39.73545 46.16009
#
# Poissons Ratio (x) = 0.22591 0.14351
# Poissons Ratio (y) = 0.28145 0.54511
# Poissons Ratio (z) = 0.15391 0.46924
#
# Static dielectric constant tensor:
#      x y z
#    x 1.759850 0.000000 0.000000 
#    y 0.000000 1.728680 0.000000 
#    z 0.000000 0.000000 1.763270 
# 
# From -- ./inp_files/2289.got.cif
#   From: 2010.05.17/outbox.cif.g08.bks.cpg/sg39_2_cif.got.tgz:2289.got - 2010.06.03 18:22:40.
