data_PCOD9361447
_publ_section_title
;
Structure prediction by ZEFSAII (Michael W. Deem and Ramdas Pophale) SiO2 
 PCOD9361447
Probable space group: A B M 2
;
_chemical_formula_sum "Si O2"
_cell_formula_units_Z 60
_cell_length_a 11.826840
_cell_length_b 23.390105
_cell_length_c 9.234605
_cell_angle_alpha 90.000000
_cell_angle_beta 90.000000
_cell_angle_gamma 90.000000
_cell_volume 2554.578287
_symmetry_space_group_name_H-M "A B M 2"
_symmetry_group_IT_number 39
_symmetry_cell_setting 'orthorhombic'
loop_
_space_group_symop_operation_xyz
x,y,z
-x,-y,z
-x,1/2+y,z
x,1/2-y,z
x,1/2+y,1/2+z
-x,1/2-y,1/2+z
-x,y,1/2+z
x,-y,1/2+z
loop_
_atom_site_type_symbol
_atom_site_label
_atom_site_fract_x
_atom_site_fract_y
_atom_site_fract_z
Si Si1 0.246161 0.114125 0.057510
Si Si2 0.137322 0.680945 0.028179
Si Si3 0.413214 0.050922 0.578184
Si Si4 0.921706 0.680858 0.850492
Si Si5 0.464269 0.613662 0.354571
Si Si6 0.158738 0.512742 0.113554
Si Si7 0.000000 0.000000 0.869358
Si Si8 0.662827 0.183509 0.833463
O O1 0.179111 0.055980 0.097563
O O2 0.294658 0.145610 0.198951
O O3 0.163472 0.154787 0.967009
O O4 0.353803 0.103628 0.951763
O O5 0.132469 0.750000 0.038101
O O6 0.105685 0.660133 0.188163
O O7 0.261153 0.666246 0.971318
O O8 0.046669 0.665205 0.905236
O O9 0.442904 0.069126 0.415910
O O10 0.440222 0.101421 0.688858
O O11 0.500000 0.000000 0.614418
O O12 0.284301 0.035537 0.602624
O O13 0.912806 0.750000 0.852525
O O14 0.530907 0.672919 0.365620
O O15 0.091427 0.526983 0.260096
O O16 0.080155 0.533665 0.981412
O O17 0.684351 0.250000 0.801955
#
# Coordination Sequence:
#
# PCOD9361447 Si02
#       8
#     8   8   8   8   8   8   4   8
#     4  12  25  42  67 103 133 184 237 286 361 428
#     4   9  20  40  65  93 130 187 237 286 350 413
#     4  12  25  46  76 102 139 182 239 299 345 424
#     4  10  21  39  65  96 135 182 238 291 347 423
#     4  12  26  45  68 108 130 181 243 280 364 424
#     4  11  25  47  72 102 146 182 233 294 355 432
#     4  10  26  48  70 104 144 188 220 288 380 418
#     4  11  25  45  66  97 146 186 234 301 354 423
#
# _framework density 23.487242999999999
#
# number of rings (size 3 to 8) (size 9 to 14) (size 15 to 20)
#    0.000    1.067    2.667    2.400    5.600    5.333 
#    2.400    0.000    0.000    0.000    0.000    0.000 
#    0.000    0.000    0.000    0.000    0.000    0.000 
#
# Total GULP energy -167890.500285 kJ/mol
# GULP energy per Si atom -5596.350009 kJ/mol
# Density = 2.343378 g / cm^3
# Si number density = 23.487243 Si / 1000 Ang^3
#
#
#
# Elastic Constant Matrix: (Units=GPa)
#
#
# Indices 1 2 3 4 5 6 
#
# 1 146.3087 21.2162 29.9453 0.0000 0.0000 0.0000
# 2 21.2162 78.5527 22.2973 0.0000 0.0000 0.0000
# 3 29.9453 22.2973 124.0741 0.0000 0.0000 0.0000
# 4 0.0000 0.0000 0.0000 20.5503 0.0000 0.0000
# 5 0.0000 0.0000 0.0000 0.0000 39.8014 0.0000
# 6 0.0000 0.0000 0.0000 0.0000 0.0000 34.3216
#
#
#
# Elastic Compliance Matrix: (Units=1/GPa)
#
#
# Indices 1 2 3 4 5 6 
#
# 1 0.007368 -0.001565 -0.001497 0.000000 0.000000 0.000000
# 2 -0.001565 0.013747 -0.002093 0.000000 0.000000 0.000000
# 3 -0.001497 -0.002093 0.008797 0.000000 0.000000 0.000000
# 4 0.000000 0.000000 0.000000 0.048661 0.000000 0.000000
# 5 0.000000 0.000000 0.000000 0.000000 0.025125 0.000000
# 6 0.000000 0.000000 0.000000 0.000000 0.000000 0.029136
#
#
# Mechanical properties :
#
#
# Convention : Reuss Voigt Hill
#
# Bulk Modulus (GPa) = 51.01378 55.09477 53.05427
# Shear Modulus (GPa) = 33.40494 37.29978 35.35236
#
# Velocity S-wave (km/s) = 3.77538 3.98940 3.88386
# Velocity P-wave (km/s) = 6.38526 6.68795 6.53836
#
# Compressibility (1/GPa) = 0.01960255
#
# Stress axis : x y z
#
# Youngs Moduli (GPa) = 135.71791 72.74290 113.67385
#
# Poissons Ratio (x) = 0.11385 0.17018
# Poissons Ratio (y) = 0.21242 0.23789
# Poissons Ratio (z) = 0.20318 0.15223
#
# Static dielectric constant tensor:
#      x y z
#    x 1.884030 0.000000 0.000000 
#    y 0.000000 1.920700 0.000000 
#    z 0.000000 0.000000 1.825170 
# 
# From -- ./inp_files/2826.got.cif
#   From: 2010.05.17/outbox.cif.g08.bks.cpg/sg39_2_cif.got.tgz:2826.got - 2010.06.03 18:22:40.
