data_PCOD9361890
_publ_section_title
;
Structure prediction by ZEFSAII (Michael W. Deem and Ramdas Pophale) SiO2 
 PCOD9361890
Probable space group: A B M 2
;
_chemical_formula_sum "Si O2"
_cell_formula_units_Z 40
_cell_length_a 7.356964
_cell_length_b 20.906957
_cell_length_c 11.093000
_cell_angle_alpha 90.000000
_cell_angle_beta 90.000000
_cell_angle_gamma 90.000000
_cell_volume 1706.233521
_symmetry_space_group_name_H-M "A B M 2"
_symmetry_group_IT_number 39
_symmetry_cell_setting 'orthorhombic'
loop_
_space_group_symop_operation_xyz
x,y,z
-x,-y,z
-x,1/2+y,z
x,1/2-y,z
x,1/2+y,1/2+z
-x,1/2-y,1/2+z
-x,y,1/2+z
x,-y,1/2+z
loop_
_atom_site_type_symbol
_atom_site_label
_atom_site_fract_x
_atom_site_fract_y
_atom_site_fract_z
Si Si1 0.275657 0.182124 0.744950
Si Si2 0.596535 0.059931 0.102298
Si Si3 0.084011 0.936066 0.922731
Si Si4 0.158064 0.820487 0.755745
Si Si5 0.720223 0.135789 0.502686
O O1 0.340938 0.250000 0.693680
O O2 0.355286 0.118539 0.688074
O O3 0.057939 0.179745 0.728452
O O4 0.311084 0.179562 0.887286
O O5 0.443032 0.085817 0.011700
O O6 0.500000 0.000000 0.165840
O O7 0.776879 0.043531 0.027211
O O8 0.182101 0.883291 0.838403
O O9 0.000000 0.000000 0.861504
O O10 0.911849 0.899239 0.978768
O O11 0.200532 0.750000 0.809911
O O12 0.260996 0.829171 0.630204
#
# Coordination Sequence:
#
# PCOD9361890 Si02
#       5
#     8   8   8   8   8
#     4  10  24  45  70 103 141 184 235 286 344 420
#     4  12  26  44  72 102 140 187 238 285 346 412
#     4  11  24  46  71 101 141 186 235 289 345 408
#     4  10  23  45  74 102 140 186 228 287 355 413
#     4  11  24  44  70 103 140 185 229 290 345 412
#
# _framework density 23.443451
#
# number of rings (size 3 to 8) (size 9 to 14) (size 15 to 20)
#    0.000    1.200    4.000    0.600    2.800    8.000 
#    0.000    0.000    0.000    0.000    0.000    0.000 
#    0.000    0.000    0.000    0.000    0.000    0.000 
#
# Total GULP energy -111825.233122 kJ/mol
# GULP energy per Si atom -5591.261656 kJ/mol
# Density = 2.339009 g / cm^3
# Si number density = 23.443451 Si / 1000 Ang^3
#
#
#
# Elastic Constant Matrix: (Units=GPa)
#
#
# Indices 1 2 3 4 5 6 
#
# 1 64.3318 11.2004 5.4833 0.0000 0.0000 0.0000
# 2 11.2004 189.7775 47.0657 0.0000 0.0000 0.0000
# 3 5.4833 47.0657 61.0500 0.0000 0.0000 0.0000
# 4 0.0000 0.0000 0.0000 -27.4787 0.0000 0.0000
# 5 0.0000 0.0000 0.0000 0.0000 3.3485 0.0000
# 6 0.0000 0.0000 0.0000 0.0000 0.0000 50.1762
#
#
#
# Elastic Compliance Matrix: (Units=1/GPa)
#
#
# Indices 1 2 3 4 5 6 
#
# 1 0.015742 -0.000715 -0.000863 0.000000 0.000000 0.000000
# 2 -0.000715 0.006547 -0.004983 0.000000 0.000000 0.000000
# 3 -0.000863 -0.004983 0.020299 0.000000 0.000000 0.000000
# 4 0.000000 0.000000 0.000000 -0.036392 0.000000 0.000000
# 5 0.000000 0.000000 0.000000 0.000000 0.298642 0.000000
# 6 0.000000 0.000000 0.000000 0.000000 0.000000 0.019930
#
#
# Mechanical properties :
#
#
# Convention : Reuss Voigt Hill
#
# Bulk Modulus (GPa) = 33.93635 49.18424 41.56029
# Shear Modulus (GPa) = 14.37961 21.96985 18.17473
#
# Velocity S-wave (km/s) = 2.47933 3.06460 2.78737
# Velocity P-wave (km/s) = 4.76480 5.79205 5.30336
#
# Compressibility (1/GPa) = 0.02946693
#
# Stress axis : x y z
#
# Youngs Moduli (GPa) = 63.52256 152.73110 49.26246
#
# Poissons Ratio (x) = 0.10923 0.04249
# Poissons Ratio (y) = 0.04543 0.24550
# Poissons Ratio (z) = 0.05479 0.76113
#
# Static dielectric constant tensor:
#      x y z
#    x 1.877890 0.000000 0.000000 
#    y 0.000000 2.280010 0.000000 
#    z 0.000000 0.000000 1.851260 
# 
# From -- ./inp_files/5047.got.cif
#   From: 2010.05.17/outbox.cif.g08.bks.cpg/sg39_3_cif.got.tgz:5047.got - 2010.06.03 18:22:40.
