data_PCOD9361303
_publ_section_title
;
Structure prediction by ZEFSAII (Michael W. Deem and Ramdas Pophale) SiO2 
 PCOD9361303
Probable space group: A B M 2
;
_chemical_formula_sum "Si O2"
_cell_formula_units_Z 64
_cell_length_a 14.471965
_cell_length_b 17.742936
_cell_length_c 10.445865
_cell_angle_alpha 90.000000
_cell_angle_beta 90.000000
_cell_angle_gamma 90.000000
_cell_volume 2682.238540
_symmetry_space_group_name_H-M "A B M 2"
_symmetry_group_IT_number 39
_symmetry_cell_setting 'orthorhombic'
loop_
_space_group_symop_operation_xyz
x,y,z
-x,-y,z
-x,1/2+y,z
x,1/2-y,z
x,1/2+y,1/2+z
-x,1/2-y,1/2+z
-x,y,1/2+z
x,-y,1/2+z
loop_
_atom_site_type_symbol
_atom_site_label
_atom_site_fract_x
_atom_site_fract_y
_atom_site_fract_z
Si Si1 0.780391 0.614678 0.538480
Si Si2 0.191927 0.334464 0.985466
Si Si3 0.400412 0.341473 0.893463
Si Si4 0.073130 0.332014 0.736989
Si Si5 0.931469 0.943406 0.346456
Si Si6 0.783306 0.963211 0.167954
Si Si7 0.325156 0.165960 0.313460
Si Si8 0.490073 0.163837 0.646866
O O1 0.835536 0.655548 0.650812
O O2 0.864948 0.604078 0.437219
O O3 0.747710 0.532921 0.587045
O O4 0.695993 0.653401 0.463672
O O5 0.199767 0.250000 0.040698
O O6 0.294582 0.354602 0.933460
O O7 0.115291 0.330325 0.878277
O O8 0.168649 0.402347 0.077577
O O9 0.410603 0.250000 0.888515
O O10 0.416787 0.371392 0.748044
O O11 0.467410 0.367432 0.012393
O O12 0.033633 0.250000 0.701565
O O13 0.991729 0.392470 0.750567
O O14 0.859968 0.993690 0.265171
O O15 0.000000 0.000000 0.418013
O O16 0.715917 0.908911 0.247136
O O17 0.285478 0.250000 0.287862
O O18 0.425191 0.168653 0.249328
O O19 0.461595 0.250000 0.616799
#
# Coordination Sequence:
#
# PCOD9361303 Si02
#       8
#     8   8   8   8   8   8   8   8
#     4  11  25  40  62  89 123 162 208 262 316 385
#     4  10  21  37  59  90 125 160 204 259 316 377
#     4   9  17  32  57  90 127 162 207 261 321 382
#     4  11  25  40  59  90 124 159 207 264 321 372
#     4  11  24  41  61  84 116 161 210 255 311 381
#     4  11  22  38  65  88 119 163 208 255 311 383
#     4  10  21  40  65  94 126 161 212 264 316 377
#     4   9  17  32  58  93 126 163 208 264 321 381
#
# _framework density 23.860666999999999
#
# number of rings (size 3 to 8) (size 9 to 14) (size 15 to 20)
#    0.000    1.750    2.500    1.500    5.250    4.000 
#    0.000    3.750    0.000    0.750    0.000    0.000 
#    0.000    0.000    0.000    0.000    0.000    0.000 
#
# Total GULP energy -178401.222351 kJ/mol
# GULP energy per Si atom -5575.038198 kJ/mol
# Density = 2.380636 g / cm^3
# Si number density = 23.860667 Si / 1000 Ang^3
#
#
#
# Elastic Constant Matrix: (Units=GPa)
#
#
# Indices 1 2 3 4 5 6 
#
# 1 51.3462 16.0985 0.4898 0.0000 0.0000 0.0000
# 2 16.0985 67.3825 -5.0157 0.0000 0.0000 0.0000
# 3 0.4898 -5.0157 52.5379 0.0000 0.0000 0.0000
# 4 0.0000 0.0000 0.0000 -74.1080 0.0000 0.0000
# 5 0.0000 0.0000 0.0000 0.0000 32.1379 0.0000
# 6 0.0000 0.0000 0.0000 0.0000 0.0000 -3.8128
#
#
#
# Elastic Compliance Matrix: (Units=1/GPa)
#
#
# Indices 1 2 3 4 5 6 
#
# 1 0.021077 -0.005086 -0.000682 0.000000 0.000000 0.000000
# 2 -0.005086 0.016174 0.001592 0.000000 0.000000 0.000000
# 3 -0.000682 0.001592 0.019192 0.000000 0.000000 0.000000
# 4 0.000000 0.000000 0.000000 -0.013494 0.000000 0.000000
# 5 0.000000 0.000000 0.000000 0.000000 0.031116 0.000000
# 6 0.000000 0.000000 0.000000 0.000000 0.000000 -0.262271
#
#
# Mechanical properties :
#
#
# Convention : Reuss Voigt Hill
#
# Bulk Modulus (GPa) = 20.79446 21.60129 21.19788
# Shear Modulus (GPa) = -30.52087 1.48968 -14.51559
#
# Velocity S-wave (km/s) = -3.58037 0.79100 -2.46915
# Velocity P-wave (km/s) = 2.89106 3.14754 0.88000
#
# Compressibility (1/GPa) = 0.04808973
#
# Stress axis : x y z
#
# Youngs Moduli (GPa) = 47.44551 61.82649 52.10454
#
# Poissons Ratio (x) = 0.31447 0.03554
# Poissons Ratio (y) = 0.24132 -0.08293
# Poissons Ratio (z) = 0.03236 -0.09840
#
# Static dielectric constant tensor:
#      x y z
#    x 1.932310 0.000000 0.000000 
#    y 0.000000 1.884220 0.000000 
#    z 0.000000 0.000000 2.017120 
# 
# From -- ./inp_files/6622.got.cif
#   From: 2010.05.17/outbox.cif.g08.bks.cpg/sg39_4_cif.got.tgz:6622.got - 2010.06.03 18:22:40.
