data_PCOD9361117
_publ_section_title
;
Structure prediction by ZEFSAII (Michael W. Deem and Ramdas Pophale) SiO2 
 PCOD9361117
Probable space group: A B M 2
;
_chemical_formula_sum "Si O2"
_cell_formula_units_Z 32
_cell_length_a 11.538339
_cell_length_b 13.529973
_cell_length_c 8.334928
_cell_angle_alpha 90.000000
_cell_angle_beta 90.000000
_cell_angle_gamma 90.000000
_cell_volume 1301.194075
_symmetry_space_group_name_H-M "A B M 2"
_symmetry_group_IT_number 39
_symmetry_cell_setting 'orthorhombic'
loop_
_space_group_symop_operation_xyz
x,y,z
-x,-y,z
-x,1/2+y,z
x,1/2-y,z
x,1/2+y,1/2+z
-x,1/2-y,1/2+z
-x,y,1/2+z
x,-y,1/2+z
loop_
_atom_site_type_symbol
_atom_site_label
_atom_site_fract_x
_atom_site_fract_y
_atom_site_fract_z
Si Si1 0.863245 0.516074 0.907910
Si Si2 0.759964 0.633964 0.608918
Si Si3 0.545613 0.368799 0.911396
Si Si4 0.323432 0.369333 0.087720
O O1 0.820224 0.574785 0.751897
O O2 0.000000 0.500000 0.912286
O O3 0.817506 0.405839 0.945034
O O4 0.799179 0.581605 0.046070
O O5 0.774887 0.750000 0.634327
O O6 0.625114 0.614886 0.569251
O O7 0.537337 0.250000 0.895003
O O8 0.612814 0.400504 0.751833
O O9 0.415486 0.401911 0.949538
O O10 0.312640 0.250000 0.086237
#
# Coordination Sequence:
#
# PCOD9361117 Si02
#       4
#     8   8   8   8
#     4  12  26  45  69 102 143 196 256 299 359 448
#     4  11  25  46  71 102 143 187 241 310 369 431
#     4   9  19  38  69 110 149 192 248 306 382 459
#     4  10  20  39  71 110 154 197 245 314 379 445
#
# _framework density 24.592796
#
# number of rings (size 3 to 8) (size 9 to 14) (size 15 to 20)
#    0.000    1.500    0.000    4.500    0.000    7.000 
#    0.000   10.000    0.000    0.000    0.000    0.000 
#    0.000    0.000    0.000    0.000    0.000    0.000 
#
# Total GULP energy -89448.662300 kJ/mol
# GULP energy per Si atom -5590.541394 kJ/mol
# Density = 2.453682 g / cm^3
# Si number density = 24.592796 Si / 1000 Ang^3
#
#
#
# Elastic Constant Matrix: (Units=GPa)
#
#
# Indices 1 2 3 4 5 6 
#
# 1 164.7941 74.5237 62.6911 0.0000 0.0000 0.0000
# 2 74.5237 150.1557 74.2346 0.0000 0.0000 0.0000
# 3 62.6911 74.2346 147.8309 0.0000 0.0000 0.0000
# 4 0.0000 0.0000 0.0000 47.1878 0.0000 0.0000
# 5 0.0000 0.0000 0.0000 0.0000 23.0066 0.0000
# 6 0.0000 0.0000 0.0000 0.0000 0.0000 5.5912
#
#
#
# Elastic Compliance Matrix: (Units=1/GPa)
#
#
# Indices 1 2 3 4 5 6 
#
# 1 0.008210 -0.003131 -0.001910 0.000000 0.000000 0.000000
# 2 -0.003131 0.010053 -0.003720 0.000000 0.000000 0.000000
# 3 -0.001910 -0.003720 0.009443 0.000000 0.000000 0.000000
# 4 0.000000 0.000000 0.000000 0.021192 0.000000 0.000000
# 5 0.000000 0.000000 0.000000 0.000000 0.043466 0.000000
# 6 0.000000 0.000000 0.000000 0.000000 0.000000 0.178853
#
#
# Mechanical properties :
#
#
# Convention : Reuss Voigt Hill
#
# Bulk Modulus (GPa) = 98.19251 98.40885 98.30068
# Shear Modulus (GPa) = 17.11545 31.91253 24.51399
#
# Velocity S-wave (km/s) = 2.64096 3.60618 3.16063
# Velocity P-wave (km/s) = 7.02236 7.57902 7.30600
#
# Compressibility (1/GPa) = 0.01018408
#
# Stress axis : x y z
#
# Youngs Moduli (GPa) = 121.79536 99.47311 105.90298
#
# Poissons Ratio (x) = 0.31143 0.20224
# Poissons Ratio (y) = 0.38132 0.39401
# Poissons Ratio (z) = 0.23259 0.37009
#
# Static dielectric constant tensor:
#      x y z
#    x 1.947540 0.000000 0.000000 
#    y 0.000000 1.996520 0.000000 
#    z 0.000000 0.000000 2.068320 
# 
# From -- ./inp_files/2422.got.cif
#   From: 2010.05.17/outbox.cif.g08.bks.cpg/sg39_2_cif.got.tgz:2422.got - 2010.06.03 18:22:40.
