data_PCOD9361214
_publ_section_title
;
Structure prediction by ZEFSAII (Michael W. Deem and Ramdas Pophale) SiO2 
 PCOD9361214
Probable space group: A B M 2
;
_chemical_formula_sum "Si O2"
_cell_formula_units_Z 64
_cell_length_a 20.558349
_cell_length_b 14.264841
_cell_length_c 11.609341
_cell_angle_alpha 90.000000
_cell_angle_beta 90.000000
_cell_angle_gamma 90.000000
_cell_volume 3404.573681
_symmetry_space_group_name_H-M "A B M 2"
_symmetry_group_IT_number 39
_symmetry_cell_setting 'orthorhombic'
loop_
_space_group_symop_operation_xyz
x,y,z
-x,-y,z
-x,1/2+y,z
x,1/2-y,z
x,1/2+y,1/2+z
-x,1/2-y,1/2+z
-x,y,1/2+z
x,-y,1/2+z
loop_
_atom_site_type_symbol
_atom_site_label
_atom_site_fract_x
_atom_site_fract_y
_atom_site_fract_z
Si Si1 0.817213 0.357283 0.980760
Si Si2 0.968352 0.603462 0.474485
Si Si3 0.527617 0.641891 0.806435
Si Si4 0.406943 0.462243 0.245364
Si Si5 0.721921 0.510549 0.881824
Si Si6 0.371413 0.358070 0.017479
Si Si7 0.973502 0.894163 0.736359
Si Si8 0.177784 0.643363 0.252436
O O1 0.815537 0.250000 0.937910
O O2 0.890214 0.396844 0.964028
O O3 0.763085 0.423176 0.926667
O O4 0.805869 0.355426 0.117473
O O5 0.982880 0.643857 0.604221
O O6 0.000000 0.500000 0.476684
O O7 0.994291 0.646403 0.353591
O O8 0.522999 0.750000 0.766864
O O9 0.562952 0.565895 0.723717
O O10 0.457188 0.595234 0.826204
O O11 0.573445 0.640369 0.918517
O O12 0.336885 0.475847 0.301686
O O13 0.401416 0.400961 0.131838
O O14 0.687220 0.574571 0.978350
O O15 0.772118 0.577054 0.815786
O O16 0.350812 0.250000 0.032105
O O17 0.896520 0.890882 0.759731
O O18 0.000000 0.000000 0.729856
O O19 0.181280 0.750000 0.296583
#
# Coordination Sequence:
#
# PCOD9361214 Si02
#       8
#     8   8   8   8   8   8   8   8
#     4  10  22  38  56  81 115 151 189 236 286 338
#     4   9  17  32  54  79 109 146 187 235 291 345
#     4   9  20  38  58  81 111 146 182 222 275 340
#     4  10  21  35  58  86 112 143 184 232 282 327
#     4  11  21  37  58  81 110 149 192 230 276 336
#     4  10  21  38  59  84 114 145 181 232 283 328
#     4   9  17  31  54  81 109 143 184 234 290 344
#     4  10  21  38  58  80 110 151 193 231 278 343
#
# _framework density 18.798242999999999
#
# number of rings (size 3 to 8) (size 9 to 14) (size 15 to 20)
#    0.000    2.250    0.000    3.000    0.000    6.000 
#    0.000    1.875    0.000    5.250    0.000    0.000 
#    0.000    0.000    0.000    0.000    0.000    0.000 
#
# Total GULP energy -178302.515094 kJ/mol
# GULP energy per Si atom -5571.953597 kJ/mol
# Density = 1.875546 g / cm^3
# Si number density = 18.798243 Si / 1000 Ang^3
#
#
#
# Elastic Constant Matrix: (Units=GPa)
#
#
# Indices 1 2 3 4 5 6 
#
# 1 84.8450 65.2820 32.8875 0.0000 0.0000 0.0000
# 2 65.2820 156.3765 24.5186 0.0000 0.0000 0.0000
# 3 32.8875 24.5186 76.4936 0.0000 0.0000 0.0000
# 4 0.0000 0.0000 0.0000 17.3019 0.0000 0.0000
# 5 0.0000 0.0000 0.0000 0.0000 7.6002 0.0000
# 6 0.0000 0.0000 0.0000 0.0000 0.0000 -187.2491
#
#
#
# Elastic Compliance Matrix: (Units=1/GPa)
#
#
# Indices 1 2 3 4 5 6 
#
# 1 0.019791 -0.007294 -0.006171 0.000000 0.000000 0.000000
# 2 -0.007294 0.009422 0.000116 0.000000 0.000000 0.000000
# 3 -0.006171 0.000116 0.015689 0.000000 0.000000 0.000000
# 4 0.000000 0.000000 0.000000 0.057797 0.000000 0.000000
# 5 0.000000 0.000000 0.000000 0.000000 0.131575 0.000000
# 6 0.000000 0.000000 0.000000 0.000000 0.000000 -0.005340
#
#
# Mechanical properties :
#
#
# Convention : Reuss Voigt Hill
#
# Bulk Modulus (GPa) = 54.93496 62.56572 58.75034
# Shear Modulus (GPa) = 19.10596 -19.46761 -0.18082
#
# Velocity S-wave (km/s) = 3.19151 -3.22158 -0.31048
# Velocity P-wave (km/s) = 6.54736 4.41780 5.58502
#
# Compressibility (1/GPa) = 0.01820334
#
# Stress axis : x y z
#
# Youngs Moduli (GPa) = 50.52916 106.13710 63.73998
#
# Poissons Ratio (x) = 0.77421 0.39332
# Poissons Ratio (y) = 0.36858 -0.00740
# Poissons Ratio (z) = 0.31180 -0.01233
#
# Static dielectric constant tensor:
#      x y z
#    x 1.622090 0.000000 0.000000 
#    y 0.000000 1.658540 0.000000 
#    z 0.000000 0.000000 1.675160 
# 
# From -- ./inp_files/6876.got.cif
#   From: 2010.05.17/outbox.cif.g08.bks.cpg/sg39_4_cif.got.tgz:6876.got - 2010.06.03 18:22:40.
