data_PCOD9361358
_publ_section_title
;
Structure prediction by ZEFSAII (Michael W. Deem and Ramdas Pophale) SiO2 
 PCOD9361358
Probable space group: A B M 2
;
_chemical_formula_sum "Si O2"
_cell_formula_units_Z 48
_cell_length_a 15.526868
_cell_length_b 8.716409
_cell_length_c 19.115449
_cell_angle_alpha 90.000000
_cell_angle_beta 90.000000
_cell_angle_gamma 90.000000
_cell_volume 2587.056806
_symmetry_space_group_name_H-M "A B M 2"
_symmetry_group_IT_number 39
_symmetry_cell_setting 'orthorhombic'
loop_
_space_group_symop_operation_xyz
x,y,z
-x,-y,z
-x,1/2+y,z
x,1/2-y,z
x,1/2+y,1/2+z
-x,1/2-y,1/2+z
-x,y,1/2+z
x,-y,1/2+z
loop_
_atom_site_type_symbol
_atom_site_label
_atom_site_fract_x
_atom_site_fract_y
_atom_site_fract_z
Si Si1 0.905611 0.566529 0.004910
Si Si2 0.405583 0.566451 0.508934
Si Si3 0.752085 0.567214 0.596514
Si Si4 0.093170 0.433734 0.351694
Si Si5 0.594413 0.933463 0.844770
Si Si6 0.252829 0.433395 0.251470
O O1 0.908367 0.750000 0.004812
O O2 0.834266 0.506520 0.058152
O O3 0.000000 0.500000 0.021960
O O4 0.884256 0.506796 0.926816
O O5 0.500000 0.500000 0.525135
O O6 0.405533 0.750000 0.517932
O O7 0.332797 0.491574 0.556489
O O8 0.387844 0.533230 0.426839
O O9 0.757247 0.750000 0.592054
O O10 0.748860 0.513341 0.676499
O O11 0.086949 0.250000 0.360005
O O12 0.166460 0.468792 0.295375
O O13 0.000000 0.500000 0.331245
O O14 0.594309 0.750000 0.835836
O O15 0.500000 0.000000 0.828722
O O16 0.666338 0.008903 0.796503
O O17 0.257736 0.250000 0.242403
#
# Coordination Sequence:
#
# PCOD9361358 Si02
#       6
#     8   8   8   8   8   8
#     4  11  22  39  63  89 118 152 194 241 289 343
#     4  10  21  39  63  90 119 152 194 241 290 344
#     4  12  25  40  59  85 119 157 197 240 291 348
#     4  10  21  38  62  89 117 151 192 239 288 341
#     4  10  21  38  62  89 116 150 191 238 289 343
#     4  11  24  40  58  84 119 156 195 239 289 345
#
# _framework density 18.553902999999998
#
# number of rings (size 3 to 8) (size 9 to 14) (size 15 to 20)
#    0.000    1.333    0.000    7.000    0.000    8.667 
#    0.000    5.000    0.000    0.000    0.000    0.000 
#    0.000    0.000    0.000    0.000    0.000    0.000 
#
# Total GULP energy -134248.253850 kJ/mol
# GULP energy per Si atom -5593.677244 kJ/mol
# Density = 1.851167 g / cm^3
# Si number density = 18.553903 Si / 1000 Ang^3
#
#
#
# Elastic Constant Matrix: (Units=GPa)
#
#
# Indices 1 2 3 4 5 6 
#
# 1 144.9991 86.7321 119.0124 0.0000 0.0000 0.0000
# 2 86.7321 133.8405 86.1015 0.0000 0.0000 0.0000
# 3 119.0124 86.1015 127.3408 0.0000 0.0000 0.0000
# 4 0.0000 0.0000 0.0000 24.2770 0.0000 0.0000
# 5 0.0000 0.0000 0.0000 0.0000 -32.1474 0.0000
# 6 0.0000 0.0000 0.0000 0.0000 0.0000 32.6722
#
#
#
# Elastic Compliance Matrix: (Units=1/GPa)
#
#
# Indices 1 2 3 4 5 6 
#
# 1 0.030073 -0.002490 -0.026423 0.000000 0.000000 0.000000
# 2 -0.002490 0.013430 -0.006753 0.000000 0.000000 0.000000
# 3 -0.026423 -0.006753 0.037114 0.000000 0.000000 0.000000
# 4 0.000000 0.000000 0.000000 0.041191 0.000000 0.000000
# 5 0.000000 0.000000 0.000000 0.000000 -0.031107 0.000000
# 6 0.000000 0.000000 0.000000 0.000000 0.000000 0.030607
#
#
# Mechanical properties :
#
#
# Convention : Reuss Voigt Hill
#
# Bulk Modulus (GPa) = 107.70543 109.98582 108.84563
# Shear Modulus (GPa) = 25.54462 12.58266 19.06364
#
# Velocity S-wave (km/s) = 3.71452 2.60699 3.20890
# Velocity P-wave (km/s) = 8.75060 8.27464 8.51594
#
# Compressibility (1/GPa) = 0.00928458
#
# Stress axis : x y z
#
# Youngs Moduli (GPa) = 33.25190 74.46184 26.94412
#
# Poissons Ratio (x) = 0.18542 0.71194
# Poissons Ratio (y) = 0.08280 0.18196
# Poissons Ratio (z) = 0.87861 0.50285
#
# Static dielectric constant tensor:
#      x y z
#    x 1.611470 0.000000 0.000000 
#    y 0.000000 1.618360 0.000000 
#    z 0.000000 0.000000 1.609340 
# 
# From -- ./inp_files/12658.got.cif
#   From: 2010.05.17/outbox.cif.g08.bks.cpg/sg39_7_cif.got.tgz:12658.got - 2010.06.03 18:22:40.
