data_PCOD9361693
_publ_section_title
;
Structure prediction by ZEFSAII (Michael W. Deem and Ramdas Pophale) SiO2 
 PCOD9361693
Probable space group: A B M 2
;
_chemical_formula_sum "Si O2"
_cell_formula_units_Z 64
_cell_length_a 15.791215
_cell_length_b 8.716025
_cell_length_c 24.160093
_cell_angle_alpha 90.000000
_cell_angle_beta 90.000000
_cell_angle_gamma 90.000000
_cell_volume 3325.313653
_symmetry_space_group_name_H-M "A B M 2"
_symmetry_group_IT_number 39
_symmetry_cell_setting 'orthorhombic'
loop_
_space_group_symop_operation_xyz
x,y,z
-x,-y,z
-x,1/2+y,z
x,1/2-y,z
x,1/2+y,1/2+z
-x,1/2-y,1/2+z
-x,y,1/2+z
x,-y,1/2+z
loop_
_atom_site_type_symbol
_atom_site_label
_atom_site_fract_x
_atom_site_fract_y
_atom_site_fract_z
Si Si1 0.910098 0.432951 0.660090
Si Si2 0.750903 0.567363 0.593751
Si Si3 0.339895 0.566548 0.780408
Si Si4 0.150793 0.934362 0.275292
Si Si5 0.749556 0.435136 0.471190
Si Si6 0.410338 0.566263 0.393778
Si Si7 0.910143 0.434486 0.396935
Si Si8 0.408867 0.566877 0.659116
O O1 0.911641 0.250000 0.658276
O O2 0.832582 0.495047 0.623682
O O3 0.893367 0.488812 0.722805
O O4 0.000000 0.500000 0.641169
O O5 0.754955 0.750000 0.598605
O O6 0.748993 0.515306 0.530222
O O7 0.666910 0.505994 0.624045
O O8 0.328517 0.750000 0.784538
O O9 0.248462 0.486389 0.776762
O O10 0.387809 0.504468 0.834134
O O11 0.389877 0.533815 0.723771
O O12 0.146268 0.750000 0.270105
O O13 0.109307 0.981216 0.333623
O O14 0.752062 0.250000 0.478628
O O15 0.665863 0.471342 0.435649
O O16 0.831961 0.481260 0.435664
O O17 0.500000 0.500000 0.412871
O O18 0.414967 0.750000 0.388701
O O19 0.913394 0.250000 0.397696
O O20 0.000000 0.500000 0.415093
O O21 0.500000 0.500000 0.643709
O O22 0.407941 0.750000 0.651622
#
# Coordination Sequence:
#
# PCOD9361693 Si02
#       8
#     8   8   8   8   8   8   8   8
#     4  12  25  43  66  96 130 169 212 261 317 377
#     4  12  26  44  67  94 124 166 214 267 320 376
#     4  11  22  37  63  96 130 168 208 254 314 378
#     4  11  21  38  64  95 131 169 207 254 315 379
#     4  10  23  45  65  86 124 169 211 264 319 372
#     4  11  23  41  65  93 128 167 209 260 316 374
#     4  10  22  40  63  93 126 166 205 251 310 367
#     4  11  24  42  65  95 129 168 210 259 315 377
#
# _framework density 19.246306000000001
#
# number of rings (size 3 to 8) (size 9 to 14) (size 15 to 20)
#    0.000    1.000    2.500    4.500    0.000    7.000 
#    0.000    2.500    0.000    0.000    0.000    0.000 
#    0.000    0.000    0.000    0.000    0.000    0.000 
#
# Total GULP energy -179059.291040 kJ/mol
# GULP energy per Si atom -5595.602845 kJ/mol
# Density = 1.920250 g / cm^3
# Si number density = 19.246306 Si / 1000 Ang^3
#
#
#
# Elastic Constant Matrix: (Units=GPa)
#
#
# Indices 1 2 3 4 5 6 
#
# 1 195.1891 72.9761 78.4221 0.0000 0.0000 0.0000
# 2 72.9761 97.0840 71.2541 0.0000 0.0000 0.0000
# 3 78.4221 71.2541 138.9438 0.0000 0.0000 0.0000
# 4 0.0000 0.0000 0.0000 29.6298 0.0000 0.0000
# 5 0.0000 0.0000 0.0000 0.0000 -5.3988 0.0000
# 6 0.0000 0.0000 0.0000 0.0000 0.0000 38.5213
#
#
#
# Elastic Compliance Matrix: (Units=1/GPa)
#
#
# Indices 1 2 3 4 5 6 
#
# 1 0.007507 -0.004062 -0.002154 0.000000 0.000000 0.000000
# 2 -0.004062 0.018715 -0.007305 0.000000 0.000000 0.000000
# 3 -0.002154 -0.007305 0.012159 0.000000 0.000000 0.000000
# 4 0.000000 0.000000 0.000000 0.033750 0.000000 0.000000
# 5 0.000000 0.000000 0.000000 0.000000 -0.185225 0.000000
# 6 0.000000 0.000000 0.000000 0.000000 0.000000 0.025960
#
#
# Mechanical properties :
#
#
# Convention : Reuss Voigt Hill
#
# Bulk Modulus (GPa) = 88.18839 97.39126 92.78982
# Shear Modulus (GPa) = -88.79095 26.45476 -31.16809
#
# Velocity S-wave (km/s) = -6.79957 3.71150 -4.02858
# Velocity P-wave (km/s) = 3.96549 8.31140 5.16499
#
# Compressibility (1/GPa) = 0.01133936
#
# Stress axis : x y z
#
# Youngs Moduli (GPa) = 133.20075 53.43251 82.24282
#
# Poissons Ratio (x) = 0.21705 0.17716
# Poissons Ratio (y) = 0.54109 0.60077
# Poissons Ratio (z) = 0.28693 0.39032
#
# Static dielectric constant tensor:
#      x y z
#    x 1.648010 0.000000 0.000000 
#    y 0.000000 1.645690 0.000000 
#    z 0.000000 0.000000 1.647390 
# 
# From -- ./inp_files/16237.got.cif
#   From: 2010.05.17/outbox.cif.g08.bks.cpg/sg39_9_cif.got.tgz:16237.got - 2010.06.03 18:22:40.
