data_PCOD9361610
_publ_section_title
;
Structure prediction by ZEFSAII (Michael W. Deem and Ramdas Pophale) SiO2 
 PCOD9361610
Probable space group: A B M 2
;
_chemical_formula_sum "Si O2"
_cell_formula_units_Z 48
_cell_length_a 8.333796
_cell_length_b 15.507244
_cell_length_c 18.763145
_cell_angle_alpha 90.000000
_cell_angle_beta 90.000000
_cell_angle_gamma 90.000000
_cell_volume 2424.840184
_symmetry_space_group_name_H-M "A B M 2"
_symmetry_group_IT_number 39
_symmetry_cell_setting 'orthorhombic'
loop_
_space_group_symop_operation_xyz
x,y,z
-x,-y,z
-x,1/2+y,z
x,1/2-y,z
x,1/2+y,1/2+z
-x,1/2-y,1/2+z
-x,y,1/2+z
x,-y,1/2+z
loop_
_atom_site_type_symbol
_atom_site_label
_atom_site_fract_x
_atom_site_fract_y
_atom_site_fract_z
Si Si1 0.657451 0.651676 0.672460
Si Si2 0.238055 0.653331 0.015531
Si Si3 0.809866 0.516872 0.781221
Si Si4 0.806061 0.513357 0.938088
Si Si5 0.909640 0.908983 0.072978
Si Si6 0.716183 0.653334 0.210673
O O1 0.720034 0.750000 0.681924
O O2 0.674318 0.630053 0.589209
O O3 0.750736 0.584111 0.721892
O O4 0.470328 0.651699 0.690268
O O5 0.279669 0.750000 0.993328
O O6 0.050862 0.648766 0.039679
O O7 0.265044 0.580127 0.956949
O O8 0.760653 0.546879 0.860599
O O9 0.738388 0.422641 0.766857
O O10 0.000000 0.500000 0.777224
O O11 0.000000 0.500000 0.934996
O O12 0.785826 0.571276 0.008568
O O13 0.824102 0.870757 0.141748
O O14 0.000000 0.000000 0.091005
O O15 0.758897 0.750000 0.234872
#
# Coordination Sequence:
#
# PCOD9361610 Si02
#       6
#     8   8   8   8   8   8
#     4  10  22  38  55  78 108 142 179 220 265 311
#     4   9  16  31  55  77 100 132 173 220 264 310
#     4  11  21  36  56  79 109 142 178 219 263 313
#     4   8  18  33  50  76 105 133 169 216 267 311
#     4   9  17  33  54  79 105 133 175 220 264 312
#     4  11  22  35  54  81 111 142 177 217 262 315
#
# _framework density 19.795121000000002
#
# number of rings (size 3 to 8) (size 9 to 14) (size 15 to 20)
#    0.000    2.667    0.000    4.500    0.000    3.333 
#    0.000   10.833    0.000    4.000    0.000    0.000 
#    0.000    0.000    0.000    0.000    0.000    0.000 
#
# Total GULP energy -133842.660997 kJ/mol
# GULP energy per Si atom -5576.777542 kJ/mol
# Density = 1.975007 g / cm^3
# Si number density = 19.795121 Si / 1000 Ang^3
#
#
#
# Elastic Constant Matrix: (Units=GPa)
#
#
# Indices 1 2 3 4 5 6 
#
# 1 30.5594 12.3653 4.5083 0.0000 0.0000 0.0000
# 2 12.3653 77.7964 14.7368 0.0000 0.0000 0.0000
# 3 4.5083 14.7368 43.0842 0.0000 0.0000 0.0000
# 4 0.0000 0.0000 0.0000 12.2745 0.0000 0.0000
# 5 0.0000 0.0000 0.0000 0.0000 -5.2187 0.0000
# 6 0.0000 0.0000 0.0000 0.0000 0.0000 15.7893
#
#
#
# Elastic Compliance Matrix: (Units=1/GPa)
#
#
# Indices 1 2 3 4 5 6 
#
# 1 0.035115 -0.005224 -0.001888 0.000000 0.000000 0.000000
# 2 -0.005224 0.014522 -0.004420 0.000000 0.000000 0.000000
# 3 -0.001888 -0.004420 0.024920 0.000000 0.000000 0.000000
# 4 0.000000 0.000000 0.000000 0.081470 0.000000 0.000000
# 5 0.000000 0.000000 0.000000 0.000000 -0.191620 0.000000
# 6 0.000000 0.000000 0.000000 0.000000 0.000000 0.063334
#
#
# Mechanical properties :
#
#
# Convention : Reuss Voigt Hill
#
# Bulk Modulus (GPa) = 19.42008 23.85118 21.63563
# Shear Modulus (GPa) = 73.56279 12.55768 43.06023
#
# Velocity S-wave (km/s) = 6.10268 2.52143 4.66907
# Velocity P-wave (km/s) = 7.71290 4.53343 6.32617
#
# Compressibility (1/GPa) = 0.05149309
#
# Stress axis : x y z
#
# Youngs Moduli (GPa) = 28.47759 68.86237 40.12860
#
# Poissons Ratio (x) = 0.35972 0.07575
# Poissons Ratio (y) = 0.14876 0.17739
# Poissons Ratio (z) = 0.05376 0.30440
#
# Static dielectric constant tensor:
#      x y z
#    x 1.722790 0.000000 0.000000 
#    y 0.000000 1.746290 0.000000 
#    z 0.000000 0.000000 1.712400 
# 
# From -- ./inp_files/13933.got.cif
#   From: 2010.05.17/outbox.cif.g08.bks.cpg/sg39_7_cif.got.tgz:13933.got - 2010.06.03 18:22:40.
