data_PCOD9361386
_publ_section_title
;
Structure prediction by ZEFSAII (Michael W. Deem and Ramdas Pophale) SiO2 
 PCOD9361386
Probable space group: A B M 2
;
_chemical_formula_sum "Si O2"
_cell_formula_units_Z 52
_cell_length_a 5.164924
_cell_length_b 27.099574
_cell_length_c 16.604574
_cell_angle_alpha 90.000000
_cell_angle_beta 90.000000
_cell_angle_gamma 90.000000
_cell_volume 2324.096397
_symmetry_space_group_name_H-M "A B M 2"
_symmetry_group_IT_number 39
_symmetry_cell_setting 'orthorhombic'
loop_
_space_group_symop_operation_xyz
x,y,z
-x,-y,z
-x,1/2+y,z
x,1/2-y,z
x,1/2+y,1/2+z
-x,1/2-y,1/2+z
-x,y,1/2+z
x,-y,1/2+z
loop_
_atom_site_type_symbol
_atom_site_label
_atom_site_fract_x
_atom_site_fract_y
_atom_site_fract_z
Si Si1 0.645712 0.809185 0.683400
Si Si2 0.718387 0.904280 0.412270
Si Si3 0.403109 0.645523 0.545072
Si Si4 0.170097 0.750000 0.506279
Si Si5 0.148807 0.666998 0.786205
Si Si6 0.677704 0.250000 0.908720
Si Si7 0.500000 0.500000 0.418624
Si Si8 0.900457 0.549781 0.042060
O O1 0.612536 0.750000 0.673491
O O2 0.646174 0.838459 0.599537
O O3 0.395006 0.832039 0.727557
O O4 0.897585 0.818198 0.736778
O O5 0.502537 0.869210 0.455114
O O6 0.887722 0.880159 0.342754
O O7 0.602259 0.953192 0.371890
O O8 0.877612 0.923649 0.489460
O O9 0.237539 0.696688 0.545492
O O10 0.257705 0.596419 0.577868
O O11 0.376572 0.750000 0.431765
O O12 0.868313 0.750000 0.485025
O O13 0.233141 0.705424 0.854046
O O14 0.287803 0.524316 0.476946
O O15 0.000000 0.500000 0.088490
#
# Coordination Sequence:
#
# PCOD9361386 Si02
#       8
#     8   8   8   4   8   4   4   8
#     4  12  26  44  59  93 141 192 219 268 335 413
#     4  10  21  38  68  98 123 169 224 288 335 404
#     4  11  24  39  64  98 135 178 226 284 338 404
#     4  12  24  36  64 102 134 165 229 290 328 392
#     4  12  25  41  64  90 137 181 228 264 338 409
#     4  12  22  38  60  94 130 171 227 284 322 386
#     4   8  18  36  64 102 122 148 216 288 350 388
#     4   9  19  39  67 101 125 164 221 290 346 392
#
# _framework density 22.374286999999999
#
# number of rings (size 3 to 8) (size 9 to 14) (size 15 to 20)
#    0.000    1.231    3.846    1.846    6.462    0.000 
#    0.000    0.000    0.000    8.308    0.000    0.000 
#    0.000    0.000    0.000    0.000    0.000    0.000 
#
# Total GULP energy -144978.087256 kJ/mol
# GULP energy per Si atom -5576.080279 kJ/mol
# Density = 2.232336 g / cm^3
# Si number density = 22.374287 Si / 1000 Ang^3
#
#
#
# Elastic Constant Matrix: (Units=GPa)
#
#
# Indices 1 2 3 4 5 6 
#
# 1 56.9084 8.0812 22.0296 0.0000 0.0000 0.0000
# 2 8.0812 143.0720 52.1697 0.0000 0.0000 0.0000
# 3 22.0296 52.1697 51.2299 0.0000 0.0000 0.0000
# 4 0.0000 0.0000 0.0000 26.4849 0.0000 0.0000
# 5 0.0000 0.0000 0.0000 0.0000 31.5138 0.0000
# 6 0.0000 0.0000 0.0000 0.0000 0.0000 68.6688
#
#
#
# Elastic Compliance Matrix: (Units=1/GPa)
#
#
# Indices 1 2 3 4 5 6 
#
# 1 0.022151 0.003535 -0.013125 0.000000 0.000000 0.000000
# 2 0.003535 0.011682 -0.013416 0.000000 0.000000 0.000000
# 3 -0.013125 -0.013416 0.038826 0.000000 0.000000 0.000000
# 4 0.000000 0.000000 0.000000 0.037757 0.000000 0.000000
# 5 0.000000 0.000000 0.000000 0.000000 0.031732 0.000000
# 6 0.000000 0.000000 0.000000 0.000000 0.000000 0.014563
#
#
# Mechanical properties :
#
#
# Convention : Reuss Voigt Hill
#
# Bulk Modulus (GPa) = 37.52868 46.19681 41.86274
# Shear Modulus (GPa) = 23.62894 36.59549 30.11222
#
# Velocity S-wave (km/s) = 3.25326 4.04865 3.67255
# Velocity P-wave (km/s) = 5.56068 6.52284 6.06088
#
# Compressibility (1/GPa) = 0.02664629
#
# Stress axis : x y z
#
# Youngs Moduli (GPa) = 45.14508 85.60276 25.75609
#
# Poissons Ratio (x) = -0.30257 0.33804
# Poissons Ratio (y) = -0.15957 0.34555
# Poissons Ratio (z) = 0.59251 1.14845
#
# Static dielectric constant tensor:
#      x y z
#    x 1.934070 0.000000 0.000000 
#    y 0.000000 1.860960 0.000000 
#    z 0.000000 0.000000 1.882740 
# 
# From -- ./inp_files/11141.got.cif
#   From: 2010.05.17/outbox.cif.g08.bks.cpg/sg39_6_cif.got.tgz:11141.got - 2010.06.03 18:22:40.
