data_PCOD9361219
_publ_section_title
;
Structure prediction by ZEFSAII (Michael W. Deem and Ramdas Pophale) SiO2 
 PCOD9361219
Probable space group: A B M 2
;
_chemical_formula_sum "Si O2"
_cell_formula_units_Z 48
_cell_length_a 11.712692
_cell_length_b 17.879090
_cell_length_c 12.006798
_cell_angle_alpha 90.000000
_cell_angle_beta 90.000000
_cell_angle_gamma 90.000000
_cell_volume 2514.370878
_symmetry_space_group_name_H-M "A B M 2"
_symmetry_group_IT_number 39
_symmetry_cell_setting 'orthorhombic'
loop_
_space_group_symop_operation_xyz
x,y,z
-x,-y,z
-x,1/2+y,z
x,1/2-y,z
x,1/2+y,1/2+z
-x,1/2-y,1/2+z
-x,y,1/2+z
x,-y,1/2+z
loop_
_atom_site_type_symbol
_atom_site_label
_atom_site_fract_x
_atom_site_fract_y
_atom_site_fract_z
Si Si1 0.343372 0.573403 0.316080
Si Si2 0.831308 0.571256 0.618682
Si Si3 0.751799 0.594835 0.061344
Si Si4 0.600170 0.400386 0.771082
Si Si5 0.199823 0.334584 0.398706
Si Si6 0.049956 0.336211 0.182927
O O1 0.257617 0.591178 0.215968
O O2 0.289471 0.594384 0.434676
O O3 0.365577 0.483739 0.313129
O O4 0.466600 0.609374 0.291526
O O5 0.813409 0.483454 0.594572
O O6 0.805597 0.611591 0.502813
O O7 0.953036 0.603429 0.656806
O O8 0.642584 0.602899 0.143238
O O9 0.846824 0.655512 0.094342
O O10 0.678246 0.343595 0.839352
O O11 0.180185 0.250000 0.435405
O O12 0.107210 0.352640 0.302983
O O13 0.008395 0.250000 0.182473
#
# Coordination Sequence:
#
# PCOD9361219 Si02
#       6
#     8   8   8   8   8   8
#     4  10  21  35  64  92 118 150 200 254 293 355
#     4  11  22  38  61  93 118 156 206 245 297 358
#     4  10  21  39  61  93 122 153 200 252 298 350
#     4   9  20  37  60  89 119 157 193 242 310 351
#     4  10  21  40  61  84 123 163 198 243 302 361
#     4  10  23  42  61  84 122 164 198 244 305 360
#
# _framework density 19.090263
#
# number of rings (size 3 to 8) (size 9 to 14) (size 15 to 20)
#    0.000    2.000    1.667    1.000    4.667    1.333 
#    0.000    3.333    0.000    0.000    0.000    0.000 
#    0.000    0.000    0.000    0.000    0.000    0.000 
#
# Total GULP energy -133951.396633 kJ/mol
# GULP energy per Si atom -5581.308193 kJ/mol
# Density = 1.904681 g / cm^3
# Si number density = 19.090263 Si / 1000 Ang^3
#
#
#
# Elastic Constant Matrix: (Units=GPa)
#
#
# Indices 1 2 3 4 5 6 
#
# 1 122.6583 27.6982 53.6800 0.0000 0.0000 0.0000
# 2 27.6982 42.8921 27.8915 0.0000 0.0000 0.0000
# 3 53.6800 27.8915 111.6708 0.0000 0.0000 0.0000
# 4 0.0000 0.0000 0.0000 17.1981 0.0000 0.0000
# 5 0.0000 0.0000 0.0000 0.0000 16.4174 0.0000
# 6 0.0000 0.0000 0.0000 0.0000 0.0000 6.7952
#
#
#
# Elastic Compliance Matrix: (Units=1/GPa)
#
#
# Indices 1 2 3 4 5 6 
#
# 1 0.010969 -0.004363 -0.004183 0.000000 0.000000 0.000000
# 2 -0.004363 0.029571 -0.005288 0.000000 0.000000 0.000000
# 3 -0.004183 -0.005288 0.012286 0.000000 0.000000 0.000000
# 4 0.000000 0.000000 0.000000 0.058146 0.000000 0.000000
# 5 0.000000 0.000000 0.000000 0.000000 0.060911 0.000000
# 6 0.000000 0.000000 0.000000 0.000000 0.000000 0.147162
#
#
# Mechanical properties :
#
#
# Convention : Reuss Voigt Hill
#
# Bulk Modulus (GPa) = 39.75032 55.08453 47.41742
# Shear Modulus (GPa) = 14.08056 19.27890 16.67973
#
# Velocity S-wave (km/s) = 2.71879 3.18131 2.95910
# Velocity P-wave (km/s) = 5.54285 6.51243 6.04711
#
# Compressibility (1/GPa) = 0.02515703
#
# Stress axis : x y z
#
# Youngs Moduli (GPa) = 91.16967 33.81719 81.39072
#
# Poissons Ratio (x) = 0.14755 0.34044
# Poissons Ratio (y) = 0.39779 0.43043
# Poissons Ratio (z) = 0.38134 0.17884
#
# Static dielectric constant tensor:
#      x y z
#    x 1.659210 0.000000 0.000000 
#    y 0.000000 1.657630 0.000000 
#    z 0.000000 0.000000 1.638800 
# 
# From -- ./inp_files/5798.got.cif
#   From: 2010.05.17/outbox.cif.g08.bks.cpg/sg39_3_cif.got.tgz:5798.got - 2010.06.03 18:22:40.
