data_PCOD9361071
_publ_section_title
;
Structure prediction by ZEFSAII (Michael W. Deem and Ramdas Pophale) SiO2 
 PCOD9361071
Probable space group: A B M 2
;
_chemical_formula_sum "Si O2"
_cell_formula_units_Z 40
_cell_length_a 8.400623
_cell_length_b 10.303683
_cell_length_c 23.639662
_cell_angle_alpha 90.000000
_cell_angle_beta 90.000000
_cell_angle_gamma 90.000000
_cell_volume 2046.186649
_symmetry_space_group_name_H-M "A B M 2"
_symmetry_group_IT_number 39
_symmetry_cell_setting 'orthorhombic'
loop_
_space_group_symop_operation_xyz
x,y,z
-x,-y,z
-x,1/2+y,z
x,1/2-y,z
x,1/2+y,1/2+z
-x,1/2-y,1/2+z
-x,y,1/2+z
x,-y,1/2+z
loop_
_atom_site_type_symbol
_atom_site_label
_atom_site_fract_x
_atom_site_fract_y
_atom_site_fract_z
Si Si1 0.293992 0.250000 0.363770
Si Si2 0.691007 0.514319 0.676492
Si Si3 0.701199 0.750000 0.233833
Si Si4 0.190600 0.989424 0.938276
Si Si5 0.314529 0.250000 0.754271
Si Si6 0.152296 0.904747 0.059987
Si Si7 0.672872 0.250000 0.384555
O O1 0.242250 0.250000 0.298436
O O2 0.232184 0.378094 0.394102
O O3 0.483743 0.250000 0.374348
O O4 0.500000 0.500000 0.675707
O O5 0.750850 0.375618 0.698312
O O6 0.741153 0.621705 0.722191
O O7 0.746956 0.561998 0.615488
O O8 0.507817 0.750000 0.244209
O O9 0.269436 0.123209 0.918186
O O10 0.238756 0.943595 0.001319
O O11 0.000000 0.000000 0.939505
O O12 0.266061 0.250000 0.819662
O O13 0.113942 0.750000 0.058189
O O14 0.000000 0.000000 0.063437
#
# Coordination Sequence:
#
# PCOD9361071 Si02
#       7
#     4   8   4   8   4   8   4
#     4  11  21  42  65  94 128 159 216 257 300 375
#     4  10  20  38  65  91 122 159 204 254 306 365
#     4   9  20  34  61  94 124 161 196 249 318 367
#     4  11  24  42  63  89 128 170 204 255 320 377
#     4   9  18  38  59  90 128 161 196 249 314 365
#     4  11  25  44  64  86 123 168 206 253 311 371
#     4  11  23  38  69  96 122 165 208 259 308 369
#
# _framework density 19.548558
#
# number of rings (size 3 to 8) (size 9 to 14) (size 15 to 20)
#    0.000    1.600    2.000    2.400    5.600    4.800 
#    0.000    6.000    0.000    0.000    0.000    0.000 
#    0.000    0.000    0.000    0.000    0.000    0.000 
#
# Total GULP energy -111658.545603 kJ/mol
# GULP energy per Si atom -5582.927280 kJ/mol
# Density = 1.950406 g / cm^3
# Si number density = 19.548558 Si / 1000 Ang^3
#
#
#
# Elastic Constant Matrix: (Units=GPa)
#
#
# Indices 1 2 3 4 5 6 
#
# 1 24.5655 20.5865 17.8311 0.0000 0.0000 0.0000
# 2 20.5865 211.2500 91.4999 0.0000 0.0000 0.0000
# 3 17.8311 91.4999 165.5775 0.0000 0.0000 0.0000
# 4 0.0000 0.0000 0.0000 29.9241 0.0000 0.0000
# 5 0.0000 0.0000 0.0000 0.0000 36.7667 0.0000
# 6 0.0000 0.0000 0.0000 0.0000 0.0000 25.9517
#
#
#
# Elastic Compliance Matrix: (Units=1/GPa)
#
#
# Indices 1 2 3 4 5 6 
#
# 1 0.045603 -0.003046 -0.003228 0.000000 0.000000 0.000000
# 2 -0.003046 0.006427 -0.003223 0.000000 0.000000 0.000000
# 3 -0.003228 -0.003223 0.008168 0.000000 0.000000 0.000000
# 4 0.000000 0.000000 0.000000 0.033418 0.000000 0.000000
# 5 0.000000 0.000000 0.000000 0.000000 0.027198 0.000000
# 6 0.000000 0.000000 0.000000 0.000000 0.000000 0.038533
#
#
# Mechanical properties :
#
#
# Convention : Reuss Voigt Hill
#
# Bulk Modulus (GPa) = 24.26965 73.46977 48.86971
# Shear Modulus (GPa) = 26.03126 36.62687 31.32907
#
# Velocity S-wave (km/s) = 3.65310 4.33325 4.00763
# Velocity P-wave (km/s) = 5.49868 7.91839 6.81676
#
# Compressibility (1/GPa) = 0.04120372
#
# Stress axis : x y z
#
# Youngs Moduli (GPa) = 21.92838 155.59924 122.42309
#
# Poissons Ratio (x) = 0.47396 0.39515
# Poissons Ratio (y) = 0.06679 0.39463
# Poissons Ratio (z) = 0.07078 0.50157
#
# Static dielectric constant tensor:
#      x y z
#    x 1.702790 0.000000 0.000000 
#    y 0.000000 1.665650 0.000000 
#    z 0.000000 0.000000 1.677700 
# 
# From -- ./inp_files/15482.got.cif
#   From: 2010.05.17/outbox.cif.g08.bks.cpg/sg39_8_cif.got.tgz:15482.got - 2010.06.03 18:22:40.
