data_PCOD9361374
_publ_section_title
;
Structure prediction by ZEFSAII (Michael W. Deem and Ramdas Pophale) SiO2 
 PCOD9361374
Probable space group: A B M 2
;
_chemical_formula_sum "Si O2"
_cell_formula_units_Z 48
_cell_length_a 9.359569
_cell_length_b 28.824230
_cell_length_c 7.611659
_cell_angle_alpha 90.000000
_cell_angle_beta 90.000000
_cell_angle_gamma 90.000000
_cell_volume 2053.491401
_symmetry_space_group_name_H-M "A B M 2"
_symmetry_group_IT_number 39
_symmetry_cell_setting 'orthorhombic'
loop_
_space_group_symop_operation_xyz
x,y,z
-x,-y,z
-x,1/2+y,z
x,1/2-y,z
x,1/2+y,1/2+z
-x,1/2-y,1/2+z
-x,y,1/2+z
x,-y,1/2+z
loop_
_atom_site_type_symbol
_atom_site_label
_atom_site_fract_x
_atom_site_fract_y
_atom_site_fract_z
Si Si1 0.967625 0.750000 0.153010
Si Si2 0.668857 0.611109 0.753251
Si Si3 0.087464 0.558907 0.704144
Si Si4 0.793068 0.522126 0.843380
Si Si5 0.625986 0.654546 0.387772
Si Si6 0.840810 0.153247 0.566941
Si Si7 0.750993 0.250000 0.988304
O O1 0.921234 0.701973 0.058899
O O2 0.869041 0.750000 0.329128
O O3 0.141166 0.750000 0.155308
O O4 0.665338 0.555119 0.780643
O O5 0.684460 0.623100 0.548164
O O6 0.527262 0.635203 0.831599
O O7 0.790397 0.633588 0.879380
O O8 0.191386 0.533578 0.844833
O O9 0.167511 0.539348 0.535058
O O10 0.072861 0.613098 0.669133
O O11 0.929582 0.540234 0.733137
O O12 0.709245 0.657047 0.202836
O O13 0.649470 0.705606 0.469555
#
# Coordination Sequence:
#
# PCOD9361374 Si02
#       7
#     4   8   8   8   8   8   4
#     4  10  24  43  63 100 138 165 224 275 355 396
#     4  11  24  42  68  93 131 182 228 271 339 400
#     4  10  21  38  63  97 131 165 222 276 351 396
#     4  10  22  37  65  98 129 173 221 277 343 418
#     4  11  24  43  65  91 134 178 229 277 332 400
#     4  10  24  42  65  96 135 169 222 287 329 415
#     4  10  26  41  67 100 132 177 226 285 345 412
#
# _framework density 23.374822000000002
#
# number of rings (size 3 to 8) (size 9 to 14) (size 15 to 20)
#    0.000    1.667    1.667    2.000    9.333    4.000 
#    0.000    0.833    0.000    0.000    0.000    0.000 
#    0.000    0.000    0.000    0.000    0.000    0.000 
#
# Total GULP energy -133766.747519 kJ/mol
# GULP energy per Si atom -5573.614480 kJ/mol
# Density = 2.332162 g / cm^3
# Si number density = 23.374822 Si / 1000 Ang^3
#
#
#
# Elastic Constant Matrix: (Units=GPa)
#
#
# Indices 1 2 3 4 5 6 
#
# 1 75.3570 49.1686 -0.0999 0.0000 0.0000 0.0000
# 2 49.1686 134.3956 40.4396 0.0000 0.0000 0.0000
# 3 -0.0999 40.4396 39.3859 0.0000 0.0000 0.0000
# 4 0.0000 0.0000 0.0000 18.6597 0.0000 0.0000
# 5 0.0000 0.0000 0.0000 0.0000 32.5000 0.0000
# 6 0.0000 0.0000 0.0000 0.0000 0.0000 36.8468
#
#
#
# Elastic Compliance Matrix: (Units=1/GPa)
#
#
# Indices 1 2 3 4 5 6 
#
# 1 0.020318 -0.010779 0.011119 0.000000 0.000000 0.000000
# 2 -0.010779 0.016486 -0.016954 0.000000 0.000000 0.000000
# 3 0.011119 -0.016954 0.042826 0.000000 0.000000 0.000000
# 4 0.000000 0.000000 0.000000 0.053591 0.000000 0.000000
# 5 0.000000 0.000000 0.000000 0.000000 0.030769 0.000000
# 6 0.000000 0.000000 0.000000 0.000000 0.000000 0.027139
#
#
# Mechanical properties :
#
#
# Convention : Reuss Voigt Hill
#
# Bulk Modulus (GPa) = 21.55129 47.57280 34.56204
# Shear Modulus (GPa) = 20.84857 28.24332 24.54594
#
# Velocity S-wave (km/s) = 2.98975 3.47980 3.24404
# Velocity P-wave (km/s) = 4.59979 6.04497 5.37121
#
# Compressibility (1/GPa) = 0.04640094
#
# Stress axis : x y z
#
# Youngs Moduli (GPa) = 49.21765 60.65870 23.35048
#
# Poissons Ratio (x) = 0.65384 -0.25963
# Poissons Ratio (y) = 0.53052 0.39589
# Poissons Ratio (z) = -0.54725 1.02841
#
# Static dielectric constant tensor:
#      x y z
#    x 1.897360 0.000000 0.000000 
#    y 0.000000 2.070870 0.000000 
#    z 0.000000 0.000000 1.956960 
# 
# From -- ./inp_files/2338.got.cif
#   From: 2010.05.17/outbox.cif.g08.bks.cpg/sg39_2_cif.got.tgz:2338.got - 2010.06.03 18:22:40.
