data_PCOD9361242
_publ_section_title
;
Structure prediction by ZEFSAII (Michael W. Deem and Ramdas Pophale) SiO2 
 PCOD9361242
Probable space group: A B M 2
;
_chemical_formula_sum "Si O2"
_cell_formula_units_Z 64
_cell_length_a 8.505441
_cell_length_b 18.424373
_cell_length_c 21.767312
_cell_angle_alpha 90.000000
_cell_angle_beta 90.000000
_cell_angle_gamma 90.000000
_cell_volume 3411.099250
_symmetry_space_group_name_H-M "A B M 2"
_symmetry_group_IT_number 39
_symmetry_cell_setting 'orthorhombic'
loop_
_space_group_symop_operation_xyz
x,y,z
-x,-y,z
-x,1/2+y,z
x,1/2-y,z
x,1/2+y,1/2+z
-x,1/2-y,1/2+z
-x,y,1/2+z
x,-y,1/2+z
loop_
_atom_site_type_symbol
_atom_site_label
_atom_site_fract_x
_atom_site_fract_y
_atom_site_fract_z
Si Si1 0.863875 0.556775 0.764300
Si Si2 0.367529 0.054599 0.661998
Si Si3 0.623149 0.440699 0.373070
Si Si4 0.091343 0.075327 0.572463
Si Si5 0.948954 0.835562 0.175911
Si Si6 0.397884 0.665617 0.720659
Si Si7 0.645457 0.335859 0.866571
Si Si8 0.846479 0.954077 0.432536
O O1 0.745987 0.521584 0.714309
O O2 0.756757 0.576967 0.822701
O O3 0.945898 0.622095 0.726551
O O4 0.000000 0.500000 0.779879
O O5 0.541736 0.880335 0.695250
O O6 0.500000 0.000000 0.641182
O O7 0.258961 0.075874 0.605714
O O8 0.500000 0.500000 0.345446
O O9 0.517045 0.372006 0.391302
O O10 0.707734 0.485555 0.427576
O O11 0.995800 0.137160 0.608177
O O12 0.117134 0.077150 0.499848
O O13 0.000000 0.000000 0.586055
O O14 0.973738 0.750000 0.182712
O O15 0.766211 0.851524 0.187652
O O16 0.432741 0.750000 0.710701
O O17 0.369563 0.655541 0.793200
O O18 0.662599 0.250000 0.880570
O O19 0.786772 0.387189 0.890680
O O20 0.000000 0.000000 0.414020
#
# Coordination Sequence:
#
# PCOD9361242 Si02
#       8
#     8   8   8   8   8   8   8   8
#     4  11  21  31  54  85 121 153 200 245 302 364
#     4  11  20  32  56  84 113 151 191 242 302 358
#     4  10  21  36  58  87 119 161 206 253 302 366
#     4  10  22  42  59  85 117 156 206 262 301 357
#     4  10  22  37  57  87 123 159 199 248 309 372
#     4  10  21  37  56  87 128 160 192 243 311 373
#     4  10  22  40  60  90 132 166 199 258 318 374
#     4  10  23  41  65  87 118 164 220 261 308 365
#
# _framework density 18.762278999999999
#
# number of rings (size 3 to 8) (size 9 to 14) (size 15 to 20)
#    0.000    1.750    1.250    3.750    7.000    4.500 
#    0.000    0.625    0.000    3.750    0.000    0.000 
#    0.000    0.000    0.000    0.000    0.000    0.000 
#
# Total GULP energy -178529.339205 kJ/mol
# GULP energy per Si atom -5579.041850 kJ/mol
# Density = 1.871958 g / cm^3
# Si number density = 18.762279 Si / 1000 Ang^3
#
#
#
# Elastic Constant Matrix: (Units=GPa)
#
#
# Indices 1 2 3 4 5 6 
#
# 1 114.0903 61.2207 40.6030 0.0000 0.0000 0.0000
# 2 61.2207 121.8110 44.3026 0.0000 0.0000 0.0000
# 3 40.6030 44.3026 74.3182 0.0000 0.0000 0.0000
# 4 0.0000 0.0000 0.0000 -134.3903 0.0000 0.0000
# 5 0.0000 0.0000 0.0000 0.0000 26.3003 0.0000
# 6 0.0000 0.0000 0.0000 0.0000 0.0000 28.2058
#
#
#
# Elastic Compliance Matrix: (Units=1/GPa)
#
#
# Indices 1 2 3 4 5 6 
#
# 1 0.012896 -0.005004 -0.004063 0.000000 0.000000 0.000000
# 2 -0.005004 0.012424 -0.004672 0.000000 0.000000 0.000000
# 3 -0.004063 -0.004672 0.018460 0.000000 0.000000 0.000000
# 4 0.000000 0.000000 0.000000 -0.007441 0.000000 0.000000
# 5 0.000000 0.000000 0.000000 0.000000 0.038022 0.000000
# 6 0.000000 0.000000 0.000000 0.000000 0.000000 0.035454
#
#
# Mechanical properties :
#
#
# Convention : Reuss Voigt Hill
#
# Bulk Modulus (GPa) = 61.33982 66.94135 64.14059
# Shear Modulus (GPa) = 35.03210 -5.03730 14.99740
#
# Velocity S-wave (km/s) = 4.32575 -1.64031 2.83032
# Velocity P-wave (km/s) = 7.59695 5.67174 6.70381
#
# Compressibility (1/GPa) = 0.01630262
#
# Stress axis : x y z
#
# Youngs Moduli (GPa) = 77.54459 80.49261 54.16979
#
# Poissons Ratio (x) = 0.40276 0.22008
# Poissons Ratio (y) = 0.38801 0.25309
# Poissons Ratio (z) = 0.31504 0.37608
#
# Static dielectric constant tensor:
#      x y z
#    x 1.676370 0.000000 0.000000 
#    y 0.000000 1.652450 0.000000 
#    z 0.000000 0.000000 1.649380 
# 
# From -- ./inp_files/14240.got.cif
#   From: 2010.05.17/outbox.cif.g08.bks.cpg/sg39_8_cif.got.tgz:14240.got - 2010.06.03 18:22:40.
