data_PCOD9361859
_publ_section_title
;
Structure prediction by ZEFSAII (Michael W. Deem and Ramdas Pophale) SiO2 
 PCOD9361859
Probable space group: A B M 2
;
_chemical_formula_sum "Si O2"
_cell_formula_units_Z 28
_cell_length_a 5.231351
_cell_length_b 17.115506
_cell_length_c 14.227095
_cell_angle_alpha 90.000000
_cell_angle_beta 90.000000
_cell_angle_gamma 90.000000
_cell_volume 1273.854527
_symmetry_space_group_name_H-M "A B M 2"
_symmetry_group_IT_number 39
_symmetry_cell_setting 'orthorhombic'
loop_
_space_group_symop_operation_xyz
x,y,z
-x,-y,z
-x,1/2+y,z
x,1/2-y,z
x,1/2+y,1/2+z
-x,1/2-y,1/2+z
-x,y,1/2+z
x,-y,1/2+z
loop_
_atom_site_type_symbol
_atom_site_label
_atom_site_fract_x
_atom_site_fract_y
_atom_site_fract_z
Si Si1 0.181836 0.394114 0.726660
Si Si2 0.310477 0.159316 0.330870
Si Si3 0.500000 0.500000 0.116736
Si Si4 0.408289 0.663456 0.046447
O O1 0.416126 0.371194 0.795611
O O2 0.265083 0.476416 0.682441
O O3 0.209538 0.340173 0.633246
O O4 0.921863 0.383655 0.780924
O O5 0.293951 0.250000 0.303495
O O6 0.290027 0.155128 0.443335
O O7 0.559217 0.581178 0.062521
O O8 0.535313 0.750000 0.049350
#
# Coordination Sequence:
#
# PCOD9361859 Si02
#       4
#     8   8   4   8
#     4  10  23  43  66  99 142 174 233 286 340 422
#     4  11  22  39  70 103 132 186 230 279 354 410
#     4   8  22  44  66 100 138 190 224 284 360 402
#     4   9  20  42  69 103 143 180 232 291 344 421
#
# _framework density 21.980530999999999
#
# number of rings (size 3 to 8) (size 9 to 14) (size 15 to 20)
#    1.714    0.571    0.000    2.571    0.000    4.571 
#    0.000    2.857    0.000    0.000    0.000    0.000 
#    0.000    0.000    0.000    0.000    0.000    0.000 
#
# Total GULP energy -77955.459158 kJ/mol
# GULP energy per Si atom -5568.247083 kJ/mol
# Density = 2.193050 g / cm^3
# Si number density = 21.980531 Si / 1000 Ang^3
#
#
#
# Elastic Constant Matrix: (Units=GPa)
#
#
# Indices 1 2 3 4 5 6 
#
# 1 84.7872 42.7827 32.8893 0.0000 0.0000 0.0000
# 2 42.7827 193.0004 35.1194 0.0000 0.0000 0.0000
# 3 32.8893 35.1194 133.4951 0.0000 0.0000 0.0000
# 4 0.0000 0.0000 0.0000 47.1679 0.0000 0.0000
# 5 0.0000 0.0000 0.0000 0.0000 18.1894 0.0000
# 6 0.0000 0.0000 0.0000 0.0000 0.0000 25.2766
#
#
#
# Elastic Compliance Matrix: (Units=1/GPa)
#
#
# Indices 1 2 3 4 5 6 
#
# 1 0.014216 -0.002640 -0.002808 0.000000 0.000000 0.000000
# 2 -0.002640 0.005932 -0.000910 0.000000 0.000000 0.000000
# 3 -0.002808 -0.000910 0.008422 0.000000 0.000000 0.000000
# 4 0.000000 0.000000 0.000000 0.021201 0.000000 0.000000
# 5 0.000000 0.000000 0.000000 0.000000 0.054977 0.000000
# 6 0.000000 0.000000 0.000000 0.000000 0.000000 0.039562
#
#
# Mechanical properties :
#
#
# Convention : Reuss Voigt Hill
#
# Bulk Modulus (GPa) = 63.07697 70.31837 66.69767
# Shear Modulus (GPa) = 30.80503 38.15952 34.48227
#
# Velocity S-wave (km/s) = 3.74768 4.17113 3.96506
# Velocity P-wave (km/s) = 6.89100 7.43360 7.16743
#
# Compressibility (1/GPa) = 0.01585365
#
# Stress axis : x y z
#
# Youngs Moduli (GPa) = 70.34510 168.57071 118.73539
#
# Poissons Ratio (x) = 0.44508 0.33338
# Poissons Ratio (y) = 0.18573 0.10807
# Poissons Ratio (z) = 0.19751 0.15342
#
# Static dielectric constant tensor:
#      x y z
#    x 1.741890 0.000000 0.000000 
#    y 0.000000 1.872860 0.000000 
#    z 0.000000 0.000000 1.784880 
# 
# From -- ./inp_files/7208.got.cif
#   From: 2010.05.17/outbox.cif.g08.bks.cpg/sg39_4_cif.got.tgz:7208.got - 2010.06.03 18:22:40.
