data_PCOD9361870
_publ_section_title
;
Structure prediction by ZEFSAII (Michael W. Deem and Ramdas Pophale) SiO2 
 PCOD9361870
Probable space group: A B M 2
;
_chemical_formula_sum "Si O2"
_cell_formula_units_Z 52
_cell_length_a 9.521214
_cell_length_b 14.499174
_cell_length_c 18.594689
_cell_angle_alpha 90.000000
_cell_angle_beta 90.000000
_cell_angle_gamma 90.000000
_cell_volume 2566.991954
_symmetry_space_group_name_H-M "A B M 2"
_symmetry_group_IT_number 39
_symmetry_cell_setting 'orthorhombic'
loop_
_space_group_symop_operation_xyz
x,y,z
-x,-y,z
-x,1/2+y,z
x,1/2-y,z
x,1/2+y,1/2+z
-x,1/2-y,1/2+z
-x,y,1/2+z
x,-y,1/2+z
loop_
_atom_site_type_symbol
_atom_site_label
_atom_site_fract_x
_atom_site_fract_y
_atom_site_fract_z
Si Si1 0.159681 0.486417 0.030480
Si Si2 0.501869 0.142273 0.174603
Si Si3 0.250127 0.083445 0.772622
Si Si4 0.180858 0.912937 0.691103
Si Si5 0.041788 0.250000 0.724021
Si Si6 0.337541 0.360424 0.929996
Si Si7 0.387313 0.641054 0.014996
O O1 0.159586 0.465692 0.115465
O O2 0.252121 0.576593 0.013191
O O3 0.000000 0.500000 0.006378
O O4 0.235464 0.402171 0.990355
O O5 0.532144 0.250000 0.187062
O O6 0.609911 0.086608 0.223527
O O7 0.339869 0.124784 0.190201
O O8 0.536264 0.122702 0.091219
O O9 0.296018 0.095207 0.854641
O O10 0.153437 0.168787 0.749239
O O11 0.173676 0.987791 0.754653
O O12 0.071074 0.831057 0.699601
O O13 0.322741 0.250000 0.926171
O O14 0.497918 0.379747 0.953897
O O15 0.351807 0.750000 0.012318
#
# Coordination Sequence:
#
# PCOD9361870 Si02
#       7
#     8   8   8   8   4   8   8
#     4  12  26  43  69 110 146 190 241 294 376 447
#     4  11  21  42  71 104 139 187 247 305 355 426
#     4  12  25  47  75 103 145 195 245 304 371 437
#     4  12  26  43  71 112 143 192 248 307 366 442
#     4  12  26  46  68 104 158 184 240 304 366 444
#     4  11  25  48  72 102 145 195 241 301 365 435
#     4  10  23  43  73 104 143 191 247 311 361 435
#
# _framework density 20.257172000000001
#
# number of rings (size 3 to 8) (size 9 to 14) (size 15 to 20)
#    0.000    0.615    5.385    2.308    1.077    4.308 
#    0.000    0.000    5.077    0.000    0.000    0.000 
#    0.000    0.000    0.000    0.000    0.000    0.000 
#
# Total GULP energy -144955.625062 kJ/mol
# GULP energy per Si atom -5575.216349 kJ/mol
# Density = 2.021107 g / cm^3
# Si number density = 20.257172 Si / 1000 Ang^3
#
#
#
# Elastic Constant Matrix: (Units=GPa)
#
#
# Indices 1 2 3 4 5 6 
#
# 1 134.5277 42.9329 52.8194 0.0000 0.0000 0.0000
# 2 42.9329 109.3393 52.3907 0.0000 0.0000 0.0000
# 3 52.8194 52.3907 94.2112 0.0000 0.0000 0.0000
# 4 0.0000 0.0000 0.0000 16.0410 0.0000 0.0000
# 5 0.0000 0.0000 0.0000 0.0000 -12.6199 0.0000
# 6 0.0000 0.0000 0.0000 0.0000 0.0000 44.7308
#
#
#
# Elastic Compliance Matrix: (Units=1/GPa)
#
#
# Indices 1 2 3 4 5 6 
#
# 1 0.009745 -0.001647 -0.004547 0.000000 0.000000 0.000000
# 2 -0.001647 0.012747 -0.006165 0.000000 0.000000 0.000000
# 3 -0.004547 -0.006165 0.016592 0.000000 0.000000 0.000000
# 4 0.000000 0.000000 0.000000 0.062340 0.000000 0.000000
# 5 0.000000 0.000000 0.000000 0.000000 -0.079240 0.000000
# 6 0.000000 0.000000 0.000000 0.000000 0.000000 0.022356
#
#
# Mechanical properties :
#
#
# Convention : Reuss Voigt Hill
#
# Bulk Modulus (GPa) = 69.61601 70.48490 70.05045
# Shear Modulus (GPa) = 67.52591 22.29274 44.90932
#
# Velocity S-wave (km/s) = 5.77985 3.32096 4.71357
# Velocity P-wave (km/s) = 8.88724 7.04099 8.01744
#
# Compressibility (1/GPa) = 0.01436451
#
# Stress axis : x y z
#
# Youngs Moduli (GPa) = 102.62196 78.45234 60.27029
#
# Poissons Ratio (x) = 0.12925 0.27405
# Poissons Ratio (y) = 0.16907 0.37155
# Poissons Ratio (z) = 0.46663 0.48363
#
# Static dielectric constant tensor:
#      x y z
#    x 1.701020 0.000000 0.000000 
#    y 0.000000 1.729660 0.000000 
#    z 0.000000 0.000000 1.708880 
# 
# From -- ./inp_files/13991.got.cif
#   From: 2010.05.17/outbox.cif.g08.bks.cpg/sg39_7_cif.got.tgz:13991.got - 2010.06.03 18:22:40.
